REMARK SMILES COC(=O)C1=C(C)N(c2ccccc2)C(=S)N[C@@H]1c1ccc(C(=O)OCCOCCOC(=O)c2ccc(-c3c4nc(c(-c5ccc(S(=O)(=O)[O-])cc5)c5ccc([nH]5)c(-c5ccc(S(=O)(=O)[O-])cc5)c5nc(c(-c6ccc(S(=O)(=O)[O-])cc6)c6ccc3[nH]6)C=C5)C=C4)cc2)cc1
REMARK SMILES IDX 28 1 27 2 26 3 25 4 23 5 24 6 22 7 19 8 20 9 95 10 21 11
REMARK SMILES IDX 94 12 18 13 5 14 6 15 7 16 8 17 17 18 15 19 16 21 3 22 4 23
REMARK SMILES IDX 2 24 1 25 9 26 10 27 14 28 11 29 13 30 12 31 29 32 30 33
REMARK SMILES IDX 31 34 32 35 33 36 34 37 35 38 93 39 36 40 92 41 37 42 38 43
REMARK SMILES IDX 39 44 86 45 40 46 91 47 85 48 87 49 41 50 90 51 84 52 83 53
REMARK SMILES IDX 42 55 72 56 53 57 71 58 54 59 57 60 70 61 88 62 55 63 56 64
REMARK SMILES IDX 69 66 89 67 58 68 43 69 44 70 52 71 45 72 51 73 46 74 47 75
REMARK SMILES IDX 48 76 49 77 50 78 73 79 74 80 82 81 75 82 81 83 76 84 77 85
REMARK SMILES IDX 78 86 79 87 80 88 59 89 60 90 68 91 61 92 67 93 62 94 63 95
REMARK SMILES IDX 64 96 65 97 66 98
REMARK H PARENT 17 20 87 54 57 65
REMARK Flexibility Score: inf
ROOT
ATOM      1  O   UNL     1      -4.904   0.019  -7.551  1.00  0.00    -0.374 OA
ENDROOT
BRANCH   1   2
ATOM      2  C   UNL     1      -6.042  -0.829  -7.710  1.00  0.00     0.202 C 
BRANCH   2   3
ATOM      3  C   UNL     1      -5.778  -2.337  -7.683  1.00  0.00     0.261 C 
BRANCH   3   4
ATOM      4  O   UNL     1      -5.170  -2.739  -6.446  1.00  0.00    -0.460 OA
BRANCH   4   5
ATOM      5  C   UNL     1      -3.878  -3.123  -6.565  1.00  0.00     0.338 C 
ATOM      6  O   UNL     1      -3.256  -3.299  -7.603  1.00  0.00    -0.246 OA
BRANCH   5   7
ATOM      7  C   UNL     1      -3.217  -3.153  -5.243  1.00  0.00     0.060 A 
ATOM      8  C   UNL     1      -1.724  -3.363  -2.861  1.00  0.00    -0.021 A 
ATOM      9  C   UNL     1      -1.139  -2.875  -4.042  1.00  0.00     0.007 A 
ATOM     10  C   UNL     1      -3.106  -3.652  -2.880  1.00  0.00     0.007 A 
ATOM     11  C   UNL     1      -1.874  -2.778  -5.218  1.00  0.00     0.016 A 
ATOM     12  C   UNL     1      -3.851  -3.550  -4.064  1.00  0.00     0.016 A 
BRANCH   8  13
ATOM     13  C   UNL     1      -0.888  -3.692  -1.617  1.00  0.00     0.151 C 
ATOM     14  C   UNL     1       0.571  -3.373  -1.743  1.00  0.00     0.083 C 
ATOM     15  C   UNL     1       1.452  -4.269  -2.244  1.00  0.00     0.035 C 
ATOM     16  C   UNL     1       2.878  -3.906  -2.593  1.00  0.00     0.065 C 
ATOM     17  N   UNL     1       0.995  -5.582  -2.531  1.00  0.00    -0.291 N 
ATOM     18  N   UNL     1      -0.995  -5.110  -1.350  1.00  0.00    -0.351 N 
ATOM     19  C   UNL     1      -0.220  -6.050  -1.979  1.00  0.00     0.178 C 
ATOM     20  H   UNL     1      -1.656  -5.414  -0.686  1.00  0.00     0.163 HD
ATOM     21  S   UNL     1      -0.786  -7.631  -1.915  1.00  0.00    -0.040 S 
BRANCH  14  22
ATOM     22  C   UNL     1       0.926  -1.962  -1.495  1.00  0.00     0.337 C 
ATOM     23  O   UNL     1       1.424  -1.222  -2.328  1.00  0.00    -0.246 OA
BRANCH  22  24
ATOM     24  O   UNL     1       0.608  -1.629  -0.220  1.00  0.00    -0.466 OA
ATOM     25  C   UNL     1       0.924  -0.274   0.106  1.00  0.00     0.282 C 
ENDBRANCH  22  24
ENDBRANCH  14  22
BRANCH  17  26
ATOM     26  C   UNL     1       1.719  -6.446  -3.421  1.00  0.00     0.048 A 
ATOM     27  C   UNL     1       2.981  -6.949  -3.092  1.00  0.00     0.027 A 
ATOM     28  C   UNL     1       1.158  -6.761  -4.668  1.00  0.00     0.027 A 
ATOM     29  C   UNL     1       3.687  -7.733  -4.009  1.00  0.00     0.002 A 
ATOM     30  C   UNL     1       1.861  -7.552  -5.579  1.00  0.00     0.002 A 
ATOM     31  C   UNL     1       3.128  -8.030  -5.252  1.00  0.00     0.000 A 
ENDBRANCH  17  26
ENDBRANCH   8  13
ENDBRANCH   5   7
ENDBRANCH   4   5
ENDBRANCH   3   4
ENDBRANCH   2   3
ENDBRANCH   1   2
BRANCH   1  32
ATOM     32  C   UNL     1      -4.449   0.254  -6.216  1.00  0.00     0.202 C 
BRANCH  32  33
ATOM     33  C   UNL     1      -5.265   1.246  -5.377  1.00  0.00     0.261 C 
BRANCH  33  34
ATOM     34  O   UNL     1      -6.556   0.716  -5.023  1.00  0.00    -0.460 OA
BRANCH  34  35
ATOM     35  C   UNL     1      -7.607   1.327  -5.619  1.00  0.00     0.338 C 
ATOM     36  O   UNL     1      -7.573   2.317  -6.338  1.00  0.00    -0.246 OA
BRANCH  35  37
ATOM     37  C   UNL     1      -8.825   0.514  -5.444  1.00  0.00     0.060 A 
ATOM     38  C   UNL     1      -9.560   0.194  -6.594  1.00  0.00     0.016 A 
ATOM     39  C   UNL     1      -9.275   0.120  -4.182  1.00  0.00     0.016 A 
ATOM     40  C   UNL     1     -10.775  -0.478  -6.482  1.00  0.00     0.010 A 
ATOM     41  C   UNL     1     -10.501  -0.546  -4.072  1.00  0.00     0.010 A 
ATOM     42  C   UNL     1     -11.272  -0.817  -5.217  1.00  0.00    -0.014 A 
BRANCH  42  43
ATOM     43  C   UNL     1     -12.662  -1.315  -5.086  1.00  0.00     0.031 A 
ATOM     44  C   UNL     1     -13.747  -0.350  -4.689  1.00  0.00     0.074 A 
ATOM     45  C   UNL     1     -12.963  -2.599  -5.348  1.00  0.00     0.049 A 
ATOM     46  N   UNL     1     -15.023  -0.568  -4.503  1.00  0.00    -0.248 NA
ATOM     47  C   UNL     1     -13.336   1.048  -4.474  1.00  0.00     0.031 C 
ATOM     48  C   UNL     1     -12.012  -3.618  -5.792  1.00  0.00     0.029 A 
ATOM     49  N   UNL     1     -14.161  -3.264  -5.280  1.00  0.00    -0.354 N 
ATOM     50  C   UNL     1     -15.567   0.660  -4.146  1.00  0.00     0.074 A 
ATOM     51  C   UNL     1     -14.478   1.612  -4.109  1.00  0.00     0.031 C 
ATOM     52  C   UNL     1     -12.666  -4.780  -5.959  1.00  0.00     0.029 A 
ATOM     53  C   UNL     1     -14.072  -4.596  -5.603  1.00  0.00     0.049 A 
ATOM     54  H   UNL     1     -15.006  -2.827  -5.025  1.00  0.00     0.167 HD
ATOM     55  C   UNL     1     -16.859   0.971  -3.878  1.00  0.00     0.031 A 
ATOM     56  C   UNL     1     -15.013  -5.560  -5.597  1.00  0.00     0.031 A 
ATOM     57  C   UNL     1     -17.938   0.020  -3.895  1.00  0.00     0.049 A 
ATOM     58  C   UNL     1     -16.426  -5.211  -5.208  1.00  0.00     0.074 A 
ATOM     59  C   UNL     1     -19.281   0.236  -3.644  1.00  0.00     0.029 A 
ATOM     60  N   UNL     1     -17.795  -1.332  -4.172  1.00  0.00    -0.354 N 
ATOM     61  N   UNL     1     -16.928  -4.042  -4.887  1.00  0.00    -0.248 NA
ATOM     62  C   UNL     1     -17.399  -6.312  -5.185  1.00  0.00     0.031 C 
ATOM     63  C   UNL     1     -19.942  -0.995  -3.715  1.00  0.00     0.029 A 
ATOM     64  C   UNL     1     -19.021  -1.968  -4.070  1.00  0.00     0.049 A 
ATOM     65  H   UNL     1     -16.947  -1.774  -4.406  1.00  0.00     0.167 HD
ATOM     66  C   UNL     1     -18.282  -4.262  -4.654  1.00  0.00     0.074 A 
ATOM     67  C   UNL     1     -18.521  -5.673  -4.879  1.00  0.00     0.031 C 
ATOM     68  C   UNL     1     -19.243  -3.375  -4.293  1.00  0.00     0.031 A 
BRANCH  55  69
ATOM     69  C   UNL     1     -17.160   2.398  -3.503  1.00  0.00    -0.014 A 
ATOM     70  C   UNL     1     -17.099   3.431  -4.456  1.00  0.00     0.010 A 
ATOM     71  C   UNL     1     -17.521   2.708  -2.180  1.00  0.00     0.010 A 
ATOM     72  C   UNL     1     -17.343   4.755  -4.080  1.00  0.00     0.020 A 
ATOM     73  C   UNL     1     -17.793   4.028  -1.806  1.00  0.00     0.020 A 
ATOM     74  C   UNL     1     -17.681   5.046  -2.755  1.00  0.00     0.054 A 
BRANCH  74  75
ATOM     75  S   UNL     1     -17.989   6.772  -2.292  1.00  0.00     0.124 S 
ATOM     76  O   UNL     1     -16.637   7.325  -2.281  1.00  0.00    -0.237 OA
ATOM     77  O   UNL     1     -18.852   7.246  -3.371  1.00  0.00    -0.237 OA
ATOM     78  O   UNL     1     -18.631   6.671  -0.983  1.00  0.00    -0.744 OA
ENDBRANCH  74  75
ENDBRANCH  55  69
BRANCH  56  79
ATOM     79  C   UNL     1     -14.651  -6.955  -5.968  1.00  0.00    -0.014 A 
ATOM     80  C   UNL     1     -15.113  -7.517  -7.171  1.00  0.00     0.010 A 
ATOM     81  C   UNL     1     -13.838  -7.729  -5.119  1.00  0.00     0.010 A 
ATOM     82  C   UNL     1     -14.779  -8.831  -7.513  1.00  0.00     0.020 A 
ATOM     83  C   UNL     1     -13.481  -9.034  -5.470  1.00  0.00     0.020 A 
ATOM     84  C   UNL     1     -13.962  -9.580  -6.661  1.00  0.00     0.054 A 
BRANCH  84  85
ATOM     85  S   UNL     1     -13.496 -11.264  -7.152  1.00  0.00     0.124 S 
ATOM     86  O   UNL     1     -14.737 -11.999  -6.929  1.00  0.00    -0.237 OA
ATOM     87  O   UNL     1     -13.105 -11.088  -8.549  1.00  0.00    -0.237 OA
ATOM     88  O   UNL     1     -12.400 -11.592  -6.243  1.00  0.00    -0.744 OA
ENDBRANCH  84  85
ENDBRANCH  56  79
BRANCH  68  89
ATOM     89  C   UNL     1     -20.650  -3.893  -4.153  1.00  0.00    -0.014 A 
ATOM     90  C   UNL     1     -21.027  -4.698  -3.065  1.00  0.00     0.010 A 
ATOM     91  C   UNL     1     -21.622  -3.520  -5.100  1.00  0.00     0.010 A 
ATOM     92  C   UNL     1     -22.346  -5.146  -2.942  1.00  0.00     0.020 A 
ATOM     93  C   UNL     1     -22.947  -3.943  -4.965  1.00  0.00     0.020 A 
ATOM     94  C   UNL     1     -23.297  -4.766  -3.893  1.00  0.00     0.054 A 
BRANCH  94  95
ATOM     95  S   UNL     1     -25.012  -5.323  -3.688  1.00  0.00     0.124 S 
ATOM     96  O   UNL     1     -24.923  -6.729  -4.073  1.00  0.00    -0.237 OA
ATOM     97  O   UNL     1     -25.262  -5.074  -2.270  1.00  0.00    -0.237 OA
ATOM     98  O   UNL     1     -25.765  -4.472  -4.606  1.00  0.00    -0.744 OA
ENDBRANCH  94  95
ENDBRANCH  68  89
ENDBRANCH  42  43
ENDBRANCH  35  37
ENDBRANCH  34  35
ENDBRANCH  33  34
ENDBRANCH  32  33
ENDBRANCH   1  32
TORSDOF 21
