REMARK SMILES CC[NH2+][C@@]1(C(=O)OCCOCCOC(=O)c2ccc(-c3c4nc(c(-c5ccc(S(=O)(=O)[O-])cc5)c5ccc([nH]5)c(-c5ccc(S(=O)(=O)[O-])cc5)c5nc(c(-c6ccc(S(=O)(=O)[O-])cc6)c6ccc3[nH]6)C=C5)C=C4)cc2)CC[C@@H](OCCOC)C1
REMARK SMILES IDX 9 1 8 2 7 3 5 4 6 5 4 6 76 7 84 8 77 9 78 10 3 11 2 14 1 15
REMARK SMILES IDX 79 16 80 17 81 18 82 19 83 20 10 21 11 22 12 23 13 24 14 25
REMARK SMILES IDX 15 26 16 27 17 28 75 29 18 30 74 31 19 32 20 33 21 34 68 35
REMARK SMILES IDX 22 36 73 37 67 38 69 39 23 40 72 41 66 42 65 43 24 45 54 46
REMARK SMILES IDX 35 47 53 48 36 49 39 50 52 51 70 52 37 53 38 54 51 56 71 57
REMARK SMILES IDX 40 58 25 59 26 60 34 61 27 62 33 63 28 64 29 65 30 66 31 67
REMARK SMILES IDX 32 68 55 69 56 70 64 71 57 72 63 73 58 74 59 75 60 76 61 77
REMARK SMILES IDX 62 78 41 79 42 80 50 81 43 82 49 83 44 84 45 85 46 86 47 87
REMARK SMILES IDX 48 88
REMARK H PARENT 3 12 3 13 69 44 39 55
REMARK Flexibility Score: inf
ROOT
ATOM      1  C   UNL     1      -3.713   1.608  -3.954  1.00  0.00     0.202 C 
ENDROOT
BRANCH   1   2
ATOM      2  C   UNL     1      -3.219   2.675  -2.970  1.00  0.00     0.261 C 
BRANCH   2   3
ATOM      3  O   UNL     1      -1.791   2.788  -2.928  1.00  0.00    -0.459 OA
BRANCH   3   4
ATOM      4  C   UNL     1      -1.210   2.402  -1.756  1.00  0.00     0.368 C 
ATOM      5  O   UNL     1      -1.845   2.090  -0.753  1.00  0.00    -0.245 OA
BRANCH   4   6
ATOM      6  C   UNL     1       0.352   2.472  -1.804  1.00  0.00     0.196 C 
ATOM      7  C   UNL     1       0.791   3.659  -0.935  1.00  0.00     0.084 C 
ATOM      8  C   UNL     1       0.952   2.874  -3.169  1.00  0.00     0.113 C 
ATOM      9  C   UNL     1       0.544   4.880  -1.822  1.00  0.00     0.039 C 
ATOM     10  C   UNL     1       0.764   4.393  -3.264  1.00  0.00     0.125 C 
BRANCH   6  11
ATOM     11  N   UNL     1       0.938   1.159  -1.408  1.00  0.00    -0.332 N 
ATOM     12  H   UNL     1       0.496   0.432  -1.970  1.00  0.00     0.347 HD
ATOM     13  H   UNL     1       1.943   1.233  -1.564  1.00  0.00     0.347 HD
BRANCH  11  14
ATOM     14  C   UNL     1       0.763   0.811   0.006  1.00  0.00     0.257 C 
ATOM     15  C   UNL     1       1.383  -0.552   0.282  1.00  0.00     0.071 C 
ENDBRANCH  11  14
ENDBRANCH   6  11
BRANCH  10  16
ATOM     16  O   UNL     1       1.815   5.013  -4.006  1.00  0.00    -0.376 OA
BRANCH  16  17
ATOM     17  C   UNL     1       3.058   5.185  -3.336  1.00  0.00     0.189 C 
BRANCH  17  18
ATOM     18  C   UNL     1       3.411   6.660  -3.088  1.00  0.00     0.188 C 
BRANCH  18  19
ATOM     19  O   UNL     1       2.331   7.491  -2.667  1.00  0.00    -0.382 OA
ATOM     20  C   UNL     1       1.459   7.870  -3.730  1.00  0.00     0.195 C 
ENDBRANCH  18  19
ENDBRANCH  17  18
ENDBRANCH  16  17
ENDBRANCH  10  16
ENDBRANCH   4   6
ENDBRANCH   3   4
ENDBRANCH   2   3
ENDBRANCH   1   2
BRANCH   1  21
ATOM     21  O   UNL     1      -3.037   0.355  -3.974  1.00  0.00    -0.374 OA
BRANCH  21  22
ATOM     22  C   UNL     1      -1.730   0.313  -4.549  1.00  0.00     0.202 C 
BRANCH  22  23
ATOM     23  C   UNL     1      -1.599   0.616  -6.049  1.00  0.00     0.261 C 
BRANCH  23  24
ATOM     24  O   UNL     1      -1.963   1.969  -6.388  1.00  0.00    -0.460 OA
BRANCH  24  25
ATOM     25  C   UNL     1      -2.922   2.071  -7.346  1.00  0.00     0.338 C 
ATOM     26  O   UNL     1      -3.437   1.162  -7.973  1.00  0.00    -0.246 OA
BRANCH  25  27
ATOM     27  C   UNL     1      -3.414   3.458  -7.434  1.00  0.00     0.060 A 
ATOM     28  C   UNL     1      -4.745   3.705  -7.073  1.00  0.00     0.016 A 
ATOM     29  C   UNL     1      -2.626   4.474  -7.977  1.00  0.00     0.016 A 
ATOM     30  C   UNL     1      -5.301   4.967  -7.278  1.00  0.00     0.010 A 
ATOM     31  C   UNL     1      -3.192   5.737  -8.194  1.00  0.00     0.010 A 
ATOM     32  C   UNL     1      -4.538   5.983  -7.869  1.00  0.00    -0.014 A 
BRANCH  32  33
ATOM     33  C   UNL     1      -5.183   7.270  -8.232  1.00  0.00     0.031 A 
ATOM     34  C   UNL     1      -5.667   7.487  -9.640  1.00  0.00     0.074 A 
ATOM     35  C   UNL     1      -5.359   8.228  -7.303  1.00  0.00     0.049 A 
ATOM     36  N   UNL     1      -6.242   8.540 -10.162  1.00  0.00    -0.248 NA
ATOM     37  C   UNL     1      -5.484   6.371 -10.584  1.00  0.00     0.031 C 
ATOM     38  C   UNL     1      -4.974   8.122  -5.896  1.00  0.00     0.029 A 
ATOM     39  N   UNL     1      -5.907   9.482  -7.408  1.00  0.00    -0.354 N 
ATOM     40  C   UNL     1      -6.487   8.219 -11.492  1.00  0.00     0.074 A 
ATOM     41  C   UNL     1      -5.982   6.879 -11.704  1.00  0.00     0.031 C 
ATOM     42  C   UNL     1      -5.289   9.269  -5.270  1.00  0.00     0.029 A 
ATOM     43  C   UNL     1      -5.868  10.200  -6.236  1.00  0.00     0.049 A 
ATOM     44  H   UNL     1      -6.290   9.834  -8.243  1.00  0.00     0.167 HD
ATOM     45  C   UNL     1      -7.079   8.971 -12.450  1.00  0.00     0.031 A 
ATOM     46  C   UNL     1      -6.236  11.470  -5.977  1.00  0.00     0.031 A 
ATOM     47  C   UNL     1      -7.573  10.307 -12.243  1.00  0.00     0.049 A 
ATOM     48  C   UNL     1      -6.814  12.314  -7.083  1.00  0.00     0.074 A 
ATOM     49  C   UNL     1      -8.217  11.135 -13.148  1.00  0.00     0.029 A 
ATOM     50  N   UNL     1      -7.468  11.016 -11.058  1.00  0.00    -0.354 N 
ATOM     51  N   UNL     1      -7.073  11.980  -8.325  1.00  0.00    -0.248 NA
ATOM     52  C   UNL     1      -7.149  13.707  -6.751  1.00  0.00     0.031 C 
ATOM     53  C   UNL     1      -8.451  12.365 -12.525  1.00  0.00     0.029 A 
ATOM     54  C   UNL     1      -8.000  12.285 -11.217  1.00  0.00     0.049 A 
ATOM     55  H   UNL     1      -7.074  10.669 -10.225  1.00  0.00     0.167 HD
ATOM     56  C   UNL     1      -7.617  13.116  -8.916  1.00  0.00     0.074 A 
ATOM     57  C   UNL     1      -7.668  14.139  -7.892  1.00  0.00     0.031 C 
ATOM     58  C   UNL     1      -8.038  13.296 -10.192  1.00  0.00     0.031 A 
BRANCH  45  59
ATOM     59  C   UNL     1      -7.204   8.382 -13.829  1.00  0.00    -0.014 A 
ATOM     60  C   UNL     1      -8.166   7.398 -14.114  1.00  0.00     0.010 A 
ATOM     61  C   UNL     1      -6.396   8.875 -14.870  1.00  0.00     0.010 A 
ATOM     62  C   UNL     1      -8.306   6.904 -15.415  1.00  0.00     0.020 A 
ATOM     63  C   UNL     1      -6.546   8.397 -16.175  1.00  0.00     0.020 A 
ATOM     64  C   UNL     1      -7.494   7.407 -16.437  1.00  0.00     0.054 A 
BRANCH  64  65
ATOM     65  S   UNL     1      -7.729   6.782 -18.124  1.00  0.00     0.124 S 
ATOM     66  O   UNL     1      -7.141   5.448 -18.036  1.00  0.00    -0.237 OA
ATOM     67  O   UNL     1      -9.181   6.819 -18.281  1.00  0.00    -0.237 OA
ATOM     68  O   UNL     1      -6.992   7.734 -18.952  1.00  0.00    -0.744 OA
ENDBRANCH  64  65
ENDBRANCH  45  59
BRANCH  46  69
ATOM     69  C   UNL     1      -6.032  12.046  -4.620  1.00  0.00    -0.014 A 
ATOM     70  C   UNL     1      -7.129  12.355  -3.797  1.00  0.00     0.010 A 
ATOM     71  C   UNL     1      -4.731  12.313  -4.156  1.00  0.00     0.010 A 
ATOM     72  C   UNL     1      -6.930  12.944  -2.545  1.00  0.00     0.020 A 
ATOM     73  C   UNL     1      -4.527  12.878  -2.895  1.00  0.00     0.020 A 
ATOM     74  C   UNL     1      -5.629  13.204  -2.103  1.00  0.00     0.054 A 
BRANCH  74  75
ATOM     75  S   UNL     1      -5.388  13.941  -0.463  1.00  0.00     0.124 S 
ATOM     76  O   UNL     1      -5.725  15.340  -0.707  1.00  0.00    -0.237 OA
ATOM     77  O   UNL     1      -6.335  13.196   0.363  1.00  0.00    -0.237 OA
ATOM     78  O   UNL     1      -3.980  13.676  -0.175  1.00  0.00    -0.744 OA
ENDBRANCH  74  75
ENDBRANCH  46  69
BRANCH  58  79
ATOM     79  C   UNL     1      -8.605  14.643 -10.552  1.00  0.00    -0.014 A 
ATOM     80  C   UNL     1      -7.768  15.761 -10.713  1.00  0.00     0.010 A 
ATOM     81  C   UNL     1      -9.986  14.780 -10.782  1.00  0.00     0.010 A 
ATOM     82  C   UNL     1      -8.307  17.000 -11.070  1.00  0.00     0.020 A 
ATOM     83  C   UNL     1     -10.525  16.012 -11.163  1.00  0.00     0.020 A 
ATOM     84  C   UNL     1      -9.682  17.118 -11.291  1.00  0.00     0.054 A 
BRANCH  84  85
ATOM     85  S   UNL     1     -10.353  18.727 -11.794  1.00  0.00     0.124 S 
ATOM     86  O   UNL     1     -10.337  19.469 -10.537  1.00  0.00    -0.237 OA
ATOM     87  O   UNL     1      -9.394  19.176 -12.801  1.00  0.00    -0.237 OA
ATOM     88  O   UNL     1     -11.681  18.402 -12.310  1.00  0.00    -0.744 OA
ENDBRANCH  84  85
ENDBRANCH  58  79
ENDBRANCH  32  33
ENDBRANCH  25  27
ENDBRANCH  24  25
ENDBRANCH  23  24
ENDBRANCH  22  23
ENDBRANCH  21  22
ENDBRANCH   1  21
TORSDOF 23
