REMARK SMILES CN(C(=O)C[C@H]1SC(=O)N(c2cccc(O)c2)C1=O)c1ccccc1C(=O)OCCOCCOC(=O)c1ccc(-c2c3nc(c(-c4ccc(S(=O)(=O)[O-])cc4)c4ccc([nH]4)c(-c4ccc(S(=O)(=O)[O-])cc4)c4nc(c(-c5ccc(S(=O)(=O)[O-])cc5)c5ccc2[nH]5)C=C4)C=C3)cc1
REMARK SMILES IDX 29 1 28 2 26 3 27 4 25 5 20 6 21 7 22 8 24 9 23 10 2 11 1 12
REMARK SMILES IDX 3 13 4 14 5 15 6 16 7 17 18 18 8 19 10 20 19 21 9 22 11 23
REMARK SMILES IDX 12 24 17 25 13 26 15 27 14 28 16 29 30 31 31 32 32 33 33 34
REMARK SMILES IDX 34 35 35 36 36 37 37 38 38 39 96 40 39 41 95 42 40 43 41 44
REMARK SMILES IDX 42 45 89 46 43 47 94 48 88 49 90 50 44 51 93 52 87 53 86 54
REMARK SMILES IDX 45 56 75 57 56 58 74 59 57 60 60 61 73 62 91 63 58 64 59 65
REMARK SMILES IDX 72 67 92 68 61 69 46 70 47 71 55 72 48 73 54 74 49 75 50 76
REMARK SMILES IDX 51 77 52 78 53 79 76 80 77 81 85 82 78 83 84 84 79 85 80 86
REMARK SMILES IDX 81 87 82 88 83 89 62 90 63 91 71 92 64 93 70 94 65 95 66 96
REMARK SMILES IDX 67 97 68 98 69 99
REMARK H PARENT 16 30 90 55 60 66
REMARK Flexibility Score: inf
ROOT
ATOM      1  C   UNL     1      -3.057  -5.055   0.074  1.00  0.00     0.261 C 
ENDROOT
BRANCH   1   2
ATOM      2  O   UNL     1      -2.029  -4.311  -0.602  1.00  0.00    -0.460 OA
BRANCH   2   3
ATOM      3  C   UNL     1      -1.723  -4.771  -1.836  1.00  0.00     0.340 C 
ATOM      4  O   UNL     1      -2.119  -5.815  -2.332  1.00  0.00    -0.246 OA
BRANCH   3   5
ATOM      5  C   UNL     1      -0.970  -3.772  -2.629  1.00  0.00     0.083 A 
ATOM      6  C   UNL     1       0.159  -3.029  -2.228  1.00  0.00     0.058 A 
ATOM      7  C   UNL     1       0.755  -2.203  -3.209  1.00  0.00     0.027 A 
ATOM      8  C   UNL     1       0.221  -2.042  -4.490  1.00  0.00     0.002 A 
ATOM      9  C   UNL     1      -1.522  -3.576  -3.917  1.00  0.00     0.018 A 
ATOM     10  C   UNL     1      -0.941  -2.708  -4.836  1.00  0.00     0.001 A 
BRANCH   6  11
ATOM     11  N   UNL     1       0.785  -3.051  -0.923  1.00  0.00    -0.315 N 
ATOM     12  C   UNL     1       0.872  -4.322  -0.209  1.00  0.00     0.153 C 
BRANCH  11  13
ATOM     13  C   UNL     1       1.273  -1.844  -0.384  1.00  0.00     0.228 C 
ATOM     14  O   UNL     1       1.056  -0.737  -0.885  1.00  0.00    -0.274 OA
BRANCH  13  15
ATOM     15  C   UNL     1       2.083  -1.883   0.897  1.00  0.00     0.125 C 
BRANCH  15  16
ATOM     16  C   UNL     1       1.158  -1.846   2.106  1.00  0.00     0.156 C 
ATOM     17  S   UNL     1       1.674  -3.111   3.272  1.00  0.00    -0.050 SA
ATOM     18  C   UNL     1       1.258  -0.532   2.871  1.00  0.00     0.248 C 
ATOM     19  C   UNL     1       2.375  -1.929   4.364  1.00  0.00     0.293 C 
ATOM     20  N   UNL     1       1.832  -0.679   4.128  1.00  0.00    -0.240 N 
ATOM     21  O   UNL     1       0.880   0.512   2.346  1.00  0.00    -0.273 OA
ATOM     22  O   UNL     1       3.238  -2.276   5.137  1.00  0.00    -0.261 OA
BRANCH  20  23
ATOM     23  C   UNL     1       1.827   0.359   5.141  1.00  0.00     0.056 A 
ATOM     24  C   UNL     1       2.538   0.221   6.347  1.00  0.00     0.027 A 
ATOM     25  C   UNL     1       0.940   1.453   5.063  1.00  0.00     0.073 A 
ATOM     26  C   UNL     1       2.327   1.077   7.437  1.00  0.00     0.006 A 
ATOM     27  C   UNL     1       0.693   2.268   6.175  1.00  0.00     0.117 A 
ATOM     28  C   UNL     1       1.382   2.091   7.362  1.00  0.00     0.046 A 
BRANCH  27  29
ATOM     29  O   UNL     1      -0.305   3.194   6.075  1.00  0.00    -0.508 OA
ATOM     30  H   UNL     1      -0.498   3.756   6.799  1.00  0.00     0.293 HD
ENDBRANCH  27  29
ENDBRANCH  20  23
ENDBRANCH  15  16
ENDBRANCH  13  15
ENDBRANCH  11  13
ENDBRANCH   6  11
ENDBRANCH   3   5
ENDBRANCH   2   3
ENDBRANCH   1   2
BRANCH   1  31
ATOM     31  C   UNL     1      -4.062  -4.111   0.729  1.00  0.00     0.202 C 
BRANCH  31  32
ATOM     32  O   UNL     1      -4.773  -3.237  -0.147  1.00  0.00    -0.374 OA
BRANCH  32  33
ATOM     33  C   UNL     1      -4.056  -2.133  -0.699  1.00  0.00     0.202 C 
BRANCH  33  34
ATOM     34  C   UNL     1      -3.756  -0.945   0.227  1.00  0.00     0.261 C 
BRANCH  34  35
ATOM     35  O   UNL     1      -3.034  -1.289   1.420  1.00  0.00    -0.460 OA
BRANCH  35  36
ATOM     36  C   UNL     1      -3.795  -1.378   2.542  1.00  0.00     0.338 C 
ATOM     37  O   UNL     1      -5.000  -1.238   2.641  1.00  0.00    -0.246 OA
BRANCH  36  38
ATOM     38  C   UNL     1      -2.934  -1.795   3.663  1.00  0.00     0.060 A 
ATOM     39  C   UNL     1      -3.130  -3.033   4.290  1.00  0.00     0.016 A 
ATOM     40  C   UNL     1      -1.979  -0.913   4.141  1.00  0.00     0.016 A 
ATOM     41  C   UNL     1      -2.354  -3.396   5.404  1.00  0.00     0.010 A 
ATOM     42  C   UNL     1      -1.224  -1.286   5.251  1.00  0.00     0.010 A 
ATOM     43  C   UNL     1      -1.387  -2.519   5.905  1.00  0.00    -0.014 A 
BRANCH  43  44
ATOM     44  C   UNL     1      -0.570  -2.781   7.133  1.00  0.00     0.031 A 
ATOM     45  C   UNL     1      -0.587  -1.773   8.263  1.00  0.00     0.074 A 
ATOM     46  C   UNL     1       0.288  -3.819   7.209  1.00  0.00     0.049 A 
ATOM     47  N   UNL     1       0.213  -1.657   9.294  1.00  0.00    -0.248 NA
ATOM     48  C   UNL     1      -1.616  -0.724   8.187  1.00  0.00     0.031 C 
ATOM     49  C   UNL     1       0.459  -4.868   6.204  1.00  0.00     0.029 A 
ATOM     50  N   UNL     1       1.214  -4.137   8.176  1.00  0.00    -0.354 N 
ATOM     51  C   UNL     1      -0.168  -0.484   9.939  1.00  0.00     0.074 A 
ATOM     52  C   UNL     1      -1.237   0.095   9.155  1.00  0.00     0.031 C 
ATOM     53  C   UNL     1       1.435  -5.703   6.599  1.00  0.00     0.029 A 
ATOM     54  C   UNL     1       1.976  -5.241   7.874  1.00  0.00     0.049 A 
ATOM     55  H   UNL     1       1.321  -3.621   9.008  1.00  0.00     0.167 HD
ATOM     56  C   UNL     1       0.306   0.057  11.089  1.00  0.00     0.031 A 
ATOM     57  C   UNL     1       2.997  -5.820   8.539  1.00  0.00     0.031 A 
ATOM     58  C   UNL     1       1.302  -0.560  11.925  1.00  0.00     0.049 A 
ATOM     59  C   UNL     1       3.452  -5.256   9.858  1.00  0.00     0.074 A 
ATOM     60  C   UNL     1       1.756  -0.150  13.167  1.00  0.00     0.029 A 
ATOM     61  N   UNL     1       1.974  -1.733  11.622  1.00  0.00    -0.354 N 
ATOM     62  N   UNL     1       3.048  -4.174  10.478  1.00  0.00    -0.248 NA
ATOM     63  C   UNL     1       4.482  -6.016  10.584  1.00  0.00     0.031 C 
ATOM     64  C   UNL     1       2.723  -1.062  13.605  1.00  0.00     0.029 A 
ATOM     65  C   UNL     1       2.834  -2.065  12.656  1.00  0.00     0.049 A 
ATOM     66  H   UNL     1       1.858  -2.254  10.794  1.00  0.00     0.167 HD
ATOM     67  C   UNL     1       3.735  -4.153  11.688  1.00  0.00     0.074 A 
ATOM     68  C   UNL     1       4.582  -5.327  11.712  1.00  0.00     0.031 C 
ATOM     69  C   UNL     1       3.658  -3.246  12.692  1.00  0.00     0.031 A 
BRANCH  56  70
ATOM     70  C   UNL     1      -0.263   1.387  11.518  1.00  0.00    -0.014 A 
ATOM     71  C   UNL     1      -1.614   1.520  11.890  1.00  0.00     0.010 A 
ATOM     72  C   UNL     1       0.571   2.520  11.564  1.00  0.00     0.010 A 
ATOM     73  C   UNL     1      -2.140   2.773  12.213  1.00  0.00     0.020 A 
ATOM     74  C   UNL     1       0.058   3.768  11.929  1.00  0.00     0.020 A 
ATOM     75  C   UNL     1      -1.302   3.891  12.219  1.00  0.00     0.054 A 
BRANCH  75  76
ATOM     76  S   UNL     1      -2.011   5.509  12.625  1.00  0.00     0.124 S 
ATOM     77  O   UNL     1      -2.654   5.871  11.364  1.00  0.00    -0.237 OA
ATOM     78  O   UNL     1      -2.917   5.200  13.727  1.00  0.00    -0.237 OA
ATOM     79  O   UNL     1      -0.846   6.313  12.985  1.00  0.00    -0.744 OA
ENDBRANCH  75  76
ENDBRANCH  56  70
BRANCH  57  80
ATOM     80  C   UNL     1       3.615  -7.065   8.005  1.00  0.00    -0.014 A 
ATOM     81  C   UNL     1       3.305  -8.304   8.594  1.00  0.00     0.010 A 
ATOM     82  C   UNL     1       4.503  -7.025   6.916  1.00  0.00     0.010 A 
ATOM     83  C   UNL     1       3.882  -9.482   8.114  1.00  0.00     0.020 A 
ATOM     84  C   UNL     1       5.066  -8.206   6.419  1.00  0.00     0.020 A 
ATOM     85  C   UNL     1       4.757  -9.426   7.026  1.00  0.00     0.054 A 
BRANCH  85  86
ATOM     86  S   UNL     1       5.444 -10.979   6.387  1.00  0.00     0.124 S 
ATOM     87  O   UNL     1       6.388 -11.350   7.436  1.00  0.00    -0.237 OA
ATOM     88  O   UNL     1       4.257 -11.824   6.275  1.00  0.00    -0.237 OA
ATOM     89  O   UNL     1       6.043 -10.589   5.112  1.00  0.00    -0.744 OA
ENDBRANCH  85  86
ENDBRANCH  57  80
BRANCH  69  90
ATOM     90  C   UNL     1       4.447  -3.517  13.947  1.00  0.00    -0.014 A 
ATOM     91  C   UNL     1       5.846  -3.385  13.985  1.00  0.00     0.010 A 
ATOM     92  C   UNL     1       3.760  -3.862  15.126  1.00  0.00     0.010 A 
ATOM     93  C   UNL     1       6.546  -3.624  15.171  1.00  0.00     0.020 A 
ATOM     94  C   UNL     1       4.454  -4.077  16.320  1.00  0.00     0.020 A 
ATOM     95  C   UNL     1       5.845  -3.969  16.332  1.00  0.00     0.054 A 
BRANCH  95  96
ATOM     96  S   UNL     1       6.772  -4.232  17.869  1.00  0.00     0.124 S 
ATOM     97  O   UNL     1       7.403  -5.527  17.627  1.00  0.00    -0.237 OA
ATOM     98  O   UNL     1       7.678  -3.087  17.898  1.00  0.00    -0.237 OA
ATOM     99  O   UNL     1       5.739  -4.227  18.903  1.00  0.00    -0.744 OA
ENDBRANCH  95  96
ENDBRANCH  69  90
ENDBRANCH  43  44
ENDBRANCH  36  38
ENDBRANCH  35  36
ENDBRANCH  34  35
ENDBRANCH  33  34
ENDBRANCH  32  33
ENDBRANCH  31  32
ENDBRANCH   1  31
TORSDOF 23
