REMARK SMILES O=C(OCCOCCOC(=O)[C@@H]1CCC[N@@H+](Cc2ccc(F)cc2Cl)C1)c1ccc(-c2c3nc(c(-c4ccc(S(=O)(=O)[O-])cc4)c4ccc([nH]4)c(-c4ccc(S(=O)(=O)[O-])cc4)c4nc(c(-c5ccc(S(=O)(=O)[O-])cc5)c5ccc2[nH]5)C=C4)C=C3)cc1
REMARK SMILES IDX 5 1 4 2 3 3 2 4 1 5 27 6 28 7 86 8 29 9 85 10 30 11 31 12
REMARK SMILES IDX 32 13 79 14 33 15 84 16 78 17 80 18 34 19 83 20 77 21 76 22
REMARK SMILES IDX 35 24 65 25 46 26 64 27 47 28 50 29 63 30 81 31 48 32 49 33
REMARK SMILES IDX 62 35 82 36 51 37 36 38 37 39 45 40 38 41 44 42 39 43 40 44
REMARK SMILES IDX 41 45 42 46 43 47 66 48 67 49 75 50 68 51 74 52 69 53 70 54
REMARK SMILES IDX 71 55 72 56 73 57 52 58 53 59 61 60 54 61 60 62 55 63 56 64
REMARK SMILES IDX 57 65 58 66 59 67 6 68 7 69 8 70 9 71 10 72 11 73 12 74
REMARK SMILES IDX 13 75 26 76 14 77 16 78 15 79 17 81 18 82 19 83 24 84 20 85
REMARK SMILES IDX 23 86 25 87 21 88 22 89
REMARK H PARENT 80 23 50 34 16 80
REMARK Flexibility Score: inf
ROOT
ATOM      1  C   UNL     1       3.963   1.479  -0.112  1.00  0.00     0.202 C 
ENDROOT
BRANCH   1   2
ATOM      2  C   UNL     1       3.858   0.663  -1.402  1.00  0.00     0.261 C 
BRANCH   2   3
ATOM      3  O   UNL     1       2.536   0.132  -1.560  1.00  0.00    -0.460 OA
BRANCH   3   4
ATOM      4  C   UNL     1       2.056  -1.049  -1.103  1.00  0.00     0.338 C 
ATOM      5  O   UNL     1       0.845  -1.252  -1.195  1.00  0.00    -0.246 OA
BRANCH   4   6
ATOM      6  C   UNL     1       2.904  -2.139  -0.522  1.00  0.00     0.060 A 
ATOM      7  C   UNL     1       4.119  -1.964   0.145  1.00  0.00     0.016 A 
ATOM      8  C   UNL     1       2.379  -3.442  -0.589  1.00  0.00     0.016 A 
ATOM      9  C   UNL     1       4.811  -3.032   0.693  1.00  0.00     0.010 A 
ATOM     10  C   UNL     1       3.057  -4.524  -0.019  1.00  0.00     0.010 A 
ATOM     11  C   UNL     1       4.285  -4.315   0.613  1.00  0.00    -0.014 A 
BRANCH  11  12
ATOM     12  C   UNL     1       5.118  -5.418   1.112  1.00  0.00     0.031 A 
ATOM     13  C   UNL     1       5.896  -6.218   0.115  1.00  0.00     0.074 A 
ATOM     14  C   UNL     1       5.285  -5.567   2.439  1.00  0.00     0.049 A 
ATOM     15  N   UNL     1       6.703  -7.222   0.314  1.00  0.00    -0.248 NA
ATOM     16  C   UNL     1       5.766  -5.816  -1.299  1.00  0.00     0.031 C 
ATOM     17  C   UNL     1       4.665  -4.724   3.467  1.00  0.00     0.029 A 
ATOM     18  N   UNL     1       6.055  -6.446   3.150  1.00  0.00    -0.354 N 
ATOM     19  C   UNL     1       7.162  -7.586  -0.946  1.00  0.00     0.074 A 
ATOM     20  C   UNL     1       6.544  -6.700  -1.905  1.00  0.00     0.031 C 
ATOM     21  C   UNL     1       5.099  -5.116   4.676  1.00  0.00     0.029 A 
ATOM     22  C   UNL     1       5.972  -6.272   4.512  1.00  0.00     0.049 A 
ATOM     23  H   UNL     1       6.615  -7.136   2.728  1.00  0.00     0.167 HD
ATOM     24  C   UNL     1       8.018  -8.583  -1.262  1.00  0.00     0.031 A 
ATOM     25  C   UNL     1       6.518  -6.996   5.506  1.00  0.00     0.031 A 
ATOM     26  C   UNL     1       8.593  -9.459  -0.280  1.00  0.00     0.049 A 
ATOM     27  C   UNL     1       7.372  -8.174   5.118  1.00  0.00     0.074 A 
ATOM     28  C   UNL     1       9.402 -10.562  -0.470  1.00  0.00     0.029 A 
ATOM     29  N   UNL     1       8.411  -9.321   1.091  1.00  0.00    -0.354 N 
ATOM     30  N   UNL     1       7.740  -8.564   3.918  1.00  0.00    -0.248 NA
ATOM     31  C   UNL     1       7.873  -9.018   6.209  1.00  0.00     0.031 C 
ATOM     32  C   UNL     1       9.669 -11.120   0.785  1.00  0.00     0.029 A 
ATOM     33  C   UNL     1       9.077 -10.330   1.760  1.00  0.00     0.049 A 
ATOM     34  H   UNL     1       7.885  -8.609   1.522  1.00  0.00     0.167 HD
ATOM     35  C   UNL     1       8.524  -9.694   4.109  1.00  0.00     0.074 A 
ATOM     36  C   UNL     1       8.601  -9.905   5.543  1.00  0.00     0.031 C 
ATOM     37  C   UNL     1       9.121 -10.495   3.191  1.00  0.00     0.031 A 
BRANCH  24  38
ATOM     38  C   UNL     1       8.300  -8.811  -2.721  1.00  0.00    -0.014 A 
ATOM     39  C   UNL     1       9.116  -7.933  -3.458  1.00  0.00     0.010 A 
ATOM     40  C   UNL     1       7.723  -9.917  -3.370  1.00  0.00     0.010 A 
ATOM     41  C   UNL     1       9.321  -8.140  -4.826  1.00  0.00     0.020 A 
ATOM     42  C   UNL     1       7.944 -10.140  -4.732  1.00  0.00     0.020 A 
ATOM     43  C   UNL     1       8.729  -9.241  -5.455  1.00  0.00     0.054 A 
BRANCH  43  44
ATOM     44  S   UNL     1       9.020  -9.493  -7.228  1.00  0.00     0.124 S 
ATOM     45  O   UNL     1       8.219  -8.424  -7.820  1.00  0.00    -0.237 OA
ATOM     46  O   UNL     1      10.467  -9.329  -7.342  1.00  0.00    -0.237 OA
ATOM     47  O   UNL     1       8.528 -10.846  -7.472  1.00  0.00    -0.744 OA
ENDBRANCH  43  44
ENDBRANCH  24  38
BRANCH  25  48
ATOM     48  C   UNL     1       6.213  -6.687   6.932  1.00  0.00    -0.014 A 
ATOM     49  C   UNL     1       7.222  -6.296   7.830  1.00  0.00     0.010 A 
ATOM     50  C   UNL     1       4.893  -6.810   7.411  1.00  0.00     0.010 A 
ATOM     51  C   UNL     1       6.924  -6.067   9.179  1.00  0.00     0.020 A 
ATOM     52  C   UNL     1       4.585  -6.551   8.749  1.00  0.00     0.020 A 
ATOM     53  C   UNL     1       5.608  -6.201   9.631  1.00  0.00     0.054 A 
BRANCH  53  54
ATOM     54  S   UNL     1       5.239  -5.897  11.382  1.00  0.00     0.124 S 
ATOM     55  O   UNL     1       5.786  -7.091  12.018  1.00  0.00    -0.237 OA
ATOM     56  O   UNL     1       5.958  -4.653  11.647  1.00  0.00    -0.237 OA
ATOM     57  O   UNL     1       3.783  -5.784  11.411  1.00  0.00    -0.744 OA
ENDBRANCH  53  54
ENDBRANCH  25  48
BRANCH  37  58
ATOM     58  C   UNL     1       9.923 -11.648   3.723  1.00  0.00    -0.014 A 
ATOM     59  C   UNL     1       9.292 -12.779   4.267  1.00  0.00     0.010 A 
ATOM     60  C   UNL     1      11.325 -11.615   3.624  1.00  0.00     0.010 A 
ATOM     61  C   UNL     1      10.055 -13.849   4.737  1.00  0.00     0.020 A 
ATOM     62  C   UNL     1      12.089 -12.695   4.066  1.00  0.00     0.020 A 
ATOM     63  C   UNL     1      11.449 -13.799   4.633  1.00  0.00     0.054 A 
BRANCH  63  64
ATOM     64  S   UNL     1      12.417 -15.218   5.210  1.00  0.00     0.124 S 
ATOM     65  O   UNL     1      12.352 -15.060   6.660  1.00  0.00    -0.237 OA
ATOM     66  O   UNL     1      11.676 -16.354   4.666  1.00  0.00    -0.237 OA
ATOM     67  O   UNL     1      13.735 -15.002   4.617  1.00  0.00    -0.744 OA
ENDBRANCH  63  64
ENDBRANCH  37  58
ENDBRANCH  11  12
ENDBRANCH   4   6
ENDBRANCH   3   4
ENDBRANCH   2   3
ENDBRANCH   1   2
BRANCH   1  68
ATOM     68  O   UNL     1       3.583   0.752   1.057  1.00  0.00    -0.374 OA
BRANCH  68  69
ATOM     69  C   UNL     1       2.211   0.882   1.453  1.00  0.00     0.202 C 
BRANCH  69  70
ATOM     70  C   UNL     1       2.129   1.524   2.837  1.00  0.00     0.261 C 
BRANCH  70  71
ATOM     71  O   UNL     1       2.950   2.698   2.820  1.00  0.00    -0.463 OA
BRANCH  71  72
ATOM     72  C   UNL     1       4.234   2.485   3.224  1.00  0.00     0.314 C 
ATOM     73  O   UNL     1       4.610   1.526   3.889  1.00  0.00    -0.252 OA
BRANCH  72  74
ATOM     74  C   UNL     1       5.189   3.487   2.599  1.00  0.00     0.154 C 
ATOM     75  C   UNL     1       6.422   3.686   3.476  1.00  0.00     0.027 C 
ATOM     76  C   UNL     1       4.557   4.840   2.273  1.00  0.00     0.277 C 
ATOM     77  C   UNL     1       6.028   4.426   4.746  1.00  0.00     0.062 C 
ATOM     78  N   UNL     1       4.217   5.621   3.465  1.00  0.00    -0.330 N 
ATOM     79  C   UNL     1       5.330   5.746   4.417  1.00  0.00     0.262 C 
ATOM     80  H   UNL     1       3.508   5.077   3.957  1.00  0.00     0.348 HD
BRANCH  78  81
ATOM     81  C   UNL     1       3.572   6.914   3.141  1.00  0.00     0.300 C 
BRANCH  81  82
ATOM     82  C   UNL     1       4.525   8.011   2.691  1.00  0.00     0.025 A 
ATOM     83  C   UNL     1       4.997   8.004   1.363  1.00  0.00     0.014 A 
ATOM     84  C   UNL     1       5.066   8.955   3.586  1.00  0.00     0.052 A 
ATOM     85  C   UNL     1       6.052   8.830   0.976  1.00  0.00     0.040 A 
ATOM     86  C   UNL     1       6.120   9.780   3.196  1.00  0.00     0.060 A 
ATOM     87  Cl  UNL     1       4.497   9.127   5.210  1.00  0.00    -0.084 Cl
ATOM     88  C   UNL     1       6.617   9.692   1.904  1.00  0.00     0.124 A 
ATOM     89  F   UNL     1       7.662  10.451   1.547  1.00  0.00    -0.207 F 
ENDBRANCH  81  82
ENDBRANCH  78  81
ENDBRANCH  72  74
ENDBRANCH  71  72
ENDBRANCH  70  71
ENDBRANCH  69  70
ENDBRANCH  68  69
ENDBRANCH   1  68
TORSDOF 19
