REMARK SMILES O=C(Cc1csc(N2C(=O)C[C@H](Nc3cccc(F)c3)C2=O)n1)OCCOCCOC(=O)c1ccc(-c2c3nc(c(-c4ccc(S(=O)(=O)[O-])cc4)c4ccc([nH]4)c(-c4ccc(S(=O)(=O)[O-])cc4)c4nc(c(-c5ccc(S(=O)(=O)[O-])cc5)c5ccc2[nH]5)C=C4)C=C3)cc1
REMARK SMILES IDX 26 1 25 2 24 3 2 4 1 5 3 6 4 7 5 8 23 9 6 10 7 11 8 12 9 13
REMARK SMILES IDX 21 14 10 15 11 16 12 17 22 18 13 19 14 21 15 22 20 23 16 24
REMARK SMILES IDX 18 25 17 26 19 27 27 28 28 29 29 30 30 31 31 32 32 33 33 34
REMARK SMILES IDX 34 35 92 36 35 37 91 38 36 39 37 40 38 41 85 42 39 43 90 44
REMARK SMILES IDX 84 45 86 46 40 47 89 48 83 49 82 50 41 52 71 53 52 54 70 55
REMARK SMILES IDX 53 56 56 57 69 58 87 59 54 60 55 61 68 63 88 64 57 65 42 66
REMARK SMILES IDX 43 67 51 68 44 69 50 70 45 71 46 72 47 73 48 74 49 75 72 76
REMARK SMILES IDX 73 77 81 78 74 79 80 80 75 81 76 82 77 83 78 84 79 85 58 86
REMARK SMILES IDX 59 87 67 88 60 89 66 90 61 91 62 92 63 93 64 94 65 95
REMARK H PARENT 13 20 86 51 56 62
REMARK Flexibility Score: inf
ROOT
ATOM      1  C   UNL     1       4.781   0.476   0.809  1.00  0.00     0.202 C 
ENDROOT
BRANCH   1   2
ATOM      2  C   UNL     1       4.033   0.925  -0.452  1.00  0.00     0.261 C 
BRANCH   2   3
ATOM      3  O   UNL     1       2.660   0.537  -0.654  1.00  0.00    -0.463 OA
BRANCH   3   4
ATOM      4  C   UNL     1       2.103  -0.684  -0.748  1.00  0.00     0.311 C 
ATOM      5  O   UNL     1       0.928  -0.771  -1.115  1.00  0.00    -0.252 OA
BRANCH   4   6
ATOM      6  C   UNL     1       2.834  -1.921  -0.305  1.00  0.00     0.179 C 
BRANCH   6   7
ATOM      7  C   UNL     1       3.823  -2.435  -1.278  1.00  0.00     0.065 A 
ATOM      8  C   UNL     1       3.955  -3.748  -1.690  1.00  0.00     0.093 A 
ATOM      9  N   UNL     1       4.753  -1.577  -1.819  1.00  0.00    -0.224 NA
ATOM     10  S   UNL     1       5.115  -3.848  -2.945  1.00  0.00    -0.104 S 
ATOM     11  C   UNL     1       5.394  -2.164  -2.797  1.00  0.00     0.199 A 
BRANCH  11  12
ATOM     12  N   UNL     1       6.273  -1.555  -3.648  1.00  0.00    -0.223 N 
ATOM     13  C   UNL     1       7.104  -0.555  -3.239  1.00  0.00     0.238 C 
ATOM     14  C   UNL     1       6.193  -1.698  -5.006  1.00  0.00     0.258 C 
ATOM     15  O   UNL     1       7.318  -0.144  -2.106  1.00  0.00    -0.274 OA
ATOM     16  C   UNL     1       7.844  -0.036  -4.435  1.00  0.00     0.136 C 
ATOM     17  C   UNL     1       7.225  -0.766  -5.620  1.00  0.00     0.179 C 
ATOM     18  O   UNL     1       5.412  -2.396  -5.640  1.00  0.00    -0.272 OA
BRANCH  17  19
ATOM     19  N   UNL     1       6.640   0.190  -6.562  1.00  0.00    -0.373 N 
ATOM     20  H   UNL     1       6.097   0.949  -6.248  1.00  0.00     0.161 HD
BRANCH  19  21
ATOM     21  C   UNL     1       6.878  -0.013  -7.918  1.00  0.00     0.038 A 
ATOM     22  C   UNL     1       6.474  -1.188  -8.564  1.00  0.00     0.026 A 
ATOM     23  C   UNL     1       7.641   0.913  -8.634  1.00  0.00     0.065 A 
ATOM     24  C   UNL     1       6.806  -1.429  -9.900  1.00  0.00     0.005 A 
ATOM     25  C   UNL     1       7.989   0.657  -9.957  1.00  0.00     0.125 A 
ATOM     26  C   UNL     1       7.576  -0.504 -10.597  1.00  0.00     0.039 A 
ATOM     27  F   UNL     1       8.760   1.531 -10.617  1.00  0.00    -0.207 F 
ENDBRANCH  19  21
ENDBRANCH  17  19
ENDBRANCH  11  12
ENDBRANCH   6   7
ENDBRANCH   4   6
ENDBRANCH   3   4
ENDBRANCH   2   3
ENDBRANCH   1   2
BRANCH   1  28
ATOM     28  O   UNL     1       4.096  -0.176   1.869  1.00  0.00    -0.374 OA
BRANCH  28  29
ATOM     29  C   UNL     1       2.874   0.349   2.372  1.00  0.00     0.202 C 
BRANCH  29  30
ATOM     30  C   UNL     1       2.993   1.495   3.363  1.00  0.00     0.261 C 
BRANCH  30  31
ATOM     31  O   UNL     1       3.363   2.698   2.687  1.00  0.00    -0.460 OA
BRANCH  31  32
ATOM     32  C   UNL     1       4.643   3.086   2.864  1.00  0.00     0.338 C 
ATOM     33  O   UNL     1       5.500   2.547   3.547  1.00  0.00    -0.246 OA
BRANCH  32  34
ATOM     34  C   UNL     1       4.906   4.210   1.958  1.00  0.00     0.060 A 
ATOM     35  C   UNL     1       6.065   4.178   1.172  1.00  0.00     0.016 A 
ATOM     36  C   UNL     1       4.039   5.303   1.925  1.00  0.00     0.016 A 
ATOM     37  C   UNL     1       6.394   5.276   0.386  1.00  0.00     0.010 A 
ATOM     38  C   UNL     1       4.371   6.402   1.142  1.00  0.00     0.010 A 
ATOM     39  C   UNL     1       5.571   6.408   0.410  1.00  0.00    -0.014 A 
BRANCH  39  40
ATOM     40  C   UNL     1       6.040   7.688  -0.154  1.00  0.00     0.031 A 
ATOM     41  C   UNL     1       6.562   8.725   0.799  1.00  0.00     0.074 A 
ATOM     42  C   UNL     1       5.945   7.935  -1.469  1.00  0.00     0.049 A 
ATOM     43  N   UNL     1       6.868   9.974   0.577  1.00  0.00    -0.248 NA
ATOM     44  C   UNL     1       6.741   8.296   2.197  1.00  0.00     0.031 C 
ATOM     45  C   UNL     1       5.491   6.980  -2.479  1.00  0.00     0.029 A 
ATOM     46  N   UNL     1       6.199   9.082  -2.173  1.00  0.00    -0.354 N 
ATOM     47  C   UNL     1       7.246  10.490   1.811  1.00  0.00     0.074 A 
ATOM     48  C   UNL     1       7.106   9.426   2.780  1.00  0.00     0.031 C 
ATOM     49  C   UNL     1       5.474   7.591  -3.675  1.00  0.00     0.029 A 
ATOM     50  C   UNL     1       5.868   8.989  -3.502  1.00  0.00     0.049 A 
ATOM     51  H   UNL     1       6.581   9.893  -1.766  1.00  0.00     0.167 HD
ATOM     52  C   UNL     1       7.667  11.742   2.106  1.00  0.00     0.031 A 
ATOM     53  C   UNL     1       5.848   9.937  -4.458  1.00  0.00     0.031 A 
ATOM     54  C   UNL     1       7.777  12.790   1.127  1.00  0.00     0.049 A 
ATOM     55  C   UNL     1       6.260  11.341  -4.101  1.00  0.00     0.074 A 
ATOM     56  C   UNL     1       8.212  14.090   1.303  1.00  0.00     0.029 A 
ATOM     57  N   UNL     1       7.437  12.656  -0.212  1.00  0.00    -0.354 N 
ATOM     58  N   UNL     1       6.635  11.818  -2.936  1.00  0.00    -0.248 NA
ATOM     59  C   UNL     1       6.255  12.331  -5.185  1.00  0.00     0.031 C 
ATOM     60  C   UNL     1       8.072  14.761   0.085  1.00  0.00     0.029 A 
ATOM     61  C   UNL     1       7.628  13.858  -0.870  1.00  0.00     0.049 A 
ATOM     62  H   UNL     1       7.109  11.829  -0.632  1.00  0.00     0.167 HD
ATOM     63  C   UNL     1       6.949  13.155  -3.156  1.00  0.00     0.074 A 
ATOM     64  C   UNL     1       6.719  13.409  -4.565  1.00  0.00     0.031 C 
ATOM     65  C   UNL     1       7.399  14.085  -2.276  1.00  0.00     0.031 A 
BRANCH  52  66
ATOM     66  C   UNL     1       7.981  12.047   3.547  1.00  0.00    -0.014 A 
ATOM     67  C   UNL     1       9.073  11.451   4.206  1.00  0.00     0.010 A 
ATOM     68  C   UNL     1       7.168  12.950   4.256  1.00  0.00     0.010 A 
ATOM     69  C   UNL     1       9.311  11.709   5.559  1.00  0.00     0.020 A 
ATOM     70  C   UNL     1       7.424  13.239   5.600  1.00  0.00     0.020 A 
ATOM     71  C   UNL     1       8.481  12.598   6.248  1.00  0.00     0.054 A 
BRANCH  71  72
ATOM     72  S   UNL     1       8.812  12.914   8.003  1.00  0.00     0.124 S 
ATOM     73  O   UNL     1       8.406  11.652   8.618  1.00  0.00    -0.237 OA
ATOM     74  O   UNL     1      10.247  13.184   8.013  1.00  0.00    -0.237 OA
ATOM     75  O   UNL     1       7.962  14.060   8.317  1.00  0.00    -0.744 OA
ENDBRANCH  71  72
ENDBRANCH  52  66
BRANCH  53  76
ATOM     76  C   UNL     1       5.416   9.580  -5.835  1.00  0.00    -0.014 A 
ATOM     77  C   UNL     1       6.348   9.530  -6.885  1.00  0.00     0.010 A 
ATOM     78  C   UNL     1       4.075   9.238  -6.094  1.00  0.00     0.010 A 
ATOM     79  C   UNL     1       5.949   9.146  -8.168  1.00  0.00     0.020 A 
ATOM     80  C   UNL     1       3.678   8.825  -7.369  1.00  0.00     0.020 A 
ATOM     81  C   UNL     1       4.618   8.786  -8.399  1.00  0.00     0.054 A 
BRANCH  81  82
ATOM     82  S   UNL     1       4.148   8.211 -10.054  1.00  0.00     0.124 S 
ATOM     83  O   UNL     1       4.238   9.437 -10.840  1.00  0.00    -0.237 OA
ATOM     84  O   UNL     1       5.168   7.202 -10.333  1.00  0.00    -0.237 OA
ATOM     85  O   UNL     1       2.798   7.686  -9.863  1.00  0.00    -0.744 OA
ENDBRANCH  81  82
ENDBRANCH  53  76
BRANCH  65  86
ATOM     86  C   UNL     1       7.737  15.451  -2.813  1.00  0.00    -0.014 A 
ATOM     87  C   UNL     1       6.740  16.358  -3.211  1.00  0.00     0.010 A 
ATOM     88  C   UNL     1       9.084  15.862  -2.830  1.00  0.00     0.010 A 
ATOM     89  C   UNL     1       7.086  17.644  -3.634  1.00  0.00     0.020 A 
ATOM     90  C   UNL     1       9.431  17.156  -3.221  1.00  0.00     0.020 A 
ATOM     91  C   UNL     1       8.429  18.037  -3.630  1.00  0.00     0.054 A 
BRANCH  91  92
ATOM     92  S   UNL     1       8.844  19.734  -4.116  1.00  0.00     0.124 S 
ATOM     93  O   UNL     1       8.597  19.707  -5.555  1.00  0.00    -0.237 OA
ATOM     94  O   UNL     1       7.903  20.530  -3.331  1.00  0.00    -0.237 OA
ATOM     95  O   UNL     1      10.245  19.875  -3.727  1.00  0.00    -0.744 OA
ENDBRANCH  91  92
ENDBRANCH  65  86
ENDBRANCH  39  40
ENDBRANCH  32  34
ENDBRANCH  31  32
ENDBRANCH  30  31
ENDBRANCH  29  30
ENDBRANCH  28  29
ENDBRANCH   1  28
TORSDOF 21
