REMARK SMILES O=C(OCCOCCOC(=O)[C@H](c1c[nH]c2ccc(Cl)cc12)[NH+]1CCN(c2cccc(Cl)c2)CC1)c1ccc(-c2c3nc(c(-c4ccc(S(=O)(=O)[O-])cc4)c4ccc([nH]4)c(-c4ccc(S(=O)(=O)[O-])cc4)c4nc(c(-c5ccc(S(=O)(=O)[O-])cc5)c5ccc2[nH]5)C=C4)C=C3)cc1
REMARK SMILES IDX 5 1 4 2 3 3 2 4 1 5 36 6 37 7 95 8 38 9 94 10 39 11 40 12
REMARK SMILES IDX 41 13 88 14 42 15 93 16 87 17 89 18 43 19 92 20 86 21 85 22
REMARK SMILES IDX 44 24 74 25 55 26 73 27 56 28 59 29 72 30 90 31 57 32 58 33
REMARK SMILES IDX 71 35 91 36 60 37 45 38 46 39 54 40 47 41 53 42 48 43 49 44
REMARK SMILES IDX 50 45 51 46 52 47 75 48 76 49 84 50 77 51 83 52 78 53 79 54
REMARK SMILES IDX 80 55 81 56 82 57 61 58 62 59 70 60 63 61 69 62 64 63 65 64
REMARK SMILES IDX 66 65 67 66 68 67 6 68 7 69 8 70 9 71 10 72 11 73 12 74
REMARK SMILES IDX 23 75 24 76 35 77 25 79 34 80 26 81 27 82 28 83 33 84 29 85
REMARK SMILES IDX 31 86 30 87 32 88 13 89 14 90 22 91 15 92 16 93 21 94 17 96
REMARK SMILES IDX 19 97 18 98 20 99
REMARK H PARENT 89 23 59 34 23 78 15 95
REMARK Flexibility Score: inf
ROOT
ATOM      1  C   UNL     1       6.393   2.824   0.651  1.00  0.00     0.202 C 
ENDROOT
BRANCH   1   2
ATOM      2  C   UNL     1       7.433   2.996  -0.452  1.00  0.00     0.261 C 
BRANCH   2   3
ATOM      3  O   UNL     1       7.860   4.362  -0.514  1.00  0.00    -0.460 OA
BRANCH   3   4
ATOM      4  C   UNL     1       7.635   5.231  -1.526  1.00  0.00     0.338 C 
ATOM      5  O   UNL     1       8.254   6.293  -1.543  1.00  0.00    -0.246 OA
BRANCH   4   6
ATOM      6  C   UNL     1       6.630   4.974  -2.602  1.00  0.00     0.060 A 
ATOM      7  C   UNL     1       5.508   4.156  -2.456  1.00  0.00     0.016 A 
ATOM      8  C   UNL     1       6.776   5.684  -3.803  1.00  0.00     0.016 A 
ATOM      9  C   UNL     1       4.586   3.990  -3.472  1.00  0.00     0.010 A 
ATOM     10  C   UNL     1       5.830   5.557  -4.824  1.00  0.00     0.010 A 
ATOM     11  C   UNL     1       4.738   4.699  -4.655  1.00  0.00    -0.014 A 
BRANCH  11  12
ATOM     12  C   UNL     1       3.759   4.442  -5.717  1.00  0.00     0.031 A 
ATOM     13  C   UNL     1       4.146   3.517  -6.825  1.00  0.00     0.074 A 
ATOM     14  C   UNL     1       2.507   4.913  -5.574  1.00  0.00     0.049 A 
ATOM     15  N   UNL     1       3.462   3.168  -7.877  1.00  0.00    -0.248 NA
ATOM     16  C   UNL     1       5.473   2.882  -6.723  1.00  0.00     0.031 C 
ATOM     17  C   UNL     1       2.023   5.692  -4.428  1.00  0.00     0.029 A 
ATOM     18  N   UNL     1       1.404   4.773  -6.369  1.00  0.00    -0.354 N 
ATOM     19  C   UNL     1       4.285   2.301  -8.583  1.00  0.00     0.074 A 
ATOM     20  C   UNL     1       5.513   2.161  -7.834  1.00  0.00     0.031 C 
ATOM     21  C   UNL     1       0.714   5.941  -4.588  1.00  0.00     0.029 A 
ATOM     22  C   UNL     1       0.288   5.405  -5.875  1.00  0.00     0.049 A 
ATOM     23  H   UNL     1       1.409   4.268  -7.214  1.00  0.00     0.167 HD
ATOM     24  C   UNL     1       4.033   1.700  -9.767  1.00  0.00     0.031 A 
ATOM     25  C   UNL     1      -0.927   5.563  -6.431  1.00  0.00     0.031 A 
ATOM     26  C   UNL     1       2.806   1.888 -10.489  1.00  0.00     0.049 A 
ATOM     27  C   UNL     1      -1.143   4.971  -7.798  1.00  0.00     0.074 A 
ATOM     28  C   UNL     1       2.458   1.424 -11.742  1.00  0.00     0.029 A 
ATOM     29  N   UNL     1       1.719   2.606 -10.005  1.00  0.00    -0.354 N 
ATOM     30  N   UNL     1      -0.324   4.230  -8.510  1.00  0.00    -0.248 NA
ATOM     31  C   UNL     1      -2.429   5.250  -8.447  1.00  0.00     0.031 C 
ATOM     32  C   UNL     1       1.173   1.898 -12.033  1.00  0.00     0.029 A 
ATOM     33  C   UNL     1       0.703   2.613 -10.940  1.00  0.00     0.049 A 
ATOM     34  H   UNL     1       1.680   3.045  -9.125  1.00  0.00     0.167 HD
ATOM     35  C   UNL     1      -0.996   3.951  -9.692  1.00  0.00     0.074 A 
ATOM     36  C   UNL     1      -2.300   4.580  -9.584  1.00  0.00     0.031 C 
ATOM     37  C   UNL     1      -0.578   3.252 -10.776  1.00  0.00     0.031 A 
BRANCH  24  38
ATOM     38  C   UNL     1       5.139   0.885 -10.371  1.00  0.00    -0.014 A 
ATOM     39  C   UNL     1       5.464  -0.393  -9.885  1.00  0.00     0.010 A 
ATOM     40  C   UNL     1       5.887   1.427 -11.433  1.00  0.00     0.010 A 
ATOM     41  C   UNL     1       6.540  -1.102 -10.429  1.00  0.00     0.020 A 
ATOM     42  C   UNL     1       6.951   0.714 -11.991  1.00  0.00     0.020 A 
ATOM     43  C   UNL     1       7.281  -0.540 -11.474  1.00  0.00     0.054 A 
BRANCH  43  44
ATOM     44  S   UNL     1       8.672  -1.478 -12.164  1.00  0.00     0.124 S 
ATOM     45  O   UNL     1       9.678  -1.341 -11.113  1.00  0.00    -0.237 OA
ATOM     46  O   UNL     1       8.110  -2.817 -12.324  1.00  0.00    -0.237 OA
ATOM     47  O   UNL     1       8.976  -0.781 -13.411  1.00  0.00    -0.744 OA
ENDBRANCH  43  44
ENDBRANCH  24  38
BRANCH  25  48
ATOM     48  C   UNL     1      -1.975   6.375  -5.753  1.00  0.00    -0.014 A 
ATOM     49  C   UNL     1      -3.180   5.797  -5.320  1.00  0.00     0.010 A 
ATOM     50  C   UNL     1      -1.772   7.754  -5.546  1.00  0.00     0.010 A 
ATOM     51  C   UNL     1      -4.170   6.585  -4.719  1.00  0.00     0.020 A 
ATOM     52  C   UNL     1      -2.744   8.538  -4.921  1.00  0.00     0.020 A 
ATOM     53  C   UNL     1      -3.947   7.952  -4.528  1.00  0.00     0.054 A 
BRANCH  53  54
ATOM     54  S   UNL     1      -5.232   8.957  -3.732  1.00  0.00     0.124 S 
ATOM     55  O   UNL     1      -6.193   9.132  -4.816  1.00  0.00    -0.237 OA
ATOM     56  O   UNL     1      -5.669   8.103  -2.630  1.00  0.00    -0.237 OA
ATOM     57  O   UNL     1      -4.517  10.165  -3.327  1.00  0.00    -0.744 OA
ENDBRANCH  53  54
ENDBRANCH  25  48
BRANCH  37  58
ATOM     58  C   UNL     1      -1.554   3.116 -11.907  1.00  0.00    -0.014 A 
ATOM     59  C   UNL     1      -1.796   4.189 -12.782  1.00  0.00     0.010 A 
ATOM     60  C   UNL     1      -2.179   1.878 -12.132  1.00  0.00     0.010 A 
ATOM     61  C   UNL     1      -2.669   4.029 -13.858  1.00  0.00     0.020 A 
ATOM     62  C   UNL     1      -3.034   1.709 -13.221  1.00  0.00     0.020 A 
ATOM     63  C   UNL     1      -3.282   2.790 -14.070  1.00  0.00     0.054 A 
BRANCH  63  64
ATOM     64  S   UNL     1      -4.366   2.587 -15.509  1.00  0.00     0.124 S 
ATOM     65  O   UNL     1      -5.588   3.247 -15.062  1.00  0.00    -0.237 OA
ATOM     66  O   UNL     1      -3.629   3.274 -16.567  1.00  0.00    -0.237 OA
ATOM     67  O   UNL     1      -4.460   1.137 -15.666  1.00  0.00    -0.744 OA
ENDBRANCH  63  64
ENDBRANCH  37  58
ENDBRANCH  11  12
ENDBRANCH   4   6
ENDBRANCH   3   4
ENDBRANCH   2   3
ENDBRANCH   1   2
BRANCH   1  68
ATOM     68  O   UNL     1       5.183   3.568   0.558  1.00  0.00    -0.374 OA
BRANCH  68  69
ATOM     69  C   UNL     1       5.234   4.949   0.923  1.00  0.00     0.202 C 
BRANCH  69  70
ATOM     70  C   UNL     1       3.831   5.361   1.382  1.00  0.00     0.261 C 
BRANCH  70  71
ATOM     71  O   UNL     1       3.615   4.759   2.666  1.00  0.00    -0.459 OA
BRANCH  71  72
ATOM     72  C   UNL     1       3.212   3.454   2.635  1.00  0.00     0.370 C 
ATOM     73  O   UNL     1       2.296   3.078   1.911  1.00  0.00    -0.245 OA
BRANCH  72  74
ATOM     74  C   UNL     1       4.177   2.564   3.504  1.00  0.00     0.328 C 
BRANCH  74  75
ATOM     75  N   UNL     1       4.206   2.827   4.971  1.00  0.00    -0.316 N 
ATOM     76  C   UNL     1       5.556   2.576   5.556  1.00  0.00     0.284 C 
ATOM     77  C   UNL     1       3.764   4.166   5.408  1.00  0.00     0.284 C 
ATOM     78  H   UNL     1       3.514   2.163   5.321  1.00  0.00     0.349 HD
ATOM     79  C   UNL     1       6.619   3.722   5.440  1.00  0.00     0.178 C 
ATOM     80  C   UNL     1       4.770   5.321   5.203  1.00  0.00     0.178 C 
ATOM     81  N   UNL     1       6.047   5.011   5.866  1.00  0.00    -0.360 N 
BRANCH  81  82
ATOM     82  C   UNL     1       6.819   6.125   6.183  1.00  0.00     0.038 A 
ATOM     83  C   UNL     1       6.252   7.157   6.959  1.00  0.00     0.026 A 
ATOM     84  C   UNL     1       8.137   6.309   5.750  1.00  0.00     0.046 A 
ATOM     85  C   UNL     1       6.933   8.341   7.246  1.00  0.00     0.004 A 
ATOM     86  C   UNL     1       8.826   7.495   6.041  1.00  0.00     0.043 A 
ATOM     87  C   UNL     1       8.227   8.515   6.778  1.00  0.00     0.020 A 
ATOM     88  Cl  UNL     1      10.437   7.712   5.470  1.00  0.00    -0.084 Cl
ENDBRANCH  81  82
ENDBRANCH  74  75
BRANCH  74  89
ATOM     89  C   UNL     1       3.814   1.103   3.253  1.00  0.00     0.046 A 
ATOM     90  C   UNL     1       2.551   0.549   3.402  1.00  0.00     0.094 A 
ATOM     91  C   UNL     1       4.614   0.089   2.616  1.00  0.00     0.011 A 
ATOM     92  N   UNL     1       2.501  -0.612   2.681  1.00  0.00    -0.361 N 
ATOM     93  C   UNL     1       3.736  -0.892   2.148  1.00  0.00     0.046 A 
ATOM     94  C   UNL     1       5.979  -0.041   2.284  1.00  0.00     0.031 A 
ATOM     95  H   UNL     1       1.696  -1.166   2.560  1.00  0.00     0.166 HD
ATOM     96  C   UNL     1       4.123  -1.910   1.266  1.00  0.00     0.028 A 
ATOM     97  C   UNL     1       6.380  -1.054   1.404  1.00  0.00     0.041 A 
ATOM     98  C   UNL     1       5.464  -1.959   0.879  1.00  0.00     0.022 A 
ATOM     99  Cl  UNL     1       8.029  -1.130   0.910  1.00  0.00    -0.084 Cl
ENDBRANCH  74  89
ENDBRANCH  72  74
ENDBRANCH  71  72
ENDBRANCH  70  71
ENDBRANCH  69  70
ENDBRANCH  68  69
ENDBRANCH   1  68
TORSDOF 20
