REMARK SMILES Cc1ccnc(C(=O)c2[nH]c3cc(Cl)c(F)cc3c2CC(=O)OCCOCCOC(=O)c2ccc(-c3c4nc(c(-c5ccc(S(=O)(=O)[O-])cc5)c5ccc([nH]5)c(-c5ccc(S(=O)(=O)[O-])cc5)c5nc(c(-c6ccc(S(=O)(=O)[O-])cc6)c6ccc3[nH]6)C=C5)C=C4)cc2)c1
REMARK SMILES IDX 26 1 25 2 24 3 23 4 21 5 22 6 20 7 19 8 9 9 10 10 11 11
REMARK SMILES IDX 18 13 12 14 17 15 13 16 15 17 14 18 16 19 7 20 8 21 6 22
REMARK SMILES IDX 1 23 2 24 3 25 92 26 4 27 5 28 27 29 28 30 29 31 30 32 31 33
REMARK SMILES IDX 32 34 33 35 91 36 34 37 90 38 35 39 36 40 37 41 84 42 38 43
REMARK SMILES IDX 89 44 83 45 85 46 39 47 88 48 82 49 81 50 40 52 70 53 51 54
REMARK SMILES IDX 69 55 52 56 55 57 68 58 86 59 53 60 54 61 67 63 87 64 56 65
REMARK SMILES IDX 41 66 42 67 50 68 43 69 49 70 44 71 45 72 46 73 47 74 48 75
REMARK SMILES IDX 71 76 72 77 80 78 73 79 79 80 74 81 75 82 76 83 77 84 78 85
REMARK SMILES IDX 57 86 58 87 66 88 59 89 65 90 60 91 61 92 62 93 63 94 64 95
REMARK H PARENT 10 12 85 51 55 62
REMARK Flexibility Score: inf
ROOT
ATOM      1  O   UNL     1      -2.147  -0.432  -1.136  1.00  0.00    -0.374 OA
ENDROOT
BRANCH   1   2
ATOM      2  C   UNL     1      -2.354  -0.572  -2.538  1.00  0.00     0.202 C 
BRANCH   2   3
ATOM      3  C   UNL     1      -2.851  -1.994  -2.827  1.00  0.00     0.261 C 
BRANCH   3   4
ATOM      4  O   UNL     1      -1.816  -2.990  -2.542  1.00  0.00    -0.463 OA
BRANCH   4   5
ATOM      5  C   UNL     1      -0.715  -2.937  -3.334  1.00  0.00     0.310 C 
ATOM      6  O   UNL     1      -0.699  -2.358  -4.418  1.00  0.00    -0.252 OA
BRANCH   5   7
ATOM      7  C   UNL     1       0.554  -3.576  -2.768  1.00  0.00     0.161 C 
BRANCH   7   8
ATOM      8  C   UNL     1       0.726  -3.914  -1.282  1.00  0.00     0.000 A 
ATOM      9  C   UNL     1       1.562  -3.358  -0.266  1.00  0.00     0.093 A 
ATOM     10  N   UNL     1       1.597  -4.322   0.734  1.00  0.00    -0.351 N 
ATOM     11  C   UNL     1       0.739  -5.364   0.498  1.00  0.00     0.048 A 
ATOM     12  H   UNL     1       2.176  -4.263   1.528  1.00  0.00     0.167 HD
ATOM     13  C   UNL     1       0.129  -5.119  -0.726  1.00  0.00     0.007 A 
ATOM     14  C   UNL     1       0.493  -6.514   1.264  1.00  0.00     0.050 A 
ATOM     15  C   UNL     1      -0.816  -6.063  -1.195  1.00  0.00     0.051 A 
ATOM     16  C   UNL     1      -0.441  -7.432   0.776  1.00  0.00     0.078 A 
ATOM     17  C   UNL     1      -1.094  -7.200  -0.428  1.00  0.00     0.142 A 
ATOM     18  Cl  UNL     1      -0.755  -8.864   1.686  1.00  0.00    -0.081 Cl
ATOM     19  F   UNL     1      -1.992  -8.084  -0.891  1.00  0.00    -0.205 F 
BRANCH   9  20
ATOM     20  C   UNL     1       2.537  -2.244  -0.138  1.00  0.00     0.227 C 
ATOM     21  O   UNL     1       3.737  -2.513  -0.232  1.00  0.00    -0.285 OA
BRANCH  20  22
ATOM     22  C   UNL     1       2.211  -0.792   0.267  1.00  0.00     0.113 A 
ATOM     23  C   UNL     1      -0.556   1.439   1.581  1.00  0.00     0.044 C 
ATOM     24  C   UNL     1       0.820   0.993   1.143  1.00  0.00    -0.047 A 
ATOM     25  C   UNL     1       1.579   1.914   0.434  1.00  0.00     0.023 A 
ATOM     26  C   UNL     1       1.241  -0.368   1.184  1.00  0.00     0.036 A 
ATOM     27  C   UNL     1       2.659   1.438  -0.275  1.00  0.00     0.112 A 
ATOM     28  N   UNL     1       2.962   0.124  -0.406  1.00  0.00    -0.253 NA
ENDBRANCH  20  22
ENDBRANCH   9  20
ENDBRANCH   7   8
ENDBRANCH   5   7
ENDBRANCH   4   5
ENDBRANCH   3   4
ENDBRANCH   2   3
ENDBRANCH   1   2
BRANCH   1  29
ATOM     29  C   UNL     1      -1.007  -1.148  -0.688  1.00  0.00     0.202 C 
BRANCH  29  30
ATOM     30  C   UNL     1      -1.324  -2.214   0.363  1.00  0.00     0.261 C 
BRANCH  30  31
ATOM     31  O   UNL     1      -2.171  -1.612   1.308  1.00  0.00    -0.460 OA
BRANCH  31  32
ATOM     32  C   UNL     1      -2.158  -1.865   2.627  1.00  0.00     0.338 C 
ATOM     33  O   UNL     1      -1.310  -2.389   3.320  1.00  0.00    -0.246 OA
BRANCH  32  34
ATOM     34  C   UNL     1      -3.462  -1.251   2.952  1.00  0.00     0.060 A 
ATOM     35  C   UNL     1      -4.486  -1.847   2.197  1.00  0.00     0.016 A 
ATOM     36  C   UNL     1      -3.383   0.146   3.102  1.00  0.00     0.016 A 
ATOM     37  C   UNL     1      -5.178  -1.038   1.317  1.00  0.00     0.010 A 
ATOM     38  C   UNL     1      -4.126   0.958   2.250  1.00  0.00     0.010 A 
ATOM     39  C   UNL     1      -4.969   0.358   1.315  1.00  0.00    -0.014 A 
BRANCH  39  40
ATOM     40  C   UNL     1      -5.980   1.108   0.584  1.00  0.00     0.031 A 
ATOM     41  C   UNL     1      -7.287   0.939   1.265  1.00  0.00     0.074 A 
ATOM     42  C   UNL     1      -5.903   1.875  -0.514  1.00  0.00     0.049 A 
ATOM     43  N   UNL     1      -8.262   0.182   0.891  1.00  0.00    -0.248 NA
ATOM     44  C   UNL     1      -7.391   1.467   2.632  1.00  0.00     0.031 C 
ATOM     45  C   UNL     1      -4.752   2.449  -1.200  1.00  0.00     0.029 A 
ATOM     46  N   UNL     1      -6.964   2.355  -1.222  1.00  0.00    -0.354 N 
ATOM     47  C   UNL     1      -9.170   0.217   1.936  1.00  0.00     0.074 A 
ATOM     48  C   UNL     1      -8.510   0.874   3.038  1.00  0.00     0.031 C 
ATOM     49  C   UNL     1      -5.193   3.377  -2.090  1.00  0.00     0.029 A 
ATOM     50  C   UNL     1      -6.649   3.342  -2.137  1.00  0.00     0.049 A 
ATOM     51  H   UNL     1      -7.882   2.025  -1.093  1.00  0.00     0.167 HD
ATOM     52  C   UNL     1     -10.469  -0.150   1.790  1.00  0.00     0.031 A 
ATOM     53  C   UNL     1      -7.550   4.112  -2.799  1.00  0.00     0.031 A 
ATOM     54  C   UNL     1     -10.694  -0.902   0.588  1.00  0.00     0.049 A 
ATOM     55  C   UNL     1      -8.848   3.383  -2.804  1.00  0.00     0.074 A 
ATOM     56  C   UNL     1     -10.282  -2.139   0.135  1.00  0.00     0.029 A 
ATOM     57  N   UNL     1     -11.134  -0.215  -0.518  1.00  0.00    -0.354 N 
ATOM     58  N   UNL     1      -9.058   2.273  -3.455  1.00  0.00    -0.248 NA
ATOM     59  C   UNL     1      -9.815   3.683  -1.757  1.00  0.00     0.031 C 
ATOM     60  C   UNL     1     -10.077  -1.974  -1.264  1.00  0.00     0.029 A 
ATOM     61  C   UNL     1     -10.402  -0.655  -1.593  1.00  0.00     0.049 A 
ATOM     62  H   UNL     1     -11.843   0.468  -0.536  1.00  0.00     0.167 HD
ATOM     63  C   UNL     1      -9.930   1.546  -2.656  1.00  0.00     0.074 A 
ATOM     64  C   UNL     1     -10.431   2.502  -1.674  1.00  0.00     0.031 C 
ATOM     65  C   UNL     1      -9.970   0.182  -2.699  1.00  0.00     0.031 A 
BRANCH  52  66
ATOM     66  C   UNL     1     -11.564   0.454   2.615  1.00  0.00    -0.014 A 
ATOM     67  C   UNL     1     -11.395   1.667   3.316  1.00  0.00     0.010 A 
ATOM     68  C   UNL     1     -12.867  -0.064   2.531  1.00  0.00     0.010 A 
ATOM     69  C   UNL     1     -12.450   2.311   3.951  1.00  0.00     0.020 A 
ATOM     70  C   UNL     1     -13.949   0.606   3.120  1.00  0.00     0.020 A 
ATOM     71  C   UNL     1     -13.727   1.783   3.836  1.00  0.00     0.054 A 
BRANCH  71  72
ATOM     72  S   UNL     1     -15.086   2.726   4.561  1.00  0.00     0.124 S 
ATOM     73  O   UNL     1     -14.847   2.544   5.990  1.00  0.00    -0.237 OA
ATOM     74  O   UNL     1     -14.842   4.071   4.048  1.00  0.00    -0.237 OA
ATOM     75  O   UNL     1     -16.278   2.066   4.035  1.00  0.00    -0.744 OA
ENDBRANCH  71  72
ENDBRANCH  52  66
BRANCH  53  76
ATOM     76  C   UNL     1      -7.488   5.585  -2.990  1.00  0.00    -0.014 A 
ATOM     77  C   UNL     1      -6.744   6.375  -2.092  1.00  0.00     0.010 A 
ATOM     78  C   UNL     1      -8.410   6.236  -3.834  1.00  0.00     0.010 A 
ATOM     79  C   UNL     1      -6.968   7.751  -1.978  1.00  0.00     0.020 A 
ATOM     80  C   UNL     1      -8.642   7.618  -3.723  1.00  0.00     0.020 A 
ATOM     81  C   UNL     1      -7.945   8.357  -2.766  1.00  0.00     0.054 A 
BRANCH  81  82
ATOM     82  S   UNL     1      -8.343  10.099  -2.444  1.00  0.00     0.124 S 
ATOM     83  O   UNL     1      -8.941  10.032  -1.114  1.00  0.00    -0.237 OA
ATOM     84  O   UNL     1      -7.031  10.739  -2.509  1.00  0.00    -0.237 OA
ATOM     85  O   UNL     1      -9.259  10.452  -3.526  1.00  0.00    -0.744 OA
ENDBRANCH  81  82
ENDBRANCH  53  76
BRANCH  65  86
ATOM     86  C   UNL     1      -9.260  -0.541  -3.824  1.00  0.00    -0.014 A 
ATOM     87  C   UNL     1      -9.990  -1.514  -4.532  1.00  0.00     0.010 A 
ATOM     88  C   UNL     1      -7.868  -0.463  -4.029  1.00  0.00     0.010 A 
ATOM     89  C   UNL     1      -9.346  -2.429  -5.367  1.00  0.00     0.020 A 
ATOM     90  C   UNL     1      -7.219  -1.363  -4.888  1.00  0.00     0.020 A 
ATOM     91  C   UNL     1      -7.960  -2.365  -5.520  1.00  0.00     0.054 A 
BRANCH  91  92
ATOM     92  S   UNL     1      -7.145  -3.652  -6.505  1.00  0.00     0.124 S 
ATOM     93  O   UNL     1      -7.269  -4.824  -5.641  1.00  0.00    -0.237 OA
ATOM     94  O   UNL     1      -7.950  -3.686  -7.724  1.00  0.00    -0.237 OA
ATOM     95  O   UNL     1      -5.782  -3.152  -6.676  1.00  0.00    -0.744 OA
ENDBRANCH  91  92
ENDBRANCH  65  86
ENDBRANCH  39  40
ENDBRANCH  32  34
ENDBRANCH  31  32
ENDBRANCH  30  31
ENDBRANCH  29  30
ENDBRANCH   1  29
TORSDOF 20
