REMARK SMILES O=C(OCCOCCOC(=O)[C@@H]1CCn2c(C(=O)c3ccccc3)ccc21)c1ccc(-c2c3nc(c(-c4ccc(S(=O)(=O)[O-])cc4)c4ccc([nH]4)c(-c4ccc(S(=O)(=O)[O-])cc4)c4nc(c(-c5ccc(S(=O)(=O)[O-])cc5)c5ccc2[nH]5)C=C4)C=C3)cc1
REMARK SMILES IDX 5 1 4 2 3 3 2 4 1 5 28 6 29 7 87 8 30 9 86 10 31 11 32 12
REMARK SMILES IDX 33 13 80 14 34 15 85 16 79 17 81 18 35 19 84 20 78 21 77 22
REMARK SMILES IDX 36 24 66 25 47 26 65 27 48 28 51 29 64 30 82 31 49 32 50 33
REMARK SMILES IDX 63 35 83 36 52 37 37 38 38 39 46 40 39 41 45 42 40 43 41 44
REMARK SMILES IDX 42 45 43 46 44 47 67 48 68 49 76 50 69 51 75 52 70 53 71 54
REMARK SMILES IDX 72 55 73 56 74 57 53 58 54 59 62 60 55 61 61 62 56 63 57 64
REMARK SMILES IDX 58 65 59 66 60 67 6 68 7 69 8 70 9 71 10 72 11 73 12 74
REMARK SMILES IDX 13 75 27 76 14 77 15 78 26 79 16 80 25 81 17 82 18 83 19 84
REMARK SMILES IDX 20 85 24 86 21 87 23 88 22 89
REMARK H PARENT 81 23 51 34
REMARK Flexibility Score: inf
ROOT
ATOM      1  C   UNL     1       4.166  -1.215  -0.758  1.00  0.00     0.202 C 
ENDROOT
BRANCH   1   2
ATOM      2  C   UNL     1       3.780  -0.881   0.681  1.00  0.00     0.261 C 
BRANCH   2   3
ATOM      3  O   UNL     1       2.387  -0.546   0.755  1.00  0.00    -0.460 OA
BRANCH   3   4
ATOM      4  C   UNL     1       1.875   0.707   0.836  1.00  0.00     0.338 C 
ATOM      5  O   UNL     1       0.657   0.855   0.910  1.00  0.00    -0.246 OA
BRANCH   4   6
ATOM      6  C   UNL     1       2.741   1.918   0.887  1.00  0.00     0.060 A 
ATOM      7  C   UNL     1       3.896   2.075   0.121  1.00  0.00     0.016 A 
ATOM      8  C   UNL     1       2.325   2.993   1.683  1.00  0.00     0.016 A 
ATOM      9  C   UNL     1       4.667   3.214   0.183  1.00  0.00     0.010 A 
ATOM     10  C   UNL     1       3.058   4.184   1.698  1.00  0.00     0.010 A 
ATOM     11  C   UNL     1       4.233   4.289   0.942  1.00  0.00    -0.014 A 
BRANCH  11  12
ATOM     12  C   UNL     1       5.092   5.480   0.952  1.00  0.00     0.031 A 
ATOM     13  C   UNL     1       5.880   5.773   2.185  1.00  0.00     0.074 A 
ATOM     14  C   UNL     1       5.256   6.173  -0.191  1.00  0.00     0.049 A 
ATOM     15  N   UNL     1       6.644   6.794   2.447  1.00  0.00    -0.248 NA
ATOM     16  C   UNL     1       5.804   4.775   3.267  1.00  0.00     0.031 C 
ATOM     17  C   UNL     1       4.637   5.837  -1.481  1.00  0.00     0.029 A 
ATOM     18  N   UNL     1       6.022   7.269  -0.471  1.00  0.00    -0.354 N 
ATOM     19  C   UNL     1       7.098   6.592   3.743  1.00  0.00     0.074 A 
ATOM     20  C   UNL     1       6.531   5.349   4.212  1.00  0.00     0.031 C 
ATOM     21  C   UNL     1       5.081   6.688  -2.418  1.00  0.00     0.029 A 
ATOM     22  C   UNL     1       5.930   7.683  -1.779  1.00  0.00     0.049 A 
ATOM     23  H   UNL     1       6.584   7.720   0.199  1.00  0.00     0.167 HD
ATOM     24  C   UNL     1       7.902   7.398   4.472  1.00  0.00     0.031 A 
ATOM     25  C   UNL     1       6.441   8.775  -2.374  1.00  0.00     0.031 A 
ATOM     26  C   UNL     1       8.432   8.632   3.957  1.00  0.00     0.049 A 
ATOM     27  C   UNL     1       7.242   9.711  -1.514  1.00  0.00     0.074 A 
ATOM     28  C   UNL     1       9.197   9.583   4.601  1.00  0.00     0.029 A 
ATOM     29  N   UNL     1       8.242   9.078   2.653  1.00  0.00    -0.354 N 
ATOM     30  N   UNL     1       7.588   9.572  -0.253  1.00  0.00    -0.248 NA
ATOM     31  C   UNL     1       7.702  10.955  -2.137  1.00  0.00     0.031 C 
ATOM     32  C   UNL     1       9.424  10.631   3.701  1.00  0.00     0.029 A 
ATOM     33  C   UNL     1       8.857  10.302   2.476  1.00  0.00     0.049 A 
ATOM     34  H   UNL     1       7.742   8.593   1.958  1.00  0.00     0.167 HD
ATOM     35  C   UNL     1       8.320  10.706   0.067  1.00  0.00     0.074 A 
ATOM     36  C   UNL     1       8.383  11.509  -1.142  1.00  0.00     0.031 C 
ATOM     37  C   UNL     1       8.887  11.060   1.248  1.00  0.00     0.031 A 
BRANCH  24  38
ATOM     38  C   UNL     1       8.140   7.008   5.905  1.00  0.00    -0.014 A 
ATOM     39  C   UNL     1       8.915   5.886   6.253  1.00  0.00     0.010 A 
ATOM     40  C   UNL     1       7.515   7.748   6.926  1.00  0.00     0.010 A 
ATOM     41  C   UNL     1       9.010   5.478   7.587  1.00  0.00     0.020 A 
ATOM     42  C   UNL     1       7.632   7.361   8.263  1.00  0.00     0.020 A 
ATOM     43  C   UNL     1       8.359   6.213   8.583  1.00  0.00     0.054 A 
BRANCH  43  44
ATOM     44  S   UNL     1       8.476   5.651  10.304  1.00  0.00     0.124 S 
ATOM     45  O   UNL     1       7.617   4.469  10.294  1.00  0.00    -0.237 OA
ATOM     46  O   UNL     1       9.904   5.386  10.458  1.00  0.00    -0.237 OA
ATOM     47  O   UNL     1       7.969   6.783  11.075  1.00  0.00    -0.744 OA
ENDBRANCH  43  44
ENDBRANCH  24  38
BRANCH  25  48
ATOM     48  C   UNL     1       6.147   9.062  -3.807  1.00  0.00    -0.014 A 
ATOM     49  C   UNL     1       7.169   9.063  -4.771  1.00  0.00     0.010 A 
ATOM     50  C   UNL     1       4.824   9.312  -4.224  1.00  0.00     0.010 A 
ATOM     51  C   UNL     1       6.877   9.316  -6.117  1.00  0.00     0.020 A 
ATOM     52  C   UNL     1       4.523   9.533  -5.571  1.00  0.00     0.020 A 
ATOM     53  C   UNL     1       5.554   9.545  -6.509  1.00  0.00     0.054 A 
BRANCH  53  54
ATOM     54  S   UNL     1       5.193   9.822  -8.266  1.00  0.00     0.124 S 
ATOM     55  O   UNL     1       5.750  11.153  -8.485  1.00  0.00    -0.237 OA
ATOM     56  O   UNL     1       5.906   8.723  -8.912  1.00  0.00    -0.237 OA
ATOM     57  O   UNL     1       3.736   9.735  -8.335  1.00  0.00    -0.744 OA
ENDBRANCH  53  54
ENDBRANCH  25  48
BRANCH  37  58
ATOM     58  C   UNL     1       9.651  12.353   1.266  1.00  0.00    -0.014 A 
ATOM     59  C   UNL     1       8.987  13.591   1.242  1.00  0.00     0.010 A 
ATOM     60  C   UNL     1      11.052  12.317   1.378  1.00  0.00     0.010 A 
ATOM     61  C   UNL     1       9.719  14.777   1.305  1.00  0.00     0.020 A 
ATOM     62  C   UNL     1      11.783  13.501   1.473  1.00  0.00     0.020 A 
ATOM     63  C   UNL     1      11.111  14.724   1.424  1.00  0.00     0.054 A 
BRANCH  63  64
ATOM     64  S   UNL     1      12.033  16.277   1.565  1.00  0.00     0.124 S 
ATOM     65  O   UNL     1      11.965  16.795   0.201  1.00  0.00    -0.237 OA
ATOM     66  O   UNL     1      11.260  17.018   2.559  1.00  0.00    -0.237 OA
ATOM     67  O   UNL     1      13.360  15.854   2.006  1.00  0.00    -0.744 OA
ENDBRANCH  63  64
ENDBRANCH  37  58
ENDBRANCH  11  12
ENDBRANCH   4   6
ENDBRANCH   3   4
ENDBRANCH   2   3
ENDBRANCH   1   2
BRANCH   1  68
ATOM     68  O   UNL     1       3.795  -0.238  -1.725  1.00  0.00    -0.374 OA
BRANCH  68  69
ATOM     69  C   UNL     1       2.546  -0.413  -2.383  1.00  0.00     0.202 C 
BRANCH  69  70
ATOM     70  C   UNL     1       2.810  -0.630  -3.875  1.00  0.00     0.261 C 
BRANCH  70  71
ATOM     71  O   UNL     1       3.527  -1.866  -4.046  1.00  0.00    -0.463 OA
BRANCH  71  72
ATOM     72  C   UNL     1       4.887  -1.799  -3.916  1.00  0.00     0.315 C 
ATOM     73  O   UNL     1       5.554  -0.780  -4.039  1.00  0.00    -0.251 OA
BRANCH  72  74
ATOM     74  C   UNL     1       5.465  -3.176  -3.614  1.00  0.00     0.148 C 
ATOM     75  C   UNL     1       4.389  -4.235  -3.226  1.00  0.00     0.043 C 
ATOM     76  C   UNL     1       6.335  -3.207  -2.394  1.00  0.00     0.033 A 
ATOM     77  C   UNL     1       5.072  -5.178  -2.236  1.00  0.00     0.124 C 
ATOM     78  N   UNL     1       6.104  -4.335  -1.657  1.00  0.00    -0.341 N 
ATOM     79  C   UNL     1       7.268  -2.457  -1.725  1.00  0.00     0.025 A 
ATOM     80  C   UNL     1       6.815  -4.347  -0.495  1.00  0.00     0.090 A 
ATOM     81  C   UNL     1       7.524  -3.147  -0.500  1.00  0.00     0.032 A 
BRANCH  80  82
ATOM     82  C   UNL     1       6.805  -5.369   0.539  1.00  0.00     0.209 C 
ATOM     83  O   UNL     1       6.979  -5.126   1.733  1.00  0.00    -0.287 OA
BRANCH  82  84
ATOM     84  C   UNL     1       6.569  -6.783   0.147  1.00  0.00     0.024 A 
ATOM     85  C   UNL     1       5.722  -7.578   0.926  1.00  0.00     0.012 A 
ATOM     86  C   UNL     1       7.155  -7.309  -1.012  1.00  0.00     0.012 A 
ATOM     87  C   UNL     1       5.407  -8.871   0.504  1.00  0.00     0.001 A 
ATOM     88  C   UNL     1       6.823  -8.594  -1.438  1.00  0.00     0.001 A 
ATOM     89  C   UNL     1       5.941  -9.369  -0.686  1.00  0.00     0.000 A 
ENDBRANCH  82  84
ENDBRANCH  80  82
ENDBRANCH  72  74
ENDBRANCH  71  72
ENDBRANCH  70  71
ENDBRANCH  69  70
ENDBRANCH  68  69
ENDBRANCH   1  68
TORSDOF 19
