REMARK SMILES COc1cccc(-c2c(C(=O)OCCOCCOC(=O)c3ccc(-c4c5nc(c(-c6ccc(S(=O)(=O)[O-])cc6)c6ccc([nH]6)c(-c6ccc(S(=O)(=O)[O-])cc6)c6nc(c(-c7ccc(S(=O)(=O)[O-])cc7)c7ccc4[nH]7)C=C6)C=C5)cc3)nnn2-c2ccc(OC(F)(F)F)cc2)c1
REMARK SMILES IDX 15 1 14 2 13 3 12 4 10 5 11 6 9 7 8 8 83 9 81 10 82 11 7 12
REMARK SMILES IDX 3 13 4 14 95 15 5 16 6 17 2 18 1 19 84 20 85 21 94 22 86 23
REMARK SMILES IDX 93 24 87 25 88 26 89 27 90 28 91 29 92 30 16 31 17 32 18 33
REMARK SMILES IDX 19 34 20 35 21 36 22 37 80 38 23 39 79 40 24 41 25 42 26 43
REMARK SMILES IDX 73 44 27 45 78 46 72 47 74 48 28 49 77 50 71 51 70 52 29 54
REMARK SMILES IDX 59 55 40 56 58 57 41 58 44 59 57 60 75 61 42 62 43 63 56 65
REMARK SMILES IDX 76 66 45 67 30 68 31 69 39 70 32 71 38 72 33 73 34 74 35 75
REMARK SMILES IDX 36 76 37 77 60 78 61 79 69 80 62 81 68 82 63 83 64 84 65 85
REMARK SMILES IDX 66 86 67 87 46 88 47 89 55 90 48 91 54 92 49 93 50 94 51 95
REMARK SMILES IDX 52 96 53 97
REMARK H PARENT 74 53 44 64
REMARK Flexibility Score: inf
ROOT
ATOM      1  O   UNL     1       4.031   2.990   7.774  1.00  0.00    -0.374 OA
ENDROOT
BRANCH   1   2
ATOM      2  C   UNL     1       2.690   3.391   7.504  1.00  0.00     0.202 C 
BRANCH   2   3
ATOM      3  C   UNL     1       2.485   4.520   6.491  1.00  0.00     0.261 C 
BRANCH   3   4
ATOM      4  O   UNL     1       2.899   4.150   5.166  1.00  0.00    -0.458 OA
BRANCH   4   5
ATOM      5  C   UNL     1       4.022   4.787   4.707  1.00  0.00     0.361 C 
ATOM      6  O   UNL     1       4.590   5.690   5.290  1.00  0.00    -0.244 OA
BRANCH   5   7
ATOM      7  C   UNL     1       4.541   4.196   3.481  1.00  0.00     0.198 A 
ATOM      8  C   UNL     1       3.880   3.728   2.354  1.00  0.00     0.109 A 
ATOM      9  N   UNL     1       4.934   3.463   1.481  1.00  0.00    -0.212 N 
ATOM     10  N   UNL     1       5.894   3.975   3.336  1.00  0.00    -0.122 NA
ATOM     11  N   UNL     1       6.098   3.402   2.160  1.00  0.00    -0.061 NA
BRANCH   8  12
ATOM     12  C   UNL     1       2.467   3.560   2.000  1.00  0.00     0.007 A 
ATOM     13  C   UNL     1       0.735   2.278   0.852  1.00  0.00     0.119 A 
ATOM     14  C   UNL     1      -0.166   3.315   1.091  1.00  0.00     0.046 A 
ATOM     15  C   UNL     1       2.042   2.394   1.326  1.00  0.00     0.056 A 
ATOM     16  C   UNL     1       0.224   4.449   1.802  1.00  0.00     0.005 A 
ATOM     17  C   UNL     1       1.539   4.575   2.251  1.00  0.00     0.011 A 
BRANCH  13  18
ATOM     18  O   UNL     1       0.234   1.254   0.101  1.00  0.00    -0.497 OA
ATOM     19  C   UNL     1       0.954   0.028   0.082  1.00  0.00     0.278 C 
ENDBRANCH  13  18
ENDBRANCH   8  12
BRANCH   9  20
ATOM     20  C   UNL     1       4.918   3.413   0.069  1.00  0.00     0.067 A 
ATOM     21  C   UNL     1       5.720   2.497  -0.612  1.00  0.00     0.032 A 
ATOM     22  C   UNL     1       4.108   4.307  -0.641  1.00  0.00     0.032 A 
ATOM     23  C   UNL     1       5.641   2.432  -2.007  1.00  0.00     0.049 A 
ATOM     24  C   UNL     1       4.073   4.265  -2.034  1.00  0.00     0.049 A 
ATOM     25  C   UNL     1       4.817   3.310  -2.725  1.00  0.00     0.129 A 
BRANCH  25  26
ATOM     26  O   UNL     1       4.830   3.130  -4.079  1.00  0.00    -0.406 OA
BRANCH  26  27
ATOM     27  C   UNL     1       3.999   3.973  -4.860  1.00  0.00     0.573 C 
ATOM     28  F   UNL     1       2.704   3.875  -4.492  1.00  0.00    -0.132 F 
ATOM     29  F   UNL     1       4.396   5.262  -4.760  1.00  0.00    -0.132 F 
ATOM     30  F   UNL     1       4.098   3.607  -6.157  1.00  0.00    -0.132 F 
ENDBRANCH  26  27
ENDBRANCH  25  26
ENDBRANCH   9  20
ENDBRANCH   5   7
ENDBRANCH   4   5
ENDBRANCH   3   4
ENDBRANCH   2   3
ENDBRANCH   1   2
BRANCH   1  31
ATOM     31  C   UNL     1       4.764   2.286   6.778  1.00  0.00     0.202 C 
BRANCH  31  32
ATOM     32  C   UNL     1       4.316   0.880   6.400  1.00  0.00     0.261 C 
BRANCH  32  33
ATOM     33  O   UNL     1       3.000   0.823   5.858  1.00  0.00    -0.460 OA
BRANCH  33  34
ATOM     34  C   UNL     1       2.101   0.240   6.688  1.00  0.00     0.338 C 
ATOM     35  O   UNL     1       2.150   0.208   7.906  1.00  0.00    -0.246 OA
BRANCH  34  36
ATOM     36  C   UNL     1       1.136  -0.529   5.890  1.00  0.00     0.060 A 
ATOM     37  C   UNL     1       0.192  -1.278   6.593  1.00  0.00     0.016 A 
ATOM     38  C   UNL     1       1.313  -0.689   4.507  1.00  0.00     0.016 A 
ATOM     39  C   UNL     1      -0.462  -2.302   5.936  1.00  0.00     0.010 A 
ATOM     40  C   UNL     1       0.665  -1.720   3.857  1.00  0.00     0.010 A 
ATOM     41  C   UNL     1      -0.169  -2.558   4.588  1.00  0.00    -0.014 A 
BRANCH  41  42
ATOM     42  C   UNL     1      -0.917  -3.603   3.912  1.00  0.00     0.031 A 
ATOM     43  C   UNL     1      -2.361  -3.290   3.858  1.00  0.00     0.074 A 
ATOM     44  C   UNL     1      -0.392  -4.707   3.344  1.00  0.00     0.049 A 
ATOM     45  N   UNL     1      -3.268  -3.787   4.628  1.00  0.00    -0.248 NA
ATOM     46  C   UNL     1      -2.814  -2.156   3.039  1.00  0.00     0.031 C 
ATOM     47  C   UNL     1       1.016  -5.049   3.137  1.00  0.00     0.029 A 
ATOM     48  N   UNL     1      -1.044  -5.748   2.753  1.00  0.00    -0.354 N 
ATOM     49  C   UNL     1      -4.460  -3.227   4.200  1.00  0.00     0.074 A 
ATOM     50  C   UNL     1      -4.101  -2.089   3.389  1.00  0.00     0.031 C 
ATOM     51  C   UNL     1       1.102  -6.091   2.274  1.00  0.00     0.029 A 
ATOM     52  C   UNL     1      -0.237  -6.579   1.982  1.00  0.00     0.049 A 
ATOM     53  H   UNL     1      -2.011  -5.900   2.864  1.00  0.00     0.167 HD
ATOM     54  C   UNL     1      -5.618  -3.933   4.290  1.00  0.00     0.031 A 
ATOM     55  C   UNL     1      -0.646  -7.576   1.150  1.00  0.00     0.031 A 
ATOM     56  C   UNL     1      -5.492  -5.055   5.189  1.00  0.00     0.049 A 
ATOM     57  C   UNL     1      -1.985  -8.010   1.616  1.00  0.00     0.074 A 
ATOM     58  C   UNL     1      -5.122  -5.205   6.513  1.00  0.00     0.029 A 
ATOM     59  N   UNL     1      -5.361  -6.300   4.617  1.00  0.00    -0.354 N 
ATOM     60  N   UNL     1      -2.173  -8.620   2.751  1.00  0.00    -0.248 NA
ATOM     61  C   UNL     1      -3.155  -7.351   1.061  1.00  0.00     0.031 C 
ATOM     62  C   UNL     1      -4.339  -6.397   6.545  1.00  0.00     0.029 A 
ATOM     63  C   UNL     1      -4.348  -6.957   5.266  1.00  0.00     0.049 A 
ATOM     64  H   UNL     1      -5.899  -6.655   3.874  1.00  0.00     0.167 HD
ATOM     65  C   UNL     1      -3.311  -8.029   3.279  1.00  0.00     0.074 A 
ATOM     66  C   UNL     1      -3.925  -7.324   2.153  1.00  0.00     0.031 C 
ATOM     67  C   UNL     1      -3.491  -7.935   4.630  1.00  0.00     0.031 A 
BRANCH  54  68
ATOM     68  C   UNL     1      -6.667  -3.888   3.208  1.00  0.00    -0.014 A 
ATOM     69  C   UNL     1      -7.857  -4.617   3.392  1.00  0.00     0.010 A 
ATOM     70  C   UNL     1      -6.401  -3.407   1.908  1.00  0.00     0.010 A 
ATOM     71  C   UNL     1      -8.701  -4.905   2.313  1.00  0.00     0.020 A 
ATOM     72  C   UNL     1      -7.258  -3.649   0.836  1.00  0.00     0.020 A 
ATOM     73  C   UNL     1      -8.389  -4.424   1.041  1.00  0.00     0.054 A 
BRANCH  73  74
ATOM     74  S   UNL     1      -9.451  -4.858  -0.355  1.00  0.00     0.124 S 
ATOM     75  O   UNL     1      -9.248  -6.300  -0.448  1.00  0.00    -0.237 OA
ATOM     76  O   UNL     1     -10.764  -4.429   0.117  1.00  0.00    -0.237 OA
ATOM     77  O   UNL     1      -8.903  -4.071  -1.458  1.00  0.00    -0.744 OA
ENDBRANCH  73  74
ENDBRANCH  54  68
BRANCH  55  78
ATOM     78  C   UNL     1      -0.128  -7.938  -0.199  1.00  0.00    -0.014 A 
ATOM     79  C   UNL     1      -0.613  -9.072  -0.884  1.00  0.00     0.010 A 
ATOM     80  C   UNL     1       0.604  -6.994  -0.945  1.00  0.00     0.010 A 
ATOM     81  C   UNL     1      -0.445  -9.212  -2.275  1.00  0.00     0.020 A 
ATOM     82  C   UNL     1       0.780  -7.129  -2.328  1.00  0.00     0.020 A 
ATOM     83  C   UNL     1       0.229  -8.222  -2.994  1.00  0.00     0.054 A 
BRANCH  83  84
ATOM     84  S   UNL     1       0.265  -8.291  -4.812  1.00  0.00     0.124 S 
ATOM     85  O   UNL     1       1.181  -9.399  -5.065  1.00  0.00    -0.237 OA
ATOM     86  O   UNL     1      -1.134  -8.537  -5.151  1.00  0.00    -0.237 OA
ATOM     87  O   UNL     1       0.767  -6.972  -5.195  1.00  0.00    -0.744 OA
ENDBRANCH  83  84
ENDBRANCH  55  78
BRANCH  67  88
ATOM     88  C   UNL     1      -2.615  -8.774   5.535  1.00  0.00    -0.014 A 
ATOM     89  C   UNL     1      -1.206  -8.753   5.538  1.00  0.00     0.010 A 
ATOM     90  C   UNL     1      -3.269  -9.570   6.492  1.00  0.00     0.010 A 
ATOM     91  C   UNL     1      -0.477  -9.557   6.431  1.00  0.00     0.020 A 
ATOM     92  C   UNL     1      -2.552 -10.354   7.397  1.00  0.00     0.020 A 
ATOM     93  C   UNL     1      -1.159 -10.363   7.348  1.00  0.00     0.054 A 
BRANCH  93  94
ATOM     94  S   UNL     1      -0.222 -11.429   8.478  1.00  0.00     0.124 S 
ATOM     95  O   UNL     1       0.395 -12.390   7.569  1.00  0.00    -0.237 OA
ATOM     96  O   UNL     1       0.695 -10.492   9.122  1.00  0.00    -0.237 OA
ATOM     97  O   UNL     1      -1.246 -11.986   9.361  1.00  0.00    -0.744 OA
ENDBRANCH  93  94
ENDBRANCH  67  88
ENDBRANCH  41  42
ENDBRANCH  34  36
ENDBRANCH  33  34
ENDBRANCH  32  33
ENDBRANCH  31  32
ENDBRANCH   1  31
TORSDOF 22
