REMARK SMILES O=C(OCCOCCOC(=O)c1ccc(N2C(=O)/C(=C/C3=c4ccccc4=NC3)SC2=S)cc1O)c1ccc(-c2c3nc(c(-c4ccc(S(=O)(=O)[O-])cc4)c4ccc([nH]4)c(-c4ccc(S(=O)(=O)[O-])cc4)c4nc(c(-c5ccc(S(=O)(=O)[O-])cc5)c5ccc2[nH]5)C=C4)C=C3)cc1
REMARK SMILES IDX 5 1 4 2 3 3 2 4 1 5 36 6 37 7 95 8 38 9 94 10 39 11 40 12
REMARK SMILES IDX 41 13 88 14 42 15 93 16 87 17 89 18 43 19 92 20 86 21 85 22
REMARK SMILES IDX 44 24 74 25 55 26 73 27 56 28 59 29 72 30 90 31 57 32 58 33
REMARK SMILES IDX 71 35 91 36 60 37 45 38 46 39 54 40 47 41 53 42 48 43 49 44
REMARK SMILES IDX 50 45 51 46 52 47 75 48 76 49 84 50 77 51 83 52 78 53 79 54
REMARK SMILES IDX 80 55 81 56 82 57 61 58 62 59 70 60 63 61 69 62 64 63 65 64
REMARK SMILES IDX 66 65 67 66 68 67 6 68 7 69 8 70 9 71 10 72 11 73 12 74
REMARK SMILES IDX 13 75 34 76 14 77 33 78 15 79 35 80 16 82 17 83 31 84 18 85
REMARK SMILES IDX 19 86 30 87 32 88 20 89 21 90 22 91 29 92 23 93 27 94 28 95
REMARK SMILES IDX 24 96 26 97 25 98
REMARK H PARENT 89 23 59 34 35 81
REMARK Flexibility Score: inf
ROOT
ATOM      1  C   UNL     1       4.547  -1.355   0.416  1.00  0.00     0.202 C 
ENDROOT
BRANCH   1   2
ATOM      2  C   UNL     1       4.441  -0.101   1.286  1.00  0.00     0.261 C 
BRANCH   2   3
ATOM      3  O   UNL     1       3.091   0.371   1.361  1.00  0.00    -0.460 OA
BRANCH   3   4
ATOM      4  C   UNL     1       2.429   1.206   0.529  1.00  0.00     0.338 C 
ATOM      5  O   UNL     1       1.235   1.397   0.764  1.00  0.00    -0.246 OA
BRANCH   4   6
ATOM      6  C   UNL     1       3.014   1.887  -0.679  1.00  0.00     0.060 A 
ATOM      7  C   UNL     1       2.177   2.822  -1.319  1.00  0.00     0.016 A 
ATOM      8  C   UNL     1       4.246   1.618  -1.281  1.00  0.00     0.016 A 
ATOM      9  C   UNL     1       2.530   3.403  -2.540  1.00  0.00     0.010 A 
ATOM     10  C   UNL     1       4.596   2.168  -2.509  1.00  0.00     0.010 A 
ATOM     11  C   UNL     1       3.733   3.050  -3.150  1.00  0.00    -0.014 A 
BRANCH  11  12
ATOM     12  C   UNL     1       4.198   3.676  -4.396  1.00  0.00     0.031 A 
ATOM     13  C   UNL     1       4.109   2.941  -5.697  1.00  0.00     0.074 A 
ATOM     14  C   UNL     1       4.839   4.851  -4.278  1.00  0.00     0.049 A 
ATOM     15  N   UNL     1       4.525   3.322  -6.874  1.00  0.00    -0.248 NA
ATOM     16  C   UNL     1       3.493   1.602  -5.681  1.00  0.00     0.031 C 
ATOM     17  C   UNL     1       5.036   5.565  -3.012  1.00  0.00     0.029 A 
ATOM     18  N   UNL     1       5.480   5.626  -5.203  1.00  0.00    -0.354 N 
ATOM     19  C   UNL     1       4.204   2.288  -7.744  1.00  0.00     0.074 A 
ATOM     20  C   UNL     1       3.598   1.239  -6.955  1.00  0.00     0.031 C 
ATOM     21  C   UNL     1       5.772   6.662  -3.238  1.00  0.00     0.029 A 
ATOM     22  C   UNL     1       6.110   6.718  -4.656  1.00  0.00     0.049 A 
ATOM     23  H   UNL     1       5.489   5.423  -6.167  1.00  0.00     0.167 HD
ATOM     24  C   UNL     1       4.391   2.250  -9.082  1.00  0.00     0.031 A 
ATOM     25  C   UNL     1       6.883   7.656  -5.234  1.00  0.00     0.031 A 
ATOM     26  C   UNL     1       5.019   3.321  -9.815  1.00  0.00     0.049 A 
ATOM     27  C   UNL     1       7.063   7.598  -6.722  1.00  0.00     0.074 A 
ATOM     28  C   UNL     1       5.187   3.436 -11.182  1.00  0.00     0.029 A 
ATOM     29  N   UNL     1       5.588   4.451  -9.243  1.00  0.00    -0.354 N 
ATOM     30  N   UNL     1       6.627   6.685  -7.558  1.00  0.00    -0.248 NA
ATOM     31  C   UNL     1       7.798   8.698  -7.356  1.00  0.00     0.031 C 
ATOM     32  C   UNL     1       5.929   4.590 -11.430  1.00  0.00     0.029 A 
ATOM     33  C   UNL     1       6.141   5.249 -10.227  1.00  0.00     0.049 A 
ATOM     34  H   UNL     1       5.597   4.654  -8.279  1.00  0.00     0.167 HD
ATOM     35  C   UNL     1       7.013   7.110  -8.821  1.00  0.00     0.074 A 
ATOM     36  C   UNL     1       7.705   8.372  -8.640  1.00  0.00     0.031 C 
ATOM     37  C   UNL     1       6.815   6.509 -10.018  1.00  0.00     0.031 A 
BRANCH  24  38
ATOM     38  C   UNL     1       3.885   1.071  -9.878  1.00  0.00    -0.014 A 
ATOM     39  C   UNL     1       4.787   0.283 -10.619  1.00  0.00     0.010 A 
ATOM     40  C   UNL     1       2.504   0.892 -10.076  1.00  0.00     0.010 A 
ATOM     41  C   UNL     1       4.321  -0.603 -11.597  1.00  0.00     0.020 A 
ATOM     42  C   UNL     1       2.034  -0.014 -11.033  1.00  0.00     0.020 A 
ATOM     43  C   UNL     1       2.947  -0.726 -11.814  1.00  0.00     0.054 A 
BRANCH  43  44
ATOM     44  S   UNL     1       2.366  -1.778 -13.176  1.00  0.00     0.124 S 
ATOM     45  O   UNL     1       2.791  -1.025 -14.352  1.00  0.00    -0.237 OA
ATOM     46  O   UNL     1       3.079  -3.030 -12.936  1.00  0.00    -0.237 OA
ATOM     47  O   UNL     1       0.921  -1.844 -12.968  1.00  0.00    -0.744 OA
ENDBRANCH  43  44
ENDBRANCH  24  38
BRANCH  25  48
ATOM     48  C   UNL     1       7.465   8.728  -4.382  1.00  0.00    -0.014 A 
ATOM     49  C   UNL     1       8.432   8.411  -3.407  1.00  0.00     0.010 A 
ATOM     50  C   UNL     1       6.961  10.038  -4.439  1.00  0.00     0.010 A 
ATOM     51  C   UNL     1       8.837   9.364  -2.470  1.00  0.00     0.020 A 
ATOM     52  C   UNL     1       7.389  11.005  -3.524  1.00  0.00     0.020 A 
ATOM     53  C   UNL     1       8.301  10.653  -2.526  1.00  0.00     0.054 A 
BRANCH  53  54
ATOM     54  S   UNL     1       8.793  11.855  -1.259  1.00  0.00     0.124 S 
ATOM     55  O   UNL     1       8.067  11.370  -0.088  1.00  0.00    -0.237 OA
ATOM     56  O   UNL     1      10.243  11.692  -1.212  1.00  0.00    -0.237 OA
ATOM     57  O   UNL     1       8.328  13.130  -1.799  1.00  0.00    -0.744 OA
ENDBRANCH  53  54
ENDBRANCH  25  48
BRANCH  37  58
ATOM     58  C   UNL     1       7.350   7.185 -11.252  1.00  0.00    -0.014 A 
ATOM     59  C   UNL     1       6.452   7.648 -12.232  1.00  0.00     0.010 A 
ATOM     60  C   UNL     1       8.728   7.169 -11.528  1.00  0.00     0.010 A 
ATOM     61  C   UNL     1       6.917   8.014 -13.496  1.00  0.00     0.020 A 
ATOM     62  C   UNL     1       9.198   7.568 -12.780  1.00  0.00     0.020 A 
ATOM     63  C   UNL     1       8.286   7.951 -13.767  1.00  0.00     0.054 A 
BRANCH  63  64
ATOM     64  S   UNL     1       8.857   8.326 -15.446  1.00  0.00     0.124 S 
ATOM     65  O   UNL     1       8.394   7.162 -16.196  1.00  0.00    -0.237 OA
ATOM     66  O   UNL     1       8.171   9.581 -15.743  1.00  0.00    -0.237 OA
ATOM     67  O   UNL     1      10.307   8.436 -15.300  1.00  0.00    -0.744 OA
ENDBRANCH  63  64
ENDBRANCH  37  58
ENDBRANCH  11  12
ENDBRANCH   4   6
ENDBRANCH   3   4
ENDBRANCH   2   3
ENDBRANCH   1   2
BRANCH   1  68
ATOM     68  O   UNL     1       4.128  -1.164  -0.934  1.00  0.00    -0.374 OA
BRANCH  68  69
ATOM     69  C   UNL     1       2.786  -1.562  -1.234  1.00  0.00     0.202 C 
BRANCH  69  70
ATOM     70  C   UNL     1       2.781  -2.842  -2.065  1.00  0.00     0.261 C 
BRANCH  70  71
ATOM     71  O   UNL     1       3.299  -3.902  -1.255  1.00  0.00    -0.460 OA
BRANCH  71  72
ATOM     72  C   UNL     1       4.630  -4.117  -1.364  1.00  0.00     0.341 C 
ATOM     73  O   UNL     1       5.401  -3.647  -2.186  1.00  0.00    -0.246 OA
BRANCH  72  74
ATOM     74  C   UNL     1       5.088  -4.839  -0.164  1.00  0.00     0.101 A 
ATOM     75  C   UNL     1       6.260  -4.373   0.459  1.00  0.00     0.022 A 
ATOM     76  C   UNL     1       4.413  -5.944   0.353  1.00  0.00     0.132 A 
ATOM     77  C   UNL     1       6.777  -5.026   1.575  1.00  0.00     0.028 A 
ATOM     78  C   UNL     1       4.946  -6.623   1.443  1.00  0.00     0.073 A 
ATOM     79  C   UNL     1       6.152  -6.191   2.018  1.00  0.00     0.054 A 
BRANCH  76  80
ATOM     80  O   UNL     1       3.280  -6.416  -0.241  1.00  0.00    -0.507 OA
ATOM     81  H   UNL     1       2.914  -5.965  -0.977  1.00  0.00     0.293 HD
ENDBRANCH  76  80
BRANCH  79  82
ATOM     82  N   UNL     1       6.858  -7.083   2.853  1.00  0.00    -0.261 N 
ATOM     83  C   UNL     1       7.048  -6.812   4.201  1.00  0.00     0.270 C 
ATOM     84  C   UNL     1       7.404  -8.257   2.353  1.00  0.00     0.152 C 
ATOM     85  O   UNL     1       6.696  -5.817   4.821  1.00  0.00    -0.268 OA
ATOM     86  C   UNL     1       7.734  -7.973   4.839  1.00  0.00     0.081 C 
ATOM     87  S   UNL     1       8.081  -9.186   3.667  1.00  0.00    -0.054 SA
ATOM     88  S   UNL     1       7.505  -8.797   0.773  1.00  0.00    -0.051 S 
ATOM     89  C   UNL     1       7.970  -8.064   6.155  1.00  0.00     0.027 C 
BRANCH  89  90
ATOM     90  C   UNL     1       8.557  -9.216   6.799  1.00  0.00    -0.016 C 
ATOM     91  C   UNL     1       7.928 -10.078   7.594  1.00  0.00     0.005 A 
ATOM     92  C   UNL     1       9.974  -9.660   6.556  1.00  0.00     0.179 C 
ATOM     93  C   UNL     1       6.612 -10.187   8.139  1.00  0.00     0.011 A 
ATOM     94  C   UNL     1       8.951 -11.111   7.826  1.00  0.00     0.065 A 
ATOM     95  N   UNL     1      10.123 -10.941   7.294  1.00  0.00    -0.280 NA
ATOM     96  C   UNL     1       6.312 -11.264   8.885  1.00  0.00     0.001 A 
ATOM     97  C   UNL     1       8.539 -12.273   8.641  1.00  0.00     0.028 A 
ATOM     98  C   UNL     1       7.286 -12.316   9.126  1.00  0.00     0.002 A 
ENDBRANCH  89  90
ENDBRANCH  79  82
ENDBRANCH  72  74
ENDBRANCH  71  72
ENDBRANCH  70  71
ENDBRANCH  69  70
ENDBRANCH  68  69
ENDBRANCH   1  68
TORSDOF 20
