REMARK SMILES O=C(Nc1ccc2c(c1)OCO2)N[C@H]1C=C[C@@H](C(=O)OCCOCCOC(=O)c2ccc(-c3c4nc(c(-c5ccc(S(=O)(=O)[O-])cc5)c5ccc([nH]5)c(-c5ccc(S(=O)(=O)[O-])cc5)c5nc(c(-c6ccc(S(=O)(=O)[O-])cc6)c6ccc3[nH]6)C=C5)C=C4)cc2)C1
REMARK SMILES IDX 24 1 23 2 22 3 21 4 20 5 18 6 19 7 17 8 14 9 15 10 89 11
REMARK SMILES IDX 16 12 13 13 1 14 2 15 3 16 4 19 5 20 9 21 6 22 8 23 7 24
REMARK SMILES IDX 10 25 12 26 11 27 25 28 26 29 27 30 28 31 29 32 30 33 88 34
REMARK SMILES IDX 31 35 87 36 32 37 33 38 34 39 81 40 35 41 86 42 80 43 82 44
REMARK SMILES IDX 36 45 85 46 79 47 78 48 37 50 67 51 48 52 66 53 49 54 52 55
REMARK SMILES IDX 65 56 83 57 50 58 51 59 64 61 84 62 53 63 38 64 39 65 47 66
REMARK SMILES IDX 40 67 46 68 41 69 42 70 43 71 44 72 45 73 68 74 69 75 77 76
REMARK SMILES IDX 70 77 76 78 71 79 72 80 73 81 74 82 75 83 54 84 55 85 63 86
REMARK SMILES IDX 56 87 62 88 57 89 58 90 59 91 60 92 61 93
REMARK H PARENT 3 17 13 18 82 49 52 60
REMARK Flexibility Score: inf
ROOT
ATOM      1  C   UNL     1      -1.867  -2.813   2.114  1.00  0.00     0.202 C 
ENDROOT
BRANCH   1   2
ATOM      2  O   UNL     1      -1.938  -3.616   3.292  1.00  0.00    -0.374 OA
BRANCH   2   3
ATOM      3  C   UNL     1      -0.718  -3.843   4.004  1.00  0.00     0.202 C 
BRANCH   3   4
ATOM      4  C   UNL     1       0.235  -4.862   3.371  1.00  0.00     0.261 C 
BRANCH   4   5
ATOM      5  O   UNL     1       0.787  -4.324   2.157  1.00  0.00    -0.463 OA
BRANCH   5   6
ATOM      6  C   UNL     1       0.736  -5.119   1.060  1.00  0.00     0.312 C 
ATOM      7  O   UNL     1       0.449  -6.311   1.073  1.00  0.00    -0.252 OA
BRANCH   6   8
ATOM      8  C   UNL     1       1.067  -4.373  -0.230  1.00  0.00     0.124 C 
ATOM      9  C   UNL     1       2.163  -2.340  -1.062  1.00  0.00     0.107 C 
ATOM     10  C   UNL     1       3.061  -3.533  -1.142  1.00  0.00    -0.006 C 
ATOM     11  C   UNL     1       1.005  -2.840  -0.191  1.00  0.00     0.048 C 
ATOM     12  C   UNL     1       2.471  -4.641  -0.679  1.00  0.00    -0.014 C 
BRANCH   9  13
ATOM     13  N   UNL     1       2.888  -1.255  -0.460  1.00  0.00    -0.332 N 
ATOM     14  O   UNL     1       1.132   0.203  -0.411  1.00  0.00    -0.248 OA
ATOM     15  C   UNL     1       2.317  -0.041  -0.204  1.00  0.00     0.319 C 
ATOM     16  N   UNL     1       3.120   0.866   0.432  1.00  0.00    -0.308 N 
ATOM     17  H   UNL     1       2.651   1.554   0.956  1.00  0.00     0.171 HD
ATOM     18  H   UNL     1       3.834  -1.392  -0.223  1.00  0.00     0.165 HD
BRANCH  16  19
ATOM     19  C   UNL     1       4.523   0.949   0.441  1.00  0.00     0.046 A 
ATOM     20  C   UNL     1       5.300   0.507  -0.652  1.00  0.00     0.030 A 
ATOM     21  C   UNL     1       5.143   1.526   1.553  1.00  0.00     0.076 A 
ATOM     22  C   UNL     1       6.695   0.593  -0.623  1.00  0.00     0.053 A 
ATOM     23  C   UNL     1       6.522   1.562   1.568  1.00  0.00     0.167 A 
ATOM     24  C   UNL     1       7.277   1.108   0.512  1.00  0.00     0.165 A 
ATOM     25  O   UNL     1       7.291   2.020   2.592  1.00  0.00    -0.454 OA
ATOM     26  O   UNL     1       8.611   1.233   0.735  1.00  0.00    -0.454 OA
ATOM     27  C   UNL     1       8.613   1.729   2.092  1.00  0.00     0.468 C 
ENDBRANCH  16  19
ENDBRANCH   9  13
ENDBRANCH   6   8
ENDBRANCH   5   6
ENDBRANCH   4   5
ENDBRANCH   3   4
ENDBRANCH   2   3
ENDBRANCH   1   2
BRANCH   1  28
ATOM     28  C   UNL     1      -1.797  -1.294   2.318  1.00  0.00     0.261 C 
BRANCH  28  29
ATOM     29  O   UNL     1      -0.625  -0.879   3.041  1.00  0.00    -0.460 OA
BRANCH  29  30
ATOM     30  C   UNL     1      -0.866  -0.455   4.304  1.00  0.00     0.338 C 
ATOM     31  O   UNL     1      -1.955  -0.344   4.851  1.00  0.00    -0.246 OA
BRANCH  30  32
ATOM     32  C   UNL     1       0.401  -0.282   5.040  1.00  0.00     0.060 A 
ATOM     33  C   UNL     1       0.496  -0.884   6.301  1.00  0.00     0.016 A 
ATOM     34  C   UNL     1       1.439   0.520   4.556  1.00  0.00     0.016 A 
ATOM     35  C   UNL     1       1.602  -0.637   7.110  1.00  0.00     0.010 A 
ATOM     36  C   UNL     1       2.547   0.772   5.376  1.00  0.00     0.010 A 
ATOM     37  C   UNL     1       2.613   0.228   6.671  1.00  0.00    -0.014 A 
BRANCH  37  38
ATOM     38  C   UNL     1       3.646   0.676   7.638  1.00  0.00     0.031 A 
ATOM     39  C   UNL     1       3.479   2.009   8.318  1.00  0.00     0.074 A 
ATOM     40  C   UNL     1       4.687  -0.115   7.953  1.00  0.00     0.049 A 
ATOM     41  N   UNL     1       4.240   2.582   9.215  1.00  0.00    -0.248 NA
ATOM     42  C   UNL     1       2.297   2.800   7.939  1.00  0.00     0.031 C 
ATOM     43  C   UNL     1       4.938  -1.445   7.398  1.00  0.00     0.029 A 
ATOM     44  N   UNL     1       5.725   0.086   8.829  1.00  0.00    -0.354 N 
ATOM     45  C   UNL     1       3.633   3.798   9.506  1.00  0.00     0.074 A 
ATOM     46  C   UNL     1       2.458   3.895   8.668  1.00  0.00     0.031 C 
ATOM     47  C   UNL     1       6.060  -1.941   7.948  1.00  0.00     0.029 A 
ATOM     48  C   UNL     1       6.618  -0.957   8.874  1.00  0.00     0.049 A 
ATOM     49  H   UNL     1       5.820   0.901   9.373  1.00  0.00     0.167 HD
ATOM     50  C   UNL     1       4.012   4.747  10.396  1.00  0.00     0.031 A 
ATOM     51  C   UNL     1       7.761  -1.099   9.574  1.00  0.00     0.031 A 
ATOM     52  C   UNL     1       5.186   4.658  11.223  1.00  0.00     0.049 A 
ATOM     53  C   UNL     1       8.194  -0.005  10.515  1.00  0.00     0.074 A 
ATOM     54  C   UNL     1       5.650   5.566  12.159  1.00  0.00     0.029 A 
ATOM     55  N   UNL     1       6.084   3.602  11.211  1.00  0.00    -0.354 N 
ATOM     56  N   UNL     1       7.599   1.131  10.789  1.00  0.00    -0.248 NA
ATOM     57  C   UNL     1       9.450  -0.220  11.249  1.00  0.00     0.031 C 
ATOM     58  C   UNL     1       6.855   5.080  12.679  1.00  0.00     0.029 A 
ATOM     59  C   UNL     1       7.111   3.844  12.107  1.00  0.00     0.049 A 
ATOM     60  H   UNL     1       6.003   2.798  10.648  1.00  0.00     0.167 HD
ATOM     61  C   UNL     1       8.391   1.752  11.749  1.00  0.00     0.074 A 
ATOM     62  C   UNL     1       9.503   0.862  12.014  1.00  0.00     0.031 C 
ATOM     63  C   UNL     1       8.212   2.950  12.360  1.00  0.00     0.031 A 
BRANCH  50  64
ATOM     64  C   UNL     1       3.158   5.982  10.494  1.00  0.00    -0.014 A 
ATOM     65  C   UNL     1       1.890   5.945  11.102  1.00  0.00     0.010 A 
ATOM     66  C   UNL     1       3.643   7.205   9.994  1.00  0.00     0.010 A 
ATOM     67  C   UNL     1       1.105   7.099  11.172  1.00  0.00     0.020 A 
ATOM     68  C   UNL     1       2.871   8.366  10.085  1.00  0.00     0.020 A 
ATOM     69  C   UNL     1       1.599   8.302  10.657  1.00  0.00     0.054 A 
BRANCH  69  70
ATOM     70  S   UNL     1       0.567   9.789  10.771  1.00  0.00     0.124 S 
ATOM     71  O   UNL     1      -0.433   9.541   9.736  1.00  0.00    -0.237 OA
ATOM     72  O   UNL     1       0.075   9.735  12.146  1.00  0.00    -0.237 OA
ATOM     73  O   UNL     1       1.498  10.879  10.489  1.00  0.00    -0.744 OA
ENDBRANCH  69  70
ENDBRANCH  50  64
BRANCH  51  74
ATOM     74  C   UNL     1       8.585  -2.326   9.406  1.00  0.00    -0.014 A 
ATOM     75  C   UNL     1       8.677  -3.279  10.435  1.00  0.00     0.010 A 
ATOM     76  C   UNL     1       9.286  -2.545   8.206  1.00  0.00     0.010 A 
ATOM     77  C   UNL     1       9.466  -4.422  10.273  1.00  0.00     0.020 A 
ATOM     78  C   UNL     1      10.056  -3.697   8.030  1.00  0.00     0.020 A 
ATOM     79  C   UNL     1      10.150  -4.624   9.070  1.00  0.00     0.054 A 
BRANCH  79  80
ATOM     80  S   UNL     1      11.125  -6.139   8.857  1.00  0.00     0.124 S 
ATOM     81  O   UNL     1      12.308  -5.854   9.662  1.00  0.00    -0.237 OA
ATOM     82  O   UNL     1      10.232  -7.168   9.385  1.00  0.00    -0.237 OA
ATOM     83  O   UNL     1      11.348  -6.200   7.414  1.00  0.00    -0.744 OA
ENDBRANCH  79  80
ENDBRANCH  51  74
BRANCH  63  84
ATOM     84  C   UNL     1       9.219   3.354  13.404  1.00  0.00    -0.014 A 
ATOM     85  C   UNL     1      10.516   3.766  13.048  1.00  0.00     0.010 A 
ATOM     86  C   UNL     1       8.844   3.366  14.760  1.00  0.00     0.010 A 
ATOM     87  C   UNL     1      11.431   4.147  14.034  1.00  0.00     0.020 A 
ATOM     88  C   UNL     1       9.748   3.771  15.746  1.00  0.00     0.020 A 
ATOM     89  C   UNL     1      11.042   4.144  15.377  1.00  0.00     0.054 A 
BRANCH  89  90
ATOM     90  S   UNL     1      12.235   4.673  16.637  1.00  0.00     0.124 S 
ATOM     91  O   UNL     1      13.112   3.509  16.731  1.00  0.00    -0.237 OA
ATOM     92  O   UNL     1      12.833   5.862  16.035  1.00  0.00    -0.237 OA
ATOM     93  O   UNL     1      11.407   4.927  17.813  1.00  0.00    -0.744 OA
ENDBRANCH  89  90
ENDBRANCH  63  84
ENDBRANCH  37  38
ENDBRANCH  30  32
ENDBRANCH  29  30
ENDBRANCH  28  29
ENDBRANCH   1  28
TORSDOF 19
