REMARK SMILES CCc1n[nH]c2cc(CCC(=O)OCCOCCOC(=O)c3ccc(-c4c5nc(c(-c6ccc(S(=O)(=O)[O-])cc6)c6ccc([nH]6)c(-c6ccc(S(=O)(=O)[O-])cc6)c6nc(c(-c7ccc(S(=O)(=O)[O-])cc7)c7ccc4[nH]7)C=C6)C=C5)cc3)ccc12
REMARK SMILES IDX 16 1 15 2 14 3 13 4 11 5 12 6 10 7 9 8 8 9 3 10 4 11 84 12
REMARK SMILES IDX 5 13 6 14 83 15 7 17 82 18 2 19 1 20 17 21 18 22 19 23 20 24
REMARK SMILES IDX 21 25 22 26 23 27 81 28 24 29 80 30 25 31 26 32 27 33 74 34
REMARK SMILES IDX 28 35 79 36 73 37 75 38 29 39 78 40 72 41 71 42 30 44 60 45
REMARK SMILES IDX 41 46 59 47 42 48 45 49 58 50 76 51 43 52 44 53 57 55 77 56
REMARK SMILES IDX 46 57 31 58 32 59 40 60 33 61 39 62 34 63 35 64 36 65 37 66
REMARK SMILES IDX 38 67 61 68 62 69 70 70 63 71 69 72 64 73 65 74 66 75 67 76
REMARK SMILES IDX 68 77 47 78 48 79 56 80 49 81 55 82 50 83 51 84 52 85 53 86
REMARK SMILES IDX 54 87
REMARK H PARENT 5 16 75 43 45 54
REMARK Flexibility Score: inf
ROOT
ATOM      1  O   UNL     1       2.636   6.262  -6.688  1.00  0.00    -0.374 OA
ENDROOT
BRANCH   1   2
ATOM      2  C   UNL     1       1.497   6.058  -5.848  1.00  0.00     0.202 C 
BRANCH   2   3
ATOM      3  C   UNL     1       0.395   5.169  -6.450  1.00  0.00     0.261 C 
BRANCH   3   4
ATOM      4  O   UNL     1       0.711   3.763  -6.350  1.00  0.00    -0.463 OA
BRANCH   4   5
ATOM      5  C   UNL     1       1.199   3.132  -7.447  1.00  0.00     0.306 C 
ATOM      6  O   UNL     1       1.333   3.650  -8.548  1.00  0.00    -0.252 OA
BRANCH   5   7
ATOM      7  C   UNL     1       1.578   1.689  -7.157  1.00  0.00     0.127 C 
BRANCH   7   8
ATOM      8  C   UNL     1       2.797   1.466  -6.245  1.00  0.00     0.047 C 
BRANCH   8   9
ATOM      9  C   UNL     1       2.458   1.414  -4.771  1.00  0.00    -0.045 A 
ATOM     10  C   UNL     1       0.851   1.673  -0.885  1.00  0.00     0.070 A 
ATOM     11  N   UNL     1       0.495   2.964  -0.896  1.00  0.00    -0.180 NA
ATOM     12  C   UNL     1       1.469   1.298  -2.118  1.00  0.00     0.023 A 
ATOM     13  N   UNL     1       0.905   3.416  -2.077  1.00  0.00    -0.278 N 
ATOM     14  C   UNL     1       1.525   2.479  -2.844  1.00  0.00     0.066 A 
ATOM     15  C   UNL     1       1.996   0.142  -2.726  1.00  0.00     0.012 A 
ATOM     16  H   UNL     1       0.772   4.346  -2.371  1.00  0.00     0.190 HD
ATOM     17  C   UNL     1       2.091   2.584  -4.109  1.00  0.00     0.032 A 
ATOM     18  C   UNL     1       2.448   0.208  -4.060  1.00  0.00     0.004 A 
BRANCH  10  19
ATOM     19  C   UNL     1       0.522   0.918   0.360  1.00  0.00     0.055 C 
ATOM     20  C   UNL     1       0.984  -0.522   0.412  1.00  0.00     0.011 C 
ENDBRANCH  10  19
ENDBRANCH   8   9
ENDBRANCH   7   8
ENDBRANCH   5   7
ENDBRANCH   4   5
ENDBRANCH   3   4
ENDBRANCH   2   3
ENDBRANCH   1   2
BRANCH   1  21
ATOM     21  C   UNL     1       3.635   5.246  -6.650  1.00  0.00     0.202 C 
BRANCH  21  22
ATOM     22  C   UNL     1       4.735   5.444  -5.602  1.00  0.00     0.261 C 
BRANCH  22  23
ATOM     23  O   UNL     1       4.214   5.346  -4.264  1.00  0.00    -0.460 OA
BRANCH  23  24
ATOM     24  C   UNL     1       4.016   6.533  -3.641  1.00  0.00     0.338 C 
ATOM     25  O   UNL     1       4.290   7.641  -4.073  1.00  0.00    -0.246 OA
BRANCH  24  26
ATOM     26  C   UNL     1       3.237   6.327  -2.402  1.00  0.00     0.060 A 
ATOM     27  C   UNL     1       2.166   7.197  -2.162  1.00  0.00     0.016 A 
ATOM     28  C   UNL     1       3.551   5.331  -1.476  1.00  0.00     0.016 A 
ATOM     29  C   UNL     1       1.431   7.102  -0.978  1.00  0.00     0.010 A 
ATOM     30  C   UNL     1       2.808   5.236  -0.291  1.00  0.00     0.010 A 
ATOM     31  C   UNL     1       1.759   6.138  -0.018  1.00  0.00    -0.014 A 
BRANCH  31  32
ATOM     32  C   UNL     1       1.106   6.158   1.322  1.00  0.00     0.031 A 
ATOM     33  C   UNL     1       1.911   6.613   2.512  1.00  0.00     0.074 A 
ATOM     34  C   UNL     1      -0.184   5.805   1.495  1.00  0.00     0.049 A 
ATOM     35  N   UNL     1       1.554   6.710   3.767  1.00  0.00    -0.248 NA
ATOM     36  C   UNL     1       3.302   7.021   2.251  1.00  0.00     0.031 C 
ATOM     37  C   UNL     1      -1.100   5.382   0.438  1.00  0.00     0.029 A 
ATOM     38  N   UNL     1      -0.946   5.728   2.638  1.00  0.00    -0.354 N 
ATOM     39  C   UNL     1       2.671   7.190   4.441  1.00  0.00     0.074 A 
ATOM     40  C   UNL     1       3.734   7.312   3.468  1.00  0.00     0.031 C 
ATOM     41  C   UNL     1      -2.281   5.043   0.983  1.00  0.00     0.029 A 
ATOM     42  C   UNL     1      -2.210   5.226   2.429  1.00  0.00     0.049 A 
ATOM     43  H   UNL     1      -0.617   6.006   3.524  1.00  0.00     0.167 HD
ATOM     44  C   UNL     1       2.799   7.525   5.747  1.00  0.00     0.031 A 
ATOM     45  C   UNL     1      -3.198   4.932   3.298  1.00  0.00     0.031 A 
ATOM     46  C   UNL     1       1.749   7.398   6.721  1.00  0.00     0.049 A 
ATOM     47  C   UNL     1      -3.007   5.228   4.762  1.00  0.00     0.074 A 
ATOM     48  C   UNL     1       1.774   7.749   8.060  1.00  0.00     0.029 A 
ATOM     49  N   UNL     1       0.494   6.867   6.470  1.00  0.00    -0.354 N 
ATOM     50  N   UNL     1      -1.965   5.744   5.370  1.00  0.00    -0.248 NA
ATOM     51  C   UNL     1      -4.137   4.931   5.655  1.00  0.00     0.031 C 
ATOM     52  C   UNL     1       0.557   7.370   8.633  1.00  0.00     0.029 A 
ATOM     53  C   UNL     1      -0.253   6.848   7.636  1.00  0.00     0.049 A 
ATOM     54  H   UNL     1       0.179   6.550   5.592  1.00  0.00     0.167 HD
ATOM     55  C   UNL     1      -2.330   5.873   6.706  1.00  0.00     0.074 A 
ATOM     56  C   UNL     1      -3.690   5.386   6.817  1.00  0.00     0.031 C 
ATOM     57  C   UNL     1      -1.606   6.363   7.743  1.00  0.00     0.031 A 
BRANCH  44  58
ATOM     58  C   UNL     1       4.138   8.046   6.198  1.00  0.00    -0.014 A 
ATOM     59  C   UNL     1       4.605   9.308   5.787  1.00  0.00     0.010 A 
ATOM     60  C   UNL     1       4.929   7.272   7.066  1.00  0.00     0.010 A 
ATOM     61  C   UNL     1       5.858   9.767   6.200  1.00  0.00     0.020 A 
ATOM     62  C   UNL     1       6.170   7.741   7.506  1.00  0.00     0.020 A 
ATOM     63  C   UNL     1       6.634   8.978   7.055  1.00  0.00     0.054 A 
BRANCH  63  64
ATOM     64  S   UNL     1       8.250   9.605   7.587  1.00  0.00     0.124 S 
ATOM     65  O   UNL     1       9.036   9.489   6.361  1.00  0.00    -0.237 OA
ATOM     66  O   UNL     1       7.941  10.969   8.008  1.00  0.00    -0.237 OA
ATOM     67  O   UNL     1       8.639   8.697   8.662  1.00  0.00    -0.744 OA
ENDBRANCH  63  64
ENDBRANCH  44  58
BRANCH  45  68
ATOM     68  C   UNL     1      -4.471   4.331   2.806  1.00  0.00    -0.014 A 
ATOM     69  C   UNL     1      -5.665   5.073   2.807  1.00  0.00     0.010 A 
ATOM     70  C   UNL     1      -4.493   3.005   2.334  1.00  0.00     0.010 A 
ATOM     71  C   UNL     1      -6.860   4.495   2.365  1.00  0.00     0.020 A 
ATOM     72  C   UNL     1      -5.680   2.432   1.867  1.00  0.00     0.020 A 
ATOM     73  C   UNL     1      -6.859   3.179   1.895  1.00  0.00     0.054 A 
BRANCH  73  74
ATOM     74  S   UNL     1      -8.413   2.470   1.281  1.00  0.00     0.124 S 
ATOM     75  O   UNL     1      -9.181   2.305   2.511  1.00  0.00    -0.237 OA
ATOM     76  O   UNL     1      -8.893   3.506   0.370  1.00  0.00    -0.237 OA
ATOM     77  O   UNL     1      -7.994   1.229   0.634  1.00  0.00    -0.744 OA
ENDBRANCH  73  74
ENDBRANCH  45  68
BRANCH  57  78
ATOM     78  C   UNL     1      -2.277   6.444   9.090  1.00  0.00    -0.014 A 
ATOM     79  C   UNL     1      -2.565   5.289   9.839  1.00  0.00     0.010 A 
ATOM     80  C   UNL     1      -2.567   7.706   9.642  1.00  0.00     0.010 A 
ATOM     81  C   UNL     1      -3.158   5.395  11.100  1.00  0.00     0.020 A 
ATOM     82  C   UNL     1      -3.130   7.817  10.915  1.00  0.00     0.020 A 
ATOM     83  C   UNL     1      -3.435   6.658  11.632  1.00  0.00     0.054 A 
BRANCH  83  84
ATOM     84  S   UNL     1      -4.161   6.769  13.290  1.00  0.00     0.124 S 
ATOM     85  O   UNL     1      -5.529   6.316  13.055  1.00  0.00    -0.237 OA
ATOM     86  O   UNL     1      -3.323   5.859  14.068  1.00  0.00    -0.237 OA
ATOM     87  O   UNL     1      -4.023   8.181  13.637  1.00  0.00    -0.744 OA
ENDBRANCH  83  84
ENDBRANCH  57  78
ENDBRANCH  31  32
ENDBRANCH  24  26
ENDBRANCH  23  24
ENDBRANCH  22  23
ENDBRANCH  21  22
ENDBRANCH   1  21
TORSDOF 20
