REMARK SMILES O=C(Cc1ccc(-c2ccn(C(F)F)c(=O)c2)cc1)OCCOCCOC(=O)c1ccc(-c2c3nc(c(-c4ccc(S(=O)(=O)[O-])cc4)c4ccc([nH]4)c(-c4ccc(S(=O)(=O)[O-])cc4)c4nc(c(-c5ccc(S(=O)(=O)[O-])cc5)c5ccc2[nH]5)C=C4)C=C3)cc1
REMARK SMILES IDX 23 1 22 2 21 3 20 4 2 5 1 6 3 7 4 8 5 9 19 10 6 11 18 12
REMARK SMILES IDX 7 13 8 14 9 15 17 16 10 17 15 18 11 19 16 20 12 21 13 22
REMARK SMILES IDX 14 23 24 24 25 25 26 26 27 27 28 28 29 29 30 30 88 31 31 32
REMARK SMILES IDX 87 33 32 34 33 35 34 36 81 37 35 38 86 39 80 40 82 41 36 42
REMARK SMILES IDX 85 43 79 44 78 45 37 47 67 48 48 49 66 50 49 51 52 52 65 53
REMARK SMILES IDX 83 54 50 55 51 56 64 58 84 59 53 60 38 61 39 62 47 63 40 64
REMARK SMILES IDX 46 65 41 66 42 67 43 68 44 69 45 70 68 71 69 72 77 73 70 74
REMARK SMILES IDX 76 75 71 76 72 77 73 78 74 79 75 80 54 81 55 82 63 83 56 84
REMARK SMILES IDX 62 85 57 86 58 87 59 88 60 89 61 90
REMARK H PARENT 82 46 52 57
REMARK Flexibility Score: inf
ROOT
ATOM      1  O   UNL     1       4.063   0.822   1.319  1.00  0.00    -0.374 OA
ENDROOT
BRANCH   1   2
ATOM      2  C   UNL     1       4.312   1.189  -0.037  1.00  0.00     0.202 C 
BRANCH   2   3
ATOM      3  C   UNL     1       3.727   0.271  -1.108  1.00  0.00     0.261 C 
BRANCH   3   4
ATOM      4  O   UNL     1       2.339  -0.037  -0.912  1.00  0.00    -0.463 OA
BRANCH   4   5
ATOM      5  C   UNL     1       1.846  -1.120  -0.270  1.00  0.00     0.310 C 
ATOM      6  O   UNL     1       0.662  -1.420  -0.441  1.00  0.00    -0.252 OA
BRANCH   5   7
ATOM      7  C   UNL     1       2.678  -1.886   0.741  1.00  0.00     0.158 C 
BRANCH   7   8
ATOM      8  C   UNL     1       3.681  -2.855   0.185  1.00  0.00    -0.037 A 
ATOM      9  C   UNL     1       3.267  -4.121  -0.229  1.00  0.00     0.005 A 
ATOM     10  C   UNL     1       5.025  -2.493   0.028  1.00  0.00     0.005 A 
ATOM     11  C   UNL     1       4.149  -4.952  -0.914  1.00  0.00     0.009 A 
ATOM     12  C   UNL     1       5.881  -3.284  -0.733  1.00  0.00     0.009 A 
ATOM     13  C   UNL     1       5.433  -4.502  -1.253  1.00  0.00    -0.018 A 
BRANCH  13  14
ATOM     14  C   UNL     1       6.255  -5.235  -2.235  1.00  0.00    -0.011 A 
ATOM     15  C   UNL     1       7.680  -5.467  -2.092  1.00  0.00     0.027 A 
ATOM     16  C   UNL     1       5.649  -5.614  -3.375  1.00  0.00     0.080 A 
ATOM     17  C   UNL     1       8.376  -6.035  -3.084  1.00  0.00     0.095 A 
ATOM     18  C   UNL     1       6.395  -6.295  -4.460  1.00  0.00     0.255 A 
ATOM     19  N   UNL     1       7.755  -6.442  -4.250  1.00  0.00    -0.258 N 
ATOM     20  O   UNL     1       5.775  -6.676  -5.447  1.00  0.00    -0.269 OA
BRANCH  19  21
ATOM     21  C   UNL     1       8.506  -7.045  -5.317  1.00  0.00     0.451 C 
ATOM     22  F   UNL     1       8.068  -8.302  -5.572  1.00  0.00    -0.185 F 
ATOM     23  F   UNL     1       8.401  -6.322  -6.458  1.00  0.00    -0.185 F 
ENDBRANCH  19  21
ENDBRANCH  13  14
ENDBRANCH   7   8
ENDBRANCH   5   7
ENDBRANCH   4   5
ENDBRANCH   3   4
ENDBRANCH   2   3
ENDBRANCH   1   2
BRANCH   1  24
ATOM     24  C   UNL     1       2.845   1.344   1.870  1.00  0.00     0.202 C 
BRANCH  24  25
ATOM     25  C   UNL     1       2.971   2.721   2.526  1.00  0.00     0.261 C 
BRANCH  25  26
ATOM     26  O   UNL     1       3.315   3.721   1.562  1.00  0.00    -0.460 OA
BRANCH  26  27
ATOM     27  C   UNL     1       4.640   3.984   1.452  1.00  0.00     0.338 C 
ATOM     28  O   UNL     1       5.536   3.584   2.177  1.00  0.00    -0.246 OA
BRANCH  27  29
ATOM     29  C   UNL     1       4.866   4.649   0.153  1.00  0.00     0.060 A 
ATOM     30  C   UNL     1       5.982   4.261  -0.605  1.00  0.00     0.016 A 
ATOM     31  C   UNL     1       3.966   5.598  -0.339  1.00  0.00     0.016 A 
ATOM     32  C   UNL     1       6.229   4.856  -1.839  1.00  0.00     0.010 A 
ATOM     33  C   UNL     1       4.217   6.197  -1.569  1.00  0.00     0.010 A 
ATOM     34  C   UNL     1       5.370   5.858  -2.300  1.00  0.00    -0.014 A 
BRANCH  34  35
ATOM     35  C   UNL     1       5.761   6.737  -3.422  1.00  0.00     0.031 A 
ATOM     36  C   UNL     1       6.306   8.092  -3.078  1.00  0.00     0.074 A 
ATOM     37  C   UNL     1       5.551   6.376  -4.697  1.00  0.00     0.049 A 
ATOM     38  N   UNL     1       6.523   9.120  -3.851  1.00  0.00    -0.248 NA
ATOM     39  C   UNL     1       6.620   8.323  -1.657  1.00  0.00     0.031 C 
ATOM     40  C   UNL     1       5.057   5.074  -5.139  1.00  0.00     0.029 A 
ATOM     41  N   UNL     1       5.690   7.100  -5.853  1.00  0.00    -0.354 N 
ATOM     42  C   UNL     1       6.960  10.134  -3.006  1.00  0.00     0.074 A 
ATOM     43  C   UNL     1       6.956   9.602  -1.662  1.00  0.00     0.031 C 
ATOM     44  C   UNL     1       4.896   5.104  -6.473  1.00  0.00     0.029 A 
ATOM     45  C   UNL     1       5.229   6.440  -6.965  1.00  0.00     0.049 A 
ATOM     46  H   UNL     1       6.082   8.003  -5.882  1.00  0.00     0.167 HD
ATOM     47  C   UNL     1       7.321  11.399  -3.325  1.00  0.00     0.031 A 
ATOM     48  C   UNL     1       5.050   6.883  -8.226  1.00  0.00     0.031 A 
ATOM     49  C   UNL     1       7.291  11.914  -4.666  1.00  0.00     0.049 A 
ATOM     50  C   UNL     1       5.411   8.305  -8.560  1.00  0.00     0.074 A 
ATOM     51  C   UNL     1       7.665  13.166  -5.116  1.00  0.00     0.029 A 
ATOM     52  N   UNL     1       6.843  11.205  -5.773  1.00  0.00    -0.354 N 
ATOM     53  N   UNL     1       5.858   9.250  -7.765  1.00  0.00    -0.248 NA
ATOM     54  C   UNL     1       5.254   8.721  -9.960  1.00  0.00     0.031 C 
ATOM     55  C   UNL     1       7.380  13.237  -6.483  1.00  0.00     0.029 A 
ATOM     56  C   UNL     1       6.903  12.003  -6.901  1.00  0.00     0.049 A 
ATOM     57  H   UNL     1       6.529  10.272  -5.757  1.00  0.00     0.167 HD
ATOM     58  C   UNL     1       6.066  10.363  -8.573  1.00  0.00     0.074 A 
ATOM     59  C   UNL     1       5.697   9.972  -9.919  1.00  0.00     0.031 C 
ATOM     60  C   UNL     1       6.532  11.591  -8.234  1.00  0.00     0.031 A 
BRANCH  47  61
ATOM     61  C   UNL     1       7.707  12.312  -2.190  1.00  0.00    -0.014 A 
ATOM     62  C   UNL     1       8.864  12.086  -1.421  1.00  0.00     0.010 A 
ATOM     63  C   UNL     1       6.879  13.403  -1.871  1.00  0.00     0.010 A 
ATOM     64  C   UNL     1       9.146  12.891  -0.314  1.00  0.00     0.020 A 
ATOM     65  C   UNL     1       7.177  14.233  -0.788  1.00  0.00     0.020 A 
ATOM     66  C   UNL     1       8.294  13.954   0.001  1.00  0.00     0.054 A 
BRANCH  66  67
ATOM     67  S   UNL     1       8.670  14.967   1.457  1.00  0.00     0.124 S 
ATOM     68  O   UNL     1       8.331  14.058   2.550  1.00  0.00    -0.237 OA
ATOM     69  O   UNL     1      10.094  15.248   1.294  1.00  0.00    -0.237 OA
ATOM     70  O   UNL     1       7.788  16.123   1.313  1.00  0.00    -0.744 OA
ENDBRANCH  66  67
ENDBRANCH  47  61
BRANCH  48  71
ATOM     71  C   UNL     1       4.481   5.959  -9.244  1.00  0.00    -0.014 A 
ATOM     72  C   UNL     1       5.294   5.418 -10.253  1.00  0.00     0.010 A 
ATOM     73  C   UNL     1       3.134   5.556  -9.160  1.00  0.00     0.010 A 
ATOM     74  C   UNL     1       4.776   4.479 -11.151  1.00  0.00     0.020 A 
ATOM     75  C   UNL     1       2.620   4.599 -10.039  1.00  0.00     0.020 A 
ATOM     76  C   UNL     1       3.446   4.066 -11.030  1.00  0.00     0.054 A 
BRANCH  76  77
ATOM     77  S   UNL     1       2.832   2.766 -12.138  1.00  0.00     0.124 S 
ATOM     78  O   UNL     1       2.763   3.465 -13.417  1.00  0.00    -0.237 OA
ATOM     79  O   UNL     1       3.873   1.747 -12.028  1.00  0.00    -0.237 OA
ATOM     80  O   UNL     1       1.544   2.398 -11.553  1.00  0.00    -0.744 OA
ENDBRANCH  76  77
ENDBRANCH  48  71
BRANCH  60  81
ATOM     81  C   UNL     1       6.726  12.599  -9.337  1.00  0.00    -0.014 A 
ATOM     82  C   UNL     1       5.637  13.238  -9.952  1.00  0.00     0.010 A 
ATOM     83  C   UNL     1       8.035  12.985  -9.685  1.00  0.00     0.010 A 
ATOM     84  C   UNL     1       5.854  14.237 -10.906  1.00  0.00     0.020 A 
ATOM     85  C   UNL     1       8.255  14.003 -10.615  1.00  0.00     0.020 A 
ATOM     86  C   UNL     1       7.161  14.618 -11.226  1.00  0.00     0.054 A 
BRANCH  86  87
ATOM     87  S   UNL     1       7.414  15.970 -12.408  1.00  0.00     0.124 S 
ATOM     88  O   UNL     1       7.030  15.346 -13.671  1.00  0.00    -0.237 OA
ATOM     89  O   UNL     1       6.504  17.001 -11.913  1.00  0.00    -0.237 OA
ATOM     90  O   UNL     1       8.835  16.287 -12.275  1.00  0.00    -0.744 OA
ENDBRANCH  86  87
ENDBRANCH  60  81
ENDBRANCH  34  35
ENDBRANCH  27  29
ENDBRANCH  26  27
ENDBRANCH  25  26
ENDBRANCH  24  25
ENDBRANCH   1  24
TORSDOF 20
