REMARK SMILES O=C(CCN1C(=O)S/C(=C\c2ccc(F)cc2)C1=O)Nc1ccc(O)cc1C(=O)OCCOCCOC(=O)c1ccc(-c2c3nc(c(-c4ccc(S(=O)(=O)[O-])cc4)c4ccc([nH]4)c(-c4ccc(S(=O)(=O)[O-])cc4)c4nc(c(-c5ccc(S(=O)(=O)[O-])cc5)c5ccc2[nH]5)C=C4)C=C3)cc1
REMARK SMILES IDX 32 1 31 2 30 3 28 4 29 5 27 6 21 7 22 8 23 9 26 10 24 11
REMARK SMILES IDX 20 12 1 13 2 14 3 16 4 17 5 18 6 19 18 20 7 21 8 22 9 23
REMARK SMILES IDX 19 24 10 25 11 26 12 27 17 28 13 29 16 30 14 31 15 32 25 33
REMARK SMILES IDX 33 35 34 36 35 37 36 38 37 39 38 40 39 41 40 42 98 43 41 44
REMARK SMILES IDX 97 45 42 46 43 47 44 48 91 49 45 50 96 51 90 52 92 53 46 54
REMARK SMILES IDX 95 55 89 56 88 57 47 59 77 60 58 61 76 62 59 63 62 64 75 65
REMARK SMILES IDX 93 66 60 67 61 68 74 70 94 71 63 72 48 73 49 74 57 75 50 76
REMARK SMILES IDX 56 77 51 78 52 79 53 80 54 81 55 82 78 83 79 84 87 85 80 86
REMARK SMILES IDX 86 87 81 88 82 89 83 90 84 91 85 92 64 93 65 94 73 95 66 96
REMARK SMILES IDX 72 97 67 98 68 99 69 100 70 101 71 102
REMARK H PARENT 20 15 25 34 92 58 62 69
REMARK Flexibility Score: inf
ROOT
ATOM      1  C   UNL     1       5.085  -0.532   5.034  1.00  0.00     0.202 C 
ENDROOT
BRANCH   1   2
ATOM      2  C   UNL     1       5.110  -0.758   3.518  1.00  0.00     0.261 C 
BRANCH   2   3
ATOM      3  O   UNL     1       3.933  -1.267   2.883  1.00  0.00    -0.460 OA
BRANCH   3   4
ATOM      4  C   UNL     1       3.739  -2.610   2.943  1.00  0.00     0.340 C 
ATOM      5  O   UNL     1       4.462  -3.404   3.519  1.00  0.00    -0.246 OA
BRANCH   4   6
ATOM      6  C   UNL     1       2.466  -2.990   2.263  1.00  0.00     0.087 A 
ATOM      7  C   UNL     1       1.860  -2.244   1.223  1.00  0.00     0.056 A 
ATOM      8  C   UNL     1       0.686  -2.741   0.641  1.00  0.00     0.031 A 
ATOM      9  C   UNL     1       0.110  -3.936   1.085  1.00  0.00     0.048 A 
ATOM     10  C   UNL     1       1.881  -4.190   2.701  1.00  0.00     0.064 A 
ATOM     11  C   UNL     1       0.709  -4.646   2.115  1.00  0.00     0.116 A 
BRANCH   7  12
ATOM     12  N   UNL     1       2.492  -1.075   0.740  1.00  0.00    -0.325 N 
ATOM     13  O   UNL     1       0.975  -0.191  -0.759  1.00  0.00    -0.275 OA
ATOM     14  C   UNL     1       2.111  -0.249  -0.291  1.00  0.00     0.226 C 
ATOM     15  H   UNL     1       3.319  -0.816   1.207  1.00  0.00     0.169 HD
BRANCH  14  16
ATOM     16  C   UNL     1       3.224   0.598  -0.910  1.00  0.00     0.122 C 
BRANCH  16  17
ATOM     17  C   UNL     1       4.470   0.899  -0.084  1.00  0.00     0.140 C 
BRANCH  17  18
ATOM     18  N   UNL     1       5.565  -0.076  -0.004  1.00  0.00    -0.268 N 
ATOM     19  C   UNL     1       6.741   0.300   0.609  1.00  0.00     0.293 C 
ATOM     20  C   UNL     1       5.473  -1.413  -0.314  1.00  0.00     0.268 C 
ATOM     21  O   UNL     1       6.981   1.368   1.143  1.00  0.00    -0.261 OA
ATOM     22  S   UNL     1       7.846  -1.053   0.733  1.00  0.00    -0.022 SA
ATOM     23  C   UNL     1       6.603  -2.150   0.316  1.00  0.00     0.083 C 
ATOM     24  O   UNL     1       4.562  -1.970  -0.905  1.00  0.00    -0.268 OA
ATOM     25  C   UNL     1       6.473  -3.435   0.670  1.00  0.00     0.029 C 
BRANCH  25  26
ATOM     26  C   UNL     1       7.388  -4.205   1.521  1.00  0.00    -0.024 A 
ATOM     27  C   UNL     1       7.494  -3.951   2.897  1.00  0.00     0.011 A 
ATOM     28  C   UNL     1       8.100  -5.274   0.975  1.00  0.00     0.011 A 
ATOM     29  C   UNL     1       8.287  -4.751   3.719  1.00  0.00     0.040 A 
ATOM     30  C   UNL     1       8.900  -6.074   1.795  1.00  0.00     0.040 A 
ATOM     31  C   UNL     1       8.982  -5.809   3.158  1.00  0.00     0.123 A 
ATOM     32  F   UNL     1       9.729  -6.596   3.944  1.00  0.00    -0.207 F 
ENDBRANCH  25  26
ENDBRANCH  17  18
ENDBRANCH  16  17
ENDBRANCH  14  16
ENDBRANCH   7  12
BRANCH  11  33
ATOM     33  O   UNL     1       0.175  -5.811   2.578  1.00  0.00    -0.508 OA
ATOM     34  H   UNL     1      -0.616  -6.146   2.203  1.00  0.00     0.293 HD
ENDBRANCH  11  33
ENDBRANCH   4   6
ENDBRANCH   3   4
ENDBRANCH   2   3
ENDBRANCH   1   2
BRANCH   1  35
ATOM     35  O   UNL     1       4.061  -1.097   5.829  1.00  0.00    -0.374 OA
BRANCH  35  36
ATOM     36  C   UNL     1       2.698  -0.868   5.509  1.00  0.00     0.202 C 
BRANCH  36  37
ATOM     37  C   UNL     1       2.186   0.554   5.257  1.00  0.00     0.261 C 
BRANCH  37  38
ATOM     38  O   UNL     1       2.839   1.256   4.185  1.00  0.00    -0.460 OA
BRANCH  38  39
ATOM     39  C   UNL     1       3.546   2.349   4.572  1.00  0.00     0.338 C 
ATOM     40  O   UNL     1       3.783   2.702   5.715  1.00  0.00    -0.246 OA
BRANCH  39  41
ATOM     41  C   UNL     1       4.108   3.034   3.395  1.00  0.00     0.060 A 
ATOM     42  C   UNL     1       5.480   3.311   3.369  1.00  0.00     0.016 A 
ATOM     43  C   UNL     1       3.273   3.491   2.374  1.00  0.00     0.016 A 
ATOM     44  C   UNL     1       6.021   4.074   2.330  1.00  0.00     0.010 A 
ATOM     45  C   UNL     1       3.816   4.259   1.340  1.00  0.00     0.010 A 
ATOM     46  C   UNL     1       5.188   4.577   1.324  1.00  0.00    -0.014 A 
BRANCH  46  47
ATOM     47  C   UNL     1       5.673   5.598   0.361  1.00  0.00     0.031 A 
ATOM     48  C   UNL     1       5.388   7.042   0.661  1.00  0.00     0.074 A 
ATOM     49  C   UNL     1       6.303   5.266  -0.780  1.00  0.00     0.049 A 
ATOM     50  N   UNL     1       5.563   8.094  -0.093  1.00  0.00    -0.248 NA
ATOM     51  C   UNL     1       4.827   7.330   1.991  1.00  0.00     0.031 C 
ATOM     52  C   UNL     1       6.741   3.925  -1.141  1.00  0.00     0.029 A 
ATOM     53  N   UNL     1       6.669   6.034  -1.857  1.00  0.00    -0.354 N 
ATOM     54  C   UNL     1       5.122   9.171   0.665  1.00  0.00     0.074 A 
ATOM     55  C   UNL     1       4.646   8.640   1.924  1.00  0.00     0.031 C 
ATOM     56  C   UNL     1       7.275   3.946  -2.373  1.00  0.00     0.029 A 
ATOM     57  C   UNL     1       7.204   5.307  -2.895  1.00  0.00     0.049 A 
ATOM     58  H   UNL     1       6.558   7.012  -1.884  1.00  0.00     0.167 HD
ATOM     59  C   UNL     1       5.113  10.486   0.341  1.00  0.00     0.031 A 
ATOM     60  C   UNL     1       7.583   5.691  -4.130  1.00  0.00     0.031 A 
ATOM     61  C   UNL     1       5.553  11.004  -0.925  1.00  0.00     0.049 A 
ATOM     62  C   UNL     1       7.455   7.138  -4.518  1.00  0.00     0.074 A 
ATOM     63  C   UNL     1       5.570  12.317  -1.360  1.00  0.00     0.029 A 
ATOM     64  N   UNL     1       6.044  10.229  -1.967  1.00  0.00    -0.354 N 
ATOM     65  N   UNL     1       7.029   8.147  -3.795  1.00  0.00    -0.248 NA
ATOM     66  C   UNL     1       7.865   7.502  -5.881  1.00  0.00     0.031 C 
ATOM     67  C   UNL     1       6.021  12.329  -2.684  1.00  0.00     0.029 A 
ATOM     68  C   UNL     1       6.343  11.032  -3.053  1.00  0.00     0.049 A 
ATOM     69  H   UNL     1       6.161   9.252  -1.937  1.00  0.00     0.167 HD
ATOM     70  C   UNL     1       7.162   9.272  -4.601  1.00  0.00     0.074 A 
ATOM     71  C   UNL     1       7.696   8.818  -5.869  1.00  0.00     0.031 C 
ATOM     72  C   UNL     1       6.881  10.566  -4.307  1.00  0.00     0.031 A 
BRANCH  59  73
ATOM     73  C   UNL     1       4.540  11.428   1.364  1.00  0.00    -0.014 A 
ATOM     74  C   UNL     1       5.211  11.687   2.574  1.00  0.00     0.010 A 
ATOM     75  C   UNL     1       3.288  12.022   1.132  1.00  0.00     0.010 A 
ATOM     76  C   UNL     1       4.603  12.461   3.565  1.00  0.00     0.020 A 
ATOM     77  C   UNL     1       2.690  12.822   2.109  1.00  0.00     0.020 A 
ATOM     78  C   UNL     1       3.338  13.010   3.332  1.00  0.00     0.054 A 
BRANCH  78  79
ATOM     79  S   UNL     1       2.544  13.966   4.652  1.00  0.00     0.124 S 
ATOM     80  O   UNL     1       2.104  12.911   5.561  1.00  0.00    -0.237 OA
ATOM     81  O   UNL     1       3.634  14.805   5.143  1.00  0.00    -0.237 OA
ATOM     82  O   UNL     1       1.472  14.682   3.963  1.00  0.00    -0.744 OA
ENDBRANCH  78  79
ENDBRANCH  59  73
BRANCH  60  83
ATOM     83  C   UNL     1       8.142   4.689  -5.078  1.00  0.00    -0.014 A 
ATOM     84  C   UNL     1       9.515   4.689  -5.376  1.00  0.00     0.010 A 
ATOM     85  C   UNL     1       7.315   3.712  -5.662  1.00  0.00     0.010 A 
ATOM     86  C   UNL     1      10.053   3.731  -6.241  1.00  0.00     0.020 A 
ATOM     87  C   UNL     1       7.853   2.739  -6.511  1.00  0.00     0.020 A 
ATOM     88  C   UNL     1       9.219   2.757  -6.797  1.00  0.00     0.054 A 
BRANCH  88  89
ATOM     89  S   UNL     1       9.956   1.479  -7.854  1.00  0.00     0.124 S 
ATOM     90  O   UNL     1      10.271   2.229  -9.065  1.00  0.00    -0.237 OA
ATOM     91  O   UNL     1      11.103   1.041  -7.062  1.00  0.00    -0.237 OA
ATOM     92  O   UNL     1       8.888   0.490  -7.988  1.00  0.00    -0.744 OA
ENDBRANCH  88  89
ENDBRANCH  60  83
BRANCH  72  93
ATOM     93  C   UNL     1       7.191  11.604  -5.351  1.00  0.00    -0.014 A 
ATOM     94  C   UNL     1       6.378  11.770  -6.484  1.00  0.00     0.010 A 
ATOM     95  C   UNL     1       8.260  12.494  -5.134  1.00  0.00     0.010 A 
ATOM     96  C   UNL     1       6.631  12.808  -7.386  1.00  0.00     0.020 A 
ATOM     97  C   UNL     1       8.501  13.546  -6.020  1.00  0.00     0.020 A 
ATOM     98  C   UNL     1       7.686  13.694  -7.144  1.00  0.00     0.054 A 
BRANCH  98  99
ATOM     99  S   UNL     1       7.937  15.086  -8.279  1.00  0.00     0.124 S 
ATOM    100  O   UNL     1       8.510  14.426  -9.449  1.00  0.00    -0.237 OA
ATOM    101  O   UNL     1       6.583  15.607  -8.451  1.00  0.00    -0.237 OA
ATOM    102  O   UNL     1       8.848  15.967  -7.552  1.00  0.00    -0.744 OA
ENDBRANCH  98  99
ENDBRANCH  72  93
ENDBRANCH  46  47
ENDBRANCH  39  41
ENDBRANCH  38  39
ENDBRANCH  37  38
ENDBRANCH  36  37
ENDBRANCH  35  36
ENDBRANCH   1  35
TORSDOF 23
