REMARK SMILES CCc1cc(C(=O)c2[nH]c3cc(Cl)ccc3c2CC(=O)OCCOCCOC(=O)c2ccc(-c3c4nc(c(-c5ccc(S(=O)(=O)[O-])cc5)c5ccc([nH]5)c(-c5ccc(S(=O)(=O)[O-])cc5)c5nc(c(-c6ccc(S(=O)(=O)[O-])cc6)c6ccc3[nH]6)C=C5)C=C4)cc2)ncc1Cl
REMARK SMILES IDX 23 1 22 2 21 3 19 4 20 5 18 6 17 7 8 8 9 9 10 10 16 12 11 13
REMARK SMILES IDX 15 14 12 15 14 16 13 17 6 18 7 19 5 20 3 21 4 22 92 23 91 24
REMARK SMILES IDX 93 25 90 26 2 27 1 28 24 29 25 30 26 31 27 32 28 33 29 34
REMARK SMILES IDX 30 35 31 36 89 37 32 38 88 39 33 40 34 41 35 42 82 43 36 44
REMARK SMILES IDX 87 45 81 46 83 47 37 48 86 49 80 50 79 51 38 53 68 54 49 55
REMARK SMILES IDX 67 56 50 57 53 58 66 59 84 60 51 61 52 62 65 64 85 65 54 66
REMARK SMILES IDX 39 67 40 68 48 69 41 70 47 71 42 72 43 73 44 74 45 75 46 76
REMARK SMILES IDX 69 77 70 78 78 79 71 80 77 81 72 82 73 83 74 84 75 85 76 86
REMARK SMILES IDX 55 87 56 88 64 89 57 90 63 91 58 92 59 93 60 94 61 95 62 96
REMARK H PARENT 9 11 83 52 53 63
REMARK Flexibility Score: inf
ROOT
ATOM      1  C   UNL     1      -1.248  10.293   1.153  1.00  0.00     0.202 C 
ENDROOT
BRANCH   1   2
ATOM      2  C   UNL     1      -2.142   9.960  -0.047  1.00  0.00     0.261 C 
BRANCH   2   3
ATOM      3  O   UNL     1      -2.510   8.562  -0.092  1.00  0.00    -0.463 OA
BRANCH   3   4
ATOM      4  C   UNL     1      -2.361   7.959  -1.303  1.00  0.00     0.310 C 
ATOM      5  O   UNL     1      -2.011   8.547  -2.325  1.00  0.00    -0.252 OA
BRANCH   4   6
ATOM      6  C   UNL     1      -2.753   6.499  -1.351  1.00  0.00     0.161 C 
BRANCH   6   7
ATOM      7  C   UNL     1      -2.885   5.728  -0.062  1.00  0.00     0.000 A 
ATOM      8  C   UNL     1      -1.868   5.093   0.657  1.00  0.00     0.093 A 
ATOM      9  N   UNL     1      -2.463   4.534   1.769  1.00  0.00    -0.351 N 
ATOM     10  C   UNL     1      -3.831   4.537   1.638  1.00  0.00     0.048 A 
ATOM     11  H   UNL     1      -1.976   4.182   2.549  1.00  0.00     0.167 HD
ATOM     12  C   UNL     1      -4.129   5.316   0.523  1.00  0.00     0.004 A 
ATOM     13  C   UNL     1      -4.817   3.907   2.411  1.00  0.00     0.047 A 
ATOM     14  C   UNL     1      -5.484   5.485   0.164  1.00  0.00     0.012 A 
ATOM     15  C   UNL     1      -6.146   4.056   2.003  1.00  0.00     0.043 A 
ATOM     16  C   UNL     1      -6.482   4.837   0.902  1.00  0.00     0.021 A 
ATOM     17  Cl  UNL     1      -7.388   3.231   2.867  1.00  0.00    -0.084 Cl
BRANCH   8  18
ATOM     18  C   UNL     1      -0.448   5.027   0.329  1.00  0.00     0.227 C 
ATOM     19  O   UNL     1       0.064   5.757  -0.518  1.00  0.00    -0.285 OA
BRANCH  18  20
ATOM     20  C   UNL     1       0.437   4.008   0.971  1.00  0.00     0.113 A 
ATOM     21  C   UNL     1       1.002   1.708   1.445  1.00  0.00    -0.026 A 
ATOM     22  C   UNL     1       0.069   2.664   1.005  1.00  0.00     0.037 A 
ATOM     23  C   UNL     1       2.276   2.152   1.827  1.00  0.00     0.062 A 
ATOM     24  C   UNL     1       2.542   3.516   1.783  1.00  0.00     0.132 A 
ATOM     25  Cl  UNL     1       3.533   1.077   2.305  1.00  0.00    -0.082 Cl
ATOM     26  N   UNL     1       1.654   4.452   1.373  1.00  0.00    -0.251 NA
BRANCH  21  27
ATOM     27  C   UNL     1       0.621   0.248   1.398  1.00  0.00     0.034 C 
ATOM     28  C   UNL     1       0.914  -0.361   0.035  1.00  0.00     0.009 C 
ENDBRANCH  21  27
ENDBRANCH  18  20
ENDBRANCH   8  18
ENDBRANCH   6   7
ENDBRANCH   4   6
ENDBRANCH   3   4
ENDBRANCH   2   3
ENDBRANCH   1   2
BRANCH   1  29
ATOM     29  O   UNL     1       0.092   9.794   1.109  1.00  0.00    -0.374 OA
BRANCH  29  30
ATOM     30  C   UNL     1       0.246   8.380   1.213  1.00  0.00     0.202 C 
BRANCH  30  31
ATOM     31  C   UNL     1       0.201   7.802   2.632  1.00  0.00     0.261 C 
BRANCH  31  32
ATOM     32  O   UNL     1      -0.979   8.194   3.352  1.00  0.00    -0.460 OA
BRANCH  32  33
ATOM     33  C   UNL     1      -0.740   9.040   4.382  1.00  0.00     0.338 C 
ATOM     34  O   UNL     1       0.350   9.346   4.848  1.00  0.00    -0.246 OA
BRANCH  33  35
ATOM     35  C   UNL     1      -1.984   9.703   4.806  1.00  0.00     0.060 A 
ATOM     36  C   UNL     1      -1.969  11.101   4.860  1.00  0.00     0.016 A 
ATOM     37  C   UNL     1      -3.113   8.986   5.213  1.00  0.00     0.016 A 
ATOM     38  C   UNL     1      -3.059  11.787   5.383  1.00  0.00     0.010 A 
ATOM     39  C   UNL     1      -4.208   9.679   5.742  1.00  0.00     0.010 A 
ATOM     40  C   UNL     1      -4.168  11.079   5.866  1.00  0.00    -0.014 A 
BRANCH  40  41
ATOM     41  C   UNL     1      -5.210  11.822   6.614  1.00  0.00     0.031 A 
ATOM     42  C   UNL     1      -5.162  11.839   8.117  1.00  0.00     0.074 A 
ATOM     43  C   UNL     1      -6.130  12.545   5.953  1.00  0.00     0.049 A 
ATOM     44  N   UNL     1      -5.890  12.525   8.961  1.00  0.00    -0.248 NA
ATOM     45  C   UNL     1      -4.157  10.974   8.754  1.00  0.00     0.031 C 
ATOM     46  C   UNL     1      -6.252  12.626   4.497  1.00  0.00     0.029 A 
ATOM     47  N   UNL     1      -7.122  13.368   6.421  1.00  0.00    -0.354 N 
ATOM     48  C   UNL     1      -5.426  12.183  10.226  1.00  0.00     0.074 A 
ATOM     49  C   UNL     1      -4.383  11.197  10.041  1.00  0.00     0.031 C 
ATOM     50  C   UNL     1      -7.250  13.472   4.190  1.00  0.00     0.029 A 
ATOM     51  C   UNL     1      -7.847  13.976   5.425  1.00  0.00     0.049 A 
ATOM     52  H   UNL     1      -7.298  13.510   7.379  1.00  0.00     0.167 HD
ATOM     53  C   UNL     1      -5.824  12.654  11.432  1.00  0.00     0.031 A 
ATOM     54  C   UNL     1      -8.872  14.847   5.500  1.00  0.00     0.031 A 
ATOM     55  C   UNL     1      -6.883  13.613  11.610  1.00  0.00     0.049 A 
ATOM     56  C   UNL     1      -9.338  15.313   6.853  1.00  0.00     0.074 A 
ATOM     57  C   UNL     1      -7.362  14.163  12.786  1.00  0.00     0.029 A 
ATOM     58  N   UNL     1      -7.636  14.157  10.579  1.00  0.00    -0.354 N 
ATOM     59  N   UNL     1      -8.865  15.007   8.038  1.00  0.00    -0.248 NA
ATOM     60  C   UNL     1     -10.466  16.254   6.876  1.00  0.00     0.031 C 
ATOM     61  C   UNL     1      -8.441  14.997  12.470  1.00  0.00     0.029 A 
ATOM     62  C   UNL     1      -8.597  15.012  11.092  1.00  0.00     0.049 A 
ATOM     63  H   UNL     1      -7.507  13.963   9.623  1.00  0.00     0.167 HD
ATOM     64  C   UNL     1      -9.629  15.729   8.949  1.00  0.00     0.074 A 
ATOM     65  C   UNL     1     -10.578  16.503   8.174  1.00  0.00     0.031 C 
ATOM     66  C   UNL     1      -9.551  15.752  10.304  1.00  0.00     0.031 A 
BRANCH  53  67
ATOM     67  C   UNL     1      -5.131  12.100  12.650  1.00  0.00    -0.014 A 
ATOM     68  C   UNL     1      -3.792  12.424  12.940  1.00  0.00     0.010 A 
ATOM     69  C   UNL     1      -5.826  11.238  13.518  1.00  0.00     0.010 A 
ATOM     70  C   UNL     1      -3.146  11.852  14.040  1.00  0.00     0.020 A 
ATOM     71  C   UNL     1      -5.192  10.686  14.635  1.00  0.00     0.020 A 
ATOM     72  C   UNL     1      -3.848  10.978  14.875  1.00  0.00     0.054 A 
BRANCH  72  73
ATOM     73  S   UNL     1      -2.984  10.237  16.288  1.00  0.00     0.124 S 
ATOM     74  O   UNL     1      -2.135   9.244  15.633  1.00  0.00    -0.237 OA
ATOM     75  O   UNL     1      -2.282  11.377  16.871  1.00  0.00    -0.237 OA
ATOM     76  O   UNL     1      -4.063   9.689  17.106  1.00  0.00    -0.744 OA
ENDBRANCH  72  73
ENDBRANCH  53  67
BRANCH  54  77
ATOM     77  C   UNL     1      -9.512  15.341   4.251  1.00  0.00    -0.014 A 
ATOM     78  C   UNL     1      -9.325  16.666   3.822  1.00  0.00     0.010 A 
ATOM     79  C   UNL     1     -10.285  14.470   3.461  1.00  0.00     0.010 A 
ATOM     80  C   UNL     1      -9.899  17.112   2.627  1.00  0.00     0.020 A 
ATOM     81  C   UNL     1     -10.840  14.904   2.254  1.00  0.00     0.020 A 
ATOM     82  C   UNL     1     -10.647  16.225   1.847  1.00  0.00     0.054 A 
BRANCH  82  83
ATOM     83  S   UNL     1     -11.312  16.801   0.260  1.00  0.00     0.124 S 
ATOM     84  O   UNL     1     -12.418  17.653   0.684  1.00  0.00    -0.237 OA
ATOM     85  O   UNL     1     -10.169  17.493  -0.330  1.00  0.00    -0.237 OA
ATOM     86  O   UNL     1     -11.697  15.564  -0.417  1.00  0.00    -0.744 OA
ENDBRANCH  82  83
ENDBRANCH  54  77
BRANCH  66  87
ATOM     87  C   UNL     1     -10.520  16.650  11.027  1.00  0.00    -0.014 A 
ATOM     88  C   UNL     1     -11.888  16.329  11.105  1.00  0.00     0.010 A 
ATOM     89  C   UNL     1     -10.053  17.818  11.656  1.00  0.00     0.010 A 
ATOM     90  C   UNL     1     -12.778  17.185  11.758  1.00  0.00     0.020 A 
ATOM     91  C   UNL     1     -10.936  18.662  12.335  1.00  0.00     0.020 A 
ATOM     92  C   UNL     1     -12.297  18.350  12.363  1.00  0.00     0.054 A 
BRANCH  92  93
ATOM     93  S   UNL     1     -13.469  19.440  13.216  1.00  0.00     0.124 S 
ATOM     94  O   UNL     1     -14.133  20.105  12.098  1.00  0.00    -0.237 OA
ATOM     95  O   UNL     1     -14.296  18.500  13.969  1.00  0.00    -0.237 OA
ATOM     96  O   UNL     1     -12.613  20.298  14.032  1.00  0.00    -0.744 OA
ENDBRANCH  92  93
ENDBRANCH  66  87
ENDBRANCH  40  41
ENDBRANCH  33  35
ENDBRANCH  32  33
ENDBRANCH  31  32
ENDBRANCH  30  31
ENDBRANCH  29  30
ENDBRANCH   1  29
TORSDOF 21
