REMARK SMILES CC(C)[C@H](NC(=O)OCc1ccccc1)C(=O)NCC(=O)OCCOCCOC(=O)c1ccc(-c2c3nc(c(-c4ccc(S(=O)(=O)[O-])cc4)c4ccc([nH]4)c(-c4ccc(S(=O)(=O)[O-])cc4)c4nc(c(-c5ccc(S(=O)(=O)[O-])cc5)c5ccc2[nH]5)C=C4)C=C3)cc1
REMARK SMILES IDX 23 1 22 2 20 3 21 4 19 5 18 6 16 7 17 8 4 10 2 11 1 12 3 13
REMARK SMILES IDX 5 14 6 15 7 17 8 18 9 19 10 20 11 21 15 22 12 23 14 24 13 25
REMARK SMILES IDX 24 26 25 27 26 28 27 29 28 30 29 31 30 32 31 33 32 34 90 35
REMARK SMILES IDX 33 36 89 37 34 38 35 39 36 40 83 41 37 42 88 43 82 44 84 45
REMARK SMILES IDX 38 46 87 47 81 48 80 49 39 51 69 52 50 53 68 54 51 55 54 56
REMARK SMILES IDX 67 57 85 58 52 59 53 60 66 62 86 63 55 64 40 65 41 66 49 67
REMARK SMILES IDX 42 68 48 69 43 70 44 71 45 72 46 73 47 74 70 75 71 76 79 77
REMARK SMILES IDX 72 78 78 79 73 80 74 81 75 82 76 83 77 84 56 85 57 86 65 87
REMARK SMILES IDX 58 88 64 89 59 90 60 91 61 92 62 93 63 94
REMARK H PARENT 18 9 5 16 84 50 54 61
REMARK Flexibility Score: inf
ROOT
ATOM      1  C   UNL     1       2.322  -0.983  -5.376  1.00  0.00     0.261 C 
ENDROOT
BRANCH   1   2
ATOM      2  O   UNL     1       0.965  -1.086  -4.919  1.00  0.00    -0.462 OA
BRANCH   2   3
ATOM      3  C   UNL     1       0.228   0.048  -5.043  1.00  0.00     0.325 C 
ATOM      4  O   UNL     1       0.542   1.011  -5.736  1.00  0.00    -0.250 OA
BRANCH   3   5
ATOM      5  C   UNL     1      -1.073   0.032  -4.247  1.00  0.00     0.238 C 
BRANCH   5   6
ATOM      6  N   UNL     1      -1.355  -1.128  -3.423  1.00  0.00    -0.343 N 
ATOM      7  C   UNL     1      -1.251  -1.325  -2.084  1.00  0.00     0.243 C 
ATOM      8  O   UNL     1      -1.653  -2.415  -1.660  1.00  0.00    -0.273 OA
ATOM      9  H   UNL     1      -1.679  -1.911  -3.923  1.00  0.00     0.164 HD
BRANCH   7  10
ATOM     10  C   UNL     1      -0.638  -0.290  -1.100  1.00  0.00     0.177 C 
BRANCH  10  11
ATOM     11  C   UNL     1      -1.502   0.988  -0.884  1.00  0.00     0.015 C 
ATOM     12  C   UNL     1      -2.448   0.761   0.315  1.00  0.00     0.010 C 
ATOM     13  C   UNL     1      -0.763   2.303  -0.634  1.00  0.00     0.010 C 
ENDBRANCH  10  11
BRANCH  10  14
ATOM     14  N   UNL     1       0.817  -0.251  -1.258  1.00  0.00    -0.309 N 
ATOM     15  C   UNL     1       1.657   0.472  -2.039  1.00  0.00     0.408 C 
ATOM     16  H   UNL     1       1.286  -0.886  -0.671  1.00  0.00     0.167 HD
ATOM     17  O   UNL     1       2.815   0.118  -2.207  1.00  0.00    -0.225 OA
BRANCH  15  18
ATOM     18  O   UNL     1       1.084   1.550  -2.606  1.00  0.00    -0.445 OA
BRANCH  18  19
ATOM     19  C   UNL     1       1.893   2.291  -3.524  1.00  0.00     0.270 C 
BRANCH  19  20
ATOM     20  C   UNL     1       2.747   3.356  -2.905  1.00  0.00    -0.011 A 
ATOM     21  C   UNL     1       4.130   3.159  -2.798  1.00  0.00     0.007 A 
ATOM     22  C   UNL     1       2.192   4.584  -2.534  1.00  0.00     0.007 A 
ATOM     23  C   UNL     1       4.955   4.195  -2.372  1.00  0.00     0.000 A 
ATOM     24  C   UNL     1       3.019   5.620  -2.107  1.00  0.00     0.000 A 
ATOM     25  C   UNL     1       4.399   5.428  -2.037  1.00  0.00     0.000 A 
ENDBRANCH  19  20
ENDBRANCH  18  19
ENDBRANCH  15  18
ENDBRANCH  10  14
ENDBRANCH   7  10
ENDBRANCH   5   6
ENDBRANCH   3   5
ENDBRANCH   2   3
ENDBRANCH   1   2
BRANCH   1  26
ATOM     26  C   UNL     1       2.639  -1.450  -6.799  1.00  0.00     0.202 C 
BRANCH  26  27
ATOM     27  O   UNL     1       1.796  -1.114  -7.884  1.00  0.00    -0.374 OA
BRANCH  27  28
ATOM     28  C   UNL     1       0.420  -1.448  -7.870  1.00  0.00     0.202 C 
BRANCH  28  29
ATOM     29  C   UNL     1      -0.102  -2.833  -7.445  1.00  0.00     0.261 C 
BRANCH  29  30
ATOM     30  O   UNL     1       0.659  -3.543  -6.464  1.00  0.00    -0.460 OA
BRANCH  30  31
ATOM     31  C   UNL     1       1.477  -4.487  -6.992  1.00  0.00     0.338 C 
ATOM     32  O   UNL     1       1.623  -4.747  -8.175  1.00  0.00    -0.246 OA
BRANCH  31  33
ATOM     33  C   UNL     1       2.327  -5.080  -5.943  1.00  0.00     0.060 A 
ATOM     34  C   UNL     1       3.713  -5.040  -6.141  1.00  0.00     0.016 A 
ATOM     35  C   UNL     1       1.780  -5.770  -4.860  1.00  0.00     0.016 A 
ATOM     36  C   UNL     1       4.554  -5.752  -5.295  1.00  0.00     0.010 A 
ATOM     37  C   UNL     1       2.628  -6.499  -4.018  1.00  0.00     0.010 A 
ATOM     38  C   UNL     1       4.012  -6.531  -4.265  1.00  0.00    -0.014 A 
BRANCH  38  39
ATOM     39  C   UNL     1       4.898  -7.503  -3.582  1.00  0.00     0.031 A 
ATOM     40  C   UNL     1       4.896  -8.937  -4.044  1.00  0.00     0.074 A 
ATOM     41  C   UNL     1       5.753  -7.092  -2.629  1.00  0.00     0.049 A 
ATOM     42  N   UNL     1       5.641  -9.935  -3.643  1.00  0.00    -0.248 NA
ATOM     43  C   UNL     1       3.934  -9.295  -5.101  1.00  0.00     0.031 C 
ATOM     44  C   UNL     1       5.868  -5.722  -2.130  1.00  0.00     0.029 A 
ATOM     45  N   UNL     1       6.697  -7.789  -1.918  1.00  0.00    -0.354 N 
ATOM     46  C   UNL     1       5.232 -11.036  -4.387  1.00  0.00     0.074 A 
ATOM     47  C   UNL     1       4.162 -10.592  -5.253  1.00  0.00     0.031 C 
ATOM     48  C   UNL     1       6.827  -5.679  -1.188  1.00  0.00     0.029 A 
ATOM     49  C   UNL     1       7.375  -7.021  -1.003  1.00  0.00     0.049 A 
ATOM     50  H   UNL     1       6.871  -8.749  -2.051  1.00  0.00     0.167 HD
ATOM     51  C   UNL     1       5.708 -12.303  -4.352  1.00  0.00     0.031 A 
ATOM     52  C   UNL     1       8.320  -7.366  -0.106  1.00  0.00     0.031 A 
ATOM     53  C   UNL     1       6.779 -12.736  -3.494  1.00  0.00     0.049 A 
ATOM     54  C   UNL     1       8.802  -8.793  -0.063  1.00  0.00     0.074 A 
ATOM     55  C   UNL     1       7.364 -13.988  -3.418  1.00  0.00     0.029 A 
ATOM     56  N   UNL     1       7.417 -11.937  -2.559  1.00  0.00    -0.354 N 
ATOM     57  N   UNL     1       8.444  -9.808  -0.814  1.00  0.00    -0.248 NA
ATOM     58  C   UNL     1       9.825  -9.118   0.940  1.00  0.00     0.031 C 
ATOM     59  C   UNL     1       8.312 -13.964  -2.390  1.00  0.00     0.029 A 
ATOM     60  C   UNL     1       8.362 -12.680  -1.872  1.00  0.00     0.049 A 
ATOM     61  H   UNL     1       7.227 -10.983  -2.406  1.00  0.00     0.167 HD
ATOM     62  C   UNL     1       9.212 -10.886  -0.386  1.00  0.00     0.074 A 
ATOM     63  C   UNL     1      10.073 -10.392   0.669  1.00  0.00     0.031 C 
ATOM     64  C   UNL     1       9.205 -12.171  -0.820  1.00  0.00     0.031 A 
BRANCH  51  65
ATOM     65  C   UNL     1       5.058 -13.332  -5.238  1.00  0.00    -0.014 A 
ATOM     66  C   UNL     1       5.290 -13.360  -6.624  1.00  0.00     0.010 A 
ATOM     67  C   UNL     1       4.275 -14.345  -4.653  1.00  0.00     0.010 A 
ATOM     68  C   UNL     1       4.744 -14.380  -7.410  1.00  0.00     0.020 A 
ATOM     69  C   UNL     1       3.747 -15.377  -5.431  1.00  0.00     0.020 A 
ATOM     70  C   UNL     1       3.981 -15.386  -6.807  1.00  0.00     0.054 A 
BRANCH  70  71
ATOM     71  S   UNL     1       3.348 -16.738  -7.839  1.00  0.00     0.124 S 
ATOM     72  O   UNL     1       2.296 -16.069  -8.601  1.00  0.00    -0.237 OA
ATOM     73  O   UNL     1       4.526 -17.132  -8.607  1.00  0.00    -0.237 OA
ATOM     74  O   UNL     1       2.881 -17.726  -6.870  1.00  0.00    -0.744 OA
ENDBRANCH  70  71
ENDBRANCH  51  65
BRANCH  52  75
ATOM     75  C   UNL     1       8.841  -6.358   0.860  1.00  0.00    -0.014 A 
ATOM     76  C   UNL     1      10.179  -5.931   0.819  1.00  0.00     0.010 A 
ATOM     77  C   UNL     1       7.992  -5.846   1.859  1.00  0.00     0.010 A 
ATOM     78  C   UNL     1      10.668  -5.041   1.782  1.00  0.00     0.020 A 
ATOM     79  C   UNL     1       8.468  -4.933   2.803  1.00  0.00     0.020 A 
ATOM     80  C   UNL     1       9.810  -4.552   2.770  1.00  0.00     0.054 A 
BRANCH  80  81
ATOM     81  S   UNL     1      10.458  -3.391   4.005  1.00  0.00     0.124 S 
ATOM     82  O   UNL     1      11.233  -4.272   4.871  1.00  0.00    -0.237 OA
ATOM     83  O   UNL     1      11.235  -2.461   3.188  1.00  0.00    -0.237 OA
ATOM     84  O   UNL     1       9.252  -2.823   4.605  1.00  0.00    -0.744 OA
ENDBRANCH  80  81
ENDBRANCH  52  75
BRANCH  64  85
ATOM     85  C   UNL     1      10.173 -13.123  -0.170  1.00  0.00    -0.014 A 
ATOM     86  C   UNL     1       9.988 -13.557   1.155  1.00  0.00     0.010 A 
ATOM     87  C   UNL     1      11.265 -13.616  -0.907  1.00  0.00     0.010 A 
ATOM     88  C   UNL     1      10.906 -14.427   1.747  1.00  0.00     0.020 A 
ATOM     89  C   UNL     1      12.168 -14.512  -0.328  1.00  0.00     0.020 A 
ATOM     90  C   UNL     1      11.994 -14.895   1.003  1.00  0.00     0.054 A 
BRANCH  90  91
ATOM     91  S   UNL     1      13.165 -16.035   1.788  1.00  0.00     0.124 S 
ATOM     92  O   UNL     1      13.917 -15.142   2.664  1.00  0.00    -0.237 OA
ATOM     93  O   UNL     1      12.285 -16.985   2.466  1.00  0.00    -0.237 OA
ATOM     94  O   UNL     1      13.918 -16.587   0.664  1.00  0.00    -0.744 OA
ENDBRANCH  90  91
ENDBRANCH  64  85
ENDBRANCH  38  39
ENDBRANCH  31  33
ENDBRANCH  30  31
ENDBRANCH  29  30
ENDBRANCH  28  29
ENDBRANCH  27  28
ENDBRANCH  26  27
ENDBRANCH   1  26
TORSDOF 24
