REMARK SMILES Cc1ccc([C@@]23C[C@@H]4C[C@@H](C[C@@](C(=O)N5CCC(C(=O)OCCOCCOC(=O)c6ccc(-c7c8nc(c(-c9ccc(S(=O)(=O)[O-])cc9)c9ccc([nH]9)c(-c9ccc(S(=O)(=O)[O-])cc9)c9nc(c(-c%10ccc(S(=O)(=O)[O-])cc%10)c%10ccc7[nH]%10)C=C9)C=C8)cc6)CC5)(C4)C2)C3)cc1
REMARK SMILES IDX 25 1 24 2 23 3 22 4 21 5 19 6 20 7 18 8 13 9 14 10 15 11
REMARK SMILES IDX 16 12 91 13 17 14 90 15 12 16 6 17 7 18 93 19 94 20 8 21
REMARK SMILES IDX 10 22 9 23 92 24 11 25 5 26 1 27 2 28 3 29 96 30 4 31 95 32
REMARK SMILES IDX 26 33 27 34 28 35 29 36 30 37 31 38 89 39 32 40 88 41 33 42
REMARK SMILES IDX 34 43 35 44 82 45 36 46 87 47 81 48 83 49 37 50 86 51 80 52
REMARK SMILES IDX 79 53 38 55 68 56 49 57 67 58 50 59 53 60 66 61 84 62 51 63
REMARK SMILES IDX 52 64 65 66 85 67 54 68 39 69 40 70 48 71 41 72 47 73 42 74
REMARK SMILES IDX 43 75 44 76 45 77 46 78 69 79 70 80 78 81 71 82 77 83 72 84
REMARK SMILES IDX 73 85 74 86 75 87 76 88 55 89 56 90 64 91 57 92 63 93 58 94
REMARK SMILES IDX 59 95 60 96 61 97 62 98
REMARK H PARENT 83 54 53 65
REMARK Flexibility Score: inf
ROOT
ATOM      1  C   UNL     1      -5.643  -2.511  -7.878  1.00  0.00     0.202 C 
ENDROOT
BRANCH   1   2
ATOM      2  O   UNL     1      -5.564  -3.482  -6.826  1.00  0.00    -0.374 OA
BRANCH   2   3
ATOM      3  C   UNL     1      -6.713  -4.290  -6.720  1.00  0.00     0.202 C 
BRANCH   3   4
ATOM      4  C   UNL     1      -7.580  -3.734  -5.622  1.00  0.00     0.261 C 
BRANCH   4   5
ATOM      5  O   UNL     1      -7.144  -4.106  -4.302  1.00  0.00    -0.463 OA
BRANCH   5   6
ATOM      6  C   UNL     1      -6.224  -5.094  -4.136  1.00  0.00     0.309 C 
ATOM      7  O   UNL     1      -6.195  -6.178  -4.701  1.00  0.00    -0.252 OA
BRANCH   6   8
ATOM      8  C   UNL     1      -5.203  -4.693  -3.125  1.00  0.00     0.103 C 
ATOM      9  C   UNL     1      -5.615  -2.366   0.028  1.00  0.00     0.228 C 
ATOM     10  O   UNL     1      -6.475  -2.854   0.763  1.00  0.00    -0.274 OA
ATOM     11  N   UNL     1      -4.803  -3.159  -0.799  1.00  0.00    -0.342 N 
ATOM     12  C   UNL     1      -4.834  -4.601  -0.638  1.00  0.00     0.120 C 
ATOM     13  C   UNL     1      -4.124  -2.743  -2.040  1.00  0.00     0.120 C 
ATOM     14  C   UNL     1      -5.666  -5.191  -1.753  1.00  0.00     0.037 C 
ATOM     15  C   UNL     1      -4.966  -3.181  -3.203  1.00  0.00     0.037 C 
BRANCH   9  16
ATOM     16  C   UNL     1      -5.292  -0.865   0.093  1.00  0.00     0.051 C 
ATOM     17  C   UNL     1      -3.164   0.572   0.225  1.00  0.00    -0.003 C 
ATOM     18  C   UNL     1      -3.664   1.227  -1.098  1.00  0.00     0.015 C 
ATOM     19  C   UNL     1      -3.777  -0.817   0.325  1.00  0.00     0.028 C 
ATOM     20  C   UNL     1      -3.760   1.340   1.431  1.00  0.00     0.015 C 
ATOM     21  C   UNL     1      -5.203   1.317  -1.150  1.00  0.00    -0.009 C 
ATOM     22  C   UNL     1      -5.312   1.336   1.360  1.00  0.00    -0.009 C 
ATOM     23  C   UNL     1      -5.726   2.077   0.077  1.00  0.00     0.007 C 
ATOM     24  C   UNL     1      -5.799  -0.094  -1.142  1.00  0.00     0.020 C 
ATOM     25  C   UNL     1      -5.880  -0.115   1.318  1.00  0.00     0.020 C 
BRANCH  17  26
ATOM     26  C   UNL     1      -1.624   0.452   0.230  1.00  0.00    -0.042 A 
ATOM     27  C   UNL     1       2.698   0.096  -0.032  1.00  0.00     0.044 C 
ATOM     28  C   UNL     1       1.211   0.240   0.060  1.00  0.00    -0.051 A 
ATOM     29  C   UNL     1       0.429  -0.905   0.140  1.00  0.00     0.004 A 
ATOM     30  C   UNL     1       0.579   1.488   0.068  1.00  0.00     0.004 A 
ATOM     31  C   UNL     1      -0.956  -0.796   0.240  1.00  0.00     0.004 A 
ATOM     32  C   UNL     1      -0.819   1.593   0.149  1.00  0.00     0.004 A 
ENDBRANCH  17  26
ENDBRANCH   9  16
ENDBRANCH   6   8
ENDBRANCH   5   6
ENDBRANCH   4   5
ENDBRANCH   3   4
ENDBRANCH   2   3
ENDBRANCH   1   2
BRANCH   1  33
ATOM     33  C   UNL     1      -7.018  -1.904  -8.319  1.00  0.00     0.261 C 
BRANCH  33  34
ATOM     34  O   UNL     1      -7.812  -2.870  -9.061  1.00  0.00    -0.460 OA
BRANCH  34  35
ATOM     35  C   UNL     1      -9.182  -2.736  -9.009  1.00  0.00     0.338 C 
ATOM     36  O   UNL     1      -9.790  -1.706  -9.122  1.00  0.00    -0.246 OA
BRANCH  35  37
ATOM     37  C   UNL     1      -9.771  -4.067  -8.612  1.00  0.00     0.060 A 
ATOM     38  C   UNL     1     -10.841  -4.107  -7.703  1.00  0.00     0.016 A 
ATOM     39  C   UNL     1      -9.015  -5.213  -8.826  1.00  0.00     0.016 A 
ATOM     40  C   UNL     1     -10.955  -5.185  -6.807  1.00  0.00     0.010 A 
ATOM     41  C   UNL     1      -9.035  -6.191  -7.846  1.00  0.00     0.010 A 
ATOM     42  C   UNL     1      -9.951  -6.151  -6.784  1.00  0.00    -0.014 A 
BRANCH  42  43
ATOM     43  C   UNL     1      -9.638  -7.023  -5.636  1.00  0.00     0.031 A 
ATOM     44  C   UNL     1      -9.438  -8.473  -5.880  1.00  0.00     0.074 A 
ATOM     45  C   UNL     1      -9.312  -6.499  -4.420  1.00  0.00     0.049 A 
ATOM     46  N   UNL     1      -9.325  -9.336  -4.937  1.00  0.00    -0.248 NA
ATOM     47  C   UNL     1      -9.375  -9.107  -7.201  1.00  0.00     0.031 C 
ATOM     48  C   UNL     1      -8.640  -7.135  -3.281  1.00  0.00     0.029 A 
ATOM     49  N   UNL     1      -9.608  -5.230  -3.919  1.00  0.00    -0.354 N 
ATOM     50  C   UNL     1      -8.798 -10.480  -5.476  1.00  0.00     0.074 A 
ATOM     51  C   UNL     1      -8.986 -10.348  -6.894  1.00  0.00     0.031 C 
ATOM     52  C   UNL     1      -8.836  -6.405  -2.169  1.00  0.00     0.029 A 
ATOM     53  C   UNL     1      -9.690  -5.289  -2.524  1.00  0.00     0.049 A 
ATOM     54  H   UNL     1      -9.738  -4.419  -4.463  1.00  0.00     0.167 HD
ATOM     55  C   UNL     1      -8.131 -11.329  -4.650  1.00  0.00     0.031 A 
ATOM     56  C   UNL     1     -10.851  -4.907  -1.943  1.00  0.00     0.031 A 
ATOM     57  C   UNL     1      -8.375 -10.969  -3.240  1.00  0.00     0.049 A 
ATOM     58  C   UNL     1     -11.509  -6.185  -1.474  1.00  0.00     0.074 A 
ATOM     59  C   UNL     1      -7.593 -10.503  -2.200  1.00  0.00     0.029 A 
ATOM     60  N   UNL     1      -9.702 -10.731  -2.845  1.00  0.00    -0.354 N 
ATOM     61  N   UNL     1     -11.207  -7.366  -1.970  1.00  0.00    -0.248 NA
ATOM     62  C   UNL     1     -12.319  -6.287  -0.269  1.00  0.00     0.031 C 
ATOM     63  C   UNL     1      -8.465  -9.858  -1.254  1.00  0.00     0.029 A 
ATOM     64  C   UNL     1      -9.780  -9.961  -1.697  1.00  0.00     0.049 A 
ATOM     65  H   UNL     1     -10.487 -11.073  -3.330  1.00  0.00     0.167 HD
ATOM     66  C   UNL     1     -11.541  -8.339  -1.074  1.00  0.00     0.074 A 
ATOM     67  C   UNL     1     -12.307  -7.618  -0.062  1.00  0.00     0.031 C 
ATOM     68  C   UNL     1     -11.095  -9.636  -1.113  1.00  0.00     0.031 A 
BRANCH  55  69
ATOM     69  C   UNL     1      -7.140 -12.361  -5.162  1.00  0.00    -0.014 A 
ATOM     70  C   UNL     1      -6.568 -13.304  -4.288  1.00  0.00     0.010 A 
ATOM     71  C   UNL     1      -6.670 -12.404  -6.498  1.00  0.00     0.010 A 
ATOM     72  C   UNL     1      -5.631 -14.262  -4.736  1.00  0.00     0.020 A 
ATOM     73  C   UNL     1      -5.771 -13.375  -6.967  1.00  0.00     0.020 A 
ATOM     74  C   UNL     1      -5.254 -14.304  -6.079  1.00  0.00     0.054 A 
BRANCH  74  75
ATOM     75  S   UNL     1      -4.089 -15.570  -6.657  1.00  0.00     0.124 S 
ATOM     76  O   UNL     1      -2.861 -15.214  -5.951  1.00  0.00    -0.237 OA
ATOM     77  O   UNL     1      -4.728 -16.811  -6.227  1.00  0.00    -0.237 OA
ATOM     78  O   UNL     1      -4.046 -15.372  -8.105  1.00  0.00    -0.744 OA
ENDBRANCH  74  75
ENDBRANCH  55  69
BRANCH  56  79
ATOM     79  C   UNL     1     -11.308  -3.587  -2.517  1.00  0.00    -0.014 A 
ATOM     80  C   UNL     1     -10.500  -2.468  -2.160  1.00  0.00     0.010 A 
ATOM     81  C   UNL     1     -12.046  -3.470  -3.711  1.00  0.00     0.010 A 
ATOM     82  C   UNL     1     -10.313  -1.369  -3.017  1.00  0.00     0.020 A 
ATOM     83  C   UNL     1     -11.867  -2.358  -4.576  1.00  0.00     0.020 A 
ATOM     84  C   UNL     1     -10.963  -1.343  -4.247  1.00  0.00     0.054 A 
BRANCH  84  85
ATOM     85  S   UNL     1     -10.511  -0.033  -5.435  1.00  0.00     0.124 S 
ATOM     86  O   UNL     1     -10.751   1.188  -4.670  1.00  0.00    -0.237 OA
ATOM     87  O   UNL     1      -9.104  -0.334  -5.702  1.00  0.00    -0.237 OA
ATOM     88  O   UNL     1     -11.425  -0.259  -6.549  1.00  0.00    -0.744 OA
ENDBRANCH  84  85
ENDBRANCH  56  79
BRANCH  68  89
ATOM     89  C   UNL     1     -11.930 -10.781  -0.580  1.00  0.00    -0.014 A 
ATOM     90  C   UNL     1     -13.239 -10.634  -0.100  1.00  0.00     0.010 A 
ATOM     91  C   UNL     1     -11.459 -12.108  -0.743  1.00  0.00     0.010 A 
ATOM     92  C   UNL     1     -14.017 -11.740   0.248  1.00  0.00     0.020 A 
ATOM     93  C   UNL     1     -12.254 -13.221  -0.476  1.00  0.00     0.020 A 
ATOM     94  C   UNL     1     -13.523 -13.026   0.046  1.00  0.00     0.054 A 
BRANCH  94  95
ATOM     95  S   UNL     1     -14.582 -14.430   0.436  1.00  0.00     0.124 S 
ATOM     96  O   UNL     1     -14.548 -14.430   1.896  1.00  0.00    -0.237 OA
ATOM     97  O   UNL     1     -15.857 -14.042  -0.163  1.00  0.00    -0.237 OA
ATOM     98  O   UNL     1     -13.915 -15.559  -0.207  1.00  0.00    -0.744 OA
ENDBRANCH  94  95
ENDBRANCH  68  89
ENDBRANCH  42  43
ENDBRANCH  35  37
ENDBRANCH  34  35
ENDBRANCH  33  34
ENDBRANCH   1  33
TORSDOF 19
