REMARK SMILES O=C(OCCOCCOC(=O)c1ccc(-c2c3nc(c(-c4ccc(S(=O)(=O)[O-])cc4)c4ccc([nH]4)c(-c4ccc(S(=O)(=O)[O-])cc4)c4nc(c(-c5ccc(S(=O)(=O)[O-])cc5)c5ccc2[nH]5)C=C4)C=C3)cc1)C1=Cc2cc(S(F)(F)(F)(F)F)cc(Br)c2O[C@@H]1C(F)(F)F
REMARK SMILES IDX 7 1 6 2 5 3 4 4 3 5 2 6 1 7 72 8 73 9 88 10 74 11 87 12
REMARK SMILES IDX 75 13 86 14 76 15 84 16 83 17 85 18 89 19 90 20 91 21 92 22
REMARK SMILES IDX 77 23 78 24 79 25 80 26 81 27 82 28 8 29 9 30 10 31 11 32
REMARK SMILES IDX 12 33 13 34 71 35 14 36 70 37 15 38 16 39 17 40 64 41 18 42
REMARK SMILES IDX 69 43 63 44 65 45 19 46 68 47 62 48 61 49 20 51 50 52 31 53
REMARK SMILES IDX 49 54 32 55 35 56 48 57 66 58 33 59 34 60 47 62 67 63 36 64
REMARK SMILES IDX 21 65 22 66 30 67 23 68 29 69 24 70 25 71 26 72 27 73 28 74
REMARK SMILES IDX 51 75 52 76 60 77 53 78 59 79 54 80 55 81 56 82 57 83 58 84
REMARK SMILES IDX 37 85 38 86 46 87 39 88 45 89 40 90 41 91 42 92 43 93 44 94
REMARK H PARENT 65 50 35 61
REMARK Flexibility Score: inf
ROOT
ATOM      1  C   UNL     1       3.057   0.712   1.344  1.00  0.00     0.202 C 
ENDROOT
BRANCH   1   2
ATOM      2  O   UNL     1       4.477   0.712   1.344  1.00  0.00    -0.374 OA
BRANCH   2   3
ATOM      3  C   UNL     1       4.950   1.282   0.132  1.00  0.00     0.202 C 
BRANCH   3   4
ATOM      4  C   UNL     1       4.443   0.464  -1.045  1.00  0.00     0.261 C 
BRANCH   4   5
ATOM      5  O   UNL     1       3.023   0.464  -1.045  1.00  0.00    -0.460 OA
BRANCH   5   6
ATOM      6  C   UNL     1       2.313  -0.060   0.068  1.00  0.00     0.338 C 
ATOM      7  O   UNL     1       1.042  -0.060   0.068  1.00  0.00    -0.246 OA
BRANCH   6   8
ATOM      8  C   UNL     1       3.073  -0.620   1.259  1.00  0.00     0.087 C 
ATOM      9  C   UNL     1       4.434  -0.620   1.259  1.00  0.00     0.027 C 
ATOM     10  C   UNL     1       2.313  -1.181   2.450  1.00  0.00     0.316 C 
ATOM     11  C   UNL     1       5.194  -0.060   0.068  1.00  0.00     0.020 A 
ATOM     12  O   UNL     1       3.625   1.725   0.100  1.00  0.00    -0.474 OA
ATOM     13  C   UNL     1       6.220  -0.777  -0.525  1.00  0.00     0.036 A 
ATOM     14  C   UNL     1       4.780   1.097  -0.436  1.00  0.00     0.142 A 
ATOM     15  C   UNL     1       6.948  -0.043  -1.491  1.00  0.00     0.109 A 
ATOM     16  C   UNL     1       5.461   1.692  -1.471  1.00  0.00     0.062 A 
ATOM     17  C   UNL     1       6.521   1.067  -2.066  1.00  0.00     0.044 A 
ATOM     18  Br  UNL     1       4.903   3.462  -2.103  1.00  0.00    -0.047 Br
BRANCH  10  19
ATOM     19  C   UNL     1       2.680  -0.398   3.700  1.00  0.00     0.430 C 
ATOM     20  F   UNL     1       2.359   0.882   3.531  1.00  0.00    -0.167 F 
ATOM     21  F   UNL     1       2.015  -0.888   4.742  1.00  0.00    -0.167 F 
ATOM     22  F   UNL     1       3.988  -0.501   3.920  1.00  0.00    -0.167 F 
ENDBRANCH  10  19
BRANCH  15  23
ATOM     23  S   UNL     1       8.576  -0.668  -1.973  1.00  0.00     0.310 S 
ATOM     24  F   UNL     1       9.088  -0.704  -0.472  1.00  0.00    -0.094 F 
ATOM     25  F   UNL     1       9.107   0.813  -2.046  1.00  0.00    -0.094 F 
ATOM     26  F   UNL     1       9.969  -1.217  -2.395  1.00  0.00    -0.094 F 
ATOM     27  F   UNL     1       8.067  -2.148  -1.758  1.00  0.00    -0.094 F 
ATOM     28  F   UNL     1       7.192  -0.129  -1.434  1.00  0.00    -0.094 F 
ENDBRANCH  15  23
ENDBRANCH   6   8
ENDBRANCH   5   6
ENDBRANCH   4   5
ENDBRANCH   3   4
ENDBRANCH   2   3
ENDBRANCH   1   2
BRANCH   1  29
ATOM     29  C   UNL     1       2.550   2.140   1.224  1.00  0.00     0.261 C 
BRANCH  29  30
ATOM     30  O   UNL     1       3.023   2.710   0.013  1.00  0.00    -0.460 OA
BRANCH  30  31
ATOM     31  C   UNL     1       4.419   2.820  -0.222  1.00  0.00     0.338 C 
ATOM     32  O   UNL     1       5.245   2.409   0.652  1.00  0.00    -0.246 OA
BRANCH  31  33
ATOM     33  C   UNL     1       4.926   3.431  -1.519  1.00  0.00     0.060 A 
ATOM     34  C   UNL     1       5.866   2.784  -2.304  1.00  0.00     0.016 A 
ATOM     35  C   UNL     1       4.338   4.548  -1.929  1.00  0.00     0.016 A 
ATOM     36  C   UNL     1       6.334   3.558  -3.392  1.00  0.00     0.010 A 
ATOM     37  C   UNL     1       4.756   5.179  -3.075  1.00  0.00     0.010 A 
ATOM     38  C   UNL     1       5.723   4.627  -3.869  1.00  0.00    -0.014 A 
BRANCH  38  39
ATOM     39  C   UNL     1       6.074   5.211  -5.227  1.00  0.00     0.031 A 
ATOM     40  C   UNL     1       6.532   6.530  -5.236  1.00  0.00     0.074 A 
ATOM     41  C   UNL     1       5.808   4.477  -6.370  1.00  0.00     0.049 A 
ATOM     42  N   UNL     1       6.819   7.285  -6.297  1.00  0.00    -0.248 NA
ATOM     43  C   UNL     1       6.783   7.323  -4.023  1.00  0.00     0.031 C 
ATOM     44  C   UNL     1       5.354   3.144  -6.371  1.00  0.00     0.029 A 
ATOM     45  N   UNL     1       5.926   4.882  -7.682  1.00  0.00    -0.354 N 
ATOM     46  C   UNL     1       7.248   8.487  -5.906  1.00  0.00     0.074 A 
ATOM     47  C   UNL     1       7.225   8.530  -4.438  1.00  0.00     0.031 C 
ATOM     48  C   UNL     1       5.190   2.755  -7.662  1.00  0.00     0.029 A 
ATOM     49  C   UNL     1       5.539   3.837  -8.491  1.00  0.00     0.049 A 
ATOM     50  H   UNL     1       6.234   5.766  -7.987  1.00  0.00     0.167 HD
ATOM     51  C   UNL     1       7.660   9.546  -6.716  1.00  0.00     0.031 A 
ATOM     52  C   UNL     1       5.485   3.811  -9.876  1.00  0.00     0.031 A 
ATOM     53  C   UNL     1       7.647   9.505  -8.101  1.00  0.00     0.049 A 
ATOM     54  C   UNL     1       5.841   4.892 -10.686  1.00  0.00     0.074 A 
ATOM     55  C   UNL     1       8.066  10.562  -8.932  1.00  0.00     0.029 A 
ATOM     56  N   UNL     1       7.237   8.469  -8.910  1.00  0.00    -0.354 N 
ATOM     57  N   UNL     1       6.308   6.079 -10.295  1.00  0.00    -0.248 NA
ATOM     58  C   UNL     1       5.757   4.887 -12.152  1.00  0.00     0.031 C 
ATOM     59  C   UNL     1       7.901  10.172 -10.224  1.00  0.00     0.029 A 
ATOM     60  C   UNL     1       7.376   8.866 -10.222  1.00  0.00     0.049 A 
ATOM     61  H   UNL     1       6.901   7.595  -8.604  1.00  0.00     0.167 HD
ATOM     62  C   UNL     1       6.555   6.848 -11.357  1.00  0.00     0.074 A 
ATOM     63  C   UNL     1       6.198   6.095 -12.567  1.00  0.00     0.031 C 
ATOM     64  C   UNL     1       7.069   8.146 -11.366  1.00  0.00     0.031 A 
BRANCH  51  65
ATOM     65  C   UNL     1       8.150  10.817  -6.040  1.00  0.00    -0.014 A 
ATOM     66  C   UNL     1       9.155  10.783  -5.088  1.00  0.00     0.010 A 
ATOM     67  C   UNL     1       7.487  11.937  -6.302  1.00  0.00     0.010 A 
ATOM     68  C   UNL     1       9.193  11.925  -4.254  1.00  0.00     0.020 A 
ATOM     69  C   UNL     1       7.673  13.057  -5.529  1.00  0.00     0.020 A 
ATOM     70  C   UNL     1       8.608  13.076  -4.532  1.00  0.00     0.054 A 
BRANCH  70  71
ATOM     71  S   UNL     1       9.023  14.597  -3.642  1.00  0.00     0.124 S 
ATOM     72  O   UNL     1       8.728  14.412  -2.152  1.00  0.00    -0.237 OA
ATOM     73  O   UNL     1      10.509  14.910  -3.833  1.00  0.00    -0.237 OA
ATOM     74  O   UNL     1       8.085  15.889  -4.253  1.00  0.00    -0.744 OA
ENDBRANCH  70  71
ENDBRANCH  51  65
BRANCH  52  75
ATOM     75  C   UNL     1       5.011   2.535 -10.551  1.00  0.00    -0.014 A 
ATOM     76  C   UNL     1       5.810   1.751 -11.367  1.00  0.00     0.010 A 
ATOM     77  C   UNL     1       3.780   2.159 -10.226  1.00  0.00     0.010 A 
ATOM     78  C   UNL     1       5.111   0.715 -12.030  1.00  0.00     0.020 A 
ATOM     79  C   UNL     1       3.207   1.056 -10.813  1.00  0.00     0.020 A 
ATOM     80  C   UNL     1       3.920   0.269 -11.674  1.00  0.00     0.054 A 
BRANCH  80  81
ATOM     81  S   UNL     1       3.265  -1.301 -12.294  1.00  0.00     0.124 S 
ATOM     82  O   UNL     1       3.172  -1.247 -13.821  1.00  0.00    -0.237 OA
ATOM     83  O   UNL     1       4.198  -2.442 -11.881  1.00  0.00    -0.237 OA
ATOM     84  O   UNL     1       1.710  -1.570 -11.637  1.00  0.00    -0.744 OA
ENDBRANCH  80  81
ENDBRANCH  52  75
BRANCH  64  85
ATOM     85  C   UNL     1       7.304   8.811 -12.712  1.00  0.00    -0.014 A 
ATOM     86  C   UNL     1       6.255   9.123 -13.560  1.00  0.00     0.010 A 
ATOM     87  C   UNL     1       8.548   9.184 -12.990  1.00  0.00     0.010 A 
ATOM     88  C   UNL     1       6.664   9.586 -14.833  1.00  0.00     0.020 A 
ATOM     89  C   UNL     1       8.853   9.755 -14.202  1.00  0.00     0.020 A 
ATOM     90  C   UNL     1       7.873  10.037 -15.113  1.00  0.00     0.054 A 
BRANCH  90  91
ATOM     91  S   UNL     1       8.215  10.978 -16.620  1.00  0.00     0.124 S 
ATOM     92  O   UNL     1       7.874  10.124 -17.844  1.00  0.00    -0.237 OA
ATOM     93  O   UNL     1       7.362  12.249 -16.633  1.00  0.00    -0.237 OA
ATOM     94  O   UNL     1       9.870  11.403 -16.665  1.00  0.00    -0.744 OA
ENDBRANCH  90  91
ENDBRANCH  64  85
ENDBRANCH  38  39
ENDBRANCH  31  33
ENDBRANCH  30  31
ENDBRANCH  29  30
ENDBRANCH   1  29
TORSDOF 19
