REMARK SMILES CCCCCN(C(=O)N1CCC(CC(=O)OCCOCCOC(=O)c2ccc(-c3c4nc(c(-c5ccc(S(=O)(=O)[O-])cc5)c5ccc([nH]5)c(-c5ccc(S(=O)(=O)[O-])cc5)c5nc(c(-c6ccc(S(=O)(=O)[O-])cc6)c6ccc3[nH]6)C=C5)C=C4)cc2)CC1)C(C)C
REMARK SMILES IDX 17 1 16 2 14 3 15 4 13 5 12 6 7 7 8 8 9 9 10 10 86 11 11 12
REMARK SMILES IDX 85 13 6 14 5 15 4 16 3 17 2 18 1 19 87 20 88 21 89 22 18 23
REMARK SMILES IDX 19 24 20 25 21 26 22 27 23 28 24 29 25 30 26 31 84 32 27 33
REMARK SMILES IDX 83 34 28 35 29 36 30 37 77 38 31 39 82 40 76 41 78 42 32 43
REMARK SMILES IDX 81 44 75 45 74 46 33 48 63 49 44 50 62 51 45 52 48 53 61 54
REMARK SMILES IDX 79 55 46 56 47 57 60 59 80 60 49 61 34 62 35 63 43 64 36 65
REMARK SMILES IDX 42 66 37 67 38 68 39 69 40 70 41 71 64 72 65 73 73 74 66 75
REMARK SMILES IDX 72 76 67 77 68 78 69 79 70 80 71 81 50 82 51 83 59 84 52 85
REMARK SMILES IDX 58 86 53 87 54 88 55 89 56 90 57 91
REMARK H PARENT 78 47 48 58
REMARK Flexibility Score: inf
ROOT
ATOM      1  C   UNL     1      -7.039 -10.039   2.625  1.00  0.00     0.261 C 
ENDROOT
BRANCH   1   2
ATOM      2  O   UNL     1      -6.547  -8.796   2.091  1.00  0.00    -0.463 OA
BRANCH   2   3
ATOM      3  C   UNL     1      -7.244  -7.683   2.420  1.00  0.00     0.306 C 
ATOM      4  O   UNL     1      -8.261  -7.664   3.103  1.00  0.00    -0.252 OA
BRANCH   3   5
ATOM      5  C   UNL     1      -6.662  -6.428   1.806  1.00  0.00     0.126 C 
BRANCH   5   6
ATOM      6  C   UNL     1      -5.137  -6.202   1.877  1.00  0.00     0.003 C 
ATOM      7  C   UNL     1      -2.130  -4.999  -0.687  1.00  0.00     0.320 C 
ATOM      8  O   UNL     1      -2.081  -5.872  -1.558  1.00  0.00    -0.248 OA
ATOM      9  N   UNL     1      -2.673  -5.290   0.553  1.00  0.00    -0.325 N 
ATOM     10  C   UNL     1      -2.854  -6.698   0.901  1.00  0.00     0.121 C 
ATOM     11  C   UNL     1      -3.388  -4.361   1.420  1.00  0.00     0.121 C 
ATOM     12  C   UNL     1      -4.335  -7.085   0.905  1.00  0.00     0.026 C 
ATOM     13  C   UNL     1      -4.867  -4.717   1.561  1.00  0.00     0.026 C 
BRANCH   7  14
ATOM     14  N   UNL     1      -1.677  -3.707  -0.958  1.00  0.00    -0.322 N 
BRANCH  14  15
ATOM     15  C   UNL     1      -1.025  -2.832   0.041  1.00  0.00     0.121 C 
BRANCH  15  16
ATOM     16  C   UNL     1       0.497  -2.960   0.230  1.00  0.00     0.022 C 
BRANCH  16  17
ATOM     17  C   UNL     1       1.448  -2.087  -0.600  1.00  0.00     0.002 C 
BRANCH  17  18
ATOM     18  C   UNL     1       1.050  -0.627  -0.821  1.00  0.00    -0.003 C 
ATOM     19  C   UNL     1       1.258   0.248   0.404  1.00  0.00     0.004 C 
ENDBRANCH  17  18
ENDBRANCH  16  17
ENDBRANCH  15  16
ENDBRANCH  14  15
BRANCH  14  20
ATOM     20  C   UNL     1      -1.670  -3.342  -2.397  1.00  0.00     0.080 C 
ATOM     21  C   UNL     1      -2.276  -1.968  -2.684  1.00  0.00     0.031 C 
ATOM     22  C   UNL     1      -0.319  -3.523  -3.083  1.00  0.00     0.031 C 
ENDBRANCH  14  20
ENDBRANCH   7  14
ENDBRANCH   5   6
ENDBRANCH   3   5
ENDBRANCH   2   3
ENDBRANCH   1   2
BRANCH   1  23
ATOM     23  C   UNL     1      -6.076 -10.626   3.660  1.00  0.00     0.202 C 
BRANCH  23  24
ATOM     24  O   UNL     1      -5.966  -9.920   4.895  1.00  0.00    -0.374 OA
BRANCH  24  25
ATOM     25  C   UNL     1      -5.157  -8.745   4.900  1.00  0.00     0.202 C 
BRANCH  25  26
ATOM     26  C   UNL     1      -3.639  -8.960   4.957  1.00  0.00     0.261 C 
BRANCH  26  27
ATOM     27  O   UNL     1      -3.126  -9.561   3.754  1.00  0.00    -0.460 OA
BRANCH  27  28
ATOM     28  C   UNL     1      -2.677 -10.832   3.898  1.00  0.00     0.338 C 
ATOM     29  O   UNL     1      -2.595 -11.472   4.939  1.00  0.00    -0.246 OA
BRANCH  28  30
ATOM     30  C   UNL     1      -2.468 -11.443   2.573  1.00  0.00     0.060 A 
ATOM     31  C   UNL     1      -3.156 -12.631   2.287  1.00  0.00     0.016 A 
ATOM     32  C   UNL     1      -1.583 -10.896   1.643  1.00  0.00     0.016 A 
ATOM     33  C   UNL     1      -2.946 -13.286   1.075  1.00  0.00     0.010 A 
ATOM     34  C   UNL     1      -1.364 -11.563   0.433  1.00  0.00     0.010 A 
ATOM     35  C   UNL     1      -2.029 -12.771   0.150  1.00  0.00    -0.014 A 
BRANCH  35  36
ATOM     36  C   UNL     1      -1.697 -13.534  -1.077  1.00  0.00     0.031 A 
ATOM     37  C   UNL     1      -0.434 -14.347  -1.123  1.00  0.00     0.074 A 
ATOM     38  C   UNL     1      -2.516 -13.498  -2.144  1.00  0.00     0.049 A 
ATOM     39  N   UNL     1       0.083 -15.017  -2.121  1.00  0.00    -0.248 NA
ATOM     40  C   UNL     1       0.349 -14.417   0.121  1.00  0.00     0.031 C 
ATOM     41  C   UNL     1      -3.796 -12.794  -2.203  1.00  0.00     0.029 A 
ATOM     42  N   UNL     1      -2.383 -14.060  -3.390  1.00  0.00    -0.354 N 
ATOM     43  C   UNL     1       1.256 -15.579  -1.631  1.00  0.00     0.074 A 
ATOM     44  C   UNL     1       1.384 -15.156  -0.253  1.00  0.00     0.031 C 
ATOM     45  C   UNL     1      -4.325 -12.954  -3.429  1.00  0.00     0.029 A 
ATOM     46  C   UNL     1      -3.401 -13.731  -4.253  1.00  0.00     0.049 A 
ATOM     47  H   UNL     1      -1.631 -14.644  -3.640  1.00  0.00     0.167 HD
ATOM     48  C   UNL     1       2.145 -16.374  -2.273  1.00  0.00     0.031 A 
ATOM     49  C   UNL     1      -3.553 -13.993  -5.566  1.00  0.00     0.031 A 
ATOM     50  C   UNL     1       2.025 -16.771  -3.651  1.00  0.00     0.049 A 
ATOM     51  C   UNL     1      -2.494 -14.784  -6.289  1.00  0.00     0.074 A 
ATOM     52  C   UNL     1       2.867 -17.587  -4.388  1.00  0.00     0.029 A 
ATOM     53  N   UNL     1       1.010 -16.370  -4.506  1.00  0.00    -0.354 N 
ATOM     54  N   UNL     1      -1.403 -15.331  -5.808  1.00  0.00    -0.248 NA
ATOM     55  C   UNL     1      -2.685 -14.989  -7.732  1.00  0.00     0.031 C 
ATOM     56  C   UNL     1       2.396 -17.626  -5.704  1.00  0.00     0.029 A 
ATOM     57  C   UNL     1       1.225 -16.887  -5.773  1.00  0.00     0.049 A 
ATOM     58  H   UNL     1       0.248 -15.801  -4.251  1.00  0.00     0.167 HD
ATOM     59  C   UNL     1      -0.787 -15.959  -6.886  1.00  0.00     0.074 A 
ATOM     60  C   UNL     1      -1.635 -15.739  -8.040  1.00  0.00     0.031 C 
ATOM     61  C   UNL     1       0.376 -16.656  -6.916  1.00  0.00     0.031 A 
BRANCH  48  62
ATOM     62  C   UNL     1       3.354 -16.832  -1.500  1.00  0.00    -0.014 A 
ATOM     63  C   UNL     1       3.246 -17.785  -0.472  1.00  0.00     0.010 A 
ATOM     64  C   UNL     1       4.624 -16.325  -1.831  1.00  0.00     0.010 A 
ATOM     65  C   UNL     1       4.380 -18.192   0.238  1.00  0.00     0.020 A 
ATOM     66  C   UNL     1       5.764 -16.748  -1.142  1.00  0.00     0.020 A 
ATOM     67  C   UNL     1       5.631 -17.667  -0.099  1.00  0.00     0.054 A 
BRANCH  67  68
ATOM     68  S   UNL     1       7.086 -18.219   0.833  1.00  0.00     0.124 S 
ATOM     69  O   UNL     1       6.888 -17.558   2.120  1.00  0.00    -0.237 OA
ATOM     70  O   UNL     1       6.928 -19.671   0.843  1.00  0.00    -0.237 OA
ATOM     71  O   UNL     1       8.213 -17.724   0.045  1.00  0.00    -0.744 OA
ENDBRANCH  67  68
ENDBRANCH  48  62
BRANCH  49  72
ATOM     72  C   UNL     1      -4.742 -13.469  -6.293  1.00  0.00    -0.014 A 
ATOM     73  C   UNL     1      -5.739 -14.342  -6.760  1.00  0.00     0.010 A 
ATOM     74  C   UNL     1      -4.888 -12.085  -6.512  1.00  0.00     0.010 A 
ATOM     75  C   UNL     1      -6.856 -13.844  -7.438  1.00  0.00     0.020 A 
ATOM     76  C   UNL     1      -6.016 -11.581  -7.165  1.00  0.00     0.020 A 
ATOM     77  C   UNL     1      -6.990 -12.466  -7.631  1.00  0.00     0.054 A 
BRANCH  77  78
ATOM     78  S   UNL     1      -8.479 -11.840  -8.457  1.00  0.00     0.124 S 
ATOM     79  O   UNL     1      -8.248 -12.235  -9.843  1.00  0.00    -0.237 OA
ATOM     80  O   UNL     1      -9.547 -12.556  -7.765  1.00  0.00    -0.237 OA
ATOM     81  O   UNL     1      -8.435 -10.402  -8.200  1.00  0.00    -0.744 OA
ENDBRANCH  77  78
ENDBRANCH  49  72
BRANCH  61  82
ATOM     82  C   UNL     1       0.802 -17.252  -8.232  1.00  0.00    -0.014 A 
ATOM     83  C   UNL     1       1.312 -16.444  -9.263  1.00  0.00     0.010 A 
ATOM     84  C   UNL     1       0.773 -18.648  -8.406  1.00  0.00     0.010 A 
ATOM     85  C   UNL     1       1.773 -17.021 -10.450  1.00  0.00     0.020 A 
ATOM     86  C   UNL     1       1.257 -19.230  -9.581  1.00  0.00     0.020 A 
ATOM     87  C   UNL     1       1.748 -18.411 -10.599  1.00  0.00     0.054 A 
BRANCH  87  88
ATOM     88  S   UNL     1       2.423 -19.137 -12.119  1.00  0.00     0.124 S 
ATOM     89  O   UNL     1       1.403 -18.786 -13.104  1.00  0.00    -0.237 OA
ATOM     90  O   UNL     1       3.701 -18.446 -12.264  1.00  0.00    -0.237 OA
ATOM     91  O   UNL     1       2.523 -20.562 -11.809  1.00  0.00    -0.744 OA
ENDBRANCH  87  88
ENDBRANCH  61  82
ENDBRANCH  35  36
ENDBRANCH  28  30
ENDBRANCH  27  28
ENDBRANCH  26  27
ENDBRANCH  25  26
ENDBRANCH  24  25
ENDBRANCH  23  24
ENDBRANCH   1  23
TORSDOF 24
