REMARK SMILES Cc1nn(C)c(=O)c(C(=O)N2CCCC[C@H]2C(=O)OCCOCCOC(=O)c2ccc(-c3c4nc(c(-c5ccc(S(=O)(=O)[O-])cc5)c5ccc([nH]5)c(-c5ccc(S(=O)(=O)[O-])cc5)c5nc(c(-c6ccc(S(=O)(=O)[O-])cc6)c6ccc3[nH]6)C=C5)C=C4)cc2)c1C
REMARK SMILES IDX 23 1 22 2 21 3 20 4 19 5 17 6 18 7 16 8 11 9 12 10 13 11
REMARK SMILES IDX 15 12 14 13 9 14 10 15 8 16 1 17 2 18 3 19 88 20 4 21 89 22
REMARK SMILES IDX 5 23 6 24 7 25 24 26 25 27 26 28 27 29 28 30 29 31 87 32
REMARK SMILES IDX 30 33 86 34 31 35 32 36 33 37 80 38 34 39 85 40 79 41 81 42
REMARK SMILES IDX 35 43 84 44 78 45 77 46 36 48 66 49 47 50 65 51 48 52 51 53
REMARK SMILES IDX 64 54 82 55 49 56 50 57 63 59 83 60 52 61 37 62 38 63 46 64
REMARK SMILES IDX 39 65 45 66 40 67 41 68 42 69 43 70 44 71 67 72 68 73 76 74
REMARK SMILES IDX 69 75 75 76 70 77 71 78 72 79 73 80 74 81 53 82 54 83 62 84
REMARK SMILES IDX 55 85 61 86 56 87 57 88 58 89 59 90 60 91
REMARK H PARENT 81 47 51 58
REMARK Flexibility Score: inf
ROOT
ATOM      1  C   UNL     1      -0.403  -0.231   4.578  1.00  0.00     0.202 C 
ENDROOT
BRANCH   1   2
ATOM      2  O   UNL     1       0.015   0.859   3.760  1.00  0.00    -0.374 OA
BRANCH   2   3
ATOM      3  C   UNL     1      -0.759   2.040   3.640  1.00  0.00     0.202 C 
BRANCH   3   4
ATOM      4  C   UNL     1      -2.122   1.948   2.963  1.00  0.00     0.261 C 
BRANCH   4   5
ATOM      5  O   UNL     1      -2.706   0.652   3.125  1.00  0.00    -0.462 OA
BRANCH   5   6
ATOM      6  C   UNL     1      -3.732   0.396   2.274  1.00  0.00     0.328 C 
ATOM      7  O   UNL     1      -4.290   1.246   1.590  1.00  0.00    -0.250 OA
BRANCH   6   8
ATOM      8  C   UNL     1      -4.152  -1.085   2.288  1.00  0.00     0.195 C 
ATOM      9  N   UNL     1      -3.132  -2.034   2.808  1.00  0.00    -0.325 N 
ATOM     10  C   UNL     1      -3.363  -2.644   4.130  1.00  0.00     0.121 C 
ATOM     11  C   UNL     1      -4.486  -2.106   5.036  1.00  0.00     0.022 C 
ATOM     12  C   UNL     1      -5.505  -1.170   2.987  1.00  0.00     0.037 C 
ATOM     13  C   UNL     1      -5.323  -0.972   4.477  1.00  0.00     0.005 C 
BRANCH   9  14
ATOM     14  C   UNL     1      -2.612  -2.923   1.846  1.00  0.00     0.260 C 
ATOM     15  O   UNL     1      -3.336  -3.797   1.367  1.00  0.00    -0.269 OA
BRANCH  14  16
ATOM     16  C   UNL     1      -1.176  -2.800   1.393  1.00  0.00     0.111 A 
ATOM     17  C   UNL     1       1.477  -0.510  -0.061  1.00  0.00     0.069 C 
ATOM     18  C   UNL     1       0.732  -1.786   0.278  1.00  0.00     0.062 A 
ATOM     19  N   UNL     1       1.356  -2.896   0.066  1.00  0.00    -0.175 NA
ATOM     20  C   UNL     1      -0.666  -1.704   0.794  1.00  0.00    -0.010 A 
ATOM     21  N   UNL     1       0.749  -4.043   0.487  1.00  0.00    -0.232 N 
ATOM     22  C   UNL     1      -1.377  -0.448   0.449  1.00  0.00     0.047 C 
ATOM     23  C   UNL     1       1.437  -5.264   0.103  1.00  0.00     0.178 C 
ATOM     24  C   UNL     1      -0.366  -4.066   1.325  1.00  0.00     0.279 A 
ATOM     25  O   UNL     1      -0.714  -5.068   1.948  1.00  0.00    -0.267 OA
ENDBRANCH  14  16
ENDBRANCH   9  14
ENDBRANCH   6   8
ENDBRANCH   5   6
ENDBRANCH   4   5
ENDBRANCH   3   4
ENDBRANCH   2   3
ENDBRANCH   1   2
BRANCH   1  26
ATOM     26  C   UNL     1      -1.365  -0.087   5.773  1.00  0.00     0.261 C 
BRANCH  26  27
ATOM     27  O   UNL     1      -1.469   1.198   6.363  1.00  0.00    -0.460 OA
BRANCH  27  28
ATOM     28  C   UNL     1      -0.368   1.647   6.998  1.00  0.00     0.338 C 
ATOM     29  O   UNL     1       0.655   1.033   7.238  1.00  0.00    -0.246 OA
BRANCH  28  30
ATOM     30  C   UNL     1      -0.566   3.101   7.118  1.00  0.00     0.060 A 
ATOM     31  C   UNL     1       0.424   3.936   6.590  1.00  0.00     0.016 A 
ATOM     32  C   UNL     1      -1.766   3.624   7.618  1.00  0.00     0.016 A 
ATOM     33  C   UNL     1       0.233   5.312   6.604  1.00  0.00     0.010 A 
ATOM     34  C   UNL     1      -1.952   5.003   7.641  1.00  0.00     0.010 A 
ATOM     35  C   UNL     1      -0.933   5.845   7.172  1.00  0.00    -0.014 A 
BRANCH  35  36
ATOM     36  C   UNL     1      -0.958   7.280   7.508  1.00  0.00     0.031 A 
ATOM     37  C   UNL     1      -0.472   7.669   8.875  1.00  0.00     0.074 A 
ATOM     38  C   UNL     1      -1.340   8.197   6.605  1.00  0.00     0.049 A 
ATOM     39  N   UNL     1      -0.323   8.857   9.392  1.00  0.00    -0.248 NA
ATOM     40  C   UNL     1      -0.097   6.564   9.779  1.00  0.00     0.031 C 
ATOM     41  C   UNL     1      -1.793   7.910   5.244  1.00  0.00     0.029 A 
ATOM     42  N   UNL     1      -1.392   9.563   6.697  1.00  0.00    -0.354 N 
ATOM     43  C   UNL     1       0.179   8.643  10.671  1.00  0.00     0.074 A 
ATOM     44  C   UNL     1       0.267   7.216  10.871  1.00  0.00     0.031 C 
ATOM     45  C   UNL     1      -2.064   9.071   4.622  1.00  0.00     0.029 A 
ATOM     46  C   UNL     1      -1.823  10.176   5.546  1.00  0.00     0.049 A 
ATOM     47  H   UNL     1      -1.144  10.057   7.511  1.00  0.00     0.167 HD
ATOM     48  C   UNL     1       0.548   9.561  11.591  1.00  0.00     0.031 A 
ATOM     49  C   UNL     1      -1.998  11.485   5.280  1.00  0.00     0.031 A 
ATOM     50  C   UNL     1       0.421  10.976  11.386  1.00  0.00     0.049 A 
ATOM     51  C   UNL     1      -1.658  12.488   6.350  1.00  0.00     0.074 A 
ATOM     52  C   UNL     1       0.745  12.004  12.249  1.00  0.00     0.029 A 
ATOM     53  N   UNL     1      -0.081  11.557  10.231  1.00  0.00    -0.354 N 
ATOM     54  N   UNL     1      -1.165  12.275   7.549  1.00  0.00    -0.248 NA
ATOM     55  C   UNL     1      -1.891  13.903   6.035  1.00  0.00     0.031 C 
ATOM     56  C   UNL     1       0.390  13.209  11.634  1.00  0.00     0.029 A 
ATOM     57  C   UNL     1      -0.103  12.932  10.366  1.00  0.00     0.049 A 
ATOM     58  H   UNL     1      -0.379  11.063   9.433  1.00  0.00     0.167 HD
ATOM     59  C   UNL     1      -1.017  13.530   8.128  1.00  0.00     0.074 A 
ATOM     60  C   UNL     1      -1.456  14.497   7.139  1.00  0.00     0.031 C 
ATOM     61  C   UNL     1      -0.562  13.859   9.363  1.00  0.00     0.031 A 
BRANCH  48  62
ATOM     62  C   UNL     1       1.087   9.049  12.898  1.00  0.00    -0.014 A 
ATOM     63  C   UNL     1       2.362   8.459  12.972  1.00  0.00     0.010 A 
ATOM     64  C   UNL     1       0.313   9.159  14.066  1.00  0.00     0.010 A 
ATOM     65  C   UNL     1       2.840   7.959  14.186  1.00  0.00     0.020 A 
ATOM     66  C   UNL     1       0.797   8.681  15.287  1.00  0.00     0.020 A 
ATOM     67  C   UNL     1       2.053   8.072  15.336  1.00  0.00     0.054 A 
BRANCH  67  68
ATOM     68  S   UNL     1       2.708   7.433  16.902  1.00  0.00     0.124 S 
ATOM     69  O   UNL     1       2.647   5.989  16.688  1.00  0.00    -0.237 OA
ATOM     70  O   UNL     1       4.051   8.006  16.944  1.00  0.00    -0.237 OA
ATOM     71  O   UNL     1       1.780   7.952  17.904  1.00  0.00    -0.744 OA
ENDBRANCH  67  68
ENDBRANCH  48  62
BRANCH  49  72
ATOM     72  C   UNL     1      -2.510  11.909   3.948  1.00  0.00    -0.014 A 
ATOM     73  C   UNL     1      -1.666  12.548   3.024  1.00  0.00     0.010 A 
ATOM     74  C   UNL     1      -3.841  11.635   3.580  1.00  0.00     0.010 A 
ATOM     75  C   UNL     1      -2.141  12.902   1.756  1.00  0.00     0.020 A 
ATOM     76  C   UNL     1      -4.313  11.967   2.306  1.00  0.00     0.020 A 
ATOM     77  C   UNL     1      -3.460  12.601   1.403  1.00  0.00     0.054 A 
BRANCH  77  78
ATOM     78  S   UNL     1      -4.027  12.996  -0.276  1.00  0.00     0.124 S 
ATOM     79  O   UNL     1      -4.111  14.452  -0.236  1.00  0.00    -0.237 OA
ATOM     80  O   UNL     1      -2.958  12.445  -1.105  1.00  0.00    -0.237 OA
ATOM     81  O   UNL     1      -5.307  12.297  -0.378  1.00  0.00    -0.744 OA
ENDBRANCH  77  78
ENDBRANCH  49  72
BRANCH  61  82
ATOM     82  C   UNL     1      -0.516  15.320   9.714  1.00  0.00    -0.014 A 
ATOM     83  C   UNL     1      -1.694  16.021  10.022  1.00  0.00     0.010 A 
ATOM     84  C   UNL     1       0.726  15.970   9.826  1.00  0.00     0.010 A 
ATOM     85  C   UNL     1      -1.632  17.358  10.418  1.00  0.00     0.020 A 
ATOM     86  C   UNL     1       0.794  17.299  10.247  1.00  0.00     0.020 A 
ATOM     87  C   UNL     1      -0.388  17.987  10.531  1.00  0.00     0.054 A 
BRANCH  87  88
ATOM     88  S   UNL     1      -0.333  19.706  11.106  1.00  0.00     0.124 S 
ATOM     89  O   UNL     1      -0.843  20.430   9.945  1.00  0.00    -0.237 OA
ATOM     90  O   UNL     1      -1.216  19.682  12.270  1.00  0.00    -0.237 OA
ATOM     91  O   UNL     1       1.080  19.926  11.407  1.00  0.00    -0.744 OA
ENDBRANCH  87  88
ENDBRANCH  61  82
ENDBRANCH  35  36
ENDBRANCH  28  30
ENDBRANCH  27  28
ENDBRANCH  26  27
ENDBRANCH   1  26
TORSDOF 19
