REMARK SMILES O=C(OCCOCCOC(=O)[C@H]1[C@@H](C(=O)Nc2ccccc2-c2ccccc2)[C@@H]2C=C[C@H]1O2)c1ccc(-c2c3nc(c(-c4ccc(S(=O)(=O)[O-])cc4)c4ccc([nH]4)c(-c4ccc(S(=O)(=O)[O-])cc4)c4nc(c(-c5ccc(S(=O)(=O)[O-])cc5)c5ccc2[nH]5)C=C4)C=C3)cc1
REMARK SMILES IDX 6 1 5 2 4 3 3 4 2 5 1 6 34 7 35 8 93 9 36 10 92 11 37 12
REMARK SMILES IDX 38 13 39 14 86 15 40 16 91 17 85 18 87 19 41 20 90 21 84 22
REMARK SMILES IDX 83 23 42 25 72 26 53 27 71 28 54 29 57 30 70 31 88 32 55 33
REMARK SMILES IDX 56 34 69 36 89 37 58 38 43 39 44 40 52 41 45 42 51 43 46 44
REMARK SMILES IDX 47 45 48 46 49 47 50 48 73 49 74 50 82 51 75 52 81 53 76 54
REMARK SMILES IDX 77 55 78 56 79 57 80 58 59 59 60 60 68 61 61 62 67 63 62 64
REMARK SMILES IDX 63 65 64 66 65 67 66 68 7 69 8 70 9 71 10 72 11 73 12 74
REMARK SMILES IDX 13 75 32 76 29 77 31 78 33 79 30 80 14 81 15 82 16 83 17 85
REMARK SMILES IDX 18 86 22 87 19 88 21 89 20 90 23 91 24 92 28 93 25 94 27 95
REMARK SMILES IDX 26 96
REMARK H PARENT 87 24 57 35 16 84
REMARK Flexibility Score: inf
ROOT
ATOM      1  O   UNL     1       2.810   4.001   4.126  1.00  0.00    -0.374 OA
ENDROOT
BRANCH   1   2
ATOM      2  C   UNL     1       2.528   3.469   2.825  1.00  0.00     0.202 C 
BRANCH   2   3
ATOM      3  C   UNL     1       1.203   3.871   2.172  1.00  0.00     0.261 C 
BRANCH   3   4
ATOM      4  O   UNL     1       1.196   5.268   1.843  1.00  0.00    -0.460 OA
BRANCH   4   5
ATOM      5  C   UNL     1       0.568   6.282   2.476  1.00  0.00     0.338 C 
ATOM      6  O   UNL     1       0.586   7.396   1.952  1.00  0.00    -0.246 OA
BRANCH   5   7
ATOM      7  C   UNL     1      -0.137   6.132   3.788  1.00  0.00     0.060 A 
ATOM      8  C   UNL     1       0.048   5.078   4.684  1.00  0.00     0.016 A 
ATOM      9  C   UNL     1      -0.980   7.184   4.184  1.00  0.00     0.016 A 
ATOM     10  C   UNL     1      -0.572   5.045   5.918  1.00  0.00     0.010 A 
ATOM     11  C   UNL     1      -1.603   7.173   5.436  1.00  0.00     0.010 A 
ATOM     12  C   UNL     1      -1.393   6.095   6.300  1.00  0.00    -0.014 A 
BRANCH  12  13
ATOM     13  C   UNL     1      -2.084   5.954   7.585  1.00  0.00     0.031 A 
ATOM     14  C   UNL     1      -3.489   5.445   7.570  1.00  0.00     0.074 A 
ATOM     15  C   UNL     1      -1.380   6.109   8.720  1.00  0.00     0.049 A 
ATOM     16  N   UNL     1      -4.290   5.221   8.573  1.00  0.00    -0.248 NA
ATOM     17  C   UNL     1      -4.062   5.122   6.250  1.00  0.00     0.031 C 
ATOM     18  C   UNL     1       0.045   6.452   8.790  1.00  0.00     0.029 A 
ATOM     19  N   UNL     1      -1.750   5.958  10.027  1.00  0.00    -0.354 N 
ATOM     20  C   UNL     1      -5.469   4.757   8.007  1.00  0.00     0.074 A 
ATOM     21  C   UNL     1      -5.282   4.721   6.575  1.00  0.00     0.031 C 
ATOM     22  C   UNL     1       0.428   6.471  10.077  1.00  0.00     0.029 A 
ATOM     23  C   UNL     1      -0.732   6.204  10.917  1.00  0.00     0.049 A 
ATOM     24  H   UNL     1      -2.659   5.698  10.304  1.00  0.00     0.167 HD
ATOM     25  C   UNL     1      -6.610   4.411   8.642  1.00  0.00     0.031 A 
ATOM     26  C   UNL     1      -0.760   6.243  12.262  1.00  0.00     0.031 A 
ATOM     27  C   UNL     1      -6.760   4.483  10.069  1.00  0.00     0.049 A 
ATOM     28  C   UNL     1      -2.077   5.962  12.935  1.00  0.00     0.074 A 
ATOM     29  C   UNL     1      -7.884   4.242  10.833  1.00  0.00     0.029 A 
ATOM     30  N   UNL     1      -5.738   4.827  10.944  1.00  0.00    -0.354 N 
ATOM     31  N   UNL     1      -3.216   5.595  12.391  1.00  0.00    -0.248 NA
ATOM     32  C   UNL     1      -2.123   6.112  14.394  1.00  0.00     0.031 C 
ATOM     33  C   UNL     1      -7.553   4.489  12.170  1.00  0.00     0.029 A 
ATOM     34  C   UNL     1      -6.209   4.827  12.242  1.00  0.00     0.049 A 
ATOM     35  H   UNL     1      -4.814   5.040  10.679  1.00  0.00     0.167 HD
ATOM     36  C   UNL     1      -4.112   5.459  13.442  1.00  0.00     0.074 A 
ATOM     37  C   UNL     1      -3.375   5.759  14.656  1.00  0.00     0.031 C 
ATOM     38  C   UNL     1      -5.427   5.127  13.416  1.00  0.00     0.031 A 
BRANCH  25  39
ATOM     39  C   UNL     1      -7.784   4.025   7.789  1.00  0.00    -0.014 A 
ATOM     40  C   UNL     1      -7.846   2.780   7.138  1.00  0.00     0.010 A 
ATOM     41  C   UNL     1      -8.845   4.935   7.631  1.00  0.00     0.010 A 
ATOM     42  C   UNL     1      -8.938   2.464   6.323  1.00  0.00     0.020 A 
ATOM     43  C   UNL     1      -9.947   4.615   6.835  1.00  0.00     0.020 A 
ATOM     44  C   UNL     1      -9.980   3.386   6.175  1.00  0.00     0.054 A 
BRANCH  44  45
ATOM     45  S   UNL     1     -11.395   2.944   5.129  1.00  0.00     0.124 S 
ATOM     46  O   UNL     1     -10.819   3.035   3.789  1.00  0.00    -0.237 OA
ATOM     47  O   UNL     1     -11.719   1.594   5.582  1.00  0.00    -0.237 OA
ATOM     48  O   UNL     1     -12.393   3.961   5.447  1.00  0.00    -0.744 OA
ENDBRANCH  44  45
ENDBRANCH  25  39
BRANCH  26  49
ATOM     49  C   UNL     1       0.449   6.638  13.038  1.00  0.00    -0.014 A 
ATOM     50  C   UNL     1       1.066   5.749  13.935  1.00  0.00     0.010 A 
ATOM     51  C   UNL     1       0.980   7.936  12.898  1.00  0.00     0.010 A 
ATOM     52  C   UNL     1       2.167   6.160  14.698  1.00  0.00     0.020 A 
ATOM     53  C   UNL     1       2.097   8.339  13.633  1.00  0.00     0.020 A 
ATOM     54  C   UNL     1       2.671   7.455  14.546  1.00  0.00     0.054 A 
BRANCH  54  55
ATOM     55  S   UNL     1       4.099   7.970  15.540  1.00  0.00     0.124 S 
ATOM     56  O   UNL     1       3.498   8.165  16.855  1.00  0.00    -0.237 OA
ATOM     57  O   UNL     1       5.001   6.827  15.419  1.00  0.00    -0.237 OA
ATOM     58  O   UNL     1       4.558   9.188  14.875  1.00  0.00    -0.744 OA
ENDBRANCH  54  55
ENDBRANCH  26  49
BRANCH  38  59
ATOM     59  C   UNL     1      -6.130   5.042  14.740  1.00  0.00    -0.014 A 
ATOM     60  C   UNL     1      -6.483   6.203  15.447  1.00  0.00     0.010 A 
ATOM     61  C   UNL     1      -6.500   3.782  15.242  1.00  0.00     0.010 A 
ATOM     62  C   UNL     1      -7.177   6.103  16.654  1.00  0.00     0.020 A 
ATOM     63  C   UNL     1      -7.218   3.680  16.433  1.00  0.00     0.020 A 
ATOM     64  C   UNL     1      -7.541   4.842  17.138  1.00  0.00     0.054 A 
BRANCH  64  65
ATOM     65  S   UNL     1      -8.492   4.741  18.677  1.00  0.00     0.124 S 
ATOM     66  O   UNL     1      -7.468   5.008  19.683  1.00  0.00    -0.237 OA
ATOM     67  O   UNL     1      -9.495   5.789  18.505  1.00  0.00    -0.237 OA
ATOM     68  O   UNL     1      -9.018   3.378  18.668  1.00  0.00    -0.744 OA
ENDBRANCH  64  65
ENDBRANCH  38  59
ENDBRANCH  12  13
ENDBRANCH   5   7
ENDBRANCH   4   5
ENDBRANCH   3   4
ENDBRANCH   2   3
ENDBRANCH   1   2
BRANCH   1  69
ATOM     69  C   UNL     1       3.345   5.334   4.176  1.00  0.00     0.202 C 
BRANCH  69  70
ATOM     70  C   UNL     1       4.661   5.394   4.975  1.00  0.00     0.261 C 
BRANCH  70  71
ATOM     71  O   UNL     1       5.648   4.525   4.402  1.00  0.00    -0.463 OA
BRANCH  71  72
ATOM     72  C   UNL     1       5.477   3.230   4.715  1.00  0.00     0.312 C 
ATOM     73  O   UNL     1       5.170   2.831   5.835  1.00  0.00    -0.252 OA
BRANCH  72  74
ATOM     74  C   UNL     1       5.582   2.296   3.537  1.00  0.00     0.147 C 
ATOM     75  C   UNL     1       6.062   2.728   2.103  1.00  0.00     0.129 C 
ATOM     76  C   UNL     1       6.624   1.243   3.928  1.00  0.00     0.157 C 
ATOM     77  C   UNL     1       7.376   1.926   2.012  1.00  0.00     0.155 C 
ATOM     78  C   UNL     1       6.543   0.059   3.004  1.00  0.00     0.004 C 
ATOM     79  O   UNL     1       7.808   1.883   3.394  1.00  0.00    -0.365 OA
ATOM     80  C   UNL     1       7.027   0.474   1.826  1.00  0.00     0.004 C 
BRANCH  75  81
ATOM     81  C   UNL     1       6.129   4.205   1.684  1.00  0.00     0.231 C 
ATOM     82  O   UNL     1       5.314   5.052   2.048  1.00  0.00    -0.274 OA
ATOM     83  N   UNL     1       7.018   4.663   0.763  1.00  0.00    -0.325 N 
ATOM     84  H   UNL     1       7.267   5.611   0.853  1.00  0.00     0.169 HD
BRANCH  83  85
ATOM     85  C   UNL     1       7.629   3.982  -0.290  1.00  0.00     0.049 A 
ATOM     86  C   UNL     1       9.003   4.226  -0.417  1.00  0.00     0.027 A 
ATOM     87  C   UNL     1       6.957   3.062  -1.131  1.00  0.00     0.005 A 
ATOM     88  C   UNL     1       9.768   3.447  -1.273  1.00  0.00     0.002 A 
ATOM     89  C   UNL     1       7.763   2.302  -1.998  1.00  0.00     0.011 A 
ATOM     90  C   UNL     1       9.151   2.470  -2.047  1.00  0.00     0.001 A 
BRANCH  87  91
ATOM     91  C   UNL     1       5.477   2.921  -1.195  1.00  0.00    -0.016 A 
ATOM     92  C   UNL     1       4.859   1.656  -1.197  1.00  0.00     0.009 A 
ATOM     93  C   UNL     1       4.632   4.047  -1.251  1.00  0.00     0.009 A 
ATOM     94  C   UNL     1       3.466   1.523  -1.217  1.00  0.00     0.001 A 
ATOM     95  C   UNL     1       3.239   3.917  -1.269  1.00  0.00     0.001 A 
ATOM     96  C   UNL     1       2.656   2.654  -1.252  1.00  0.00     0.000 A 
ENDBRANCH  87  91
ENDBRANCH  83  85
ENDBRANCH  75  81
ENDBRANCH  72  74
ENDBRANCH  71  72
ENDBRANCH  70  71
ENDBRANCH  69  70
ENDBRANCH   1  69
TORSDOF 20
