REMARK SMILES C[C@@H]1C[N@@H+](C[C@]2(C(=O)OCCOCCOC(=O)c3ccc(-c4c5nc(c(-c6ccc(S(=O)(=O)[O-])cc6)c6ccc([nH]6)c(-c6ccc(S(=O)(=O)[O-])cc6)c6nc(c(-c7ccc(S(=O)(=O)[O-])cc7)c7ccc4[nH]7)C=C6)C=C5)cc3)CCOC2)C[C@@H]1C
REMARK SMILES IDX 13 1 12 2 11 3 10 4 9 5 7 6 8 7 6 8 78 9 81 10 79 11 80 12
REMARK SMILES IDX 5 13 4 14 1 15 2 16 3 17 83 18 82 19 84 20 14 22 15 23 16 24
REMARK SMILES IDX 17 25 18 26 19 27 77 28 20 29 76 30 21 31 22 32 23 33 70 34
REMARK SMILES IDX 24 35 75 36 69 37 71 38 25 39 74 40 68 41 67 42 26 44 56 45
REMARK SMILES IDX 37 46 55 47 38 48 41 49 54 50 72 51 39 52 40 53 53 55 73 56
REMARK SMILES IDX 42 57 27 58 28 59 36 60 29 61 35 62 30 63 31 64 32 65 33 66
REMARK SMILES IDX 34 67 57 68 58 69 66 70 59 71 65 72 60 73 61 74 62 75 63 76
REMARK SMILES IDX 64 77 43 78 44 79 52 80 45 81 51 82 46 83 47 84 48 85 49 86
REMARK SMILES IDX 50 87
REMARK H PARENT 4 21 71 43 41 54
REMARK Flexibility Score: inf
ROOT
ATOM      1  C   UNL     1       1.232   1.792   7.059  1.00  0.00     0.202 C 
ENDROOT
BRANCH   1   2
ATOM      2  O   UNL     1       2.579   1.383   6.827  1.00  0.00    -0.374 OA
BRANCH   2   3
ATOM      3  C   UNL     1       3.165   1.812   5.598  1.00  0.00     0.202 C 
BRANCH   3   4
ATOM      4  C   UNL     1       2.819   0.987   4.354  1.00  0.00     0.261 C 
BRANCH   4   5
ATOM      5  O   UNL     1       1.447   1.149   3.943  1.00  0.00    -0.463 OA
BRANCH   5   6
ATOM      6  C   UNL     1       0.622   0.102   4.220  1.00  0.00     0.320 C 
ATOM      7  O   UNL     1       0.952  -0.876   4.882  1.00  0.00    -0.251 OA
BRANCH   6   8
ATOM      8  C   UNL     1      -0.804   0.323   3.708  1.00  0.00     0.142 C 
ATOM      9  C   UNL     1      -0.829   1.066   2.378  1.00  0.00     0.055 C 
ATOM     10  C   UNL     1      -1.310  -1.064   3.314  1.00  0.00     0.185 C 
ATOM     11  C   UNL     1      -1.870   0.350   1.551  1.00  0.00     0.161 C 
ATOM     12  O   UNL     1      -1.965  -0.984   2.041  1.00  0.00    -0.380 OA
BRANCH   8  13
ATOM     13  C   UNL     1      -1.557   1.035   4.874  1.00  0.00     0.283 C 
BRANCH  13  14
ATOM     14  N   UNL     1      -2.998   1.208   5.004  1.00  0.00    -0.333 N 
ATOM     15  C   UNL     1      -5.840  -1.096   4.392  1.00  0.00     0.014 C 
ATOM     16  C   UNL     1      -4.667  -0.168   4.132  1.00  0.00     0.049 C 
ATOM     17  C   UNL     1      -3.805   0.056   5.363  1.00  0.00     0.265 C 
ATOM     18  C   UNL     1      -4.976   1.259   3.655  1.00  0.00     0.049 C 
ATOM     19  C   UNL     1      -3.727   2.059   4.077  1.00  0.00     0.265 C 
ATOM     20  C   UNL     1      -6.254   1.858   4.238  1.00  0.00     0.014 C 
ATOM     21  H   UNL     1      -2.878   1.779   5.841  1.00  0.00     0.348 HD
ENDBRANCH  13  14
ENDBRANCH   8  13
ENDBRANCH   6   8
ENDBRANCH   5   6
ENDBRANCH   4   5
ENDBRANCH   3   4
ENDBRANCH   2   3
ENDBRANCH   1   2
BRANCH   1  22
ATOM     22  C   UNL     1       1.041   3.193   7.645  1.00  0.00     0.261 C 
BRANCH  22  23
ATOM     23  O   UNL     1       1.404   4.209   6.693  1.00  0.00    -0.460 OA
BRANCH  23  24
ATOM     24  C   UNL     1       2.576   4.832   6.954  1.00  0.00     0.338 C 
ATOM     25  O   UNL     1       3.274   4.698   7.952  1.00  0.00    -0.246 OA
BRANCH  24  26
ATOM     26  C   UNL     1       3.030   5.574   5.764  1.00  0.00     0.060 A 
ATOM     27  C   UNL     1       4.357   5.378   5.359  1.00  0.00     0.016 A 
ATOM     28  C   UNL     1       2.209   6.481   5.090  1.00  0.00     0.016 A 
ATOM     29  C   UNL     1       4.891   6.138   4.324  1.00  0.00     0.010 A 
ATOM     30  C   UNL     1       2.749   7.250   4.054  1.00  0.00     0.010 A 
ATOM     31  C   UNL     1       4.104   7.113   3.699  1.00  0.00    -0.014 A 
BRANCH  31  32
ATOM     32  C   UNL     1       4.755   8.099   2.804  1.00  0.00     0.031 A 
ATOM     33  C   UNL     1       5.100   9.457   3.351  1.00  0.00     0.074 A 
ATOM     34  C   UNL     1       5.083   7.775   1.541  1.00  0.00     0.049 A 
ATOM     35  N   UNL     1       5.672  10.471   2.755  1.00  0.00    -0.248 NA
ATOM     36  C   UNL     1       4.752   9.704   4.760  1.00  0.00     0.031 C 
ATOM     37  C   UNL     1       4.840   6.478   0.911  1.00  0.00     0.029 A 
ATOM     38  N   UNL     1       5.690   8.520   0.561  1.00  0.00    -0.354 N 
ATOM     39  C   UNL     1       5.750  11.476   3.712  1.00  0.00     0.074 A 
ATOM     40  C   UNL     1       5.132  10.963   4.916  1.00  0.00     0.031 C 
ATOM     41  C   UNL     1       5.282   6.522  -0.357  1.00  0.00     0.029 A 
ATOM     42  C   UNL     1       5.812   7.857  -0.635  1.00  0.00     0.049 A 
ATOM     43  H   UNL     1       6.008   9.441   0.703  1.00  0.00     0.167 HD
ATOM     44  C   UNL     1       6.295  12.711   3.604  1.00  0.00     0.031 A 
ATOM     45  C   UNL     1       6.275   8.284  -1.826  1.00  0.00     0.031 A 
ATOM     46  C   UNL     1       6.883  13.227   2.397  1.00  0.00     0.049 A 
ATOM     47  C   UNL     1       6.811   9.685  -1.950  1.00  0.00     0.074 A 
ATOM     48  C   UNL     1       7.463  14.465   2.181  1.00  0.00     0.029 A 
ATOM     49  N   UNL     1       6.958  12.536   1.196  1.00  0.00    -0.354 N 
ATOM     50  N   UNL     1       6.898  10.618  -1.031  1.00  0.00    -0.248 NA
ATOM     51  C   UNL     1       7.324  10.087  -3.267  1.00  0.00     0.031 C 
ATOM     52  C   UNL     1       7.836  14.543   0.835  1.00  0.00     0.029 A 
ATOM     53  C   UNL     1       7.549  13.331   0.228  1.00  0.00     0.049 A 
ATOM     54  H   UNL     1       6.638  11.616   1.054  1.00  0.00     0.167 HD
ATOM     55  C   UNL     1       7.492  11.711  -1.653  1.00  0.00     0.074 A 
ATOM     56  C   UNL     1       7.757  11.317  -3.022  1.00  0.00     0.031 C 
ATOM     57  C   UNL     1       7.794  12.929  -1.136  1.00  0.00     0.031 A 
BRANCH  44  58
ATOM     58  C   UNL     1       6.230  13.598   4.821  1.00  0.00    -0.014 A 
ATOM     59  C   UNL     1       6.993  13.319   5.970  1.00  0.00     0.010 A 
ATOM     60  C   UNL     1       5.386  14.723   4.819  1.00  0.00     0.010 A 
ATOM     61  C   UNL     1       6.868  14.112   7.113  1.00  0.00     0.020 A 
ATOM     62  C   UNL     1       5.280  15.537   5.950  1.00  0.00     0.020 A 
ATOM     63  C   UNL     1       6.003  15.211   7.099  1.00  0.00     0.054 A 
BRANCH  63  64
ATOM     64  S   UNL     1       5.843  16.214   8.602  1.00  0.00     0.124 S 
ATOM     65  O   UNL     1       5.054  15.338   9.464  1.00  0.00    -0.237 OA
ATOM     66  O   UNL     1       7.233  16.408   9.008  1.00  0.00    -0.237 OA
ATOM     67  O   UNL     1       5.157  17.419   8.144  1.00  0.00    -0.744 OA
ENDBRANCH  63  64
ENDBRANCH  44  58
BRANCH  45  68
ATOM     68  C   UNL     1       6.224   7.369  -2.998  1.00  0.00    -0.014 A 
ATOM     69  C   UNL     1       7.396   6.803  -3.527  1.00  0.00     0.010 A 
ATOM     70  C   UNL     1       4.982   7.023  -3.562  1.00  0.00     0.010 A 
ATOM     71  C   UNL     1       7.326   5.903  -4.596  1.00  0.00     0.020 A 
ATOM     72  C   UNL     1       4.905   6.105  -4.612  1.00  0.00     0.020 A 
ATOM     73  C   UNL     1       6.080   5.553  -5.125  1.00  0.00     0.054 A 
BRANCH  73  74
ATOM     74  S   UNL     1       6.006   4.312  -6.448  1.00  0.00     0.124 S 
ATOM     75  O   UNL     1       6.506   5.061  -7.596  1.00  0.00    -0.237 OA
ATOM     76  O   UNL     1       6.886   3.262  -5.943  1.00  0.00    -0.237 OA
ATOM     77  O   UNL     1       4.590   3.954  -6.500  1.00  0.00    -0.744 OA
ENDBRANCH  73  74
ENDBRANCH  45  68
BRANCH  57  78
ATOM     78  C   UNL     1       8.467  13.922  -2.047  1.00  0.00    -0.014 A 
ATOM     79  C   UNL     1       7.762  14.557  -3.084  1.00  0.00     0.010 A 
ATOM     80  C   UNL     1       9.812  14.269  -1.822  1.00  0.00     0.010 A 
ATOM     81  C   UNL     1       8.398  15.498  -3.899  1.00  0.00     0.020 A 
ATOM     82  C   UNL     1      10.444  15.229  -2.616  1.00  0.00     0.020 A 
ATOM     83  C   UNL     1       9.736  15.828  -3.660  1.00  0.00     0.054 A 
BRANCH  83  84
ATOM     84  S   UNL     1      10.527  17.082  -4.704  1.00  0.00     0.124 S 
ATOM     85  O   UNL     1      10.717  16.358  -5.958  1.00  0.00    -0.237 OA
ATOM     86  O   UNL     1       9.527  18.147  -4.739  1.00  0.00    -0.237 OA
ATOM     87  O   UNL     1      11.754  17.412  -3.982  1.00  0.00    -0.744 OA
ENDBRANCH  83  84
ENDBRANCH  57  78
ENDBRANCH  31  32
ENDBRANCH  24  26
ENDBRANCH  23  24
ENDBRANCH  22  23
ENDBRANCH   1  22
TORSDOF 19
