REMARK SMILES COc1ccc2c(c1)CC[C@@](C)(CCC(=O)OCCOCCOC(=O)c1ccc(-c3c4nc(c(-c5ccc(S(=O)(=O)[O-])cc5)c5ccc([nH]5)c(-c5ccc(S(=O)(=O)[O-])cc5)c5nc(c(-c6ccc(S(=O)(=O)[O-])cc6)c6ccc3[nH]6)C=C5)C=C4)cc1)C2=O
REMARK SMILES IDX 20 1 19 2 18 3 17 4 15 5 16 6 14 7 13 8 11 9 3 10 4 11 8 12
REMARK SMILES IDX 5 13 7 14 6 15 9 16 86 17 10 18 87 19 12 20 2 21 1 22 21 23
REMARK SMILES IDX 22 24 23 25 24 26 25 27 26 28 27 29 85 30 28 31 84 32 29 33
REMARK SMILES IDX 30 34 31 35 78 36 32 37 83 38 77 39 79 40 33 41 82 42 76 43
REMARK SMILES IDX 75 44 34 46 64 47 45 48 63 49 46 50 49 51 62 52 80 53 47 54
REMARK SMILES IDX 48 55 61 57 81 58 50 59 35 60 36 61 44 62 37 63 43 64 38 65
REMARK SMILES IDX 39 66 40 67 41 68 42 69 65 70 66 71 74 72 67 73 73 74 68 75
REMARK SMILES IDX 69 76 70 77 71 78 72 79 51 80 52 81 60 82 53 83 59 84 54 85
REMARK SMILES IDX 55 86 56 87 57 88 58 89
REMARK H PARENT 79 45 49 56
REMARK Flexibility Score: inf
ROOT
ATOM      1  O   UNL     1       4.869  -5.315  -5.556  1.00  0.00    -0.374 OA
ENDROOT
BRANCH   1   2
ATOM      2  C   UNL     1       4.152  -4.178  -5.069  1.00  0.00     0.202 C 
BRANCH   2   3
ATOM      3  C   UNL     1       2.908  -3.792  -5.885  1.00  0.00     0.261 C 
BRANCH   3   4
ATOM      4  O   UNL     1       1.774  -4.648  -5.633  1.00  0.00    -0.463 OA
BRANCH   4   5
ATOM      5  C   UNL     1       1.522  -5.627  -6.533  1.00  0.00     0.305 C 
ATOM      6  O   UNL     1       2.126  -5.792  -7.585  1.00  0.00    -0.252 OA
BRANCH   5   7
ATOM      7  C   UNL     1       0.334  -6.478  -6.124  1.00  0.00     0.124 C 
BRANCH   7   8
ATOM      8  C   UNL     1       0.480  -7.330  -4.853  1.00  0.00     0.026 C 
BRANCH   8   9
ATOM      9  C   UNL     1       0.022  -6.729  -3.493  1.00  0.00     0.032 C 
ATOM     10  C   UNL     1      -0.400  -2.743  -0.303  1.00  0.00     0.119 A 
ATOM     11  C   UNL     1       0.781  -2.499  -0.994  1.00  0.00     0.047 A 
ATOM     12  C   UNL     1      -1.268  -3.748  -0.701  1.00  0.00     0.050 A 
ATOM     13  C   UNL     1       1.180  -3.376  -1.992  1.00  0.00     0.016 A 
ATOM     14  C   UNL     1      -0.916  -4.588  -1.751  1.00  0.00    -0.033 A 
ATOM     15  C   UNL     1       0.363  -4.464  -2.302  1.00  0.00     0.022 A 
ATOM     16  C   UNL     1      -1.882  -5.636  -2.211  1.00  0.00     0.037 C 
ATOM     17  C   UNL     1       0.933  -5.594  -3.062  1.00  0.00     0.169 C 
ATOM     18  C   UNL     1      -1.434  -6.236  -3.542  1.00  0.00     0.020 C 
ATOM     19  O   UNL     1       2.151  -5.675  -3.170  1.00  0.00    -0.294 OA
ATOM     20  C   UNL     1       0.197  -7.819  -2.405  1.00  0.00     0.020 C 
BRANCH  10  21
ATOM     21  O   UNL     1      -0.725  -2.094   0.849  1.00  0.00    -0.497 OA
ATOM     22  C   UNL     1      -0.945  -0.720   0.600  1.00  0.00     0.278 C 
ENDBRANCH  10  21
ENDBRANCH   8   9
ENDBRANCH   7   8
ENDBRANCH   5   7
ENDBRANCH   4   5
ENDBRANCH   3   4
ENDBRANCH   2   3
ENDBRANCH   1   2
BRANCH   1  23
ATOM     23  C   UNL     1       4.420  -6.575  -5.059  1.00  0.00     0.202 C 
BRANCH  23  24
ATOM     24  C   UNL     1       5.071  -7.047  -3.747  1.00  0.00     0.261 C 
BRANCH  24  25
ATOM     25  O   UNL     1       4.751  -6.213  -2.618  1.00  0.00    -0.460 OA
BRANCH  25  26
ATOM     26  C   UNL     1       5.649  -5.250  -2.310  1.00  0.00     0.338 C 
ATOM     27  O   UNL     1       6.764  -5.122  -2.796  1.00  0.00    -0.246 OA
BRANCH  26  28
ATOM     28  C   UNL     1       5.055  -4.242  -1.386  1.00  0.00     0.060 A 
ATOM     29  C   UNL     1       4.073  -4.551  -0.446  1.00  0.00     0.016 A 
ATOM     30  C   UNL     1       5.518  -2.919  -1.473  1.00  0.00     0.016 A 
ATOM     31  C   UNL     1       3.578  -3.542   0.400  1.00  0.00     0.010 A 
ATOM     32  C   UNL     1       5.037  -1.919  -0.609  1.00  0.00     0.010 A 
ATOM     33  C   UNL     1       4.065  -2.211   0.352  1.00  0.00    -0.014 A 
BRANCH  33  34
ATOM     34  C   UNL     1       3.644  -1.219   1.401  1.00  0.00     0.031 A 
ATOM     35  C   UNL     1       2.883   0.065   1.115  1.00  0.00     0.074 A 
ATOM     36  C   UNL     1       3.930  -1.518   2.687  1.00  0.00     0.049 A 
ATOM     37  N   UNL     1       2.216   0.821   1.958  1.00  0.00    -0.248 NA
ATOM     38  C   UNL     1       2.825   0.560  -0.272  1.00  0.00     0.031 C 
ATOM     39  C   UNL     1       4.721  -2.672   3.124  1.00  0.00     0.029 A 
ATOM     40  N   UNL     1       3.579  -0.896   3.861  1.00  0.00    -0.354 N 
ATOM     41  C   UNL     1       1.553   1.782   1.196  1.00  0.00     0.074 A 
ATOM     42  C   UNL     1       2.001   1.601  -0.168  1.00  0.00     0.031 C 
ATOM     43  C   UNL     1       4.761  -2.698   4.463  1.00  0.00     0.029 A 
ATOM     44  C   UNL     1       4.040  -1.542   4.986  1.00  0.00     0.049 A 
ATOM     45  H   UNL     1       3.050  -0.067   3.895  1.00  0.00     0.167 HD
ATOM     46  C   UNL     1       0.583   2.648   1.591  1.00  0.00     0.031 A 
ATOM     47  C   UNL     1       3.909  -1.252   6.296  1.00  0.00     0.031 A 
ATOM     48  C   UNL     1       0.206   2.866   2.969  1.00  0.00     0.049 A 
ATOM     49  C   UNL     1       3.056  -0.089   6.710  1.00  0.00     0.074 A 
ATOM     50  C   UNL     1      -0.793   3.690   3.462  1.00  0.00     0.029 A 
ATOM     51  N   UNL     1       0.834   2.309   4.072  1.00  0.00    -0.354 N 
ATOM     52  N   UNL     1       2.283   0.666   5.969  1.00  0.00    -0.248 NA
ATOM     53  C   UNL     1       3.043   0.251   8.139  1.00  0.00     0.031 C 
ATOM     54  C   UNL     1      -0.696   3.716   4.856  1.00  0.00     0.029 A 
ATOM     55  C   UNL     1       0.312   2.848   5.239  1.00  0.00     0.049 A 
ATOM     56  H   UNL     1       1.546   1.630   4.032  1.00  0.00     0.167 HD
ATOM     57  C   UNL     1       1.673   1.557   6.845  1.00  0.00     0.074 A 
ATOM     58  C   UNL     1       2.147   1.228   8.174  1.00  0.00     0.031 C 
ATOM     59  C   UNL     1       0.801   2.558   6.565  1.00  0.00     0.031 A 
BRANCH  46  60
ATOM     60  C   UNL     1      -0.262   3.368   0.555  1.00  0.00    -0.014 A 
ATOM     61  C   UNL     1      -0.184   4.758   0.372  1.00  0.00     0.010 A 
ATOM     62  C   UNL     1      -1.352   2.688  -0.019  1.00  0.00     0.010 A 
ATOM     63  C   UNL     1      -1.194   5.443  -0.327  1.00  0.00     0.020 A 
ATOM     64  C   UNL     1      -2.350   3.355  -0.732  1.00  0.00     0.020 A 
ATOM     65  C   UNL     1      -2.280   4.737  -0.859  1.00  0.00     0.054 A 
BRANCH  65  66
ATOM     66  S   UNL     1      -3.636   5.640  -1.660  1.00  0.00     0.124 S 
ATOM     67  O   UNL     1      -4.241   6.351  -0.539  1.00  0.00    -0.237 OA
ATOM     68  O   UNL     1      -2.928   6.471  -2.631  1.00  0.00    -0.237 OA
ATOM     69  O   UNL     1      -4.458   4.581  -2.242  1.00  0.00    -0.744 OA
ENDBRANCH  65  66
ENDBRANCH  46  60
BRANCH  47  70
ATOM     70  C   UNL     1       4.619  -2.093   7.302  1.00  0.00    -0.014 A 
ATOM     71  C   UNL     1       6.026  -2.159   7.292  1.00  0.00     0.010 A 
ATOM     72  C   UNL     1       3.909  -2.864   8.238  1.00  0.00     0.010 A 
ATOM     73  C   UNL     1       6.707  -3.022   8.152  1.00  0.00     0.020 A 
ATOM     74  C   UNL     1       4.590  -3.699   9.132  1.00  0.00     0.020 A 
ATOM     75  C   UNL     1       5.982  -3.794   9.062  1.00  0.00     0.054 A 
BRANCH  75  76
ATOM     76  S   UNL     1       6.890  -4.926  10.149  1.00  0.00     0.124 S 
ATOM     77  O   UNL     1       7.245  -6.003   9.229  1.00  0.00    -0.237 OA
ATOM     78  O   UNL     1       8.003  -4.100  10.610  1.00  0.00    -0.237 OA
ATOM     79  O   UNL     1       5.910  -5.275  11.174  1.00  0.00    -0.744 OA
ENDBRANCH  75  76
ENDBRANCH  47  70
BRANCH  59  80
ATOM     80  C   UNL     1       0.319   3.411   7.713  1.00  0.00    -0.014 A 
ATOM     81  C   UNL     1      -1.038   3.415   8.084  1.00  0.00     0.010 A 
ATOM     82  C   UNL     1       1.209   4.263   8.394  1.00  0.00     0.010 A 
ATOM     83  C   UNL     1      -1.500   4.265   9.094  1.00  0.00     0.020 A 
ATOM     84  C   UNL     1       0.760   5.084   9.432  1.00  0.00     0.020 A 
ATOM     85  C   UNL     1      -0.596   5.096   9.761  1.00  0.00     0.054 A 
BRANCH  85  86
ATOM     86  S   UNL     1      -1.207   6.179  11.082  1.00  0.00     0.124 S 
ATOM     87  O   UNL     1      -1.861   7.245  10.329  1.00  0.00    -0.237 OA
ATOM     88  O   UNL     1      -2.100   5.299  11.833  1.00  0.00    -0.237 OA
ATOM     89  O   UNL     1       0.008   6.572  11.793  1.00  0.00    -0.744 OA
ENDBRANCH  85  86
ENDBRANCH  59  80
ENDBRANCH  33  34
ENDBRANCH  26  28
ENDBRANCH  25  26
ENDBRANCH  24  25
ENDBRANCH  23  24
ENDBRANCH   1  23
TORSDOF 20
