REMARK SMILES C#CCNC(=O)C[N@@H+](CC(=O)OCCOCCOC(=O)c1ccc(-c2c3nc(c(-c4ccc(S(=O)(=O)[O-])cc4)c4ccc([nH]4)c(-c4ccc(S(=O)(=O)[O-])cc4)c4nc(c(-c5ccc(S(=O)(=O)[O-])cc5)c5ccc2[nH]5)C=C4)C=C3)cc1)C(C)(C)C
REMARK SMILES IDX 14 1 13 2 12 3 10 4 11 5 9 6 8 7 7 9 5 10 4 11 6 13 3 14
REMARK SMILES IDX 2 15 1 16 81 17 82 18 83 19 84 20 15 21 16 22 17 23 18 24
REMARK SMILES IDX 19 25 20 26 21 27 22 28 80 29 23 30 79 31 24 32 25 33 26 34
REMARK SMILES IDX 73 35 27 36 78 37 72 38 74 39 28 40 77 41 71 42 70 43 29 45
REMARK SMILES IDX 59 46 40 47 58 48 41 49 44 50 57 51 75 52 42 53 43 54 56 56
REMARK SMILES IDX 76 57 45 58 30 59 31 60 39 61 32 62 38 63 33 64 34 65 35 66
REMARK SMILES IDX 36 67 37 68 60 69 61 70 69 71 62 72 68 73 63 74 64 75 65 76
REMARK SMILES IDX 66 77 67 78 46 79 47 80 55 81 48 82 54 83 49 84 50 85 51 86
REMARK SMILES IDX 52 87 53 88
REMARK H PARENT 8 8 4 12 74 44 44 55
REMARK Flexibility Score: inf
ROOT
ATOM      1  C   UNL     1      -5.518   5.521   4.167  1.00  0.00     0.202 C 
ENDROOT
BRANCH   1   2
ATOM      2  C   UNL     1      -5.422   5.460   2.641  1.00  0.00     0.261 C 
BRANCH   2   3
ATOM      3  O   UNL     1      -4.559   4.391   2.195  1.00  0.00    -0.459 OA
BRANCH   3   4
ATOM      4  C   UNL     1      -3.409   4.747   1.565  1.00  0.00     0.361 C 
ATOM      5  O   UNL     1      -3.012   5.902   1.446  1.00  0.00    -0.245 OA
BRANCH   4   6
ATOM      6  C   UNL     1      -2.707   3.570   0.890  1.00  0.00     0.387 C 
BRANCH   6   7
ATOM      7  N   UNL     1      -2.434   2.348   1.694  1.00  0.00    -0.314 N 
ATOM      8  H   UNL     1      -1.788   1.794   1.131  1.00  0.00     0.349 HD
BRANCH   7   9
ATOM      9  C   UNL     1      -3.668   1.534   1.845  1.00  0.00     0.364 C 
BRANCH   9  10
ATOM     10  C   UNL     1      -3.368   0.055   2.080  1.00  0.00     0.275 C 
ATOM     11  N   UNL     1      -2.481  -0.573   1.251  1.00  0.00    -0.340 N 
ATOM     12  H   UNL     1      -2.221  -1.492   1.489  1.00  0.00     0.164 HD
ATOM     13  O   UNL     1      -3.914  -0.583   2.981  1.00  0.00    -0.268 OA
BRANCH  11  14
ATOM     14  C   UNL     1      -1.895  -0.017   0.068  1.00  0.00     0.206 C 
BRANCH  14  15
ATOM     15  C   UNL     1      -0.375  -0.017   0.068  1.00  0.00    -0.085 C 
ATOM     16  C   UNL     1       0.929  -0.017   0.068  1.00  0.00     0.006 C 
ENDBRANCH  14  15
ENDBRANCH  11  14
ENDBRANCH   9  10
ENDBRANCH   7   9
BRANCH   7  17
ATOM     17  C   UNL     1      -1.516   2.449   2.862  1.00  0.00     0.090 C 
ATOM     18  C   UNL     1      -2.302   2.639   4.150  1.00  0.00     0.078 C 
ATOM     19  C   UNL     1      -0.653   1.191   3.131  1.00  0.00     0.078 C 
ATOM     20  C   UNL     1      -0.481   3.585   2.680  1.00  0.00     0.078 C 
ENDBRANCH   7  17
ENDBRANCH   6   7
ENDBRANCH   4   6
ENDBRANCH   3   4
ENDBRANCH   2   3
ENDBRANCH   1   2
BRANCH   1  21
ATOM     21  O   UNL     1      -4.565   6.388   4.789  1.00  0.00    -0.374 OA
BRANCH  21  22
ATOM     22  C   UNL     1      -3.286   5.827   5.081  1.00  0.00     0.202 C 
BRANCH  22  23
ATOM     23  C   UNL     1      -3.271   4.924   6.328  1.00  0.00     0.261 C 
BRANCH  23  24
ATOM     24  O   UNL     1      -4.070   3.742   6.117  1.00  0.00    -0.460 OA
BRANCH  24  25
ATOM     25  C   UNL     1      -4.888   3.391   7.128  1.00  0.00     0.338 C 
ATOM     26  O   UNL     1      -4.871   3.841   8.267  1.00  0.00    -0.246 OA
BRANCH  25  27
ATOM     27  C   UNL     1      -5.977   2.531   6.620  1.00  0.00     0.060 A 
ATOM     28  C   UNL     1      -7.277   3.021   6.774  1.00  0.00     0.016 A 
ATOM     29  C   UNL     1      -5.766   1.251   6.095  1.00  0.00     0.016 A 
ATOM     30  C   UNL     1      -8.371   2.202   6.502  1.00  0.00     0.010 A 
ATOM     31  C   UNL     1      -6.873   0.429   5.815  1.00  0.00     0.010 A 
ATOM     32  C   UNL     1      -8.181   0.879   6.077  1.00  0.00    -0.014 A 
BRANCH  32  33
ATOM     33  C   UNL     1      -9.358  -0.037   6.102  1.00  0.00     0.031 A 
ATOM     34  C   UNL     1      -9.544  -0.965   7.278  1.00  0.00     0.074 A 
ATOM     35  C   UNL     1     -10.332   0.049   5.175  1.00  0.00     0.049 A 
ATOM     36  N   UNL     1     -10.584  -1.694   7.601  1.00  0.00    -0.248 NA
ATOM     37  C   UNL     1      -8.420  -1.072   8.219  1.00  0.00     0.031 C 
ATOM     38  C   UNL     1     -10.314   0.930   4.010  1.00  0.00     0.029 A 
ATOM     39  N   UNL     1     -11.545  -0.594   5.094  1.00  0.00    -0.354 N 
ATOM     40  C   UNL     1     -10.243  -2.335   8.788  1.00  0.00     0.074 A 
ATOM     41  C   UNL     1      -8.886  -1.943   9.102  1.00  0.00     0.031 C 
ATOM     42  C   UNL     1     -11.474   0.795   3.345  1.00  0.00     0.029 A 
ATOM     43  C   UNL     1     -12.311  -0.195   4.024  1.00  0.00     0.049 A 
ATOM     44  H   UNL     1     -11.837  -1.276   5.740  1.00  0.00     0.167 HD
ATOM     45  C   UNL     1     -10.990  -3.162   9.561  1.00  0.00     0.031 A 
ATOM     46  C   UNL     1     -13.547  -0.570   3.637  1.00  0.00     0.031 A 
ATOM     47  C   UNL     1     -12.331  -3.582   9.251  1.00  0.00     0.049 A 
ATOM     48  C   UNL     1     -14.328  -1.560   4.462  1.00  0.00     0.074 A 
ATOM     49  C   UNL     1     -13.165  -4.407   9.986  1.00  0.00     0.029 A 
ATOM     50  N   UNL     1     -13.028  -3.227   8.107  1.00  0.00    -0.354 N 
ATOM     51  N   UNL     1     -14.006  -2.119   5.603  1.00  0.00    -0.248 NA
ATOM     52  C   UNL     1     -15.648  -1.958   3.949  1.00  0.00     0.031 C 
ATOM     53  C   UNL     1     -14.344  -4.599   9.257  1.00  0.00     0.029 A 
ATOM     54  C   UNL     1     -14.269  -3.845   8.098  1.00  0.00     0.049 A 
ATOM     55  H   UNL     1     -12.692  -2.624   7.405  1.00  0.00     0.167 HD
ATOM     56  C   UNL     1     -15.092  -2.916   5.957  1.00  0.00     0.074 A 
ATOM     57  C   UNL     1     -16.084  -2.758   4.914  1.00  0.00     0.031 C 
ATOM     58  C   UNL     1     -15.251  -3.700   7.052  1.00  0.00     0.031 A 
BRANCH  45  59
ATOM     59  C   UNL     1     -10.342  -3.699  10.811  1.00  0.00    -0.014 A 
ATOM     60  C   UNL     1     -10.094  -2.868  11.919  1.00  0.00     0.010 A 
ATOM     61  C   UNL     1      -9.980  -5.056  10.879  1.00  0.00     0.010 A 
ATOM     62  C   UNL     1      -9.442  -3.371  13.048  1.00  0.00     0.020 A 
ATOM     63  C   UNL     1      -9.352  -5.569  12.017  1.00  0.00     0.020 A 
ATOM     64  C   UNL     1      -9.065  -4.717  13.085  1.00  0.00     0.054 A 
BRANCH  64  65
ATOM     65  S   UNL     1      -8.201  -5.343  14.552  1.00  0.00     0.124 S 
ATOM     66  O   UNL     1      -6.865  -4.779  14.377  1.00  0.00    -0.237 OA
ATOM     67  O   UNL     1      -8.981  -4.778  15.651  1.00  0.00    -0.237 OA
ATOM     68  O   UNL     1      -8.288  -6.794  14.413  1.00  0.00    -0.744 OA
ENDBRANCH  64  65
ENDBRANCH  45  59
BRANCH  46  69
ATOM     69  C   UNL     1     -14.134   0.008   2.397  1.00  0.00    -0.014 A 
ATOM     70  C   UNL     1     -15.193   0.931   2.464  1.00  0.00     0.010 A 
ATOM     71  C   UNL     1     -13.617  -0.351   1.139  1.00  0.00     0.010 A 
ATOM     72  C   UNL     1     -15.720   1.487   1.294  1.00  0.00     0.020 A 
ATOM     73  C   UNL     1     -14.126   0.220  -0.030  1.00  0.00     0.020 A 
ATOM     74  C   UNL     1     -15.178   1.134   0.055  1.00  0.00     0.054 A 
BRANCH  74  75
ATOM     75  S   UNL     1     -15.819   1.933  -1.443  1.00  0.00     0.124 S 
ATOM     76  O   UNL     1     -17.112   1.277  -1.609  1.00  0.00    -0.237 OA
ATOM     77  O   UNL     1     -15.866   3.340  -1.054  1.00  0.00    -0.237 OA
ATOM     78  O   UNL     1     -14.817   1.610  -2.457  1.00  0.00    -0.744 OA
ENDBRANCH  74  75
ENDBRANCH  46  69
BRANCH  58  79
ATOM     79  C   UNL     1     -16.556  -4.442   7.201  1.00  0.00    -0.014 A 
ATOM     80  C   UNL     1     -16.862  -5.551   6.391  1.00  0.00     0.010 A 
ATOM     81  C   UNL     1     -17.464  -4.059   8.205  1.00  0.00     0.010 A 
ATOM     82  C   UNL     1     -18.064  -6.244   6.564  1.00  0.00     0.020 A 
ATOM     83  C   UNL     1     -18.656  -4.765   8.398  1.00  0.00     0.020 A 
ATOM     84  C   UNL     1     -18.955  -5.846   7.567  1.00  0.00     0.054 A 
BRANCH  84  85
ATOM     85  S   UNL     1     -20.489  -6.788   7.800  1.00  0.00     0.124 S 
ATOM     86  O   UNL     1     -21.290  -6.352   6.660  1.00  0.00    -0.237 OA
ATOM     87  O   UNL     1     -20.027  -8.173   7.751  1.00  0.00    -0.237 OA
ATOM     88  O   UNL     1     -20.972  -6.346   9.106  1.00  0.00    -0.744 OA
ENDBRANCH  84  85
ENDBRANCH  58  79
ENDBRANCH  32  33
ENDBRANCH  25  27
ENDBRANCH  24  25
ENDBRANCH  23  24
ENDBRANCH  22  23
ENDBRANCH  21  22
ENDBRANCH   1  21
TORSDOF 23
