REMARK SMILES C[C@H](Cc1ccco1)[NH2+]Cc1cc(C(=O)OCCOCCOC(=O)c2ccc(-c3c4nc(c(-c5ccc(S(=O)(=O)[O-])cc5)c5ccc([nH]5)c(-c5ccc(S(=O)(=O)[O-])cc5)c5nc(c(-c6ccc(S(=O)(=O)[O-])cc6)c6ccc3[nH]6)C=C5)C=C4)cc2)cs1
REMARK SMILES IDX 18 1 17 2 16 3 14 4 15 5 13 6 11 7 12 8 86 9 85 10 10 11
REMARK SMILES IDX 9 12 2 15 1 16 3 17 4 18 5 19 8 20 6 21 7 22 19 23 20 24
REMARK SMILES IDX 21 25 22 26 23 27 24 28 25 29 26 30 84 31 27 32 83 33 28 34
REMARK SMILES IDX 29 35 30 36 77 37 31 38 82 39 76 40 78 41 32 42 81 43 75 44
REMARK SMILES IDX 74 45 33 47 63 48 44 49 62 50 45 51 48 52 61 53 79 54 46 55
REMARK SMILES IDX 47 56 60 58 80 59 49 60 34 61 35 62 43 63 36 64 42 65 37 66
REMARK SMILES IDX 38 67 39 68 40 69 41 70 64 71 65 72 73 73 66 74 72 75 67 76
REMARK SMILES IDX 68 77 69 78 70 79 71 80 50 81 51 82 59 83 52 84 58 85 53 86
REMARK SMILES IDX 54 87 55 88 56 89 57 90
REMARK H PARENT 9 13 9 14 78 46 48 57
REMARK Flexibility Score: inf
ROOT
ATOM      1  C   UNL     1       0.124   8.262  -5.507  1.00  0.00     0.202 C 
ENDROOT
BRANCH   1   2
ATOM      2  C   UNL     1      -1.342   7.827  -5.452  1.00  0.00     0.261 C 
BRANCH   2   3
ATOM      3  O   UNL     1      -1.523   6.696  -4.583  1.00  0.00    -0.460 OA
BRANCH   3   4
ATOM      4  C   UNL     1      -1.740   5.508  -5.217  1.00  0.00     0.339 C 
ATOM      5  O   UNL     1      -1.838   5.372  -6.432  1.00  0.00    -0.246 OA
BRANCH   4   6
ATOM      6  C   UNL     1      -1.821   4.372  -4.298  1.00  0.00     0.071 A 
ATOM      7  C   UNL     1      -1.790   3.089  -2.321  1.00  0.00     0.060 A 
ATOM      8  C   UNL     1      -1.658   4.356  -2.868  1.00  0.00     0.037 A 
ATOM      9  S   UNL     1      -2.229   1.944  -3.523  1.00  0.00    -0.142 S 
ATOM     10  C   UNL     1      -2.060   3.093  -4.767  1.00  0.00     0.081 A 
BRANCH   7  11
ATOM     11  C   UNL     1      -1.657   2.671  -0.882  1.00  0.00     0.308 C 
BRANCH  11  12
ATOM     12  N   UNL     1      -0.830   1.477  -0.667  1.00  0.00    -0.339 N 
ATOM     13  H   UNL     1      -0.994   1.145   0.283  1.00  0.00     0.346 HD
ATOM     14  H   UNL     1      -1.107   0.805  -1.383  1.00  0.00     0.346 HD
BRANCH  12  15
ATOM     15  C   UNL     1       0.620   1.686  -0.836  1.00  0.00     0.187 C 
ATOM     16  C   UNL     1       1.054   1.419  -2.287  1.00  0.00     0.075 C 
BRANCH  15  17
ATOM     17  C   UNL     1       1.379   0.739   0.127  1.00  0.00     0.140 C 
BRANCH  17  18
ATOM     18  C   UNL     1       2.798   1.147   0.369  1.00  0.00     0.109 A 
ATOM     19  C   UNL     1       3.653   2.080  -0.186  1.00  0.00     0.046 A 
ATOM     20  O   UNL     1       3.441   0.484   1.376  1.00  0.00    -0.469 OA
ATOM     21  C   UNL     1       4.874   1.985   0.520  1.00  0.00     0.042 A 
ATOM     22  C   UNL     1       4.691   1.005   1.465  1.00  0.00     0.195 A 
ENDBRANCH  17  18
ENDBRANCH  15  17
ENDBRANCH  12  15
ENDBRANCH  11  12
ENDBRANCH   7  11
ENDBRANCH   4   6
ENDBRANCH   3   4
ENDBRANCH   2   3
ENDBRANCH   1   2
BRANCH   1  23
ATOM     23  O   UNL     1       1.028   7.279  -6.013  1.00  0.00    -0.374 OA
BRANCH  23  24
ATOM     24  C   UNL     1       1.546   6.346  -5.061  1.00  0.00     0.202 C 
BRANCH  24  25
ATOM     25  C   UNL     1       2.726   6.851  -4.223  1.00  0.00     0.261 C 
BRANCH  25  26
ATOM     26  O   UNL     1       2.310   7.864  -3.287  1.00  0.00    -0.460 OA
BRANCH  26  27
ATOM     27  C   UNL     1       2.763   9.112  -3.566  1.00  0.00     0.338 C 
ATOM     28  O   UNL     1       3.557   9.424  -4.437  1.00  0.00    -0.246 OA
BRANCH  27  29
ATOM     29  C   UNL     1       2.016  10.114  -2.778  1.00  0.00     0.060 A 
ATOM     30  C   UNL     1       1.535  11.234  -3.467  1.00  0.00     0.016 A 
ATOM     31  C   UNL     1       1.837  10.005  -1.396  1.00  0.00     0.016 A 
ATOM     32  C   UNL     1       0.935  12.279  -2.770  1.00  0.00     0.010 A 
ATOM     33  C   UNL     1       1.234  11.059  -0.696  1.00  0.00     0.010 A 
ATOM     34  C   UNL     1       0.820  12.219  -1.375  1.00  0.00    -0.014 A 
BRANCH  34  35
ATOM     35  C   UNL     1       0.398  13.440  -0.643  1.00  0.00     0.031 A 
ATOM     36  C   UNL     1       1.445  14.315  -0.006  1.00  0.00     0.074 A 
ATOM     37  C   UNL     1      -0.895  13.812  -0.619  1.00  0.00     0.049 A 
ATOM     38  N   UNL     1       1.307  15.473   0.586  1.00  0.00    -0.248 NA
ATOM     39  C   UNL     1       2.831  13.820  -0.045  1.00  0.00     0.031 C 
ATOM     40  C   UNL     1      -2.001  13.066  -1.220  1.00  0.00     0.029 A 
ATOM     41  N   UNL     1      -1.493  14.923  -0.079  1.00  0.00    -0.354 N 
ATOM     42  C   UNL     1       2.585  15.849   0.986  1.00  0.00     0.074 A 
ATOM     43  C   UNL     1       3.479  14.777   0.604  1.00  0.00     0.031 C 
ATOM     44  C   UNL     1      -3.143  13.749  -1.026  1.00  0.00     0.029 A 
ATOM     45  C   UNL     1      -2.853  14.968  -0.274  1.00  0.00     0.049 A 
ATOM     46  H   UNL     1      -0.995  15.623   0.403  1.00  0.00     0.167 HD
ATOM     47  C   UNL     1       2.983  16.988   1.603  1.00  0.00     0.031 A 
ATOM     48  C   UNL     1      -3.761  15.888   0.107  1.00  0.00     0.031 A 
ATOM     49  C   UNL     1       2.093  18.048   1.997  1.00  0.00     0.049 A 
ATOM     50  C   UNL     1      -3.301  17.125   0.832  1.00  0.00     0.074 A 
ATOM     51  C   UNL     1       2.403  19.248   2.616  1.00  0.00     0.029 A 
ATOM     52  N   UNL     1       0.719  18.036   1.819  1.00  0.00    -0.354 N 
ATOM     53  N   UNL     1      -2.083  17.480   1.169  1.00  0.00    -0.248 NA
ATOM     54  C   UNL     1      -4.338  18.096   1.209  1.00  0.00     0.031 C 
ATOM     55  C   UNL     1       1.210  19.937   2.857  1.00  0.00     0.029 A 
ATOM     56  C   UNL     1       0.163  19.195   2.335  1.00  0.00     0.049 A 
ATOM     57  H   UNL     1       0.212  17.310   1.388  1.00  0.00     0.167 HD
ATOM     58  C   UNL     1      -2.206  18.727   1.774  1.00  0.00     0.074 A 
ATOM     59  C   UNL     1      -3.613  19.071   1.740  1.00  0.00     0.031 C 
ATOM     60  C   UNL     1      -1.241  19.519   2.307  1.00  0.00     0.031 A 
BRANCH  47  61
ATOM     61  C   UNL     1       4.449  17.130   1.917  1.00  0.00    -0.014 A 
ATOM     62  C   UNL     1       5.394  17.354   0.898  1.00  0.00     0.010 A 
ATOM     63  C   UNL     1       4.886  17.068   3.252  1.00  0.00     0.010 A 
ATOM     64  C   UNL     1       6.752  17.475   1.206  1.00  0.00     0.020 A 
ATOM     65  C   UNL     1       6.240  17.214   3.567  1.00  0.00     0.020 A 
ATOM     66  C   UNL     1       7.167  17.400   2.539  1.00  0.00     0.054 A 
BRANCH  66  67
ATOM     67  S   UNL     1       8.933  17.576   2.914  1.00  0.00     0.124 S 
ATOM     68  O   UNL     1       9.466  16.294   2.459  1.00  0.00    -0.237 OA
ATOM     69  O   UNL     1       9.317  18.735   2.113  1.00  0.00    -0.237 OA
ATOM     70  O   UNL     1       8.962  17.784   4.360  1.00  0.00    -0.744 OA
ENDBRANCH  66  67
ENDBRANCH  47  61
BRANCH  48  71
ATOM     71  C   UNL     1      -5.202  15.676  -0.196  1.00  0.00    -0.014 A 
ATOM     72  C   UNL     1      -5.863  16.468  -1.151  1.00  0.00     0.010 A 
ATOM     73  C   UNL     1      -5.922  14.669   0.473  1.00  0.00     0.010 A 
ATOM     74  C   UNL     1      -7.221  16.267  -1.420  1.00  0.00     0.020 A 
ATOM     75  C   UNL     1      -7.271  14.447   0.188  1.00  0.00     0.020 A 
ATOM     76  C   UNL     1      -7.915  15.256  -0.751  1.00  0.00     0.054 A 
BRANCH  76  77
ATOM     77  S   UNL     1      -9.661  14.972  -1.157  1.00  0.00     0.124 S 
ATOM     78  O   UNL     1     -10.314  16.094  -0.492  1.00  0.00    -0.237 OA
ATOM     79  O   UNL     1      -9.656  15.016  -2.618  1.00  0.00    -0.237 OA
ATOM     80  O   UNL     1      -9.934  13.656  -0.584  1.00  0.00    -0.744 OA
ENDBRANCH  76  77
ENDBRANCH  48  71
BRANCH  60  81
ATOM     81  C   UNL     1      -1.674  20.848   2.869  1.00  0.00    -0.014 A 
ATOM     82  C   UNL     1      -2.414  20.932   4.062  1.00  0.00     0.010 A 
ATOM     83  C   UNL     1      -1.316  22.033   2.200  1.00  0.00     0.010 A 
ATOM     84  C   UNL     1      -2.834  22.174   4.547  1.00  0.00     0.020 A 
ATOM     85  C   UNL     1      -1.709  23.279   2.698  1.00  0.00     0.020 A 
ATOM     86  C   UNL     1      -2.486  23.339   3.857  1.00  0.00     0.054 A 
BRANCH  86  87
ATOM     87  S   UNL     1      -3.038  24.941   4.506  1.00  0.00     0.124 S 
ATOM     88  O   UNL     1      -4.447  24.952   4.125  1.00  0.00    -0.237 OA
ATOM     89  O   UNL     1      -2.774  24.817   5.937  1.00  0.00    -0.237 OA
ATOM     90  O   UNL     1      -2.195  25.907   3.805  1.00  0.00    -0.744 OA
ENDBRANCH  86  87
ENDBRANCH  60  81
ENDBRANCH  34  35
ENDBRANCH  27  29
ENDBRANCH  26  27
ENDBRANCH  25  26
ENDBRANCH  24  25
ENDBRANCH  23  24
ENDBRANCH   1  23
TORSDOF 22
