REMARK SMILES Cc1nsc(NC(=O)[C@H]2Cc3[nH]cnc3C[NH2+]2)c1C(=O)OCCOCCOC(=O)c1ccc(-c2c3nc(c(-c4ccc(S(=O)(=O)[O-])cc4)c4ccc([nH]4)c(-c4ccc(S(=O)(=O)[O-])cc4)c4nc(c(-c5ccc(S(=O)(=O)[O-])cc5)c5ccc2[nH]5)C=C4)C=C3)cc1
REMARK SMILES IDX 25 1 24 2 23 3 22 4 21 5 19 6 20 7 18 8 1 9 2 10 3 11 4 12
REMARK SMILES IDX 5 13 6 14 7 15 8 17 9 18 10 19 17 20 11 21 16 22 12 25 15 26
REMARK SMILES IDX 13 27 14 29 26 30 27 31 28 32 29 33 30 34 31 35 89 36 32 37
REMARK SMILES IDX 88 38 33 39 34 40 35 41 82 42 36 43 87 44 81 45 83 46 37 47
REMARK SMILES IDX 86 48 80 49 79 50 38 52 68 53 49 54 67 55 50 56 53 57 66 58
REMARK SMILES IDX 84 59 51 60 52 61 65 63 85 64 54 65 39 66 40 67 48 68 41 69
REMARK SMILES IDX 47 70 42 71 43 72 44 73 45 74 46 75 69 76 70 77 78 78 71 79
REMARK SMILES IDX 77 80 72 81 73 82 74 83 75 84 76 85 55 86 56 87 64 88 57 89
REMARK SMILES IDX 63 90 58 91 59 92 60 93 61 94 62 95
REMARK H PARENT 6 16 17 23 17 24 12 28 83 51 53 62
REMARK Flexibility Score: inf
ROOT
ATOM      1  C   UNL     1       0.473   4.866  -0.832  1.00  0.00     0.202 C 
ENDROOT
BRANCH   1   2
ATOM      2  O   UNL     1       1.569   5.216  -1.668  1.00  0.00    -0.374 OA
BRANCH   2   3
ATOM      3  C   UNL     1       2.240   4.206  -2.423  1.00  0.00     0.202 C 
BRANCH   3   4
ATOM      4  C   UNL     1       3.177   3.266  -1.657  1.00  0.00     0.261 C 
BRANCH   4   5
ATOM      5  O   UNL     1       2.429   2.269  -0.937  1.00  0.00    -0.460 OA
BRANCH   5   6
ATOM      6  C   UNL     1       2.396   2.397   0.414  1.00  0.00     0.343 C 
ATOM      7  O   UNL     1       3.136   3.128   1.071  1.00  0.00    -0.246 OA
BRANCH   6   8
ATOM      8  C   UNL     1       1.194   1.801   0.964  1.00  0.00     0.117 A 
ATOM      9  C   UNL     1       1.127  -0.467  -0.312  1.00  0.00     0.069 C 
ATOM     10  C   UNL     1       0.540   0.588   0.561  1.00  0.00     0.068 A 
ATOM     11  N   UNL     1      -0.698   0.417   1.034  1.00  0.00    -0.195 NA
ATOM     12  S   UNL     1      -1.111   1.763   1.921  1.00  0.00    -0.017 S 
ATOM     13  C   UNL     1       0.474   2.385   1.991  1.00  0.00     0.131 A 
BRANCH  13  14
ATOM     14  N   UNL     1       0.829   3.474   2.742  1.00  0.00    -0.310 N 
ATOM     15  C   UNL     1       0.572   3.820   4.028  1.00  0.00     0.283 C 
ATOM     16  H   UNL     1       1.376   4.133   2.255  1.00  0.00     0.171 HD
ATOM     17  O   UNL     1       1.032   4.926   4.357  1.00  0.00    -0.268 OA
BRANCH  15  18
ATOM     18  C   UNL     1      -0.244   2.988   5.037  1.00  0.00     0.279 C 
ATOM     19  C   UNL     1      -0.228   1.427   5.045  1.00  0.00     0.131 C 
ATOM     20  N   UNL     1       0.118   3.429   6.447  1.00  0.00    -0.331 N 
ATOM     21  C   UNL     1      -1.455   1.126   5.836  1.00  0.00     0.050 A 
ATOM     22  C   UNL     1      -0.735   2.841   7.522  1.00  0.00     0.320 C 
ATOM     23  H   UNL     1       0.035   4.444   6.493  1.00  0.00     0.347 HD
ATOM     24  H   UNL     1       1.067   3.097   6.617  1.00  0.00     0.347 HD
ATOM     25  N   UNL     1      -2.657   0.653   5.392  1.00  0.00    -0.348 N 
ATOM     26  C   UNL     1      -1.729   1.867   6.966  1.00  0.00     0.116 A 
ATOM     27  C   UNL     1      -3.610   1.239   6.190  1.00  0.00     0.197 A 
ATOM     28  H   UNL     1      -2.809   0.022   4.652  1.00  0.00     0.167 HD
ATOM     29  N   UNL     1      -3.078   1.914   7.188  1.00  0.00    -0.236 NA
ENDBRANCH  15  18
ENDBRANCH  13  14
ENDBRANCH   6   8
ENDBRANCH   5   6
ENDBRANCH   4   5
ENDBRANCH   3   4
ENDBRANCH   2   3
ENDBRANCH   1   2
BRANCH   1  30
ATOM     30  C   UNL     1      -0.844   4.457  -1.476  1.00  0.00     0.261 C 
BRANCH  30  31
ATOM     31  O   UNL     1      -0.717   3.300  -2.288  1.00  0.00    -0.460 OA
BRANCH  31  32
ATOM     32  C   UNL     1      -0.695   3.573  -3.613  1.00  0.00     0.338 C 
ATOM     33  O   UNL     1      -0.426   4.641  -4.137  1.00  0.00    -0.246 OA
BRANCH  32  34
ATOM     34  C   UNL     1      -1.180   2.402  -4.345  1.00  0.00     0.060 A 
ATOM     35  C   UNL     1      -1.185   2.483  -5.740  1.00  0.00     0.016 A 
ATOM     36  C   UNL     1      -1.853   1.382  -3.657  1.00  0.00     0.016 A 
ATOM     37  C   UNL     1      -2.036   1.657  -6.439  1.00  0.00     0.010 A 
ATOM     38  C   UNL     1      -2.707   0.565  -4.355  1.00  0.00     0.010 A 
ATOM     39  C   UNL     1      -2.853   0.775  -5.723  1.00  0.00    -0.014 A 
BRANCH  39  40
ATOM     40  C   UNL     1      -3.802  -0.039  -6.451  1.00  0.00     0.031 A 
ATOM     41  C   UNL     1      -3.129  -1.107  -7.217  1.00  0.00     0.074 A 
ATOM     42  C   UNL     1      -5.135   0.111  -6.326  1.00  0.00     0.049 A 
ATOM     43  N   UNL     1      -2.922  -1.136  -8.490  1.00  0.00    -0.248 NA
ATOM     44  C   UNL     1      -2.390  -2.136  -6.463  1.00  0.00     0.031 C 
ATOM     45  C   UNL     1      -5.864   0.988  -5.401  1.00  0.00     0.029 A 
ATOM     46  N   UNL     1      -6.136  -0.572  -6.942  1.00  0.00    -0.354 N 
ATOM     47  C   UNL     1      -2.263  -2.335  -8.722  1.00  0.00     0.074 A 
ATOM     48  C   UNL     1      -1.749  -2.766  -7.448  1.00  0.00     0.031 C 
ATOM     49  C   UNL     1      -7.164   0.612  -5.356  1.00  0.00     0.029 A 
ATOM     50  C   UNL     1      -7.387  -0.425  -6.350  1.00  0.00     0.049 A 
ATOM     51  H   UNL     1      -5.988  -1.125  -7.743  1.00  0.00     0.167 HD
ATOM     52  C   UNL     1      -2.496  -3.045  -9.858  1.00  0.00     0.031 A 
ATOM     53  C   UNL     1      -8.511  -1.132  -6.639  1.00  0.00     0.031 A 
ATOM     54  C   UNL     1      -3.178  -2.245 -10.845  1.00  0.00     0.049 A 
ATOM     55  C   UNL     1      -8.325  -1.684  -8.001  1.00  0.00     0.074 A 
ATOM     56  C   UNL     1      -2.875  -1.127 -11.590  1.00  0.00     0.029 A 
ATOM     57  N   UNL     1      -4.547  -2.365 -10.838  1.00  0.00    -0.354 N 
ATOM     58  N   UNL     1      -8.233  -0.930  -9.062  1.00  0.00    -0.248 NA
ATOM     59  C   UNL     1      -7.787  -3.027  -8.148  1.00  0.00     0.031 C 
ATOM     60  C   UNL     1      -4.103  -0.411 -11.715  1.00  0.00     0.029 A 
ATOM     61  C   UNL     1      -5.119  -1.149 -11.100  1.00  0.00     0.049 A 
ATOM     62  H   UNL     1      -5.042  -3.200 -10.670  1.00  0.00     0.167 HD
ATOM     63  C   UNL     1      -7.249  -1.526  -9.835  1.00  0.00     0.074 A 
ATOM     64  C   UNL     1      -7.119  -2.879  -9.297  1.00  0.00     0.031 C 
ATOM     65  C   UNL     1      -6.440  -0.768 -10.635  1.00  0.00     0.031 A 
BRANCH  52  66
ATOM     66  C   UNL     1      -2.581  -4.554  -9.870  1.00  0.00    -0.014 A 
ATOM     67  C   UNL     1      -2.787  -5.211 -11.098  1.00  0.00     0.010 A 
ATOM     68  C   UNL     1      -2.757  -5.323  -8.698  1.00  0.00     0.010 A 
ATOM     69  C   UNL     1      -3.195  -6.552 -11.144  1.00  0.00     0.020 A 
ATOM     70  C   UNL     1      -3.122  -6.667  -8.733  1.00  0.00     0.020 A 
ATOM     71  C   UNL     1      -3.366  -7.267  -9.958  1.00  0.00     0.054 A 
BRANCH  71  72
ATOM     72  S   UNL     1      -3.966  -8.972 -10.023  1.00  0.00     0.124 S 
ATOM     73  O   UNL     1      -5.311  -8.796 -10.561  1.00  0.00    -0.237 OA
ATOM     74  O   UNL     1      -2.999  -9.603 -10.917  1.00  0.00    -0.237 OA
ATOM     75  O   UNL     1      -3.899  -9.410  -8.630  1.00  0.00    -0.744 OA
ENDBRANCH  71  72
ENDBRANCH  52  66
BRANCH  53  76
ATOM     76  C   UNL     1      -9.560  -1.621  -5.706  1.00  0.00    -0.014 A 
ATOM     77  C   UNL     1     -10.814  -2.076  -6.160  1.00  0.00     0.010 A 
ATOM     78  C   UNL     1      -9.213  -1.905  -4.369  1.00  0.00     0.010 A 
ATOM     79  C   UNL     1     -11.669  -2.818  -5.320  1.00  0.00     0.020 A 
ATOM     80  C   UNL     1     -10.056  -2.644  -3.528  1.00  0.00     0.020 A 
ATOM     81  C   UNL     1     -11.276  -3.111  -4.011  1.00  0.00     0.054 A 
BRANCH  81  82
ATOM     82  S   UNL     1     -12.316  -4.184  -2.970  1.00  0.00     0.124 S 
ATOM     83  O   UNL     1     -13.485  -3.345  -2.726  1.00  0.00    -0.237 OA
ATOM     84  O   UNL     1     -12.539  -5.344  -3.829  1.00  0.00    -0.237 OA
ATOM     85  O   UNL     1     -11.481  -4.439  -1.797  1.00  0.00    -0.744 OA
ENDBRANCH  81  82
ENDBRANCH  53  76
BRANCH  65  86
ATOM     86  C   UNL     1      -6.873   0.653 -10.922  1.00  0.00    -0.014 A 
ATOM     87  C   UNL     1      -6.925   1.677  -9.954  1.00  0.00     0.010 A 
ATOM     88  C   UNL     1      -7.118   0.989 -12.264  1.00  0.00     0.010 A 
ATOM     89  C   UNL     1      -7.231   2.998 -10.322  1.00  0.00     0.020 A 
ATOM     90  C   UNL     1      -7.406   2.303 -12.639  1.00  0.00     0.020 A 
ATOM     91  C   UNL     1      -7.469   3.301 -11.667  1.00  0.00     0.054 A 
BRANCH  91  92
ATOM     92  S   UNL     1      -7.818   5.016 -12.153  1.00  0.00     0.124 S 
ATOM     93  O   UNL     1      -9.137   5.250 -11.573  1.00  0.00    -0.237 OA
ATOM     94  O   UNL     1      -6.719   5.758 -11.539  1.00  0.00    -0.237 OA
ATOM     95  O   UNL     1      -7.784   4.977 -13.615  1.00  0.00    -0.744 OA
ENDBRANCH  91  92
ENDBRANCH  65  86
ENDBRANCH  39  40
ENDBRANCH  32  34
ENDBRANCH  31  32
ENDBRANCH  30  31
ENDBRANCH   1  30
TORSDOF 19
