REMARK SMILES CC[NH2+][C@@]1(C(=O)OCCOCCOC(=O)c2ccc(-c3c4nc(c(-c5ccc(S(=O)(=O)[O-])cc5)c5ccc([nH]5)c(-c5ccc(S(=O)(=O)[O-])cc5)c5nc(c(-c6ccc(S(=O)(=O)[O-])cc6)c6ccc3[nH]6)C=C5)C=C4)cc2)CC[C@@H](n2cnc3ccccc32)C1
REMARK SMILES IDX 11 1 10 2 9 3 8 4 7 5 5 6 6 7 4 8 76 9 88 10 77 11 78 12
REMARK SMILES IDX 3 13 2 16 1 17 79 18 80 19 87 20 81 21 82 22 86 23 83 24
REMARK SMILES IDX 85 25 84 26 12 27 13 28 14 29 15 30 16 31 17 32 75 33 18 34
REMARK SMILES IDX 74 35 19 36 20 37 21 38 68 39 22 40 73 41 67 42 69 43 23 44
REMARK SMILES IDX 72 45 66 46 65 47 24 49 54 50 35 51 53 52 36 53 39 54 52 55
REMARK SMILES IDX 70 56 37 57 38 58 51 60 71 61 40 62 25 63 26 64 34 65 27 66
REMARK SMILES IDX 33 67 28 68 29 69 30 70 31 71 32 72 55 73 56 74 64 75 57 76
REMARK SMILES IDX 63 77 58 78 59 79 60 80 61 81 62 82 41 83 42 84 50 85 43 86
REMARK SMILES IDX 49 87 44 88 45 89 46 90 47 91 48 92
REMARK H PARENT 3 14 3 15 69 48 39 59
REMARK Flexibility Score: inf
ROOT
ATOM      1  C   UNL     1      -2.564  -3.081  -2.024  1.00  0.00     0.202 C 
ENDROOT
BRANCH   1   2
ATOM      2  O   UNL     1      -3.787  -2.358  -2.158  1.00  0.00    -0.374 OA
BRANCH   2   3
ATOM      3  C   UNL     1      -4.120  -1.902  -3.476  1.00  0.00     0.202 C 
BRANCH   3   4
ATOM      4  C   UNL     1      -3.327  -0.711  -4.043  1.00  0.00     0.261 C 
BRANCH   4   5
ATOM      5  O   UNL     1      -1.935  -1.042  -4.011  1.00  0.00    -0.459 OA
BRANCH   5   6
ATOM      6  C   UNL     1      -0.989  -0.061  -4.126  1.00  0.00     0.368 C 
ATOM      7  O   UNL     1      -1.275   1.093  -4.428  1.00  0.00    -0.245 OA
BRANCH   6   8
ATOM      8  C   UNL     1       0.654  -0.773  -3.845  1.00  0.00     0.196 C 
ATOM      9  C   UNL     1       1.109  -0.399  -5.556  1.00  0.00     0.083 C 
ATOM     10  C   UNL     1       0.137  -2.411  -4.528  1.00  0.00     0.106 C 
ATOM     11  C   UNL     1       1.372  -1.711  -6.339  1.00  0.00     0.033 C 
ATOM     12  C   UNL     1       1.324  -2.861  -5.331  1.00  0.00     0.096 C 
BRANCH   8  13
ATOM     13  N   UNL     1       1.810  -0.494  -2.114  1.00  0.00    -0.332 N 
ATOM     14  H   UNL     1       2.118  -1.447  -1.924  1.00  0.00     0.347 HD
ATOM     15  H   UNL     1       2.213   0.372  -2.471  1.00  0.00     0.347 HD
BRANCH  13  16
ATOM     16  C   UNL     1       1.689   0.091  -0.646  1.00  0.00     0.257 C 
ATOM     17  C   UNL     1       2.732  -0.487   0.315  1.00  0.00     0.071 C 
ENDBRANCH  13  16
ENDBRANCH   8  13
BRANCH  12  18
ATOM     18  N   UNL     1       2.427  -2.916  -4.364  1.00  0.00    -0.327 N 
ATOM     19  C   UNL     1       3.706  -2.511  -4.753  1.00  0.00     0.200 A 
ATOM     20  C   UNL     1       2.116  -2.232  -3.164  1.00  0.00     0.068 A 
ATOM     21  N   UNL     1       3.921  -1.209  -4.615  1.00  0.00    -0.237 NA
ATOM     22  C   UNL     1       2.871  -0.776  -3.855  1.00  0.00     0.088 A 
ATOM     23  C   UNL     1       0.594  -2.072  -2.154  1.00  0.00     0.028 A 
ATOM     24  C   UNL     1       2.123   0.851  -3.583  1.00  0.00     0.030 A 
ATOM     25  C   UNL     1      -0.211  -0.453  -1.958  1.00  0.00     0.002 A 
ATOM     26  C   UNL     1       0.583   1.023  -2.671  1.00  0.00     0.002 A 
ENDBRANCH  12  18
ENDBRANCH   6   8
ENDBRANCH   5   6
ENDBRANCH   4   5
ENDBRANCH   3   4
ENDBRANCH   2   3
ENDBRANCH   1   2
BRANCH   1  27
ATOM     27  C   UNL     1      -2.516  -4.556  -2.442  1.00  0.00     0.261 C 
BRANCH  27  28
ATOM     28  O   UNL     1      -2.757  -4.727  -3.848  1.00  0.00    -0.460 OA
BRANCH  28  29
ATOM     29  C   UNL     1      -3.967  -5.265  -4.136  1.00  0.00     0.338 C 
ATOM     30  O   UNL     1      -4.778  -5.718  -3.347  1.00  0.00    -0.246 OA
BRANCH  29  31
ATOM     31  C   UNL     1      -4.290  -5.012  -5.550  1.00  0.00     0.060 A 
ATOM     32  C   UNL     1      -5.450  -4.269  -5.807  1.00  0.00     0.016 A 
ATOM     33  C   UNL     1      -3.518  -5.518  -6.597  1.00  0.00     0.016 A 
ATOM     34  C   UNL     1      -5.871  -4.062  -7.114  1.00  0.00     0.010 A 
ATOM     35  C   UNL     1      -3.955  -5.327  -7.912  1.00  0.00     0.010 A 
ATOM     36  C   UNL     1      -5.152  -4.632  -8.170  1.00  0.00    -0.014 A 
BRANCH  36  37
ATOM     37  C   UNL     1      -5.763  -4.649  -9.519  1.00  0.00     0.031 A 
ATOM     38  C   UNL     1      -6.444  -5.908  -9.983  1.00  0.00     0.074 A 
ATOM     39  C   UNL     1      -5.763  -3.548 -10.290  1.00  0.00     0.049 A 
ATOM     40  N   UNL     1      -7.027  -6.160 -11.124  1.00  0.00    -0.248 NA
ATOM     41  C   UNL     1      -6.467  -7.032  -9.032  1.00  0.00     0.031 C 
ATOM     42  C   UNL     1      -5.190  -2.255  -9.919  1.00  0.00     0.029 A 
ATOM     43  N   UNL     1      -6.264  -3.346 -11.551  1.00  0.00    -0.354 N 
ATOM     44  C   UNL     1      -7.472  -7.475 -11.037  1.00  0.00     0.074 A 
ATOM     45  C   UNL     1      -7.066  -7.975  -9.742  1.00  0.00     0.031 C 
ATOM     46  C   UNL     1      -5.363  -1.395 -10.937  1.00  0.00     0.029 A 
ATOM     47  C   UNL     1      -6.020  -2.087 -12.043  1.00  0.00     0.049 A 
ATOM     48  H   UNL     1      -6.751  -4.037 -12.055  1.00  0.00     0.167 HD
ATOM     49  C   UNL     1      -8.159  -8.198 -11.953  1.00  0.00     0.031 A 
ATOM     50  C   UNL     1      -6.274  -1.562 -13.259  1.00  0.00     0.031 A 
ATOM     51  C   UNL     1      -8.546  -7.692 -13.243  1.00  0.00     0.049 A 
ATOM     52  C   UNL     1      -6.968  -2.411 -14.293  1.00  0.00     0.074 A 
ATOM     53  C   UNL     1      -9.259  -8.336 -14.239  1.00  0.00     0.029 A 
ATOM     54  N   UNL     1      -8.245  -6.426 -13.722  1.00  0.00    -0.354 N 
ATOM     55  N   UNL     1      -7.403  -3.645 -14.189  1.00  0.00    -0.248 NA
ATOM     56  C   UNL     1      -7.213  -1.794 -15.603  1.00  0.00     0.031 C 
ATOM     57  C   UNL     1      -9.322  -7.486 -15.347  1.00  0.00     0.029 A 
ATOM     58  C   UNL     1      -8.723  -6.281 -15.013  1.00  0.00     0.049 A 
ATOM     59  H   UNL     1      -7.761  -5.731 -13.218  1.00  0.00     0.167 HD
ATOM     60  C   UNL     1      -8.000  -3.941 -15.411  1.00  0.00     0.074 A 
ATOM     61  C   UNL     1      -7.883  -2.751 -16.230  1.00  0.00     0.031 C 
ATOM     62  C   UNL     1      -8.595  -5.091 -15.817  1.00  0.00     0.031 A 
BRANCH  49  63
ATOM     63  C   UNL     1      -8.486  -9.629 -11.612  1.00  0.00    -0.014 A 
ATOM     64  C   UNL     1      -9.417  -9.955 -10.609  1.00  0.00     0.010 A 
ATOM     65  C   UNL     1      -7.869 -10.668 -12.334  1.00  0.00     0.010 A 
ATOM     66  C   UNL     1      -9.693 -11.292 -10.307  1.00  0.00     0.020 A 
ATOM     67  C   UNL     1      -8.167 -12.005 -12.058  1.00  0.00     0.020 A 
ATOM     68  C   UNL     1      -9.065 -12.308 -11.034  1.00  0.00     0.054 A 
BRANCH  68  69
ATOM     69  S   UNL     1      -9.457 -14.033 -10.634  1.00  0.00     0.124 S 
ATOM     70  O   UNL     1      -8.823 -14.191  -9.327  1.00  0.00    -0.237 OA
ATOM     71  O   UNL     1     -10.917 -14.034 -10.627  1.00  0.00    -0.237 OA
ATOM     72  O   UNL     1      -8.840 -14.791 -11.719  1.00  0.00    -0.744 OA
ENDBRANCH  68  69
ENDBRANCH  49  63
BRANCH  50  73
ATOM     73  C   UNL     1      -5.839  -0.173 -13.572  1.00  0.00    -0.014 A 
ATOM     74  C   UNL     1      -6.779   0.849 -13.790  1.00  0.00     0.010 A 
ATOM     75  C   UNL     1      -4.467   0.135 -13.645  1.00  0.00     0.010 A 
ATOM     76  C   UNL     1      -6.356   2.148 -14.089  1.00  0.00     0.020 A 
ATOM     77  C   UNL     1      -4.040   1.439 -13.910  1.00  0.00     0.020 A 
ATOM     78  C   UNL     1      -4.988   2.436 -14.141  1.00  0.00     0.054 A 
BRANCH  78  79
ATOM     79  S   UNL     1      -4.465   4.140 -14.473  1.00  0.00     0.124 S 
ATOM     80  O   UNL     1      -4.822   4.299 -15.880  1.00  0.00    -0.237 OA
ATOM     81  O   UNL     1      -5.271   4.905 -13.525  1.00  0.00    -0.237 OA
ATOM     82  O   UNL     1      -3.032   4.120 -14.189  1.00  0.00    -0.744 OA
ENDBRANCH  78  79
ENDBRANCH  50  73
BRANCH  62  83
ATOM     83  C   UNL     1      -9.205  -5.112 -17.196  1.00  0.00    -0.014 A 
ATOM     84  C   UNL     1      -8.406  -5.102 -18.353  1.00  0.00     0.010 A 
ATOM     85  C   UNL     1     -10.603  -5.208 -17.331  1.00  0.00     0.010 A 
ATOM     86  C   UNL     1      -8.997  -5.155 -19.619  1.00  0.00     0.020 A 
ATOM     87  C   UNL     1     -11.195  -5.296 -18.593  1.00  0.00     0.020 A 
ATOM     88  C   UNL     1     -10.388  -5.254 -19.731  1.00  0.00     0.054 A 
BRANCH  88  89
ATOM     89  S   UNL     1     -11.124  -5.368 -21.384  1.00  0.00     0.124 S 
ATOM     90  O   UNL     1     -10.918  -4.019 -21.903  1.00  0.00    -0.237 OA
ATOM     91  O   UNL     1     -10.326  -6.415 -22.017  1.00  0.00    -0.237 OA
ATOM     92  O   UNL     1     -12.516  -5.727 -21.121  1.00  0.00    -0.744 OA
ENDBRANCH  88  89
ENDBRANCH  62  83
ENDBRANCH  36  37
ENDBRANCH  29  31
ENDBRANCH  28  29
ENDBRANCH  27  28
ENDBRANCH   1  27
TORSDOF 20
