REMARK SMILES Cc1c(Cl)cccc1NC(=O)C[C@](C)(C(=O)OCCOCCOC(=O)c1ccc(-c2c3nc(c(-c4ccc(S(=O)(=O)[O-])cc4)c4ccc([nH]4)c(-c4ccc(S(=O)(=O)[O-])cc4)c4nc(c(-c5ccc(S(=O)(=O)[O-])cc5)c5ccc2[nH]5)C=C4)C=C3)cc1)c1ccccc1
REMARK SMILES IDX 20 1 19 2 18 3 17 4 15 5 16 6 13 7 14 8 12 9 10 10 9 11
REMARK SMILES IDX 11 13 8 14 1 15 2 16 3 17 4 18 5 19 7 20 6 21 86 22 87 23
REMARK SMILES IDX 91 24 88 25 90 26 89 27 21 28 22 29 23 30 24 31 25 32 26 33
REMARK SMILES IDX 27 34 85 35 28 36 84 37 29 38 30 39 31 40 78 41 32 42 83 43
REMARK SMILES IDX 77 44 79 45 33 46 82 47 76 48 75 49 34 51 64 52 45 53 63 54
REMARK SMILES IDX 46 55 49 56 62 57 80 58 47 59 48 60 61 62 81 63 50 64 35 65
REMARK SMILES IDX 36 66 44 67 37 68 43 69 38 70 39 71 40 72 41 73 42 74 65 75
REMARK SMILES IDX 66 76 74 77 67 78 73 79 68 80 69 81 70 82 71 83 72 84 51 85
REMARK SMILES IDX 52 86 60 87 53 88 59 89 54 90 55 91 56 92 57 93 58 94
REMARK H PARENT 9 12 79 50 49 61
REMARK Flexibility Score: inf
ROOT
ATOM      1  O   UNL     1      -8.415  -1.703  -1.516  1.00  0.00    -0.374 OA
ENDROOT
BRANCH   1   2
ATOM      2  C   UNL     1      -7.612  -2.749  -0.965  1.00  0.00     0.202 C 
BRANCH   2   3
ATOM      3  C   UNL     1      -6.184  -2.845  -1.506  1.00  0.00     0.261 C 
BRANCH   3   4
ATOM      4  O   UNL     1      -5.433  -1.670  -1.156  1.00  0.00    -0.463 OA
BRANCH   4   5
ATOM      5  C   UNL     1      -4.536  -1.238  -2.081  1.00  0.00     0.316 C 
ATOM      6  O   UNL     1      -4.219  -1.893  -3.069  1.00  0.00    -0.251 OA
BRANCH   5   7
ATOM      7  C   UNL     1      -3.995   0.186  -1.781  1.00  0.00     0.099 C 
ATOM      8  C   UNL     1      -4.625   0.820  -0.505  1.00  0.00     0.029 C 
BRANCH   7   9
ATOM      9  C   UNL     1      -2.442   0.118  -1.595  1.00  0.00     0.123 C 
BRANCH   9  10
ATOM     10  C   UNL     1      -1.730  -1.220  -1.720  1.00  0.00     0.225 C 
ATOM     11  N   UNL     1      -1.919  -2.266  -0.872  1.00  0.00    -0.326 N 
ATOM     12  H   UNL     1      -1.446  -3.083  -1.153  1.00  0.00     0.169 HD
ATOM     13  O   UNL     1      -0.940  -1.395  -2.655  1.00  0.00    -0.275 OA
BRANCH  11  14
ATOM     14  C   UNL     1      -2.644  -2.428   0.319  1.00  0.00     0.045 A 
ATOM     15  C   UNL     1      -2.995  -4.924  -0.230  1.00  0.00     0.048 C 
ATOM     16  C   UNL     1      -3.227  -3.684   0.599  1.00  0.00    -0.009 A 
ATOM     17  C   UNL     1      -4.114  -3.775   1.688  1.00  0.00     0.046 A 
ATOM     18  Cl  UNL     1      -5.098  -5.182   1.896  1.00  0.00    -0.084 Cl
ATOM     19  C   UNL     1      -4.290  -2.708   2.567  1.00  0.00     0.021 A 
ATOM     20  C   UNL     1      -2.804  -1.376   1.228  1.00  0.00     0.026 A 
ATOM     21  C   UNL     1      -3.614  -1.516   2.354  1.00  0.00     0.004 A 
ENDBRANCH  11  14
ENDBRANCH   9  10
ENDBRANCH   7   9
BRANCH   7  22
ATOM     22  C   UNL     1      -4.365   1.184  -2.926  1.00  0.00    -0.030 A 
ATOM     23  C   UNL     1      -3.881   2.510  -2.895  1.00  0.00     0.005 A 
ATOM     24  C   UNL     1      -5.238   0.843  -3.977  1.00  0.00     0.005 A 
ATOM     25  C   UNL     1      -4.236   3.438  -3.878  1.00  0.00     0.000 A 
ATOM     26  C   UNL     1      -5.585   1.772  -4.964  1.00  0.00     0.000 A 
ATOM     27  C   UNL     1      -5.084   3.068  -4.915  1.00  0.00     0.000 A 
ENDBRANCH   7  22
ENDBRANCH   5   7
ENDBRANCH   4   5
ENDBRANCH   3   4
ENDBRANCH   2   3
ENDBRANCH   1   2
BRANCH   1  28
ATOM     28  C   UNL     1      -8.094  -0.367  -1.140  1.00  0.00     0.202 C 
BRANCH  28  29
ATOM     29  C   UNL     1      -8.517   0.097   0.262  1.00  0.00     0.261 C 
BRANCH  29  30
ATOM     30  O   UNL     1      -7.982  -0.685   1.346  1.00  0.00    -0.460 OA
BRANCH  30  31
ATOM     31  C   UNL     1      -8.869  -1.540   1.911  1.00  0.00     0.338 C 
ATOM     32  O   UNL     1     -10.035  -1.719   1.565  1.00  0.00    -0.246 OA
BRANCH  31  33
ATOM     33  C   UNL     1      -8.233  -2.359   2.960  1.00  0.00     0.060 A 
ATOM     34  C   UNL     1      -8.406  -3.747   2.901  1.00  0.00     0.016 A 
ATOM     35  C   UNL     1      -7.576  -1.779   4.050  1.00  0.00     0.016 A 
ATOM     36  C   UNL     1      -7.955  -4.555   3.947  1.00  0.00     0.010 A 
ATOM     37  C   UNL     1      -7.128  -2.594   5.102  1.00  0.00     0.010 A 
ATOM     38  C   UNL     1      -7.340  -3.985   5.071  1.00  0.00    -0.014 A 
BRANCH  38  39
ATOM     39  C   UNL     1      -7.109  -4.832   6.275  1.00  0.00     0.031 A 
ATOM     40  C   UNL     1      -8.118  -4.784   7.386  1.00  0.00     0.074 A 
ATOM     41  C   UNL     1      -6.067  -5.681   6.361  1.00  0.00     0.049 A 
ATOM     42  N   UNL     1      -8.164  -5.484   8.490  1.00  0.00    -0.248 NA
ATOM     43  C   UNL     1      -9.205  -3.802   7.246  1.00  0.00     0.031 C 
ATOM     44  C   UNL     1      -5.005  -5.799   5.373  1.00  0.00     0.029 A 
ATOM     45  N   UNL     1      -5.737  -6.621   7.308  1.00  0.00    -0.354 N 
ATOM     46  C   UNL     1      -9.272  -5.015   9.183  1.00  0.00     0.074 A 
ATOM     47  C   UNL     1      -9.848  -3.949   8.393  1.00  0.00     0.031 C 
ATOM     48  C   UNL     1      -4.184  -6.806   5.711  1.00  0.00     0.029 A 
ATOM     49  C   UNL     1      -4.624  -7.367   6.984  1.00  0.00     0.049 A 
ATOM     50  H   UNL     1      -6.248  -6.750   8.139  1.00  0.00     0.167 HD
ATOM     51  C   UNL     1      -9.770  -5.437  10.369  1.00  0.00     0.031 A 
ATOM     52  C   UNL     1      -4.022  -8.380   7.641  1.00  0.00     0.031 A 
ATOM     53  C   UNL     1      -9.187  -6.485  11.161  1.00  0.00     0.049 A 
ATOM     54  C   UNL     1      -4.586  -8.822   8.966  1.00  0.00     0.074 A 
ATOM     55  C   UNL     1      -9.616  -6.984  12.378  1.00  0.00     0.029 A 
ATOM     56  N   UNL     1      -8.046  -7.195  10.817  1.00  0.00    -0.354 N 
ATOM     57  N   UNL     1      -5.647  -8.379   9.597  1.00  0.00    -0.248 NA
ATOM     58  C   UNL     1      -3.868  -9.893   9.672  1.00  0.00     0.031 C 
ATOM     59  C   UNL     1      -8.707  -7.963  12.793  1.00  0.00     0.029 A 
ATOM     60  C   UNL     1      -7.748  -8.119  11.804  1.00  0.00     0.049 A 
ATOM     61  H   UNL     1      -7.525  -7.062   9.992  1.00  0.00     0.167 HD
ATOM     62  C   UNL     1      -5.735  -9.130  10.765  1.00  0.00     0.074 A 
ATOM     63  C   UNL     1      -4.631 -10.068  10.742  1.00  0.00     0.031 C 
ATOM     64  C   UNL     1      -6.646  -9.047  11.766  1.00  0.00     0.031 A 
BRANCH  51  65
ATOM     65  C   UNL     1     -10.989  -4.723  10.887  1.00  0.00    -0.014 A 
ATOM     66  C   UNL     1     -12.240  -4.870  10.261  1.00  0.00     0.010 A 
ATOM     67  C   UNL     1     -10.878  -3.882  12.009  1.00  0.00     0.010 A 
ATOM     68  C   UNL     1     -13.345  -4.146  10.713  1.00  0.00     0.020 A 
ATOM     69  C   UNL     1     -11.989  -3.181  12.484  1.00  0.00     0.020 A 
ATOM     70  C   UNL     1     -13.210  -3.300  11.818  1.00  0.00     0.054 A 
BRANCH  70  71
ATOM     71  S   UNL     1     -14.660  -2.369  12.382  1.00  0.00     0.124 S 
ATOM     72  O   UNL     1     -14.785  -1.350  11.342  1.00  0.00    -0.237 OA
ATOM     73  O   UNL     1     -15.709  -3.385  12.394  1.00  0.00    -0.237 OA
ATOM     74  O   UNL     1     -14.263  -1.872  13.696  1.00  0.00    -0.744 OA
ENDBRANCH  70  71
ENDBRANCH  51  65
BRANCH  52  75
ATOM     75  C   UNL     1      -2.812  -9.042   7.070  1.00  0.00    -0.014 A 
ATOM     76  C   UNL     1      -2.859 -10.381   6.641  1.00  0.00     0.010 A 
ATOM     77  C   UNL     1      -1.599  -8.338   6.959  1.00  0.00     0.010 A 
ATOM     78  C   UNL     1      -1.716 -11.006   6.128  1.00  0.00     0.020 A 
ATOM     79  C   UNL     1      -0.463  -8.948   6.417  1.00  0.00     0.020 A 
ATOM     80  C   UNL     1      -0.525 -10.283   6.016  1.00  0.00     0.054 A 
BRANCH  80  81
ATOM     81  S   UNL     1       0.932 -11.094   5.297  1.00  0.00     0.124 S 
ATOM     82  O   UNL     1       1.344 -11.988   6.373  1.00  0.00    -0.237 OA
ATOM     83  O   UNL     1       0.379 -11.742   4.110  1.00  0.00    -0.237 OA
ATOM     84  O   UNL     1       1.840  -9.982   5.023  1.00  0.00    -0.744 OA
ENDBRANCH  80  81
ENDBRANCH  52  75
BRANCH  64  85
ATOM     85  C   UNL     1      -6.518 -10.025  12.903  1.00  0.00    -0.014 A 
ATOM     86  C   UNL     1      -5.491  -9.913  13.857  1.00  0.00     0.010 A 
ATOM     87  C   UNL     1      -7.481 -11.040  13.048  1.00  0.00     0.010 A 
ATOM     88  C   UNL     1      -5.413 -10.819  14.919  1.00  0.00     0.020 A 
ATOM     89  C   UNL     1      -7.423 -11.930  14.123  1.00  0.00     0.020 A 
ATOM     90  C   UNL     1      -6.380 -11.822  15.045  1.00  0.00     0.054 A 
BRANCH  90  91
ATOM     91  S   UNL     1      -6.282 -12.959  16.455  1.00  0.00     0.124 S 
ATOM     92  O   UNL     1      -5.158 -13.812  16.079  1.00  0.00    -0.237 OA
ATOM     93  O   UNL     1      -6.039 -12.057  17.578  1.00  0.00    -0.237 OA
ATOM     94  O   UNL     1      -7.588 -13.615  16.462  1.00  0.00    -0.744 OA
ENDBRANCH  90  91
ENDBRANCH  64  85
ENDBRANCH  38  39
ENDBRANCH  31  33
ENDBRANCH  30  31
ENDBRANCH  29  30
ENDBRANCH  28  29
ENDBRANCH   1  28
TORSDOF 21
