REMARK SMILES O=C(CSc1ccc(NC(=O)c2cccc3ccccc23)cc1)OCCOCCOC(=O)c1ccc(-c2c3nc(c(-c4ccc(S(=O)(=O)[O-])cc4)c4ccc([nH]4)c(-c4ccc(S(=O)(=O)[O-])cc4)c4nc(c(-c5ccc(S(=O)(=O)[O-])cc5)c5ccc2[nH]5)C=C4)C=C3)cc1
REMARK SMILES IDX 26 1 25 2 24 3 2 4 1 5 3 6 4 7 5 8 6 9 23 10 7 11 22 12 8 13
REMARK SMILES IDX 9 14 10 15 11 17 12 18 13 19 21 20 14 21 16 22 20 23 15 24
REMARK SMILES IDX 17 25 19 26 18 27 27 28 28 29 29 30 30 31 31 32 32 33 33 34
REMARK SMILES IDX 34 35 92 36 35 37 91 38 36 39 37 40 38 41 85 42 39 43 90 44
REMARK SMILES IDX 84 45 86 46 40 47 89 48 83 49 82 50 41 52 71 53 52 54 70 55
REMARK SMILES IDX 53 56 56 57 69 58 87 59 54 60 55 61 68 63 88 64 57 65 42 66
REMARK SMILES IDX 43 67 51 68 44 69 50 70 45 71 46 72 47 73 48 74 49 75 72 76
REMARK SMILES IDX 73 77 81 78 74 79 80 80 75 81 76 82 77 83 78 84 79 85 58 86
REMARK SMILES IDX 59 87 67 88 60 89 66 90 61 91 62 92 63 93 64 94 65 95
REMARK H PARENT 9 16 86 51 56 62
REMARK Flexibility Score: inf
ROOT
ATOM      1  C   UNL     1       4.720  -0.380   1.097  1.00  0.00     0.202 C 
ENDROOT
BRANCH   1   2
ATOM      2  C   UNL     1       4.389   0.550  -0.059  1.00  0.00     0.261 C 
BRANCH   2   3
ATOM      3  O   UNL     1       2.969   0.656  -0.269  1.00  0.00    -0.463 OA
BRANCH   3   4
ATOM      4  C   UNL     1       2.221  -0.215  -0.987  1.00  0.00     0.316 C 
ATOM      5  O   UNL     1       0.992  -0.144  -0.924  1.00  0.00    -0.251 OA
BRANCH   4   6
ATOM      6  C   UNL     1       2.881  -1.288  -1.829  1.00  0.00     0.197 C 
BRANCH   6   7
ATOM      7  S   UNL     1       3.925  -0.672  -3.169  1.00  0.00    -0.114 SA
BRANCH   7   8
ATOM      8  C   UNL     1       2.841   0.604  -3.732  1.00  0.00     0.008 A 
ATOM      9  C   UNL     1       2.891   1.883  -3.175  1.00  0.00     0.017 A 
ATOM     10  C   UNL     1       1.903   0.303  -4.713  1.00  0.00     0.017 A 
ATOM     11  C   UNL     1       2.073   2.889  -3.668  1.00  0.00     0.027 A 
ATOM     12  C   UNL     1       1.127   1.322  -5.243  1.00  0.00     0.027 A 
ATOM     13  C   UNL     1       1.317   2.636  -4.803  1.00  0.00     0.041 A 
BRANCH  13  14
ATOM     14  N   UNL     1       0.885   3.630  -5.679  1.00  0.00    -0.322 N 
ATOM     15  C   UNL     1       1.380   4.881  -5.957  1.00  0.00     0.256 C 
ATOM     16  H   UNL     1       0.078   3.393  -6.191  1.00  0.00     0.170 HD
ATOM     17  O   UNL     1       0.875   5.484  -6.910  1.00  0.00    -0.269 OA
BRANCH  15  18
ATOM     18  C   UNL     1       2.438   5.587  -5.190  1.00  0.00     0.048 A 
ATOM     19  C   UNL     1       1.995   6.823  -4.688  1.00  0.00     0.014 A 
ATOM     20  C   UNL     1       3.802   5.179  -5.021  1.00  0.00    -0.006 A 
ATOM     21  C   UNL     1       2.873   7.688  -4.054  1.00  0.00     0.001 A 
ATOM     22  C   UNL     1       4.675   6.084  -4.357  1.00  0.00    -0.018 A 
ATOM     23  C   UNL     1       4.369   3.937  -5.418  1.00  0.00     0.009 A 
ATOM     24  C   UNL     1       4.208   7.328  -3.913  1.00  0.00     0.009 A 
ATOM     25  C   UNL     1       6.015   5.742  -4.109  1.00  0.00     0.009 A 
ATOM     26  C   UNL     1       5.675   3.569  -5.064  1.00  0.00     0.001 A 
ATOM     27  C   UNL     1       6.502   4.478  -4.423  1.00  0.00     0.001 A 
ENDBRANCH  15  18
ENDBRANCH  13  14
ENDBRANCH   7   8
ENDBRANCH   6   7
ENDBRANCH   4   6
ENDBRANCH   3   4
ENDBRANCH   2   3
ENDBRANCH   1   2
BRANCH   1  28
ATOM     28  O   UNL     1       4.232  -1.713   0.941  1.00  0.00    -0.374 OA
BRANCH  28  29
ATOM     29  C   UNL     1       2.929  -1.959   1.489  1.00  0.00     0.202 C 
BRANCH  29  30
ATOM     30  C   UNL     1       2.918  -2.406   2.948  1.00  0.00     0.261 C 
BRANCH  30  31
ATOM     31  O   UNL     1       3.309  -1.324   3.802  1.00  0.00    -0.460 OA
BRANCH  31  32
ATOM     32  C   UNL     1       4.632  -1.300   4.090  1.00  0.00     0.338 C 
ATOM     33  O   UNL     1       5.457  -2.154   3.823  1.00  0.00    -0.246 OA
BRANCH  32  34
ATOM     34  C   UNL     1       4.993   0.034   4.610  1.00  0.00     0.060 A 
ATOM     35  C   UNL     1       6.240   0.549   4.233  1.00  0.00     0.016 A 
ATOM     36  C   UNL     1       4.157   0.744   5.477  1.00  0.00     0.016 A 
ATOM     37  C   UNL     1       6.713   1.711   4.824  1.00  0.00     0.010 A 
ATOM     38  C   UNL     1       4.632   1.913   6.071  1.00  0.00     0.010 A 
ATOM     39  C   UNL     1       5.942   2.347   5.803  1.00  0.00    -0.014 A 
BRANCH  39  40
ATOM     40  C   UNL     1       6.617   3.279   6.731  1.00  0.00     0.031 A 
ATOM     41  C   UNL     1       7.048   2.746   8.073  1.00  0.00     0.074 A 
ATOM     42  C   UNL     1       6.907   4.535   6.357  1.00  0.00     0.049 A 
ATOM     43  N   UNL     1       7.687   3.351   9.039  1.00  0.00    -0.248 NA
ATOM     44  C   UNL     1       6.712   1.341   8.366  1.00  0.00     0.031 C 
ATOM     45  C   UNL     1       6.580   5.130   5.061  1.00  0.00     0.029 A 
ATOM     46  N   UNL     1       7.555   5.533   7.035  1.00  0.00    -0.354 N 
ATOM     47  C   UNL     1       7.811   2.409  10.055  1.00  0.00     0.074 A 
ATOM     48  C   UNL     1       7.153   1.205   9.606  1.00  0.00     0.031 C 
ATOM     49  C   UNL     1       7.040   6.392   5.035  1.00  0.00     0.029 A 
ATOM     50  C   UNL     1       7.663   6.700   6.320  1.00  0.00     0.049 A 
ATOM     51  H   UNL     1       7.910   5.423   7.946  1.00  0.00     0.167 HD
ATOM     52  C   UNL     1       8.427   2.535  11.254  1.00  0.00     0.031 A 
ATOM     53  C   UNL     1       8.201   7.883   6.674  1.00  0.00     0.031 A 
ATOM     54  C   UNL     1       9.077   3.741  11.688  1.00  0.00     0.049 A 
ATOM     55  C   UNL     1       8.836   8.015   8.034  1.00  0.00     0.074 A 
ATOM     56  C   UNL     1       9.749   3.979  12.873  1.00  0.00     0.029 A 
ATOM     57  N   UNL     1       9.132   4.916  10.951  1.00  0.00    -0.354 N 
ATOM     58  N   UNL     1       8.963   7.112   8.978  1.00  0.00    -0.248 NA
ATOM     59  C   UNL     1       9.417   9.322   8.366  1.00  0.00     0.031 C 
ATOM     60  C   UNL     1      10.156   5.317  12.879  1.00  0.00     0.029 A 
ATOM     61  C   UNL     1       9.805   5.890  11.666  1.00  0.00     0.049 A 
ATOM     62  H   UNL     1       8.748   5.038  10.053  1.00  0.00     0.167 HD
ATOM     63  C   UNL     1       9.677   7.729  10.000  1.00  0.00     0.074 A 
ATOM     64  C   UNL     1       9.960   9.078   9.551  1.00  0.00     0.031 C 
ATOM     65  C   UNL     1      10.073   7.227  11.197  1.00  0.00     0.031 A 
BRANCH  52  66
ATOM     66  C   UNL     1       8.383   1.355  12.190  1.00  0.00    -0.014 A 
ATOM     67  C   UNL     1       9.090   0.169  11.917  1.00  0.00     0.010 A 
ATOM     68  C   UNL     1       7.636   1.445  13.378  1.00  0.00     0.010 A 
ATOM     69  C   UNL     1       9.017  -0.917  12.795  1.00  0.00     0.020 A 
ATOM     70  C   UNL     1       7.586   0.373  14.274  1.00  0.00     0.020 A 
ATOM     71  C   UNL     1       8.265  -0.807  13.968  1.00  0.00     0.054 A 
BRANCH  71  72
ATOM     72  S   UNL     1       8.208  -2.222  15.102  1.00  0.00     0.124 S 
ATOM     73  O   UNL     1       7.381  -3.170  14.360  1.00  0.00    -0.237 OA
ATOM     74  O   UNL     1       9.617  -2.584  15.231  1.00  0.00    -0.237 OA
ATOM     75  O   UNL     1       7.595  -1.675  16.310  1.00  0.00    -0.744 OA
ENDBRANCH  71  72
ENDBRANCH  52  66
BRANCH  53  76
ATOM     76  C   UNL     1       8.168   9.028   5.724  1.00  0.00    -0.014 A 
ATOM     77  C   UNL     1       9.353   9.515   5.145  1.00  0.00     0.010 A 
ATOM     78  C   UNL     1       6.944   9.635   5.388  1.00  0.00     0.010 A 
ATOM     79  C   UNL     1       9.316  10.601   4.264  1.00  0.00     0.020 A 
ATOM     80  C   UNL     1       6.899  10.699   4.484  1.00  0.00     0.020 A 
ATOM     81  C   UNL     1       8.088  11.183   3.937  1.00  0.00     0.054 A 
BRANCH  81  82
ATOM     82  S   UNL     1       8.061  12.558   2.753  1.00  0.00     0.124 S 
ATOM     83  O   UNL     1       8.646  13.643   3.534  1.00  0.00    -0.237 OA
ATOM     84  O   UNL     1       8.885  12.047   1.661  1.00  0.00    -0.237 OA
ATOM     85  O   UNL     1       6.643  12.707   2.435  1.00  0.00    -0.744 OA
ENDBRANCH  81  82
ENDBRANCH  53  76
BRANCH  65  86
ATOM     86  C   UNL     1      10.908   8.120  12.078  1.00  0.00    -0.014 A 
ATOM     87  C   UNL     1      10.366   9.256  12.704  1.00  0.00     0.010 A 
ATOM     88  C   UNL     1      12.257   7.790  12.304  1.00  0.00     0.010 A 
ATOM     89  C   UNL     1      11.174  10.076  13.496  1.00  0.00     0.020 A 
ATOM     90  C   UNL     1      13.058   8.587  13.123  1.00  0.00     0.020 A 
ATOM     91  C   UNL     1      12.517   9.739  13.696  1.00  0.00     0.054 A 
BRANCH  91  92
ATOM     92  S   UNL     1      13.543  10.813  14.735  1.00  0.00     0.124 S 
ATOM     93  O   UNL     1      13.739  11.973  13.869  1.00  0.00    -0.237 OA
ATOM     94  O   UNL     1      12.694  11.036  15.902  1.00  0.00    -0.237 OA
ATOM     95  O   UNL     1      14.740  10.013  14.986  1.00  0.00    -0.744 OA
ENDBRANCH  91  92
ENDBRANCH  65  86
ENDBRANCH  39  40
ENDBRANCH  32  34
ENDBRANCH  31  32
ENDBRANCH  30  31
ENDBRANCH  29  30
ENDBRANCH  28  29
ENDBRANCH   1  28
TORSDOF 21
