REMARK SMILES COc1ccc(C(=O)N[C@](C)(C(=O)OCCOCCOC(=O)c2ccc(-c3c4nc(c(-c5ccc(S(=O)(=O)[O-])cc5)c5ccc([nH]5)c(-c5ccc(S(=O)(=O)[O-])cc5)c5nc(c(-c6ccc(S(=O)(=O)[O-])cc6)c6ccc3[nH]6)C=C5)C=C4)cc2)C(F)(F)F)cc1O
REMARK SMILES IDX 17 1 16 2 15 3 14 4 12 5 13 6 10 7 11 8 9 9 7 10 8 11 6 13
REMARK SMILES IDX 3 14 4 15 88 16 5 17 87 18 2 19 1 20 89 21 83 23 84 24 85 25
REMARK SMILES IDX 86 26 18 27 19 28 20 29 21 30 22 31 23 32 24 33 82 34 25 35
REMARK SMILES IDX 81 36 26 37 27 38 28 39 75 40 29 41 80 42 74 43 76 44 30 45
REMARK SMILES IDX 79 46 73 47 72 48 31 50 61 51 42 52 60 53 43 54 46 55 59 56
REMARK SMILES IDX 77 57 44 58 45 59 58 61 78 62 47 63 32 64 33 65 41 66 34 67
REMARK SMILES IDX 40 68 35 69 36 70 37 71 38 72 39 73 62 74 63 75 71 76 64 77
REMARK SMILES IDX 70 78 65 79 66 80 67 81 68 82 69 83 48 84 49 85 57 86 50 87
REMARK SMILES IDX 56 88 51 89 52 90 53 91 54 92 55 93
REMARK H PARENT 9 12 89 22 76 49 46 60
REMARK Flexibility Score: inf
ROOT
ATOM      1  O   UNL     1       7.490  -4.650   1.689  1.00  0.00    -0.374 OA
ENDROOT
BRANCH   1   2
ATOM      2  C   UNL     1       7.611  -5.572   2.773  1.00  0.00     0.202 C 
BRANCH   2   3
ATOM      3  C   UNL     1       6.523  -5.507   3.849  1.00  0.00     0.261 C 
BRANCH   3   4
ATOM      4  O   UNL     1       5.239  -5.953   3.360  1.00  0.00    -0.461 OA
BRANCH   4   5
ATOM      5  C   UNL     1       4.192  -5.109   3.577  1.00  0.00     0.341 C 
ATOM      6  O   UNL     1       4.296  -4.013   4.119  1.00  0.00    -0.249 OA
BRANCH   5   7
ATOM      7  C   UNL     1       2.856  -5.650   3.063  1.00  0.00     0.231 C 
ATOM      8  C   UNL     1       2.821  -7.190   2.975  1.00  0.00     0.058 C 
BRANCH   7   9
ATOM      9  N   UNL     1       1.868  -5.303   4.155  1.00  0.00    -0.329 N 
ATOM     10  C   UNL     1       1.006  -4.313   4.528  1.00  0.00     0.252 C 
ATOM     11  O   UNL     1       0.566  -4.387   5.678  1.00  0.00    -0.269 OA
ATOM     12  H   UNL     1       1.837  -6.032   4.816  1.00  0.00     0.165 HD
BRANCH  10  13
ATOM     13  C   UNL     1       0.447  -3.265   3.651  1.00  0.00     0.043 A 
ATOM     14  C   UNL     1      -0.843  -1.374   1.991  1.00  0.00     0.160 A 
ATOM     15  C   UNL     1      -1.547  -2.028   3.002  1.00  0.00     0.051 A 
ATOM     16  C   UNL     1       0.525  -1.629   1.874  1.00  0.00     0.158 A 
ATOM     17  C   UNL     1      -0.917  -2.980   3.807  1.00  0.00     0.018 A 
ATOM     18  C   UNL     1       1.180  -2.509   2.748  1.00  0.00     0.064 A 
BRANCH  14  19
ATOM     19  O   UNL     1      -1.619  -0.533   1.244  1.00  0.00    -0.493 OA
ATOM     20  C   UNL     1      -1.102  -0.077   0.004  1.00  0.00     0.278 C 
ENDBRANCH  14  19
BRANCH  16  21
ATOM     21  O   UNL     1       1.285  -1.052   0.897  1.00  0.00    -0.504 OA
ATOM     22  H   UNL     1       0.893  -0.457   0.288  1.00  0.00     0.293 HD
ENDBRANCH  16  21
ENDBRANCH  10  13
ENDBRANCH   7   9
BRANCH   7  23
ATOM     23  C   UNL     1       2.696  -5.104   1.637  1.00  0.00     0.422 C 
ATOM     24  F   UNL     1       3.350  -5.874   0.728  1.00  0.00    -0.168 F 
ATOM     25  F   UNL     1       1.401  -5.083   1.245  1.00  0.00    -0.168 F 
ATOM     26  F   UNL     1       3.191  -3.861   1.455  1.00  0.00    -0.168 F 
ENDBRANCH   7  23
ENDBRANCH   5   7
ENDBRANCH   4   5
ENDBRANCH   3   4
ENDBRANCH   2   3
ENDBRANCH   1   2
BRANCH   1  27
ATOM     27  C   UNL     1       6.399  -4.829   0.790  1.00  0.00     0.202 C 
BRANCH  27  28
ATOM     28  C   UNL     1       6.502  -5.997  -0.198  1.00  0.00     0.261 C 
BRANCH  28  29
ATOM     29  O   UNL     1       6.666  -7.265   0.462  1.00  0.00    -0.460 OA
BRANCH  29  30
ATOM     30  C   UNL     1       7.786  -7.934   0.106  1.00  0.00     0.338 C 
ATOM     31  O   UNL     1       8.573  -7.638  -0.793  1.00  0.00    -0.246 OA
BRANCH  30  32
ATOM     32  C   UNL     1       8.077  -9.012   1.062  1.00  0.00     0.060 A 
ATOM     33  C   UNL     1       9.262  -8.912   1.800  1.00  0.00     0.016 A 
ATOM     34  C   UNL     1       7.275 -10.153   1.153  1.00  0.00     0.016 A 
ATOM     35  C   UNL     1       9.678  -9.975   2.594  1.00  0.00     0.010 A 
ATOM     36  C   UNL     1       7.702 -11.226   1.946  1.00  0.00     0.010 A 
ATOM     37  C   UNL     1       8.924 -11.156   2.638  1.00  0.00    -0.014 A 
BRANCH  37  38
ATOM     38  C   UNL     1       9.513 -12.348   3.298  1.00  0.00     0.031 A 
ATOM     39  C   UNL     1      10.229 -13.373   2.457  1.00  0.00     0.074 A 
ATOM     40  C   UNL     1       9.493 -12.465   4.638  1.00  0.00     0.049 A 
ATOM     41  N   UNL     1      10.888 -14.438   2.836  1.00  0.00    -0.248 NA
ATOM     42  C   UNL     1      10.210 -13.164   1.000  1.00  0.00     0.031 C 
ATOM     43  C   UNL     1       8.867 -11.517   5.560  1.00  0.00     0.029 A 
ATOM     44  N   UNL     1      10.030 -13.426   5.457  1.00  0.00    -0.354 N 
ATOM     45  C   UNL     1      11.372 -15.019   1.669  1.00  0.00     0.074 A 
ATOM     46  C   UNL     1      10.900 -14.210   0.566  1.00  0.00     0.031 C 
ATOM     47  C   UNL     1       9.062 -11.941   6.821  1.00  0.00     0.029 A 
ATOM     48  C   UNL     1       9.808 -13.197   6.795  1.00  0.00     0.049 A 
ATOM     49  H   UNL     1      10.527 -14.206   5.120  1.00  0.00     0.167 HD
ATOM     50  C   UNL     1      12.149 -16.120   1.528  1.00  0.00     0.031 A 
ATOM     51  C   UNL     1      10.162 -13.923   7.874  1.00  0.00     0.031 A 
ATOM     52  C   UNL     1      12.603 -16.935   2.623  1.00  0.00     0.049 A 
ATOM     53  C   UNL     1      10.966 -15.182   7.683  1.00  0.00     0.074 A 
ATOM     54  C   UNL     1      13.389 -18.074   2.582  1.00  0.00     0.029 A 
ATOM     55  N   UNL     1      12.309 -16.701   3.958  1.00  0.00    -0.354 N 
ATOM     56  N   UNL     1      11.429 -15.705   6.572  1.00  0.00    -0.248 NA
ATOM     57  C   UNL     1      11.306 -15.941   8.895  1.00  0.00     0.031 C 
ATOM     58  C   UNL     1      13.532 -18.555   3.888  1.00  0.00     0.029 A 
ATOM     59  C   UNL     1      12.879 -17.686   4.747  1.00  0.00     0.049 A 
ATOM     60  H   UNL     1      11.775 -15.946   4.295  1.00  0.00     0.167 HD
ATOM     61  C   UNL     1      12.131 -16.843   6.955  1.00  0.00     0.074 A 
ATOM     62  C   UNL     1      12.052 -16.918   8.399  1.00  0.00     0.031 C 
ATOM     63  C   UNL     1      12.781 -17.749   6.182  1.00  0.00     0.031 A 
BRANCH  50  64
ATOM     64  C   UNL     1      12.544 -16.521   0.132  1.00  0.00    -0.014 A 
ATOM     65  C   UNL     1      13.517 -15.796  -0.581  1.00  0.00     0.010 A 
ATOM     66  C   UNL     1      11.981 -17.670  -0.452  1.00  0.00     0.010 A 
ATOM     67  C   UNL     1      13.903 -16.202  -1.862  1.00  0.00     0.020 A 
ATOM     68  C   UNL     1      12.380 -18.091  -1.724  1.00  0.00     0.020 A 
ATOM     69  C   UNL     1      13.332 -17.347  -2.425  1.00  0.00     0.054 A 
BRANCH  69  70
ATOM     70  S   UNL     1      13.882 -17.875  -4.072  1.00  0.00     0.124 S 
ATOM     71  O   UNL     1      13.256 -16.875  -4.933  1.00  0.00    -0.237 OA
ATOM     72  O   UNL     1      15.336 -17.791  -3.966  1.00  0.00    -0.237 OA
ATOM     73  O   UNL     1      13.346 -19.228  -4.199  1.00  0.00    -0.744 OA
ENDBRANCH  69  70
ENDBRANCH  50  64
BRANCH  51  74
ATOM     74  C   UNL     1       9.739 -13.495   9.236  1.00  0.00    -0.014 A 
ATOM     75  C   UNL     1      10.680 -13.049  10.181  1.00  0.00     0.010 A 
ATOM     76  C   UNL     1       8.382 -13.563   9.602  1.00  0.00     0.010 A 
ATOM     77  C   UNL     1      10.276 -12.709  11.476  1.00  0.00     0.020 A 
ATOM     78  C   UNL     1       7.971 -13.197  10.886  1.00  0.00     0.020 A 
ATOM     79  C   UNL     1       8.923 -12.790  11.821  1.00  0.00     0.054 A 
BRANCH  79  80
ATOM     80  S   UNL     1       8.412 -12.320  13.497  1.00  0.00     0.124 S 
ATOM     81  O   UNL     1       8.817 -13.486  14.275  1.00  0.00    -0.237 OA
ATOM     82  O   UNL     1       9.181 -11.101  13.734  1.00  0.00    -0.237 OA
ATOM     83  O   UNL     1       6.970 -12.121  13.368  1.00  0.00    -0.744 OA
ENDBRANCH  79  80
ENDBRANCH  51  74
BRANCH  63  84
ATOM     84  C   UNL     1      13.472 -18.884   6.891  1.00  0.00    -0.014 A 
ATOM     85  C   UNL     1      12.737 -19.922   7.489  1.00  0.00     0.010 A 
ATOM     86  C   UNL     1      14.877 -18.920   6.942  1.00  0.00     0.010 A 
ATOM     87  C   UNL     1      13.393 -20.950   8.170  1.00  0.00     0.020 A 
ATOM     88  C   UNL     1      15.538 -19.961   7.599  1.00  0.00     0.020 A 
ATOM     89  C   UNL     1      14.790 -20.959   8.227  1.00  0.00     0.054 A 
BRANCH  89  90
ATOM     90  S   UNL     1      15.622 -22.308   9.110  1.00  0.00     0.124 S 
ATOM     91  O   UNL     1      15.426 -21.923  10.505  1.00  0.00    -0.237 OA
ATOM     92  O   UNL     1      14.878 -23.487   8.673  1.00  0.00    -0.237 OA
ATOM     93  O   UNL     1      17.000 -22.235   8.630  1.00  0.00    -0.744 OA
ENDBRANCH  89  90
ENDBRANCH  63  84
ENDBRANCH  37  38
ENDBRANCH  30  32
ENDBRANCH  29  30
ENDBRANCH  28  29
ENDBRANCH  27  28
ENDBRANCH   1  27
TORSDOF 22
