REMARK SMILES O=C(C[C@H]1C[C@H]2CC[C@@H](C1)[N@H+]2C[C@@H]1CNC(=O)O1)OCCOCCOC(=O)c1ccc(-c2c3nc(c(-c4ccc(S(=O)(=O)[O-])cc4)c4ccc([nH]4)c(-c4ccc(S(=O)(=O)[O-])cc4)c4nc(c(-c5ccc(S(=O)(=O)[O-])cc5)c5ccc2[nH]5)C=C4)C=C3)cc1
REMARK SMILES IDX 22 1 21 2 20 3 19 4 2 5 1 6 3 7 4 8 5 9 10 10 6 11 9 12 7 13
REMARK SMILES IDX 11 14 8 15 12 17 13 18 14 19 18 20 15 21 16 22 17 24 23 25
REMARK SMILES IDX 24 26 25 27 26 28 27 29 28 30 29 31 87 32 30 33 86 34 31 35
REMARK SMILES IDX 32 36 33 37 80 38 34 39 85 40 79 41 81 42 35 43 84 44 78 45
REMARK SMILES IDX 77 46 36 48 66 49 47 50 65 51 48 52 51 53 64 54 82 55 49 56
REMARK SMILES IDX 50 57 63 59 83 60 52 61 37 62 38 63 46 64 39 65 45 66 40 67
REMARK SMILES IDX 41 68 42 69 43 70 44 71 67 72 68 73 76 74 69 75 75 76 70 77
REMARK SMILES IDX 71 78 72 79 73 80 74 81 53 82 54 83 62 84 55 85 61 86 56 87
REMARK SMILES IDX 57 88 58 89 59 90 60 91
REMARK H PARENT 11 16 15 23 81 47 51 58
REMARK Flexibility Score: inf
ROOT
ATOM      1  O   UNL     1       3.072   1.008   1.731  1.00  0.00    -0.374 OA
ENDROOT
BRANCH   1   2
ATOM      2  C   UNL     1       3.027   2.169   0.893  1.00  0.00     0.202 C 
BRANCH   2   3
ATOM      3  C   UNL     1       2.300   1.954  -0.448  1.00  0.00     0.261 C 
BRANCH   3   4
ATOM      4  O   UNL     1       2.533   0.646  -0.986  1.00  0.00    -0.463 OA
BRANCH   4   5
ATOM      5  C   UNL     1       1.892  -0.350  -0.327  1.00  0.00     0.306 C 
ATOM      6  O   UNL     1       0.742  -0.262   0.093  1.00  0.00    -0.252 OA
BRANCH   5   7
ATOM      7  C   UNL     1       2.811  -1.510   0.017  1.00  0.00     0.126 C 
BRANCH   7   8
ATOM      8  C   UNL     1       4.139  -1.635  -0.753  1.00  0.00     0.012 C 
ATOM      9  C   UNL     1       5.002  -0.354  -0.812  1.00  0.00     0.069 C 
ATOM     10  C   UNL     1       4.891  -2.914  -0.310  1.00  0.00     0.069 C 
ATOM     11  C   UNL     1       6.499  -0.520  -0.617  1.00  0.00     0.184 C 
ATOM     12  C   UNL     1       6.419  -2.792  -0.228  1.00  0.00     0.184 C 
ATOM     13  C   UNL     1       6.785  -0.660   0.886  1.00  0.00     0.071 C 
ATOM     14  N   UNL     1       6.960  -1.790  -1.122  1.00  0.00    -0.327 N 
ATOM     15  C   UNL     1       6.810  -2.168   1.127  1.00  0.00     0.071 C 
ATOM     16  H   UNL     1       7.978  -1.848  -1.130  1.00  0.00     0.348 HD
BRANCH  14  17
ATOM     17  C   UNL     1       7.264  -2.023  -2.520  1.00  0.00     0.310 C 
BRANCH  17  18
ATOM     18  C   UNL     1       6.298  -2.454  -3.651  1.00  0.00     0.252 C 
ATOM     19  C   UNL     1       5.346  -1.423  -4.221  1.00  0.00     0.170 C 
ATOM     20  O   UNL     1       5.495  -3.597  -3.318  1.00  0.00    -0.438 OA
ATOM     21  N   UNL     1       4.104  -2.113  -4.248  1.00  0.00    -0.318 N 
ATOM     22  C   UNL     1       4.214  -3.367  -3.727  1.00  0.00     0.407 C 
ATOM     23  H   UNL     1       3.267  -1.732  -4.600  1.00  0.00     0.167 HD
ATOM     24  O   UNL     1       3.292  -4.156  -3.599  1.00  0.00    -0.225 OA
ENDBRANCH  17  18
ENDBRANCH  14  17
ENDBRANCH   7   8
ENDBRANCH   5   7
ENDBRANCH   4   5
ENDBRANCH   3   4
ENDBRANCH   2   3
ENDBRANCH   1   2
BRANCH   1  25
ATOM     25  C   UNL     1       2.017   0.907   2.688  1.00  0.00     0.202 C 
BRANCH  25  26
ATOM     26  C   UNL     1       2.481   1.345   4.080  1.00  0.00     0.261 C 
BRANCH  26  27
ATOM     27  O   UNL     1       3.121   2.622   3.993  1.00  0.00    -0.460 OA
BRANCH  27  28
ATOM     28  C   UNL     1       4.470   2.571   3.828  1.00  0.00     0.338 C 
ATOM     29  O   UNL     1       5.199   1.618   4.040  1.00  0.00    -0.246 OA
BRANCH  28  30
ATOM     30  C   UNL     1       4.919   3.825   3.174  1.00  0.00     0.060 A 
ATOM     31  C   UNL     1       6.133   3.812   2.471  1.00  0.00     0.016 A 
ATOM     32  C   UNL     1       4.137   4.986   3.202  1.00  0.00     0.016 A 
ATOM     33  C   UNL     1       6.594   4.973   1.847  1.00  0.00     0.010 A 
ATOM     34  C   UNL     1       4.588   6.139   2.567  1.00  0.00     0.010 A 
ATOM     35  C   UNL     1       5.839   6.149   1.929  1.00  0.00    -0.014 A 
BRANCH  35  36
ATOM     36  C   UNL     1       6.432   7.458   1.584  1.00  0.00     0.031 A 
ATOM     37  C   UNL     1       6.975   8.289   2.715  1.00  0.00     0.074 A 
ATOM     38  C   UNL     1       6.432   7.923   0.323  1.00  0.00     0.049 A 
ATOM     39  N   UNL     1       7.415   9.518   2.706  1.00  0.00    -0.248 NA
ATOM     40  C   UNL     1       7.002   7.646   4.042  1.00  0.00     0.031 C 
ATOM     41  C   UNL     1       5.954   7.196  -0.852  1.00  0.00     0.029 A 
ATOM     42  N   UNL     1       6.831   9.139  -0.170  1.00  0.00    -0.354 N 
ATOM     43  C   UNL     1       7.752   9.802   4.024  1.00  0.00     0.074 A 
ATOM     44  C   UNL     1       7.436   8.632   4.811  1.00  0.00     0.031 C 
ATOM     45  C   UNL     1       6.074   7.989  -1.932  1.00  0.00     0.029 A 
ATOM     46  C   UNL     1       6.603   9.288  -1.517  1.00  0.00     0.049 A 
ATOM     47  H   UNL     1       7.242   9.838   0.388  1.00  0.00     0.167 HD
ATOM     48  C   UNL     1       8.282  10.937   4.535  1.00  0.00     0.031 A 
ATOM     49  C   UNL     1       6.780  10.361  -2.313  1.00  0.00     0.031 A 
ATOM     50  C   UNL     1       8.576  12.102   3.748  1.00  0.00     0.049 A 
ATOM     51  C   UNL     1       7.323  11.635  -1.714  1.00  0.00     0.074 A 
ATOM     52  C   UNL     1       9.128  13.301   4.157  1.00  0.00     0.029 A 
ATOM     53  N   UNL     1       8.334  12.212   2.387  1.00  0.00    -0.354 N 
ATOM     54  N   UNL     1       7.665  11.882  -0.471  1.00  0.00    -0.248 NA
ATOM     55  C   UNL     1       7.510  12.771  -2.628  1.00  0.00     0.031 C 
ATOM     56  C   UNL     1       9.174  14.156   3.051  1.00  0.00     0.029 A 
ATOM     57  C   UNL     1       8.707  13.467   1.942  1.00  0.00     0.049 A 
ATOM     58  H   UNL     1       7.954  11.502   1.821  1.00  0.00     0.167 HD
ATOM     59  C   UNL     1       8.136  13.191  -0.460  1.00  0.00     0.074 A 
ATOM     60  C   UNL     1       8.043  13.679  -1.822  1.00  0.00     0.031 C 
ATOM     61  C   UNL     1       8.608  13.925   0.579  1.00  0.00     0.031 A 
BRANCH  48  62
ATOM     62  C   UNL     1       8.538  10.971   6.017  1.00  0.00    -0.014 A 
ATOM     63  C   UNL     1       9.558  10.195   6.598  1.00  0.00     0.010 A 
ATOM     64  C   UNL     1       7.748  11.792   6.842  1.00  0.00     0.010 A 
ATOM     65  C   UNL     1       9.753  10.204   7.981  1.00  0.00     0.020 A 
ATOM     66  C   UNL     1       7.960  11.826   8.223  1.00  0.00     0.020 A 
ATOM     67  C   UNL     1       8.949  11.016   8.785  1.00  0.00     0.054 A 
BRANCH  67  68
ATOM     68  S   UNL     1       9.231  11.017  10.577  1.00  0.00     0.124 S 
ATOM     69  O   UNL     1       8.685   9.719  10.967  1.00  0.00    -0.237 OA
ATOM     70  O   UNL     1      10.683  11.142  10.672  1.00  0.00    -0.237 OA
ATOM     71  O   UNL     1       8.476  12.176  11.046  1.00  0.00    -0.744 OA
ENDBRANCH  67  68
ENDBRANCH  48  62
BRANCH  49  72
ATOM     72  C   UNL     1       6.435  10.283  -3.759  1.00  0.00    -0.014 A 
ATOM     73  C   UNL     1       7.447  10.291  -4.736  1.00  0.00     0.010 A 
ATOM     74  C   UNL     1       5.092  10.195  -4.169  1.00  0.00     0.010 A 
ATOM     75  C   UNL     1       7.122  10.225  -6.094  1.00  0.00     0.020 A 
ATOM     76  C   UNL     1       4.765  10.103  -5.526  1.00  0.00     0.020 A 
ATOM     77  C   UNL     1       5.783  10.127  -6.481  1.00  0.00     0.054 A 
BRANCH  77  78
ATOM     78  S   UNL     1       5.390   9.978  -8.246  1.00  0.00     0.124 S 
ATOM     79  O   UNL     1       5.647  11.330  -8.730  1.00  0.00    -0.237 OA
ATOM     80  O   UNL     1       6.333   8.954  -8.692  1.00  0.00    -0.237 OA
ATOM     81  O   UNL     1       3.988   9.565  -8.250  1.00  0.00    -0.744 OA
ENDBRANCH  77  78
ENDBRANCH  49  72
BRANCH  61  82
ATOM     82  C   UNL     1       9.101  15.316   0.282  1.00  0.00    -0.014 A 
ATOM     83  C   UNL     1       8.208  16.363  -0.003  1.00  0.00     0.010 A 
ATOM     84  C   UNL     1      10.479  15.590   0.364  1.00  0.00     0.010 A 
ATOM     85  C   UNL     1       8.688  17.656  -0.229  1.00  0.00     0.020 A 
ATOM     86  C   UNL     1      10.960  16.886   0.167  1.00  0.00     0.020 A 
ATOM     87  C   UNL     1      10.061  17.909  -0.142  1.00  0.00     0.054 A 
BRANCH  87  88
ATOM     88  S   UNL     1      10.655  19.605  -0.390  1.00  0.00     0.124 S 
ATOM     89  O   UNL     1      10.523  19.764  -1.836  1.00  0.00    -0.237 OA
ATOM     90  O   UNL     1       9.726  20.392   0.417  1.00  0.00    -0.237 OA
ATOM     91  O   UNL     1      12.027  19.568   0.110  1.00  0.00    -0.744 OA
ENDBRANCH  87  88
ENDBRANCH  61  82
ENDBRANCH  35  36
ENDBRANCH  28  30
ENDBRANCH  27  28
ENDBRANCH  26  27
ENDBRANCH  25  26
ENDBRANCH   1  25
TORSDOF 20
