REMARK SMILES CC(C)c1noc(C[N@@H+]2[C@@H](C(=O)OCCOCCOC(=O)c3ccc(-c4c5nc(c(-c6ccc(S(=O)(=O)[O-])cc6)c6ccc([nH]6)c(-c6ccc(S(=O)(=O)[O-])cc6)c6nc(c(-c7ccc(S(=O)(=O)[O-])cc7)c7ccc4[nH]7)C=C6)C=C5)cc3)C[C@H]3CCCC[C@@H]32)n1
REMARK SMILES IDX 16 1 15 2 14 3 13 4 11 5 12 6 10 7 9 8 88 9 82 11 83 12
REMARK SMILES IDX 87 13 84 14 86 15 85 16 8 17 7 18 4 19 5 20 89 21 6 22 2 23
REMARK SMILES IDX 1 24 3 25 17 26 18 27 19 28 20 29 21 30 22 31 23 32 81 33
REMARK SMILES IDX 24 34 80 35 25 36 26 37 27 38 74 39 28 40 79 41 73 42 75 43
REMARK SMILES IDX 29 44 78 45 72 46 71 47 30 49 60 50 41 51 59 52 42 53 45 54
REMARK SMILES IDX 58 55 76 56 43 57 44 58 57 60 77 61 46 62 31 63 32 64 40 65
REMARK SMILES IDX 33 66 39 67 34 68 35 69 36 70 37 71 38 72 61 73 62 74 70 75
REMARK SMILES IDX 63 76 69 77 64 78 65 79 66 80 67 81 68 82 47 83 48 84 56 85
REMARK SMILES IDX 49 86 55 87 50 88 51 89 52 90 53 91 54 92
REMARK H PARENT 9 10 75 48 45 59
REMARK Flexibility Score: inf
ROOT
ATOM      1  O   UNL     1      -9.319  -2.345   1.261  1.00  0.00    -0.374 OA
ENDROOT
BRANCH   1   2
ATOM      2  C   UNL     1      -9.643  -0.986   1.553  1.00  0.00     0.202 C 
BRANCH   2   3
ATOM      3  C   UNL     1      -8.595  -0.183   2.324  1.00  0.00     0.261 C 
BRANCH   3   4
ATOM      4  O   UNL     1      -7.378  -0.064   1.571  1.00  0.00    -0.459 OA
BRANCH   4   5
ATOM      5  C   UNL     1      -6.319  -0.753   2.083  1.00  0.00     0.365 C 
ATOM      6  O   UNL     1      -6.317  -1.312   3.175  1.00  0.00    -0.245 OA
BRANCH   5   7
ATOM      7  C   UNL     1      -5.125  -0.730   1.099  1.00  0.00     0.296 C 
ATOM      8  N   UNL     1      -4.651  -2.129   0.856  1.00  0.00    -0.313 N 
ATOM      9  C   UNL     1      -3.719  -2.382   1.964  1.00  0.00     0.188 C 
ATOM     10  H   UNL     1      -5.404  -2.817   0.873  1.00  0.00     0.349 HD
ATOM     11  C   UNL     1      -3.982   0.019   1.794  1.00  0.00     0.087 C 
ATOM     12  C   UNL     1      -2.967  -1.062   2.138  1.00  0.00     0.054 C 
ATOM     13  C   UNL     1      -2.758  -3.569   1.995  1.00  0.00     0.065 C 
ATOM     14  C   UNL     1      -2.332  -1.011   3.516  1.00  0.00     0.010 C 
ATOM     15  C   UNL     1      -1.959  -3.542   3.311  1.00  0.00     0.006 C 
ATOM     16  C   UNL     1      -1.339  -2.172   3.637  1.00  0.00     0.001 C 
BRANCH   8  17
ATOM     17  C   UNL     1      -4.176  -2.394  -0.517  1.00  0.00     0.364 C 
BRANCH  17  18
ATOM     18  C   UNL     1      -2.883  -1.784  -0.942  1.00  0.00     0.281 A 
ATOM     19  C   UNL     1      -0.888  -1.180  -1.134  1.00  0.00     0.174 A 
ATOM     20  N   UNL     1      -1.575  -0.122  -1.591  1.00  0.00    -0.062 NA
ATOM     21  N   UNL     1      -1.665  -2.258  -0.804  1.00  0.00    -0.191 NA
ATOM     22  O   UNL     1      -2.911  -0.519  -1.452  1.00  0.00    -0.333 OA
BRANCH  19  23
ATOM     23  C   UNL     1       0.592  -1.165  -0.907  1.00  0.00     0.055 C 
ATOM     24  C   UNL     1       1.022   0.045  -0.070  1.00  0.00     0.016 C 
ATOM     25  C   UNL     1       1.083  -2.442  -0.210  1.00  0.00     0.016 C 
ENDBRANCH  19  23
ENDBRANCH  17  18
ENDBRANCH   8  17
ENDBRANCH   5   7
ENDBRANCH   4   5
ENDBRANCH   3   4
ENDBRANCH   2   3
ENDBRANCH   1   2
BRANCH   1  26
ATOM     26  C   UNL     1      -8.417  -2.594   0.182  1.00  0.00     0.202 C 
BRANCH  26  27
ATOM     27  C   UNL     1      -8.980  -2.454  -1.238  1.00  0.00     0.261 C 
BRANCH  27  28
ATOM     28  O   UNL     1      -9.320  -1.093  -1.562  1.00  0.00    -0.460 OA
BRANCH  28  29
ATOM     29  C   UNL     1     -10.648  -0.853  -1.672  1.00  0.00     0.338 C 
ATOM     30  O   UNL     1     -11.554  -1.674  -1.593  1.00  0.00    -0.246 OA
BRANCH  29  31
ATOM     31  C   UNL     1     -10.904   0.598  -1.718  1.00  0.00     0.060 A 
ATOM     32  C   UNL     1     -11.812   1.125  -0.790  1.00  0.00     0.016 A 
ATOM     33  C   UNL     1     -10.335   1.416  -2.696  1.00  0.00     0.016 A 
ATOM     34  C   UNL     1     -12.196   2.462  -0.869  1.00  0.00     0.010 A 
ATOM     35  C   UNL     1     -10.731   2.756  -2.780  1.00  0.00     0.010 A 
ATOM     36  C   UNL     1     -11.691   3.274  -1.891  1.00  0.00    -0.014 A 
BRANCH  36  37
ATOM     37  C   UNL     1     -12.281   4.616  -2.116  1.00  0.00     0.031 A 
ATOM     38  C   UNL     1     -13.315   4.784  -3.199  1.00  0.00     0.074 A 
ATOM     39  C   UNL     1     -11.921   5.665  -1.354  1.00  0.00     0.049 A 
ATOM     40  N   UNL     1     -13.940   5.866  -3.583  1.00  0.00    -0.248 NA
ATOM     41  C   UNL     1     -13.692   3.573  -3.949  1.00  0.00     0.031 C 
ATOM     42  C   UNL     1     -10.958   5.620  -0.253  1.00  0.00     0.029 A 
ATOM     43  N   UNL     1     -12.321   6.977  -1.397  1.00  0.00    -0.354 N 
ATOM     44  C   UNL     1     -14.767   5.474  -4.630  1.00  0.00     0.074 A 
ATOM     45  C   UNL     1     -14.557   4.057  -4.830  1.00  0.00     0.031 C 
ATOM     46  C   UNL     1     -10.832   6.854   0.266  1.00  0.00     0.029 A 
ATOM     47  C   UNL     1     -11.679   7.780  -0.484  1.00  0.00     0.049 A 
ATOM     48  H   UNL     1     -13.002   7.312  -2.023  1.00  0.00     0.167 HD
ATOM     49  C   UNL     1     -15.624   6.227  -5.358  1.00  0.00     0.031 A 
ATOM     50  C   UNL     1     -11.749   9.112  -0.291  1.00  0.00     0.031 A 
ATOM     51  C   UNL     1     -15.841   7.634  -5.149  1.00  0.00     0.049 A 
ATOM     52  C   UNL     1     -12.678   9.934  -1.150  1.00  0.00     0.074 A 
ATOM     53  C   UNL     1     -16.728   8.471  -5.804  1.00  0.00     0.029 A 
ATOM     54  N   UNL     1     -15.162   8.412  -4.225  1.00  0.00    -0.354 N 
ATOM     55  N   UNL     1     -13.493   9.536  -2.098  1.00  0.00    -0.248 NA
ATOM     56  C   UNL     1     -12.700  11.384  -0.907  1.00  0.00     0.031 C 
ATOM     57  C   UNL     1     -16.542   9.768  -5.317  1.00  0.00     0.029 A 
ATOM     58  C   UNL     1     -15.584   9.727  -4.317  1.00  0.00     0.049 A 
ATOM     59  H   UNL     1     -14.481   8.079  -3.597  1.00  0.00     0.167 HD
ATOM     60  C   UNL     1     -14.147  10.682  -2.540  1.00  0.00     0.074 A 
ATOM     61  C   UNL     1     -13.643  11.784  -1.748  1.00  0.00     0.031 C 
ATOM     62  C   UNL     1     -15.082  10.811  -3.514  1.00  0.00     0.031 A 
BRANCH  49  63
ATOM     63  C   UNL     1     -16.377   5.562  -6.478  1.00  0.00    -0.014 A 
ATOM     64  C   UNL     1     -17.459   4.702  -6.224  1.00  0.00     0.010 A 
ATOM     65  C   UNL     1     -16.047   5.876  -7.809  1.00  0.00     0.010 A 
ATOM     66  C   UNL     1     -18.192   4.159  -7.283  1.00  0.00     0.020 A 
ATOM     67  C   UNL     1     -16.790   5.352  -8.870  1.00  0.00     0.020 A 
ATOM     68  C   UNL     1     -17.855   4.491  -8.600  1.00  0.00     0.054 A 
BRANCH  68  69
ATOM     69  S   UNL     1     -18.864   3.825  -9.952  1.00  0.00     0.124 S 
ATOM     70  O   UNL     1     -18.458   2.422  -9.968  1.00  0.00    -0.237 OA
ATOM     71  O   UNL     1     -20.227   4.079  -9.491  1.00  0.00    -0.237 OA
ATOM     72  O   UNL     1     -18.448   4.607 -11.114  1.00  0.00    -0.744 OA
ENDBRANCH  68  69
ENDBRANCH  49  63
BRANCH  50  73
ATOM     73  C   UNL     1     -10.889   9.772   0.730  1.00  0.00    -0.014 A 
ATOM     74  C   UNL     1     -11.452  10.370   1.871  1.00  0.00     0.010 A 
ATOM     75  C   UNL     1      -9.498   9.846   0.536  1.00  0.00     0.010 A 
ATOM     76  C   UNL     1     -10.644  11.061   2.780  1.00  0.00     0.020 A 
ATOM     77  C   UNL     1      -8.683  10.510   1.457  1.00  0.00     0.020 A 
ATOM     78  C   UNL     1      -9.265  11.132   2.563  1.00  0.00     0.054 A 
BRANCH  78  79
ATOM     79  S   UNL     1      -8.231  12.025   3.757  1.00  0.00     0.124 S 
ATOM     80  O   UNL     1      -8.513  13.416   3.418  1.00  0.00    -0.237 OA
ATOM     81  O   UNL     1      -8.757  11.565   5.039  1.00  0.00    -0.237 OA
ATOM     82  O   UNL     1      -6.879  11.565   3.446  1.00  0.00    -0.744 OA
ENDBRANCH  78  79
ENDBRANCH  50  73
BRANCH  62  83
ATOM     83  C   UNL     1     -15.658  12.182  -3.751  1.00  0.00    -0.014 A 
ATOM     84  C   UNL     1     -14.908  13.192  -4.377  1.00  0.00     0.010 A 
ATOM     85  C   UNL     1     -16.995  12.441  -3.394  1.00  0.00     0.010 A 
ATOM     86  C   UNL     1     -15.474  14.448  -4.612  1.00  0.00     0.020 A 
ATOM     87  C   UNL     1     -17.573  13.686  -3.653  1.00  0.00     0.020 A 
ATOM     88  C   UNL     1     -16.803  14.687  -4.248  1.00  0.00     0.054 A 
BRANCH  88  89
ATOM     89  S   UNL     1     -17.529  16.311  -4.603  1.00  0.00     0.124 S 
ATOM     90  O   UNL     1     -16.913  17.149  -3.577  1.00  0.00    -0.237 OA
ATOM     91  O   UNL     1     -17.089  16.568  -5.972  1.00  0.00    -0.237 OA
ATOM     92  O   UNL     1     -18.965  16.090  -4.447  1.00  0.00    -0.744 OA
ENDBRANCH  88  89
ENDBRANCH  62  83
ENDBRANCH  36  37
ENDBRANCH  29  31
ENDBRANCH  28  29
ENDBRANCH  27  28
ENDBRANCH  26  27
ENDBRANCH   1  26
TORSDOF 20
