REMARK SMILES COc1ccccc1[C@@H]1C[N@@H+](Cc2cn3cc(C)ccc3n2)C[C@H]1C(=O)OCCOCCOC(=O)c1ccc(-c2c3nc(c(-c4ccc(S(=O)(=O)[O-])cc4)c4ccc([nH]4)c(-c4ccc(S(=O)(=O)[O-])cc4)c4nc(c(-c5ccc(S(=O)(=O)[O-])cc5)c5ccc2[nH]5)C=C4)C=C3)cc1
REMARK SMILES IDX 31 1 30 2 29 3 28 4 27 5 25 6 26 7 24 8 9 9 10 10 11 11
REMARK SMILES IDX 23 12 8 14 3 15 4 16 5 17 7 18 6 19 2 20 1 21 12 22 13 23
REMARK SMILES IDX 14 24 22 25 15 26 21 27 16 28 20 29 17 30 19 31 18 32 32 33
REMARK SMILES IDX 33 34 34 35 35 36 36 37 37 38 95 39 38 40 94 41 39 42 40 43
REMARK SMILES IDX 41 44 88 45 42 46 93 47 87 48 89 49 43 50 92 51 86 52 85 53
REMARK SMILES IDX 44 55 74 56 55 57 73 58 56 59 59 60 72 61 90 62 57 63 58 64
REMARK SMILES IDX 71 66 91 67 60 68 45 69 46 70 54 71 47 72 53 73 48 74 49 75
REMARK SMILES IDX 50 76 51 77 52 78 75 79 76 80 84 81 77 82 83 83 78 84 79 85
REMARK SMILES IDX 80 86 81 87 82 88 61 89 62 90 70 91 63 92 69 93 64 94 65 95
REMARK SMILES IDX 66 96 67 97 68 98
REMARK H PARENT 11 13 89 54 59 65
REMARK Flexibility Score: inf
ROOT
ATOM      1  C   UNL     1       2.179   4.560   1.969  1.00  0.00     0.202 C 
ENDROOT
BRANCH   1   2
ATOM      2  O   UNL     1       2.460   4.388   3.358  1.00  0.00    -0.374 OA
BRANCH   2   3
ATOM      3  C   UNL     1       3.794   3.978   3.654  1.00  0.00     0.202 C 
BRANCH   3   4
ATOM      4  C   UNL     1       3.995   2.460   3.614  1.00  0.00     0.261 C 
BRANCH   4   5
ATOM      5  O   UNL     1       3.793   1.902   2.294  1.00  0.00    -0.463 OA
BRANCH   5   6
ATOM      6  C   UNL     1       2.695   1.126   2.135  1.00  0.00     0.315 C 
ATOM      7  O   UNL     1       1.857   0.936   3.015  1.00  0.00    -0.252 OA
BRANCH   6   8
ATOM      8  C   UNL     1       2.616   0.373   0.821  1.00  0.00     0.167 C 
ATOM      9  C   UNL     1       2.884   1.035  -0.531  1.00  0.00     0.098 C 
ATOM     10  C   UNL     1       3.379  -0.131  -1.407  1.00  0.00     0.272 C 
ATOM     11  N   UNL     1       3.971  -1.141  -0.509  1.00  0.00    -0.329 N 
ATOM     12  C   UNL     1       3.568  -0.823   0.867  1.00  0.00     0.278 C 
ATOM     13  H   UNL     1       3.595  -2.046  -0.792  1.00  0.00     0.348 HD
BRANCH   9  14
ATOM     14  C   UNL     1       1.845   1.917  -1.226  1.00  0.00     0.004 A 
ATOM     15  C   UNL     1       0.510   1.621  -1.541  1.00  0.00     0.122 A 
ATOM     16  C   UNL     1      -0.321   2.596  -2.137  1.00  0.00     0.047 A 
ATOM     17  C   UNL     1       0.174   3.839  -2.528  1.00  0.00     0.004 A 
ATOM     18  C   UNL     1       2.325   3.149  -1.731  1.00  0.00     0.008 A 
ATOM     19  C   UNL     1       1.522   4.096  -2.372  1.00  0.00     0.001 A 
BRANCH  15  20
ATOM     20  O   UNL     1       0.015   0.348  -1.665  1.00  0.00    -0.496 OA
ATOM     21  C   UNL     1      -0.314  -0.327  -0.468  1.00  0.00     0.278 C 
ENDBRANCH  15  20
ENDBRANCH   9  14
BRANCH  11  22
ATOM     22  C   UNL     1       5.428  -1.390  -0.657  1.00  0.00     0.321 C 
BRANCH  22  23
ATOM     23  C   UNL     1       6.242  -0.132  -0.666  1.00  0.00     0.114 A 
ATOM     24  C   UNL     1       6.964   0.405  -1.721  1.00  0.00     0.122 A 
ATOM     25  N   UNL     1       6.111   0.794   0.341  1.00  0.00    -0.228 NA
ATOM     26  N   UNL     1       6.809   1.761  -1.549  1.00  0.00    -0.306 N 
ATOM     27  C   UNL     1       6.307   1.941  -0.267  1.00  0.00     0.137 A 
ATOM     28  C   UNL     1       6.824   2.756  -2.522  1.00  0.00     0.096 A 
ATOM     29  C   UNL     1       5.755   3.207   0.039  1.00  0.00     0.048 A 
ATOM     30  C   UNL     1       6.176   3.907  -2.272  1.00  0.00    -0.034 A 
ATOM     31  C   UNL     1       5.596   4.100  -0.950  1.00  0.00     0.009 A 
ATOM     32  C   UNL     1       5.956   4.978  -3.281  1.00  0.00     0.046 C 
ENDBRANCH  22  23
ENDBRANCH  11  22
ENDBRANCH   6   8
ENDBRANCH   5   6
ENDBRANCH   4   5
ENDBRANCH   3   4
ENDBRANCH   2   3
ENDBRANCH   1   2
BRANCH   1  33
ATOM     33  C   UNL     1       2.574   5.935   1.431  1.00  0.00     0.261 C 
BRANCH  33  34
ATOM     34  O   UNL     1       3.998   6.121   1.432  1.00  0.00    -0.460 OA
BRANCH  34  35
ATOM     35  C   UNL     1       4.520   7.171   2.128  1.00  0.00     0.338 C 
ATOM     36  O   UNL     1       3.949   7.881   2.938  1.00  0.00    -0.246 OA
BRANCH  35  37
ATOM     37  C   UNL     1       5.831   7.458   1.497  1.00  0.00     0.060 A 
ATOM     38  C   UNL     1       6.099   8.758   1.070  1.00  0.00     0.016 A 
ATOM     39  C   UNL     1       6.578   6.403   0.996  1.00  0.00     0.016 A 
ATOM     40  C   UNL     1       6.837   8.946  -0.102  1.00  0.00     0.010 A 
ATOM     41  C   UNL     1       7.278   6.592  -0.183  1.00  0.00     0.010 A 
ATOM     42  C   UNL     1       7.277   7.835  -0.820  1.00  0.00    -0.014 A 
BRANCH  42  43
ATOM     43  C   UNL     1       7.825   7.924  -2.179  1.00  0.00     0.031 A 
ATOM     44  C   UNL     1       9.246   7.530  -2.277  1.00  0.00     0.074 A 
ATOM     45  C   UNL     1       7.166   8.171  -3.337  1.00  0.00     0.049 A 
ATOM     46  N   UNL     1      10.239   8.314  -2.029  1.00  0.00    -0.248 NA
ATOM     47  C   UNL     1       9.630   6.127  -2.490  1.00  0.00     0.031 C 
ATOM     48  C   UNL     1       5.728   8.281  -3.597  1.00  0.00     0.029 A 
ATOM     49  N   UNL     1       7.699   8.274  -4.595  1.00  0.00    -0.354 N 
ATOM     50  C   UNL     1      11.371   7.578  -2.324  1.00  0.00     0.074 A 
ATOM     51  C   UNL     1      10.953   6.198  -2.320  1.00  0.00     0.031 C 
ATOM     52  C   UNL     1       5.500   8.227  -4.937  1.00  0.00     0.029 A 
ATOM     53  C   UNL     1       6.775   8.272  -5.638  1.00  0.00     0.049 A 
ATOM     54  H   UNL     1       8.668   8.344  -4.751  1.00  0.00     0.167 HD
ATOM     55  C   UNL     1      12.482   8.170  -2.842  1.00  0.00     0.031 A 
ATOM     56  C   UNL     1       7.052   8.337  -6.969  1.00  0.00     0.031 A 
ATOM     57  C   UNL     1      12.315   9.604  -2.947  1.00  0.00     0.049 A 
ATOM     58  C   UNL     1       8.358   9.032  -7.091  1.00  0.00     0.074 A 
ATOM     59  C   UNL     1      11.980  10.614  -2.065  1.00  0.00     0.029 A 
ATOM     60  N   UNL     1      12.058  10.103  -4.207  1.00  0.00    -0.354 N 
ATOM     61  N   UNL     1       8.524  10.283  -6.766  1.00  0.00    -0.248 NA
ATOM     62  C   UNL     1       9.579   8.250  -7.186  1.00  0.00     0.031 C 
ATOM     63  C   UNL     1      11.096  11.463  -2.795  1.00  0.00     0.029 A 
ATOM     64  C   UNL     1      11.010  10.984  -4.104  1.00  0.00     0.049 A 
ATOM     65  H   UNL     1      12.540   9.869  -5.033  1.00  0.00     0.167 HD
ATOM     66  C   UNL     1       9.765  10.319  -6.152  1.00  0.00     0.074 A 
ATOM     67  C   UNL     1      10.422   9.081  -6.564  1.00  0.00     0.031 C 
ATOM     68  C   UNL     1      10.018  11.201  -5.139  1.00  0.00     0.031 A 
BRANCH  55  69
ATOM     69  C   UNL     1      13.549   7.455  -3.622  1.00  0.00    -0.014 A 
ATOM     70  C   UNL     1      14.738   8.153  -3.911  1.00  0.00     0.010 A 
ATOM     71  C   UNL     1      13.353   6.218  -4.267  1.00  0.00     0.010 A 
ATOM     72  C   UNL     1      15.659   7.662  -4.840  1.00  0.00     0.020 A 
ATOM     73  C   UNL     1      14.290   5.695  -5.160  1.00  0.00     0.020 A 
ATOM     74  C   UNL     1      15.423   6.438  -5.464  1.00  0.00     0.054 A 
BRANCH  74  75
ATOM     75  S   UNL     1      16.584   5.853  -6.720  1.00  0.00     0.124 S 
ATOM     76  O   UNL     1      16.386   6.831  -7.786  1.00  0.00    -0.237 OA
ATOM     77  O   UNL     1      17.862   5.928  -6.019  1.00  0.00    -0.237 OA
ATOM     78  O   UNL     1      16.116   4.501  -7.013  1.00  0.00    -0.744 OA
ENDBRANCH  74  75
ENDBRANCH  55  69
BRANCH  56  79
ATOM     79  C   UNL     1       6.376   7.748  -8.156  1.00  0.00    -0.014 A 
ATOM     80  C   UNL     1       6.746   8.133  -9.465  1.00  0.00     0.010 A 
ATOM     81  C   UNL     1       5.610   6.575  -8.020  1.00  0.00     0.010 A 
ATOM     82  C   UNL     1       6.450   7.325 -10.578  1.00  0.00     0.020 A 
ATOM     83  C   UNL     1       5.304   5.768  -9.128  1.00  0.00     0.020 A 
ATOM     84  C   UNL     1       5.756   6.128 -10.397  1.00  0.00     0.054 A 
BRANCH  84  85
ATOM     85  S   UNL     1       5.590   4.970 -11.793  1.00  0.00     0.124 S 
ATOM     86  O   UNL     1       4.585   5.624 -12.626  1.00  0.00    -0.237 OA
ATOM     87  O   UNL     1       6.942   4.937 -12.343  1.00  0.00    -0.237 OA
ATOM     88  O   UNL     1       5.157   3.728 -11.155  1.00  0.00    -0.744 OA
ENDBRANCH  84  85
ENDBRANCH  56  79
BRANCH  68  89
ATOM     89  C   UNL     1       9.048  12.348  -4.918  1.00  0.00    -0.014 A 
ATOM     90  C   UNL     1       7.668  12.181  -4.685  1.00  0.00     0.010 A 
ATOM     91  C   UNL     1       9.585  13.643  -4.806  1.00  0.00     0.010 A 
ATOM     92  C   UNL     1       6.847  13.277  -4.380  1.00  0.00     0.020 A 
ATOM     93  C   UNL     1       8.779  14.737  -4.478  1.00  0.00     0.020 A 
ATOM     94  C   UNL     1       7.411  14.551  -4.277  1.00  0.00     0.054 A 
BRANCH  94  95
ATOM     95  S   UNL     1       6.356  15.957  -3.826  1.00  0.00     0.124 S 
ATOM     96  O   UNL     1       5.525  16.123  -5.016  1.00  0.00    -0.237 OA
ATOM     97  O   UNL     1       5.661  15.472  -2.636  1.00  0.00    -0.237 OA
ATOM     98  O   UNL     1       7.307  17.041  -3.579  1.00  0.00    -0.744 OA
ENDBRANCH  94  95
ENDBRANCH  68  89
ENDBRANCH  42  43
ENDBRANCH  35  37
ENDBRANCH  34  35
ENDBRANCH  33  34
ENDBRANCH   1  33
TORSDOF 21
