REMARK SMILES C=CC[N@H+](CC(=O)OCCOCCOC(=O)c1ccc(-c2c3nc(c(-c4ccc(S(=O)(=O)[O-])cc4)c4ccc([nH]4)c(-c4ccc(S(=O)(=O)[O-])cc4)c4nc(c(-c5ccc(S(=O)(=O)[O-])cc5)c5ccc2[nH]5)C=C4)C=C3)cc1)[C@@H]1CC[N@@H+](C(C)C)C1
REMARK SMILES IDX 11 1 10 2 9 3 8 4 6 5 7 6 5 7 4 8 3 10 2 11 1 12 77 13 78 14
REMARK SMILES IDX 84 15 79 16 80 17 81 19 82 20 83 21 12 22 13 23 14 24 15 25
REMARK SMILES IDX 16 26 17 27 18 28 76 29 19 30 75 31 20 32 21 33 22 34 69 35
REMARK SMILES IDX 23 36 74 37 68 38 70 39 24 40 73 41 67 42 66 43 25 45 55 46
REMARK SMILES IDX 36 47 54 48 37 49 40 50 53 51 71 52 38 53 39 54 52 56 72 57
REMARK SMILES IDX 41 58 26 59 27 60 35 61 28 62 34 63 29 64 30 65 31 66 32 67
REMARK SMILES IDX 33 68 56 69 57 70 65 71 58 72 64 73 59 74 60 75 61 76 62 77
REMARK SMILES IDX 63 78 42 79 43 80 51 81 44 82 50 83 45 84 46 85 47 86 48 87
REMARK SMILES IDX 49 88
REMARK H PARENT 4 9 80 18 70 44 40 55
REMARK Flexibility Score: inf
ROOT
ATOM      1  O   UNL     1      -5.317   2.419  -0.683  1.00  0.00    -0.374 OA
ENDROOT
BRANCH   1   2
ATOM      2  C   UNL     1      -5.237   2.032   0.685  1.00  0.00     0.202 C 
BRANCH   2   3
ATOM      3  C   UNL     1      -4.952   0.531   0.783  1.00  0.00     0.261 C 
BRANCH   3   4
ATOM      4  O   UNL     1      -3.843   0.147  -0.055  1.00  0.00    -0.459 OA
BRANCH   4   5
ATOM      5  C   UNL     1      -4.153  -0.385  -1.268  1.00  0.00     0.361 C 
ATOM      6  O   UNL     1      -5.296  -0.643  -1.641  1.00  0.00    -0.245 OA
BRANCH   5   7
ATOM      7  C   UNL     1      -2.948  -0.676  -2.176  1.00  0.00     0.387 C 
BRANCH   7   8
ATOM      8  N   UNL     1      -1.607  -0.246  -1.683  1.00  0.00    -0.315 N 
ATOM      9  H   UNL     1      -1.589   0.685  -1.266  1.00  0.00     0.349 HD
BRANCH   8  10
ATOM     10  C   UNL     1      -1.226  -1.028  -0.500  1.00  0.00     0.291 C 
BRANCH  10  11
ATOM     11  C   UNL     1       0.171  -1.531  -0.318  1.00  0.00     0.025 C 
ATOM     12  C   UNL     1       0.998  -1.109   0.651  1.00  0.00     0.010 C 
ENDBRANCH  10  11
ENDBRANCH   8  10
BRANCH   8  13
ATOM     13  C   UNL     1      -0.676   0.049  -2.804  1.00  0.00     0.246 C 
ATOM     14  C   UNL     1       0.795   0.376  -2.520  1.00  0.00     0.132 C 
ATOM     15  C   UNL     1      -1.016   1.433  -3.474  1.00  0.00     0.328 C 
ATOM     16  C   UNL     1       0.732   1.753  -1.893  1.00  0.00     0.269 C 
ATOM     17  N   UNL     1      -0.303   2.436  -2.670  1.00  0.00    -0.328 N 
ATOM     18  H   UNL     1      -1.014   2.836  -2.058  1.00  0.00     0.348 HD
BRANCH  17  19
ATOM     19  C   UNL     1       0.080   3.721  -3.258  1.00  0.00     0.177 C 
ATOM     20  C   UNL     1       1.315   3.675  -4.165  1.00  0.00     0.075 C 
ATOM     21  C   UNL     1      -1.068   4.402  -4.014  1.00  0.00     0.075 C 
ENDBRANCH  17  19
ENDBRANCH   8  13
ENDBRANCH   7   8
ENDBRANCH   5   7
ENDBRANCH   4   5
ENDBRANCH   3   4
ENDBRANCH   2   3
ENDBRANCH   1   2
BRANCH   1  22
ATOM     22  C   UNL     1      -4.361   3.376  -1.142  1.00  0.00     0.202 C 
BRANCH  22  23
ATOM     23  C   UNL     1      -2.888   3.096  -0.853  1.00  0.00     0.261 C 
BRANCH  23  24
ATOM     24  O   UNL     1      -2.550   3.304   0.521  1.00  0.00    -0.460 OA
BRANCH  24  25
ATOM     25  C   UNL     1      -1.370   3.919   0.745  1.00  0.00     0.338 C 
ATOM     26  O   UNL     1      -0.685   4.566  -0.024  1.00  0.00    -0.246 OA
BRANCH  25  27
ATOM     27  C   UNL     1      -0.948   3.535   2.095  1.00  0.00     0.060 A 
ATOM     28  C   UNL     1      -1.728   3.870   3.202  1.00  0.00     0.016 A 
ATOM     29  C   UNL     1       0.247   2.824   2.235  1.00  0.00     0.016 A 
ATOM     30  C   UNL     1      -1.275   3.532   4.473  1.00  0.00     0.010 A 
ATOM     31  C   UNL     1       0.671   2.443   3.503  1.00  0.00     0.010 A 
ATOM     32  C   UNL     1      -0.068   2.831   4.632  1.00  0.00    -0.014 A 
BRANCH  32  33
ATOM     33  C   UNL     1       0.461   2.591   5.993  1.00  0.00     0.031 A 
ATOM     34  C   UNL     1       1.633   3.397   6.479  1.00  0.00     0.074 A 
ATOM     35  C   UNL     1      -0.137   1.690   6.792  1.00  0.00     0.049 A 
ATOM     36  N   UNL     1       2.190   3.409   7.662  1.00  0.00    -0.248 NA
ATOM     37  C   UNL     1       2.267   4.306   5.508  1.00  0.00     0.031 C 
ATOM     38  C   UNL     1      -1.273   0.847   6.413  1.00  0.00     0.029 A 
ATOM     39  N   UNL     1       0.116   1.345   8.094  1.00  0.00    -0.354 N 
ATOM     40  C   UNL     1       3.234   4.323   7.578  1.00  0.00     0.074 A 
ATOM     41  C   UNL     1       3.265   4.810   6.217  1.00  0.00     0.031 C 
ATOM     42  C   UNL     1      -1.637   0.103   7.470  1.00  0.00     0.029 A 
ATOM     43  C   UNL     1      -0.748   0.398   8.590  1.00  0.00     0.049 A 
ATOM     44  H   UNL     1       0.847   1.738   8.624  1.00  0.00     0.167 HD
ATOM     45  C   UNL     1       4.080   4.731   8.553  1.00  0.00     0.031 A 
ATOM     46  C   UNL     1      -0.816  -0.163   9.813  1.00  0.00     0.031 A 
ATOM     47  C   UNL     1       4.043   4.235   9.901  1.00  0.00     0.049 A 
ATOM     48  C   UNL     1       0.149   0.293  10.874  1.00  0.00     0.074 A 
ATOM     49  C   UNL     1       4.835   4.600  10.976  1.00  0.00     0.029 A 
ATOM     50  N   UNL     1       3.169   3.260  10.359  1.00  0.00    -0.354 N 
ATOM     51  N   UNL     1       1.093   1.202  10.794  1.00  0.00    -0.248 NA
ATOM     52  C   UNL     1       0.030  -0.339  12.195  1.00  0.00     0.031 C 
ATOM     53  C   UNL     1       4.471   3.809  12.071  1.00  0.00     0.029 A 
ATOM     54  C   UNL     1       3.416   2.992  11.693  1.00  0.00     0.049 A 
ATOM     55  H   UNL     1       2.475   2.823   9.814  1.00  0.00     0.167 HD
ATOM     56  C   UNL     1       1.667   1.266  12.058  1.00  0.00     0.074 A 
ATOM     57  C   UNL     1       0.951   0.317  12.888  1.00  0.00     0.031 C 
ATOM     58  C   UNL     1       2.692   2.038  12.495  1.00  0.00     0.031 A 
BRANCH  45  59
ATOM     59  C   UNL     1       5.125   5.750   8.182  1.00  0.00    -0.014 A 
ATOM     60  C   UNL     1       4.776   7.086   7.911  1.00  0.00     0.010 A 
ATOM     61  C   UNL     1       6.479   5.373   8.127  1.00  0.00     0.010 A 
ATOM     62  C   UNL     1       5.755   8.015   7.550  1.00  0.00     0.020 A 
ATOM     63  C   UNL     1       7.465   6.306   7.792  1.00  0.00     0.020 A 
ATOM     64  C   UNL     1       7.094   7.617   7.488  1.00  0.00     0.054 A 
BRANCH  64  65
ATOM     65  S   UNL     1       8.348   8.846   7.033  1.00  0.00     0.124 S 
ATOM     66  O   UNL     1       8.112   9.000   5.599  1.00  0.00    -0.237 OA
ATOM     67  O   UNL     1       7.984   9.997   7.855  1.00  0.00    -0.237 OA
ATOM     68  O   UNL     1       9.610   8.204   7.390  1.00  0.00    -0.744 OA
ENDBRANCH  64  65
ENDBRANCH  45  59
BRANCH  46  69
ATOM     69  C   UNL     1      -1.840  -1.204  10.096  1.00  0.00    -0.014 A 
ATOM     70  C   UNL     1      -2.928  -0.934  10.945  1.00  0.00     0.010 A 
ATOM     71  C   UNL     1      -1.740  -2.473   9.497  1.00  0.00     0.010 A 
ATOM     72  C   UNL     1      -3.887  -1.919  11.201  1.00  0.00     0.020 A 
ATOM     73  C   UNL     1      -2.711  -3.451   9.730  1.00  0.00     0.020 A 
ATOM     74  C   UNL     1      -3.773  -3.171  10.591  1.00  0.00     0.054 A 
BRANCH  74  75
ATOM     75  S   UNL     1      -5.058  -4.416  10.893  1.00  0.00     0.124 S 
ATOM     76  O   UNL     1      -4.744  -4.853  12.250  1.00  0.00    -0.237 OA
ATOM     77  O   UNL     1      -6.289  -3.643  10.745  1.00  0.00    -0.237 OA
ATOM     78  O   UNL     1      -4.826  -5.408   9.845  1.00  0.00    -0.744 OA
ENDBRANCH  74  75
ENDBRANCH  46  69
BRANCH  58  79
ATOM     79  C   UNL     1       3.087   1.904  13.941  1.00  0.00    -0.014 A 
ATOM     80  C   UNL     1       3.780   0.771  14.402  1.00  0.00     0.010 A 
ATOM     81  C   UNL     1       2.812   2.955  14.835  1.00  0.00     0.010 A 
ATOM     82  C   UNL     1       4.163   0.678  15.742  1.00  0.00     0.020 A 
ATOM     83  C   UNL     1       3.217   2.876  16.169  1.00  0.00     0.020 A 
ATOM     84  C   UNL     1       3.878   1.731  16.617  1.00  0.00     0.054 A 
BRANCH  84  85
ATOM     85  S   UNL     1       4.424   1.605  18.342  1.00  0.00     0.124 S 
ATOM     86  O   UNL     1       3.461   0.659  18.897  1.00  0.00    -0.237 OA
ATOM     87  O   UNL     1       5.791   1.107  18.211  1.00  0.00    -0.237 OA
ATOM     88  O   UNL     1       4.312   2.974  18.841  1.00  0.00    -0.744 OA
ENDBRANCH  84  85
ENDBRANCH  58  79
ENDBRANCH  32  33
ENDBRANCH  25  27
ENDBRANCH  24  25
ENDBRANCH  23  24
ENDBRANCH  22  23
ENDBRANCH   1  22
TORSDOF 22
