REMARK SMILES CCN1C(=O)/C(=C/c2ccccc2O[C@H](C)C(=O)OCCOCCOC(=O)c2ccc(-c3c4nc(c(-c5ccc(S(=O)(=O)[O-])cc5)c5ccc([nH]5)c(-c5ccc(S(=O)(=O)[O-])cc5)c5nc(c(-c6ccc(S(=O)(=O)[O-])cc6)c6ccc3[nH]6)C=C5)C=C4)cc2)S/C1=[NH+]\c1ccc(C)cc1O
REMARK SMILES IDX 21 1 20 2 19 3 17 4 18 5 15 6 16 7 14 8 13 9 8 10 9 11 10 12
REMARK SMILES IDX 12 13 11 14 7 15 3 16 4 17 89 18 5 19 6 20 88 21 90 22 2 24
REMARK SMILES IDX 1 25 91 26 92 27 97 28 93 29 96 30 94 31 95 32 98 33 22 35
REMARK SMILES IDX 23 36 24 37 25 38 26 39 27 40 28 41 29 42 87 43 30 44 86 45
REMARK SMILES IDX 31 46 32 47 33 48 80 49 34 50 85 51 79 52 81 53 35 54 84 55
REMARK SMILES IDX 78 56 77 57 36 59 66 60 47 61 65 62 48 63 51 64 64 65 82 66
REMARK SMILES IDX 49 67 50 68 63 70 83 71 52 72 37 73 38 74 46 75 39 76 45 77
REMARK SMILES IDX 40 78 41 79 42 80 43 81 44 82 67 83 68 84 76 85 69 86 75 87
REMARK SMILES IDX 70 88 71 89 72 90 73 91 74 92 53 93 54 94 62 95 55 96 61 97
REMARK SMILES IDX 56 98 57 99 58 100 59 101 60 102
REMARK H PARENT 90 23 98 34 81 58 51 69
REMARK Flexibility Score: inf
ROOT
ATOM      1  C   UNL     1       0.096  -6.607  -0.429  1.00  0.00     0.202 C 
ENDROOT
BRANCH   1   2
ATOM      2  C   UNL     1      -0.030  -5.106  -0.698  1.00  0.00     0.261 C 
BRANCH   2   3
ATOM      3  O   UNL     1       0.777  -4.727  -1.827  1.00  0.00    -0.461 OA
BRANCH   3   4
ATOM      4  C   UNL     1       1.754  -3.800  -1.621  1.00  0.00     0.347 C 
ATOM      5  O   UNL     1       2.027  -3.284  -0.543  1.00  0.00    -0.248 OA
BRANCH   4   6
ATOM      6  C   UNL     1       2.538  -3.539  -2.905  1.00  0.00     0.279 C 
ATOM      7  C   UNL     1       3.501  -4.696  -3.162  1.00  0.00     0.066 C 
BRANCH   6   8
ATOM      8  O   UNL     1       1.569  -3.344  -3.940  1.00  0.00    -0.478 OA
BRANCH   8   9
ATOM      9  C   UNL     1       2.077  -2.829  -5.100  1.00  0.00     0.127 A 
ATOM     10  C   UNL     1       1.959  -1.467  -5.406  1.00  0.00     0.018 A 
ATOM     11  C   UNL     1       2.345  -1.029  -6.683  1.00  0.00     0.012 A 
ATOM     12  C   UNL     1       2.832  -1.933  -7.631  1.00  0.00     0.001 A 
ATOM     13  C   UNL     1       2.539  -3.734  -6.062  1.00  0.00     0.047 A 
ATOM     14  C   UNL     1       2.934  -3.285  -7.319  1.00  0.00     0.004 A 
BRANCH  10  15
ATOM     15  C   UNL     1       1.391  -0.476  -4.480  1.00  0.00     0.036 C 
ATOM     16  N   UNL     1       2.360   1.819  -1.860  1.00  0.00    -0.186 N 
ATOM     17  C   UNL     1       1.427   1.255  -2.711  1.00  0.00     0.348 C 
ATOM     18  C   UNL     1       3.646   1.347  -1.957  1.00  0.00     0.324 C 
ATOM     19  O   UNL     1       0.265   1.612  -2.838  1.00  0.00    -0.240 OA
ATOM     20  C   UNL     1       2.061   0.182  -3.524  1.00  0.00     0.110 C 
ATOM     21  S   UNL     1       3.714   0.021  -3.091  1.00  0.00     0.007 SA
ATOM     22  N   UNL     1       4.633   1.890  -1.322  1.00  0.00    -0.231 N 
ATOM     23  H   UNL     1       4.455   2.677  -0.757  1.00  0.00     0.313 HD
BRANCH  16  24
ATOM     24  C   UNL     1       1.977   2.926  -0.992  1.00  0.00     0.244 C 
ATOM     25  C   UNL     1       1.077   2.483   0.154  1.00  0.00     0.055 C 
ENDBRANCH  16  24
BRANCH  22  26
ATOM     26  C   UNL     1       5.952   1.401  -1.404  1.00  0.00     0.167 A 
ATOM     27  C   UNL     1       6.566   0.945  -0.234  1.00  0.00     0.056 A 
ATOM     28  C   UNL     1       6.731   1.454  -2.572  1.00  0.00     0.162 A 
ATOM     29  C   UNL     1       7.900   0.517  -0.238  1.00  0.00     0.008 A 
ATOM     30  C   UNL     1       8.048   0.998  -2.595  1.00  0.00     0.054 A 
ATOM     31  C   UNL     1       8.646   0.525  -1.423  1.00  0.00    -0.047 A 
ATOM     32  C   UNL     1      10.082   0.095  -1.418  1.00  0.00     0.044 C 
BRANCH  28  33
ATOM     33  O   UNL     1       6.245   1.984  -3.738  1.00  0.00    -0.504 OA
ATOM     34  H   UNL     1       5.366   2.305  -3.776  1.00  0.00     0.293 HD
ENDBRANCH  28  33
ENDBRANCH  22  26
ENDBRANCH  10  15
ENDBRANCH   8   9
ENDBRANCH   6   8
ENDBRANCH   4   6
ENDBRANCH   3   4
ENDBRANCH   2   3
ENDBRANCH   1   2
BRANCH   1  35
ATOM     35  O   UNL     1       1.291  -7.015   0.243  1.00  0.00    -0.374 OA
BRANCH  35  36
ATOM     36  C   UNL     1       2.487  -7.039  -0.532  1.00  0.00     0.202 C 
BRANCH  36  37
ATOM     37  C   UNL     1       2.718  -8.294  -1.382  1.00  0.00     0.261 C 
BRANCH  37  38
ATOM     38  O   UNL     1       1.720  -8.452  -2.406  1.00  0.00    -0.460 OA
BRANCH  38  39
ATOM     39  C   UNL     1       0.824  -9.438  -2.166  1.00  0.00     0.338 C 
ATOM     40  O   UNL     1       0.830 -10.226  -1.227  1.00  0.00    -0.246 OA
BRANCH  39  41
ATOM     41  C   UNL     1      -0.301  -9.357  -3.114  1.00  0.00     0.060 A 
ATOM     42  C   UNL     1      -1.594  -9.353  -2.576  1.00  0.00     0.016 A 
ATOM     43  C   UNL     1      -0.109  -9.371  -4.497  1.00  0.00     0.016 A 
ATOM     44  C   UNL     1      -2.702  -9.421  -3.418  1.00  0.00     0.010 A 
ATOM     45  C   UNL     1      -1.223  -9.446  -5.342  1.00  0.00     0.010 A 
ATOM     46  C   UNL     1      -2.522  -9.511  -4.804  1.00  0.00    -0.014 A 
BRANCH  46  47
ATOM     47  C   UNL     1      -3.685  -9.826  -5.670  1.00  0.00     0.031 A 
ATOM     48  C   UNL     1      -3.890 -11.245  -6.128  1.00  0.00     0.074 A 
ATOM     49  C   UNL     1      -4.569  -8.871  -6.011  1.00  0.00     0.049 A 
ATOM     50  N   UNL     1      -4.825 -11.739  -6.897  1.00  0.00    -0.248 NA
ATOM     51  C   UNL     1      -2.911 -12.238  -5.656  1.00  0.00     0.031 C 
ATOM     52  C   UNL     1      -4.506  -7.471  -5.592  1.00  0.00     0.029 A 
ATOM     53  N   UNL     1      -5.695  -8.939  -6.793  1.00  0.00    -0.354 N 
ATOM     54  C   UNL     1      -4.543 -13.096  -7.011  1.00  0.00     0.074 A 
ATOM     55  C   UNL     1      -3.336 -13.343  -6.252  1.00  0.00     0.031 C 
ATOM     56  C   UNL     1      -5.546  -6.809  -6.129  1.00  0.00     0.029 A 
ATOM     57  C   UNL     1      -6.328  -7.730  -6.954  1.00  0.00     0.049 A 
ATOM     58  H   UNL     1      -6.019  -9.775  -7.199  1.00  0.00     0.167 HD
ATOM     59  C   UNL     1      -5.228 -14.051  -7.684  1.00  0.00     0.031 A 
ATOM     60  C   UNL     1      -7.402  -7.397  -7.697  1.00  0.00     0.031 A 
ATOM     61  C   UNL     1      -6.424 -13.802  -8.444  1.00  0.00     0.049 A 
ATOM     62  C   UNL     1      -8.110  -8.464  -8.491  1.00  0.00     0.074 A 
ATOM     63  C   UNL     1      -7.201 -14.708  -9.145  1.00  0.00     0.029 A 
ATOM     64  N   UNL     1      -7.013 -12.558  -8.609  1.00  0.00    -0.354 N 
ATOM     65  N   UNL     1      -7.844  -9.746  -8.569  1.00  0.00    -0.248 NA
ATOM     66  C   UNL     1      -9.268  -8.039  -9.291  1.00  0.00     0.031 C 
ATOM     67  C   UNL     1      -8.228 -14.002  -9.780  1.00  0.00     0.029 A 
ATOM     68  C   UNL     1      -8.126 -12.666  -9.425  1.00  0.00     0.049 A 
ATOM     69  H   UNL     1      -6.687 -11.720  -8.207  1.00  0.00     0.167 HD
ATOM     70  C   UNL     1      -8.817 -10.285  -9.406  1.00  0.00     0.074 A 
ATOM     71  C   UNL     1      -9.682  -9.193  -9.799  1.00  0.00     0.031 C 
ATOM     72  C   UNL     1      -8.980 -11.570  -9.808  1.00  0.00     0.031 A 
BRANCH  59  73
ATOM     73  C   UNL     1      -4.677 -15.451  -7.659  1.00  0.00    -0.014 A 
ATOM     74  C   UNL     1      -4.746 -16.244  -6.500  1.00  0.00     0.010 A 
ATOM     75  C   UNL     1      -4.115 -15.996  -8.829  1.00  0.00     0.010 A 
ATOM     76  C   UNL     1      -4.230 -17.544  -6.500  1.00  0.00     0.020 A 
ATOM     77  C   UNL     1      -3.621 -17.303  -8.841  1.00  0.00     0.020 A 
ATOM     78  C   UNL     1      -3.667 -18.063  -7.670  1.00  0.00     0.054 A 
BRANCH  78  79
ATOM     79  S   UNL     1      -3.024 -19.759  -7.650  1.00  0.00     0.124 S 
ATOM     80  O   UNL     1      -1.796 -19.606  -6.873  1.00  0.00    -0.237 OA
ATOM     81  O   UNL     1      -4.096 -20.501  -6.991  1.00  0.00    -0.237 OA
ATOM     82  O   UNL     1      -2.831 -20.074  -9.063  1.00  0.00    -0.744 OA
ENDBRANCH  78  79
ENDBRANCH  59  73
BRANCH  60  83
ATOM     83  C   UNL     1      -7.859  -5.981  -7.745  1.00  0.00    -0.014 A 
ATOM     84  C   UNL     1      -9.066  -5.593  -7.141  1.00  0.00     0.010 A 
ATOM     85  C   UNL     1      -7.075  -5.009  -8.395  1.00  0.00     0.010 A 
ATOM     86  C   UNL     1      -9.488  -4.260  -7.195  1.00  0.00     0.020 A 
ATOM     87  C   UNL     1      -7.480  -3.672  -8.428  1.00  0.00     0.020 A 
ATOM     88  C   UNL     1      -8.690  -3.308  -7.836  1.00  0.00     0.054 A 
BRANCH  88  89
ATOM     89  S   UNL     1      -9.229  -1.575  -7.845  1.00  0.00     0.124 S 
ATOM     90  O   UNL     1     -10.314  -1.599  -8.820  1.00  0.00    -0.237 OA
ATOM     91  O   UNL     1      -9.630  -1.362  -6.456  1.00  0.00    -0.237 OA
ATOM     92  O   UNL     1      -8.031  -0.847  -8.258  1.00  0.00    -0.744 OA
ENDBRANCH  88  89
ENDBRANCH  60  83
BRANCH  72  93
ATOM     93  C   UNL     1     -10.157 -11.881 -10.695  1.00  0.00    -0.014 A 
ATOM     94  C   UNL     1     -10.173 -11.498 -12.047  1.00  0.00     0.010 A 
ATOM     95  C   UNL     1     -11.232 -12.630 -10.181  1.00  0.00     0.010 A 
ATOM     96  C   UNL     1     -11.255 -11.839 -12.864  1.00  0.00     0.020 A 
ATOM     97  C   UNL     1     -12.303 -12.994 -11.001  1.00  0.00     0.020 A 
ATOM     98  C   UNL     1     -12.313 -12.586 -12.335  1.00  0.00     0.054 A 
BRANCH  98  99
ATOM     99  S   UNL     1     -13.681 -13.061 -13.429  1.00  0.00     0.124 S 
ATOM    100  O   UNL     1     -14.401 -11.800 -13.581  1.00  0.00    -0.237 OA
ATOM    101  O   UNL     1     -12.986 -13.536 -14.624  1.00  0.00    -0.237 OA
ATOM    102  O   UNL     1     -14.386 -14.094 -12.674  1.00  0.00    -0.744 OA
ENDBRANCH  98  99
ENDBRANCH  72  93
ENDBRANCH  46  47
ENDBRANCH  39  41
ENDBRANCH  38  39
ENDBRANCH  37  38
ENDBRANCH  36  37
ENDBRANCH  35  36
ENDBRANCH   1  35
TORSDOF 23
