REMARK SMILES C[C@H]1[C@@H](C(=O)OCCOCCOC(=O)c2ccc(-c3c4nc(c(-c5ccc(S(=O)(=O)[O-])cc5)c5ccc([nH]5)c(-c5ccc(S(=O)(=O)[O-])cc5)c5nc(c(-c6ccc(S(=O)(=O)[O-])cc6)c6ccc3[nH]6)C=C5)C=C4)cc2)CCN1C(=O)/C=C/c1cccc(F)c1
REMARK SMILES IDX 9 1 8 2 7 3 6 4 4 5 5 6 3 7 1 8 2 9 77 10 75 11 76 12 78 13
REMARK SMILES IDX 79 14 80 15 81 16 82 17 83 18 88 19 84 20 86 21 85 22 87 23
REMARK SMILES IDX 10 24 11 25 12 26 13 27 14 28 15 29 16 30 74 31 17 32 73 33
REMARK SMILES IDX 18 34 19 35 20 36 67 37 21 38 72 39 66 40 68 41 22 42 71 43
REMARK SMILES IDX 65 44 64 45 23 47 53 48 34 49 52 50 35 51 38 52 51 53 69 54
REMARK SMILES IDX 36 55 37 56 50 58 70 59 39 60 24 61 25 62 33 63 26 64 32 65
REMARK SMILES IDX 27 66 28 67 29 68 30 69 31 70 54 71 55 72 63 73 56 74 62 75
REMARK SMILES IDX 57 76 58 77 59 78 60 79 61 80 40 81 41 82 49 83 42 84 48 85
REMARK SMILES IDX 43 86 44 87 45 88 46 89 47 90
REMARK H PARENT 68 46 38 57
REMARK Flexibility Score: inf
ROOT
ATOM      1  O   UNL     1       0.013   2.136  -3.948  1.00  0.00    -0.374 OA
ENDROOT
BRANCH   1   2
ATOM      2  C   UNL     1       1.363   2.474  -3.610  1.00  0.00     0.202 C 
BRANCH   2   3
ATOM      3  C   UNL     1       1.503   3.364  -2.370  1.00  0.00     0.261 C 
BRANCH   3   4
ATOM      4  O   UNL     1       1.377   2.556  -1.183  1.00  0.00    -0.463 OA
BRANCH   4   5
ATOM      5  C   UNL     1       0.230   2.647  -0.484  1.00  0.00     0.311 C 
ATOM      6  O   UNL     1      -0.606   3.530  -0.642  1.00  0.00    -0.252 OA
BRANCH   5   7
ATOM      7  C   UNL     1       0.031   1.514   0.513  1.00  0.00     0.123 C 
ATOM      8  C   UNL     1       2.037   0.072  -0.466  1.00  0.00     0.032 C 
ATOM      9  C   UNL     1       0.958   0.270   0.598  1.00  0.00     0.096 C 
ATOM     10  N   UNL     1       0.044  -0.888   0.665  1.00  0.00    -0.336 N 
ATOM     11  C   UNL     1      -1.400   0.959   0.366  1.00  0.00     0.039 C 
ATOM     12  C   UNL     1      -1.278  -0.539   0.203  1.00  0.00     0.121 C 
BRANCH  10  13
ATOM     13  C   UNL     1       0.297  -2.210   0.981  1.00  0.00     0.246 C 
ATOM     14  O   UNL     1      -0.560  -3.089   0.893  1.00  0.00    -0.270 OA
BRANCH  13  15
ATOM     15  C   UNL     1       1.678  -2.625   1.327  1.00  0.00     0.072 C 
ATOM     16  C   UNL     1       2.417  -2.029   2.274  1.00  0.00     0.014 C 
BRANCH  16  17
ATOM     17  C   UNL     1       3.833  -2.308   2.571  1.00  0.00    -0.023 A 
ATOM     18  C   UNL     1       4.505  -1.428   3.437  1.00  0.00     0.008 A 
ATOM     19  C   UNL     1       4.553  -3.374   2.019  1.00  0.00     0.047 A 
ATOM     20  C   UNL     1       5.858  -1.605   3.744  1.00  0.00     0.004 A 
ATOM     21  C   UNL     1       5.900  -3.545   2.334  1.00  0.00     0.123 A 
ATOM     22  C   UNL     1       6.558  -2.672   3.190  1.00  0.00     0.039 A 
ATOM     23  F   UNL     1       6.573  -4.572   1.799  1.00  0.00    -0.207 F 
ENDBRANCH  16  17
ENDBRANCH  13  15
ENDBRANCH  10  13
ENDBRANCH   5   7
ENDBRANCH   4   5
ENDBRANCH   3   4
ENDBRANCH   2   3
ENDBRANCH   1   2
BRANCH   1  24
ATOM     24  C   UNL     1      -0.553   1.014  -3.274  1.00  0.00     0.202 C 
BRANCH  24  25
ATOM     25  C   UNL     1      -0.325  -0.349  -3.936  1.00  0.00     0.261 C 
BRANCH  25  26
ATOM     26  O   UNL     1       1.067  -0.700  -3.943  1.00  0.00    -0.460 OA
BRANCH  26  27
ATOM     27  C   UNL     1       1.691  -0.447  -5.115  1.00  0.00     0.338 C 
ATOM     28  O   UNL     1       1.169  -0.061  -6.153  1.00  0.00    -0.246 OA
BRANCH  27  29
ATOM     29  C   UNL     1       3.155  -0.538  -4.955  1.00  0.00     0.060 A 
ATOM     30  C   UNL     1       3.920   0.411  -5.641  1.00  0.00     0.016 A 
ATOM     31  C   UNL     1       3.777  -1.555  -4.223  1.00  0.00     0.016 A 
ATOM     32  C   UNL     1       5.303   0.288  -5.687  1.00  0.00     0.010 A 
ATOM     33  C   UNL     1       5.172  -1.672  -4.262  1.00  0.00     0.010 A 
ATOM     34  C   UNL     1       5.933  -0.787  -5.046  1.00  0.00    -0.014 A 
BRANCH  34  35
ATOM     35  C   UNL     1       7.353  -1.065  -5.375  1.00  0.00     0.031 A 
ATOM     36  C   UNL     1       7.671  -2.162  -6.358  1.00  0.00     0.074 A 
ATOM     37  C   UNL     1       8.334  -0.281  -4.892  1.00  0.00     0.049 A 
ATOM     38  N   UNL     1       8.824  -2.504  -6.872  1.00  0.00    -0.248 NA
ATOM     39  C   UNL     1       6.539  -2.978  -6.829  1.00  0.00     0.031 C 
ATOM     40  C   UNL     1       8.146   0.835  -3.966  1.00  0.00     0.029 A 
ATOM     41  N   UNL     1       9.684  -0.293  -5.135  1.00  0.00    -0.354 N 
ATOM     42  C   UNL     1       8.557  -3.573  -7.722  1.00  0.00     0.074 A 
ATOM     43  C   UNL     1       7.142  -3.850  -7.623  1.00  0.00     0.031 C 
ATOM     44  C   UNL     1       9.336   1.412  -3.731  1.00  0.00     0.029 A 
ATOM     45  C   UNL     1      10.372   0.693  -4.470  1.00  0.00     0.049 A 
ATOM     46  H   UNL     1      10.119  -0.946  -5.730  1.00  0.00     0.167 HD
ATOM     47  C   UNL     1       9.409  -4.254  -8.525  1.00  0.00     0.031 A 
ATOM     48  C   UNL     1      11.688   0.982  -4.457  1.00  0.00     0.031 A 
ATOM     49  C   UNL     1      10.819  -3.981  -8.616  1.00  0.00     0.049 A 
ATOM     50  C   UNL     1      12.626   0.176  -5.317  1.00  0.00     0.074 A 
ATOM     51  C   UNL     1      11.768  -4.604  -9.408  1.00  0.00     0.029 A 
ATOM     52  N   UNL     1      11.485  -3.008  -7.886  1.00  0.00    -0.354 N 
ATOM     53  N   UNL     1      12.351  -0.812  -6.137  1.00  0.00    -0.248 NA
ATOM     54  C   UNL     1      14.049   0.538  -5.264  1.00  0.00     0.031 C 
ATOM     55  C   UNL     1      13.017  -4.047  -9.113  1.00  0.00     0.029 A 
ATOM     56  C   UNL     1      12.836  -3.030  -8.189  1.00  0.00     0.049 A 
ATOM     57  H   UNL     1      11.060  -2.392  -7.247  1.00  0.00     0.167 HD
ATOM     58  C   UNL     1      13.564  -1.170  -6.718  1.00  0.00     0.074 A 
ATOM     59  C   UNL     1      14.567  -0.280  -6.170  1.00  0.00     0.031 C 
ATOM     60  C   UNL     1      13.824  -2.143  -7.627  1.00  0.00     0.031 A 
BRANCH  47  61
ATOM     61  C   UNL     1       8.841  -5.384  -9.345  1.00  0.00    -0.014 A 
ATOM     62  C   UNL     1       7.982  -5.140 -10.432  1.00  0.00     0.010 A 
ATOM     63  C   UNL     1       9.198  -6.710  -9.041  1.00  0.00     0.010 A 
ATOM     64  C   UNL     1       7.459  -6.203 -11.175  1.00  0.00     0.020 A 
ATOM     65  C   UNL     1       8.701  -7.775  -9.799  1.00  0.00     0.020 A 
ATOM     66  C   UNL     1       7.821  -7.515 -10.851  1.00  0.00     0.054 A 
BRANCH  66  67
ATOM     67  S   UNL     1       7.146  -8.874 -11.845  1.00  0.00     0.124 S 
ATOM     68  O   UNL     1       5.750  -8.895 -11.417  1.00  0.00    -0.237 OA
ATOM     69  O   UNL     1       7.377  -8.416 -13.213  1.00  0.00    -0.237 OA
ATOM     70  O   UNL     1       7.939 -10.031 -11.436  1.00  0.00    -0.744 OA
ENDBRANCH  66  67
ENDBRANCH  47  61
BRANCH  48  71
ATOM     71  C   UNL     1      12.197   2.087  -3.598  1.00  0.00    -0.014 A 
ATOM     72  C   UNL     1      12.712   3.267  -4.163  1.00  0.00     0.010 A 
ATOM     73  C   UNL     1      12.166   1.958  -2.196  1.00  0.00     0.010 A 
ATOM     74  C   UNL     1      13.201   4.290  -3.344  1.00  0.00     0.020 A 
ATOM     75  C   UNL     1      12.626   2.990  -1.375  1.00  0.00     0.020 A 
ATOM     76  C   UNL     1      13.151   4.146  -1.954  1.00  0.00     0.054 A 
BRANCH  76  77
ATOM     77  S   UNL     1      13.741   5.507  -0.909  1.00  0.00     0.124 S 
ATOM     78  O   UNL     1      15.187   5.420  -1.084  1.00  0.00    -0.237 OA
ATOM     79  O   UNL     1      13.097   6.670  -1.515  1.00  0.00    -0.237 OA
ATOM     80  O   UNL     1      13.247   5.155   0.420  1.00  0.00    -0.744 OA
ENDBRANCH  76  77
ENDBRANCH  48  71
BRANCH  60  81
ATOM     81  C   UNL     1      15.245  -2.273  -8.113  1.00  0.00    -0.014 A 
ATOM     82  C   UNL     1      16.268  -2.748  -7.273  1.00  0.00     0.010 A 
ATOM     83  C   UNL     1      15.554  -1.938  -9.445  1.00  0.00     0.010 A 
ATOM     84  C   UNL     1      17.583  -2.835  -7.741  1.00  0.00     0.020 A 
ATOM     85  C   UNL     1      16.860  -2.055  -9.926  1.00  0.00     0.020 A 
ATOM     86  C   UNL     1      17.871  -2.482  -9.063  1.00  0.00     0.054 A 
BRANCH  86  87
ATOM     87  S   UNL     1      19.582  -2.612  -9.649  1.00  0.00     0.124 S 
ATOM     88  O   UNL     1      20.215  -1.471  -8.993  1.00  0.00    -0.237 OA
ATOM     89  O   UNL     1      19.991  -3.926  -9.158  1.00  0.00    -0.237 OA
ATOM     90  O   UNL     1      19.460  -2.507 -11.101  1.00  0.00    -0.744 OA
ENDBRANCH  86  87
ENDBRANCH  60  81
ENDBRANCH  34  35
ENDBRANCH  27  29
ENDBRANCH  26  27
ENDBRANCH  25  26
ENDBRANCH  24  25
ENDBRANCH   1  24
TORSDOF 20
