REMARK SMILES C[C@@H](C(=O)OCCOCCOC(=O)c1ccc(-c2c3nc(c(-c4ccc(S(=O)(=O)[O-])cc4)c4ccc([nH]4)c(-c4ccc(S(=O)(=O)[O-])cc4)c4nc(c(-c5ccc(S(=O)(=O)[O-])cc5)c5ccc2[nH]5)C=C4)C=C3)cc1)N1C(=O)/C(=C/c2ccc(F)cc2)SC1=S
REMARK SMILES IDX 9 1 8 2 7 3 6 4 5 5 3 6 4 7 2 8 1 9 74 10 75 11 87 12 76 13
REMARK SMILES IDX 77 14 86 15 88 16 78 17 79 18 80 19 85 20 81 21 84 22 82 23
REMARK SMILES IDX 83 24 10 25 11 26 12 27 13 28 14 29 15 30 73 31 16 32 72 33
REMARK SMILES IDX 17 34 18 35 19 36 66 37 20 38 71 39 65 40 67 41 21 42 70 43
REMARK SMILES IDX 64 44 63 45 22 47 52 48 33 49 51 50 34 51 37 52 50 53 68 54
REMARK SMILES IDX 35 55 36 56 49 58 69 59 38 60 23 61 24 62 32 63 25 64 31 65
REMARK SMILES IDX 26 66 27 67 28 68 29 69 30 70 53 71 54 72 62 73 55 74 61 75
REMARK SMILES IDX 56 76 57 77 58 78 59 79 60 80 39 81 40 82 48 83 41 84 47 85
REMARK SMILES IDX 42 86 43 87 44 88 45 89 46 90
REMARK H PARENT 67 46 37 57
REMARK Flexibility Score: inf
ROOT
ATOM      1  C   UNL     1       0.537  -1.485   3.065  1.00  0.00     0.202 C 
ENDROOT
BRANCH   1   2
ATOM      2  O   UNL     1       0.883  -2.826   3.412  1.00  0.00    -0.374 OA
BRANCH   2   3
ATOM      3  C   UNL     1       2.180  -3.293   3.043  1.00  0.00     0.202 C 
BRANCH   3   4
ATOM      4  C   UNL     1       2.364  -3.796   1.607  1.00  0.00     0.261 C 
BRANCH   4   5
ATOM      5  O   UNL     1       2.061  -2.798   0.620  1.00  0.00    -0.462 OA
BRANCH   5   6
ATOM      6  C   UNL     1       0.779  -2.834   0.164  1.00  0.00     0.329 C 
ATOM      7  O   UNL     1      -0.050  -3.658   0.538  1.00  0.00    -0.250 OA
BRANCH   6   8
ATOM      8  C   UNL     1       0.480  -1.729  -0.875  1.00  0.00     0.199 C 
ATOM      9  C   UNL     1       1.465  -0.562  -0.806  1.00  0.00     0.044 C 
BRANCH   8  10
ATOM     10  N   UNL     1      -0.973  -1.418  -0.747  1.00  0.00    -0.279 N 
ATOM     11  C   UNL     1      -1.818  -2.430  -1.201  1.00  0.00     0.266 C 
ATOM     12  C   UNL     1      -1.615  -0.340  -0.170  1.00  0.00     0.149 C 
ATOM     13  O   UNL     1      -1.498  -3.369  -1.918  1.00  0.00    -0.268 OA
ATOM     14  C   UNL     1      -3.208  -2.200  -0.749  1.00  0.00     0.081 C 
ATOM     15  S   UNL     1      -3.364  -0.612  -0.143  1.00  0.00    -0.054 SA
ATOM     16  S   UNL     1      -1.015   1.094   0.434  1.00  0.00    -0.052 S 
ATOM     17  C   UNL     1      -4.143  -3.155  -0.840  1.00  0.00     0.029 C 
BRANCH  17  18
ATOM     18  C   UNL     1      -5.577  -2.951  -0.626  1.00  0.00    -0.024 A 
ATOM     19  C   UNL     1      -6.250  -3.484   0.479  1.00  0.00     0.011 A 
ATOM     20  C   UNL     1      -6.293  -2.245  -1.604  1.00  0.00     0.011 A 
ATOM     21  C   UNL     1      -7.633  -3.312   0.596  1.00  0.00     0.040 A 
ATOM     22  C   UNL     1      -7.670  -2.076  -1.485  1.00  0.00     0.040 A 
ATOM     23  C   UNL     1      -8.329  -2.614  -0.388  1.00  0.00     0.123 A 
ATOM     24  F   UNL     1      -9.655  -2.464  -0.282  1.00  0.00    -0.207 F 
ENDBRANCH  17  18
ENDBRANCH   8  10
ENDBRANCH   6   8
ENDBRANCH   5   6
ENDBRANCH   4   5
ENDBRANCH   3   4
ENDBRANCH   2   3
ENDBRANCH   1   2
BRANCH   1  25
ATOM     25  C   UNL     1       1.168  -0.363   3.895  1.00  0.00     0.261 C 
BRANCH  25  26
ATOM     26  O   UNL     1       2.578  -0.244   3.631  1.00  0.00    -0.460 OA
BRANCH  26  27
ATOM     27  C   UNL     1       3.375  -0.558   4.678  1.00  0.00     0.338 C 
ATOM     28  O   UNL     1       3.019  -0.831   5.818  1.00  0.00    -0.246 OA
BRANCH  27  29
ATOM     29  C   UNL     1       4.766  -0.737   4.224  1.00  0.00     0.060 A 
ATOM     30  C   UNL     1       5.415  -1.920   4.602  1.00  0.00     0.016 A 
ATOM     31  C   UNL     1       5.449   0.249   3.508  1.00  0.00     0.016 A 
ATOM     32  C   UNL     1       6.768  -2.094   4.326  1.00  0.00     0.010 A 
ATOM     33  C   UNL     1       6.811   0.076   3.239  1.00  0.00     0.010 A 
ATOM     34  C   UNL     1       7.485  -1.077   3.684  1.00  0.00    -0.014 A 
BRANCH  34  35
ATOM     35  C   UNL     1       8.964  -1.157   3.633  1.00  0.00     0.031 A 
ATOM     36  C   UNL     1       9.769  -0.393   4.651  1.00  0.00     0.074 A 
ATOM     37  C   UNL     1       9.583  -1.935   2.728  1.00  0.00     0.049 A 
ATOM     38  N   UNL     1      11.067  -0.315   4.790  1.00  0.00    -0.248 NA
ATOM     39  C   UNL     1       9.008   0.384   5.643  1.00  0.00     0.031 C 
ATOM     40  C   UNL     1       8.913  -2.760   1.723  1.00  0.00     0.029 A 
ATOM     41  N   UNL     1      10.920  -2.157   2.510  1.00  0.00    -0.354 N 
ATOM     42  C   UNL     1      11.280   0.520   5.881  1.00  0.00     0.074 A 
ATOM     43  C   UNL     1       9.978   0.949   6.347  1.00  0.00     0.031 C 
ATOM     44  C   UNL     1       9.845  -3.393   0.989  1.00  0.00     0.029 A 
ATOM     45  C   UNL     1      11.173  -2.995   1.452  1.00  0.00     0.049 A 
ATOM     46  H   UNL     1      11.629  -1.754   3.061  1.00  0.00     0.167 HD
ATOM     47  C   UNL     1      12.451   0.893   6.449  1.00  0.00     0.031 A 
ATOM     48  C   UNL     1      12.343  -3.382   0.905  1.00  0.00     0.031 A 
ATOM     49  C   UNL     1      13.745   0.480   5.975  1.00  0.00     0.049 A 
ATOM     50  C   UNL     1      13.636  -2.897   1.507  1.00  0.00     0.074 A 
ATOM     51  C   UNL     1      14.991   0.800   6.484  1.00  0.00     0.029 A 
ATOM     52  N   UNL     1      13.960  -0.338   4.876  1.00  0.00    -0.354 N 
ATOM     53  N   UNL     1      13.820  -2.119   2.548  1.00  0.00    -0.248 NA
ATOM     54  C   UNL     1      14.879  -3.349   0.866  1.00  0.00     0.031 C 
ATOM     55  C   UNL     1      15.962   0.218   5.661  1.00  0.00     0.029 A 
ATOM     56  C   UNL     1      15.319  -0.513   4.675  1.00  0.00     0.049 A 
ATOM     57  H   UNL     1      13.251  -0.736   4.320  1.00  0.00     0.167 HD
ATOM     58  C   UNL     1      15.198  -2.009   2.700  1.00  0.00     0.074 A 
ATOM     59  C   UNL     1      15.800  -2.810   1.654  1.00  0.00     0.031 C 
ATOM     60  C   UNL     1      15.902  -1.310   3.626  1.00  0.00     0.031 A 
BRANCH  47  61
ATOM     61  C   UNL     1      12.383   1.824   7.630  1.00  0.00    -0.014 A 
ATOM     62  C   UNL     1      11.920   1.379   8.883  1.00  0.00     0.010 A 
ATOM     63  C   UNL     1      12.811   3.156   7.493  1.00  0.00     0.010 A 
ATOM     64  C   UNL     1      11.848   2.262   9.964  1.00  0.00     0.020 A 
ATOM     65  C   UNL     1      12.765   4.035   8.578  1.00  0.00     0.020 A 
ATOM     66  C   UNL     1      12.266   3.587   9.803  1.00  0.00     0.054 A 
BRANCH  66  67
ATOM     67  S   UNL     1      12.174   4.708  11.225  1.00  0.00     0.124 S 
ATOM     68  O   UNL     1      10.736   4.952  11.322  1.00  0.00    -0.237 OA
ATOM     69  O   UNL     1      12.749   3.909  12.303  1.00  0.00    -0.237 OA
ATOM     70  O   UNL     1      12.973   5.859  10.812  1.00  0.00    -0.744 OA
ENDBRANCH  66  67
ENDBRANCH  47  61
BRANCH  48  71
ATOM     71  C   UNL     1      12.343  -4.261  -0.295  1.00  0.00    -0.014 A 
ATOM     72  C   UNL     1      12.770  -5.597  -0.212  1.00  0.00     0.010 A 
ATOM     73  C   UNL     1      11.900  -3.760  -1.534  1.00  0.00     0.010 A 
ATOM     74  C   UNL     1      12.764  -6.413  -1.347  1.00  0.00     0.020 A 
ATOM     75  C   UNL     1      11.867  -4.580  -2.664  1.00  0.00     0.020 A 
ATOM     76  C   UNL     1      12.309  -5.900  -2.566  1.00  0.00     0.054 A 
BRANCH  76  77
ATOM     77  S   UNL     1      12.249  -6.995  -4.012  1.00  0.00     0.124 S 
ATOM     78  O   UNL     1      13.659  -7.095  -4.375  1.00  0.00    -0.237 OA
ATOM     79  O   UNL     1      11.648  -8.208  -3.464  1.00  0.00    -0.237 OA
ATOM     80  O   UNL     1      11.408  -6.264  -4.957  1.00  0.00    -0.744 OA
ENDBRANCH  76  77
ENDBRANCH  48  71
BRANCH  60  81
ATOM     81  C   UNL     1      17.405  -1.402   3.571  1.00  0.00    -0.014 A 
ATOM     82  C   UNL     1      18.139  -0.752   2.563  1.00  0.00     0.010 A 
ATOM     83  C   UNL     1      18.094  -2.102   4.579  1.00  0.00     0.010 A 
ATOM     84  C   UNL     1      19.535  -0.826   2.548  1.00  0.00     0.020 A 
ATOM     85  C   UNL     1      19.490  -2.156   4.582  1.00  0.00     0.020 A 
ATOM     86  C   UNL     1      20.202  -1.529   3.557  1.00  0.00     0.054 A 
BRANCH  86  87
ATOM     87  S   UNL     1      22.015  -1.574   3.540  1.00  0.00     0.124 S 
ATOM     88  O   UNL     1      22.285  -2.513   2.454  1.00  0.00    -0.237 OA
ATOM     89  O   UNL     1      22.369  -0.183   3.270  1.00  0.00    -0.237 OA
ATOM     90  O   UNL     1      22.363  -2.051   4.877  1.00  0.00    -0.744 OA
ENDBRANCH  86  87
ENDBRANCH  60  81
ENDBRANCH  34  35
ENDBRANCH  27  29
ENDBRANCH  26  27
ENDBRANCH  25  26
ENDBRANCH   1  25
TORSDOF 19
