REMARK SMILES O=C(C[N@@H+](C[C@@H]1COc2ccccc2O1)CC(F)(F)F)OCCOCCOC(=O)c1ccc(-c2c3nc(c(-c4ccc(S(=O)(=O)[O-])cc4)c4ccc([nH]4)c(-c4ccc(S(=O)(=O)[O-])cc4)c4nc(c(-c5ccc(S(=O)(=O)[O-])cc5)c5ccc2[nH]5)C=C4)C=C3)cc1
REMARK SMILES IDX 24 1 23 2 22 3 21 4 2 5 1 6 3 7 4 8 5 10 6 11 7 12 15 13
REMARK SMILES IDX 8 14 14 15 9 16 13 17 10 18 12 19 11 20 16 21 17 22 18 23
REMARK SMILES IDX 19 24 20 25 25 26 26 27 27 28 28 29 29 30 30 31 31 32 89 33
REMARK SMILES IDX 32 34 88 35 33 36 34 37 35 38 82 39 36 40 87 41 81 42 83 43
REMARK SMILES IDX 37 44 86 45 80 46 79 47 38 49 68 50 49 51 67 52 50 53 53 54
REMARK SMILES IDX 66 55 84 56 51 57 52 58 65 60 85 61 54 62 39 63 40 64 48 65
REMARK SMILES IDX 41 66 47 67 42 68 43 69 44 70 45 71 46 72 69 73 70 74 78 75
REMARK SMILES IDX 71 76 77 77 72 78 73 79 74 80 75 81 76 82 55 83 56 84 64 85
REMARK SMILES IDX 57 86 63 87 58 88 59 89 60 90 61 91 62 92
REMARK H PARENT 4 9 83 48 53 59
REMARK Flexibility Score: inf
ROOT
ATOM      1  O   UNL     1       4.396   0.692   1.741  1.00  0.00    -0.374 OA
ENDROOT
BRANCH   1   2
ATOM      2  C   UNL     1       4.885   1.150   0.478  1.00  0.00     0.202 C 
BRANCH   2   3
ATOM      3  C   UNL     1       4.535   0.283  -0.729  1.00  0.00     0.261 C 
BRANCH   3   4
ATOM      4  O   UNL     1       3.135   0.366  -1.060  1.00  0.00    -0.459 OA
BRANCH   4   5
ATOM      5  C   UNL     1       2.176  -0.447  -0.564  1.00  0.00     0.361 C 
ATOM      6  O   UNL     1       0.994  -0.244  -0.837  1.00  0.00    -0.245 OA
BRANCH   5   7
ATOM      7  C   UNL     1       2.575  -1.565   0.386  1.00  0.00     0.386 C 
BRANCH   7   8
ATOM      8  N   UNL     1       3.462  -2.560  -0.228  1.00  0.00    -0.315 N 
ATOM      9  H   UNL     1       4.133  -2.054  -0.806  1.00  0.00     0.348 HD
BRANCH   8  10
ATOM     10  C   UNL     1       4.316  -3.237   0.769  1.00  0.00     0.312 C 
BRANCH  10  11
ATOM     11  C   UNL     1       3.578  -4.104   1.809  1.00  0.00     0.265 C 
ATOM     12  C   UNL     1       4.259  -4.169   3.178  1.00  0.00     0.281 C 
ATOM     13  O   UNL     1       3.376  -5.407   1.255  1.00  0.00    -0.477 OA
ATOM     14  O   UNL     1       5.492  -4.885   3.173  1.00  0.00    -0.486 OA
ATOM     15  C   UNL     1       4.417  -6.260   1.481  1.00  0.00     0.162 A 
ATOM     16  C   UNL     1       5.407  -6.034   2.436  1.00  0.00     0.161 A 
ATOM     17  C   UNL     1       4.445  -7.409   0.696  1.00  0.00     0.050 A 
ATOM     18  C   UNL     1       6.395  -6.992   2.649  1.00  0.00     0.050 A 
ATOM     19  C   UNL     1       5.447  -8.357   0.891  1.00  0.00     0.004 A 
ATOM     20  C   UNL     1       6.409  -8.160   1.884  1.00  0.00     0.004 A 
ENDBRANCH  10  11
ENDBRANCH   8  10
BRANCH   8  21
ATOM     21  C   UNL     1       2.806  -3.410  -1.251  1.00  0.00     0.379 C 
BRANCH  21  22
ATOM     22  C   UNL     1       1.380  -3.998  -1.091  1.00  0.00     0.438 C 
ATOM     23  F   UNL     1       0.470  -3.057  -0.763  1.00  0.00    -0.165 F 
ATOM     24  F   UNL     1       0.973  -4.556  -2.256  1.00  0.00    -0.165 F 
ATOM     25  F   UNL     1       1.316  -4.958  -0.148  1.00  0.00    -0.165 F 
ENDBRANCH  21  22
ENDBRANCH   8  21
ENDBRANCH   7   8
ENDBRANCH   5   7
ENDBRANCH   4   5
ENDBRANCH   3   4
ENDBRANCH   2   3
ENDBRANCH   1   2
BRANCH   1  26
ATOM     26  C   UNL     1       3.137   1.237   2.160  1.00  0.00     0.202 C 
BRANCH  26  27
ATOM     27  C   UNL     1       3.188   2.587   2.877  1.00  0.00     0.261 C 
BRANCH  27  28
ATOM     28  O   UNL     1       3.495   3.641   1.959  1.00  0.00    -0.460 OA
BRANCH  28  29
ATOM     29  C   UNL     1       4.804   3.972   1.880  1.00  0.00     0.338 C 
ATOM     30  O   UNL     1       5.715   3.561   2.581  1.00  0.00    -0.246 OA
BRANCH  29  31
ATOM     31  C   UNL     1       5.004   4.734   0.634  1.00  0.00     0.060 A 
ATOM     32  C   UNL     1       6.113   4.417  -0.166  1.00  0.00     0.016 A 
ATOM     33  C   UNL     1       4.098   5.722   0.245  1.00  0.00     0.016 A 
ATOM     34  C   UNL     1       6.355   5.134  -1.333  1.00  0.00     0.010 A 
ATOM     35  C   UNL     1       4.345   6.444  -0.915  1.00  0.00     0.010 A 
ATOM     36  C   UNL     1       5.499   6.184  -1.676  1.00  0.00    -0.014 A 
BRANCH  36  37
ATOM     37  C   UNL     1       5.897   7.181  -2.687  1.00  0.00     0.031 A 
ATOM     38  C   UNL     1       6.437   8.490  -2.189  1.00  0.00     0.074 A 
ATOM     39  C   UNL     1       5.699   6.958  -3.994  1.00  0.00     0.049 A 
ATOM     40  N   UNL     1       6.656   9.599  -2.840  1.00  0.00    -0.248 NA
ATOM     41  C   UNL     1       6.741   8.560  -0.748  1.00  0.00     0.031 C 
ATOM     42  C   UNL     1       5.213   5.708  -4.574  1.00  0.00     0.029 A 
ATOM     43  N   UNL     1       5.844   7.801  -5.064  1.00  0.00    -0.354 N 
ATOM     44  C   UNL     1       7.084  10.512  -1.883  1.00  0.00     0.074 A 
ATOM     45  C   UNL     1       7.072   9.834  -0.607  1.00  0.00     0.031 C 
ATOM     46  C   UNL     1       5.061   5.878  -5.899  1.00  0.00     0.029 A 
ATOM     47  C   UNL     1       5.391   7.260  -6.242  1.00  0.00     0.049 A 
ATOM     48  H   UNL     1       6.233   8.702  -4.995  1.00  0.00     0.167 HD
ATOM     49  C   UNL     1       7.443  11.805  -2.058  1.00  0.00     0.031 A 
ATOM     50  C   UNL     1       5.217   7.835  -7.448  1.00  0.00     0.031 A 
ATOM     51  C   UNL     1       7.418  12.461  -3.337  1.00  0.00     0.049 A 
ATOM     52  C   UNL     1       5.575   9.287  -7.620  1.00  0.00     0.074 A 
ATOM     53  C   UNL     1       7.790  13.756  -3.647  1.00  0.00     0.029 A 
ATOM     54  N   UNL     1       6.979  11.873  -4.516  1.00  0.00    -0.354 N 
ATOM     55  N   UNL     1       6.011  10.139  -6.721  1.00  0.00    -0.248 NA
ATOM     56  C   UNL     1       5.428   9.853  -8.967  1.00  0.00     0.031 C 
ATOM     57  C   UNL     1       7.511  13.971  -5.001  1.00  0.00     0.029 A 
ATOM     58  C   UNL     1       7.043  12.787  -5.552  1.00  0.00     0.049 A 
ATOM     59  H   UNL     1       6.669  10.943  -4.601  1.00  0.00     0.167 HD
ATOM     60  C   UNL     1       6.224  11.334  -7.400  1.00  0.00     0.074 A 
ATOM     61  C   UNL     1       5.868  11.092  -8.785  1.00  0.00     0.031 C 
ATOM     62  C   UNL     1       6.684  12.519  -6.925  1.00  0.00     0.031 A 
BRANCH  49  63
ATOM     63  C   UNL     1       7.820  12.590  -0.829  1.00  0.00    -0.014 A 
ATOM     64  C   UNL     1       8.969  12.280  -0.076  1.00  0.00     0.010 A 
ATOM     65  C   UNL     1       6.994  13.646  -0.404  1.00  0.00     0.010 A 
ATOM     66  C   UNL     1       9.245  12.964   1.111  1.00  0.00     0.020 A 
ATOM     67  C   UNL     1       7.286  14.358   0.763  1.00  0.00     0.020 A 
ATOM     68  C   UNL     1       8.396  13.993   1.527  1.00  0.00     0.054 A 
BRANCH  68  69
ATOM     69  S   UNL     1       8.764  14.849   3.083  1.00  0.00     0.124 S 
ATOM     70  O   UNL     1       8.423  13.832   4.074  1.00  0.00    -0.237 OA
ATOM     71  O   UNL     1      10.188  15.148   2.954  1.00  0.00    -0.237 OA
ATOM     72  O   UNL     1       7.881  16.013   3.057  1.00  0.00    -0.744 OA
ENDBRANCH  68  69
ENDBRANCH  49  63
BRANCH  50  73
ATOM     73  C   UNL     1       4.663   7.023  -8.563  1.00  0.00    -0.014 A 
ATOM     74  C   UNL     1       5.491   6.598  -9.615  1.00  0.00     0.010 A 
ATOM     75  C   UNL     1       3.321   6.598  -8.533  1.00  0.00     0.010 A 
ATOM     76  C   UNL     1       4.991   5.750 -10.609  1.00  0.00     0.020 A 
ATOM     77  C   UNL     1       2.825   5.729  -9.509  1.00  0.00     0.020 A 
ATOM     78  C   UNL     1       3.666   5.310 -10.542  1.00  0.00     0.054 A 
BRANCH  78  79
ATOM     79  S   UNL     1       3.078   4.124 -11.783  1.00  0.00     0.124 S 
ATOM     80  O   UNL     1       3.022   4.946 -12.988  1.00  0.00    -0.237 OA
ATOM     81  O   UNL     1       4.125   3.105 -11.760  1.00  0.00    -0.237 OA
ATOM     82  O   UNL     1       1.785   3.691 -11.259  1.00  0.00    -0.744 OA
ENDBRANCH  78  79
ENDBRANCH  50  73
BRANCH  62  83
ATOM     83  C   UNL     1       6.888  13.639  -7.912  1.00  0.00    -0.014 A 
ATOM     84  C   UNL     1       5.804  14.335  -8.473  1.00  0.00     0.010 A 
ATOM     85  C   UNL     1       8.200  14.062  -8.199  1.00  0.00     0.010 A 
ATOM     86  C   UNL     1       6.030  15.427  -9.316  1.00  0.00     0.020 A 
ATOM     87  C   UNL     1       8.428  15.171  -9.015  1.00  0.00     0.020 A 
ATOM     88  C   UNL     1       7.341  15.842  -9.575  1.00  0.00     0.054 A 
BRANCH  88  89
ATOM     89  S   UNL     1       7.604  17.309 -10.610  1.00  0.00     0.124 S 
ATOM     90  O   UNL     1       7.233  16.817 -11.934  1.00  0.00    -0.237 OA
ATOM     91  O   UNL     1       6.688  18.282 -10.021  1.00  0.00    -0.237 OA
ATOM     92  O   UNL     1       9.023  17.610 -10.432  1.00  0.00    -0.744 OA
ENDBRANCH  88  89
ENDBRANCH  62  83
ENDBRANCH  36  37
ENDBRANCH  29  31
ENDBRANCH  28  29
ENDBRANCH  27  28
ENDBRANCH  26  27
ENDBRANCH   1  26
TORSDOF 22
