REMARK SMILES CCn1cc(CC(=O)OCCOCCOC(=O)c2ccc(-c3c4nc(c(-c5ccc(S(=O)(=O)[O-])cc5)c5ccc([nH]5)c(-c5ccc(S(=O)(=O)[O-])cc5)c5nc(c(-c6ccc(S(=O)(=O)[O-])cc6)c6ccc3[nH]6)C=C5)C=C4)cc2)c2ccccc21
REMARK SMILES IDX 13 1 12 2 11 3 10 4 9 5 7 6 8 7 6 8 5 9 3 10 4 11 83 12
REMARK SMILES IDX 78 13 82 14 79 15 81 16 80 17 2 18 1 19 14 20 15 21 16 22
REMARK SMILES IDX 17 23 18 24 19 25 77 26 20 27 76 28 21 29 22 30 23 31 70 32
REMARK SMILES IDX 24 33 75 34 69 35 71 36 25 37 74 38 68 39 67 40 26 42 56 43
REMARK SMILES IDX 37 44 55 45 38 46 41 47 54 48 72 49 39 50 40 51 53 53 73 54
REMARK SMILES IDX 42 55 27 56 28 57 36 58 29 59 35 60 30 61 31 62 32 63 33 64
REMARK SMILES IDX 34 65 57 66 58 67 66 68 59 69 65 70 60 71 61 72 62 73 63 74
REMARK SMILES IDX 64 75 43 76 44 77 52 78 45 79 51 80 46 81 47 82 48 83 49 84
REMARK SMILES IDX 50 85
REMARK H PARENT 71 41 41 52
REMARK Flexibility Score: inf
ROOT
ATOM      1  C   UNL     1       3.207  -4.274  -5.206  1.00  0.00     0.202 C 
ENDROOT
BRANCH   1   2
ATOM      2  O   UNL     1       4.378  -4.418  -5.996  1.00  0.00    -0.374 OA
BRANCH   2   3
ATOM      3  C   UNL     1       5.458  -3.531  -5.741  1.00  0.00     0.202 C 
BRANCH   3   4
ATOM      4  C   UNL     1       5.337  -2.017  -5.972  1.00  0.00     0.261 C 
BRANCH   4   5
ATOM      5  O   UNL     1       4.130  -1.420  -5.471  1.00  0.00    -0.463 OA
BRANCH   5   6
ATOM      6  C   UNL     1       3.202  -1.155  -6.430  1.00  0.00     0.310 C 
ATOM      7  O   UNL     1       3.349  -1.410  -7.624  1.00  0.00    -0.252 OA
BRANCH   6   8
ATOM      8  C   UNL     1       1.939  -0.493  -5.934  1.00  0.00     0.160 C 
BRANCH   8   9
ATOM      9  C   UNL     1       1.512  -0.706  -4.510  1.00  0.00    -0.011 A 
ATOM     10  N   UNL     1       1.012  -0.254  -2.373  1.00  0.00    -0.347 N 
ATOM     11  C   UNL     1       1.655   0.217  -3.490  1.00  0.00     0.091 A 
ATOM     12  C   UNL     1       0.577  -1.544  -2.592  1.00  0.00     0.048 A 
ATOM     13  C   UNL     1       0.777  -1.809  -3.952  1.00  0.00     0.003 A 
ATOM     14  C   UNL     1      -0.005  -2.486  -1.725  1.00  0.00     0.027 A 
ATOM     15  C   UNL     1       0.266  -3.021  -4.473  1.00  0.00     0.010 A 
ATOM     16  C   UNL     1      -0.389  -3.722  -2.248  1.00  0.00     0.002 A 
ATOM     17  C   UNL     1      -0.283  -3.979  -3.609  1.00  0.00     0.001 A 
BRANCH  10  18
ATOM     18  C   UNL     1       0.660   0.580  -1.236  1.00  0.00     0.119 C 
ATOM     19  C   UNL     1       1.365   0.225   0.059  1.00  0.00     0.027 C 
ENDBRANCH  10  18
ENDBRANCH   8   9
ENDBRANCH   6   8
ENDBRANCH   5   6
ENDBRANCH   4   5
ENDBRANCH   3   4
ENDBRANCH   2   3
ENDBRANCH   1   2
BRANCH   1  20
ATOM     20  C   UNL     1       3.274  -4.537  -3.692  1.00  0.00     0.261 C 
BRANCH  20  21
ATOM     21  O   UNL     1       4.295  -3.795  -3.035  1.00  0.00    -0.460 OA
BRANCH  21  22
ATOM     22  C   UNL     1       4.985  -4.496  -2.092  1.00  0.00     0.338 C 
ATOM     23  O   UNL     1       4.644  -5.487  -1.494  1.00  0.00    -0.246 OA
BRANCH  22  24
ATOM     24  C   UNL     1       6.374  -4.043  -2.283  1.00  0.00     0.060 A 
ATOM     25  C   UNL     1       6.658  -2.675  -2.341  1.00  0.00     0.016 A 
ATOM     26  C   UNL     1       7.247  -5.007  -2.807  1.00  0.00     0.016 A 
ATOM     27  C   UNL     1       7.770  -2.264  -3.058  1.00  0.00     0.010 A 
ATOM     28  C   UNL     1       8.348  -4.589  -3.535  1.00  0.00     0.010 A 
ATOM     29  C   UNL     1       8.569  -3.221  -3.708  1.00  0.00    -0.014 A 
BRANCH  29  30
ATOM     30  C   UNL     1       9.747  -2.753  -4.429  1.00  0.00     0.031 A 
ATOM     31  C   UNL     1      10.790  -2.202  -3.521  1.00  0.00     0.074 A 
ATOM     32  C   UNL     1       9.978  -2.943  -5.744  1.00  0.00     0.049 A 
ATOM     33  N   UNL     1      11.294  -1.013  -3.504  1.00  0.00    -0.248 NA
ATOM     34  C   UNL     1      11.213  -3.054  -2.396  1.00  0.00     0.031 C 
ATOM     35  C   UNL     1       9.221  -3.738  -6.709  1.00  0.00     0.029 A 
ATOM     36  N   UNL     1      11.053  -2.544  -6.476  1.00  0.00    -0.354 N 
ATOM     37  C   UNL     1      12.214  -1.007  -2.458  1.00  0.00     0.074 A 
ATOM     38  C   UNL     1      12.010  -2.229  -1.723  1.00  0.00     0.031 C 
ATOM     39  C   UNL     1       9.979  -3.965  -7.806  1.00  0.00     0.029 A 
ATOM     40  C   UNL     1      11.229  -3.243  -7.664  1.00  0.00     0.049 A 
ATOM     41  H   UNL     1      11.655  -1.821  -6.188  1.00  0.00     0.167 HD
ATOM     42  C   UNL     1      13.209  -0.084  -2.356  1.00  0.00     0.031 A 
ATOM     43  C   UNL     1      12.370  -3.322  -8.400  1.00  0.00     0.031 A 
ATOM     44  C   UNL     1      12.973   1.064  -3.184  1.00  0.00     0.049 A 
ATOM     45  C   UNL     1      13.194  -2.143  -8.018  1.00  0.00     0.074 A 
ATOM     46  C   UNL     1      11.995   2.039  -3.210  1.00  0.00     0.029 A 
ATOM     47  N   UNL     1      13.576   1.107  -4.419  1.00  0.00    -0.354 N 
ATOM     48  N   UNL     1      12.822  -0.909  -8.238  1.00  0.00    -0.248 NA
ATOM     49  C   UNL     1      14.170  -2.325  -6.952  1.00  0.00     0.031 C 
ATOM     50  C   UNL     1      11.716   2.233  -4.593  1.00  0.00     0.029 A 
ATOM     51  C   UNL     1      12.594   1.427  -5.324  1.00  0.00     0.049 A 
ATOM     52  H   UNL     1      14.527   0.941  -4.616  1.00  0.00     0.167 HD
ATOM     53  C   UNL     1      13.181  -0.220  -7.088  1.00  0.00     0.074 A 
ATOM     54  C   UNL     1      14.058  -1.136  -6.354  1.00  0.00     0.031 C 
ATOM     55  C   UNL     1      12.525   0.906  -6.676  1.00  0.00     0.031 A 
BRANCH  42  56
ATOM     56  C   UNL     1      14.533  -0.372  -1.706  1.00  0.00    -0.014 A 
ATOM     57  C   UNL     1      15.006  -1.685  -1.499  1.00  0.00     0.010 A 
ATOM     58  C   UNL     1      15.445   0.678  -1.489  1.00  0.00     0.010 A 
ATOM     59  C   UNL     1      16.301  -1.947  -1.056  1.00  0.00     0.020 A 
ATOM     60  C   UNL     1      16.765   0.424  -1.088  1.00  0.00     0.020 A 
ATOM     61  C   UNL     1      17.179  -0.889  -0.864  1.00  0.00     0.054 A 
BRANCH  61  62
ATOM     62  S   UNL     1      18.881  -1.276  -0.389  1.00  0.00     0.124 S 
ATOM     63  O   UNL     1      18.703  -1.797   0.964  1.00  0.00    -0.237 OA
ATOM     64  O   UNL     1      19.271  -2.257  -1.397  1.00  0.00    -0.237 OA
ATOM     65  O   UNL     1      19.563   0.013  -0.478  1.00  0.00    -0.744 OA
ENDBRANCH  61  62
ENDBRANCH  42  56
BRANCH  43  66
ATOM     66  C   UNL     1      12.971  -4.604  -8.885  1.00  0.00    -0.014 A 
ATOM     67  C   UNL     1      12.635  -5.820  -8.251  1.00  0.00     0.010 A 
ATOM     68  C   UNL     1      14.073  -4.618  -9.763  1.00  0.00     0.010 A 
ATOM     69  C   UNL     1      13.399  -6.979  -8.421  1.00  0.00     0.020 A 
ATOM     70  C   UNL     1      14.849  -5.782  -9.941  1.00  0.00     0.020 A 
ATOM     71  C   UNL     1      14.526  -6.944  -9.236  1.00  0.00     0.054 A 
BRANCH  71  72
ATOM     72  S   UNL     1      15.595  -8.414  -9.270  1.00  0.00     0.124 S 
ATOM     73  O   UNL     1      16.122  -8.436  -7.908  1.00  0.00    -0.237 OA
ATOM     74  O   UNL     1      14.652  -9.483  -9.592  1.00  0.00    -0.237 OA
ATOM     75  O   UNL     1      16.570  -8.111 -10.314  1.00  0.00    -0.744 OA
ENDBRANCH  71  72
ENDBRANCH  43  66
BRANCH  55  76
ATOM     76  C   UNL     1      11.450   1.522  -7.555  1.00  0.00    -0.014 A 
ATOM     77  C   UNL     1      11.527   2.907  -7.792  1.00  0.00     0.010 A 
ATOM     78  C   UNL     1      10.257   0.853  -7.902  1.00  0.00     0.010 A 
ATOM     79  C   UNL     1      10.433   3.616  -8.293  1.00  0.00     0.020 A 
ATOM     80  C   UNL     1       9.159   1.558  -8.431  1.00  0.00     0.020 A 
ATOM     81  C   UNL     1       9.247   2.943  -8.590  1.00  0.00     0.054 A 
BRANCH  81  82
ATOM     82  S   UNL     1       7.821   3.929  -9.132  1.00  0.00     0.124 S 
ATOM     83  O   UNL     1       7.473   4.663  -7.917  1.00  0.00    -0.237 OA
ATOM     84  O   UNL     1       8.382   4.741 -10.209  1.00  0.00    -0.237 OA
ATOM     85  O   UNL     1       6.839   2.934  -9.555  1.00  0.00    -0.744 OA
ENDBRANCH  81  82
ENDBRANCH  55  76
ENDBRANCH  29  30
ENDBRANCH  22  24
ENDBRANCH  21  22
ENDBRANCH  20  21
ENDBRANCH   1  20
TORSDOF 19
