REMARK SMILES O=C(OCCOCCOC(=O)c1ccc(-c2c3nc(c(-c4ccc(S(=O)(=O)[O-])cc4)c4ccc([nH]4)c(-c4ccc(S(=O)(=O)[O-])cc4)c4nc(c(-c5ccc(S(=O)(=O)[O-])cc5)c5ccc2[nH]5)C=C4)C=C3)cc1)C1=Cc2cc(Cl)cc(C#Cc3ccccc3)c2O[C@@H]1C(F)(F)F
REMARK SMILES IDX 7 1 6 2 5 3 4 4 3 5 2 6 1 7 72 8 73 9 90 10 74 11 89 12
REMARK SMILES IDX 75 13 88 14 76 15 79 16 77 17 78 18 91 19 92 20 93 21 94 22
REMARK SMILES IDX 80 23 81 24 82 25 83 26 87 27 84 28 86 29 85 30 8 31 9 32
REMARK SMILES IDX 10 33 11 34 12 35 13 36 71 37 14 38 70 39 15 40 16 41 17 42
REMARK SMILES IDX 64 43 18 44 69 45 63 46 65 47 19 48 68 49 62 50 61 51 20 53
REMARK SMILES IDX 50 54 31 55 49 56 32 57 35 58 48 59 66 60 33 61 34 62 47 64
REMARK SMILES IDX 67 65 36 66 21 67 22 68 30 69 23 70 29 71 24 72 25 73 26 74
REMARK SMILES IDX 27 75 28 76 51 77 52 78 60 79 53 80 59 81 54 82 55 83 56 84
REMARK SMILES IDX 57 85 58 86 37 87 38 88 46 89 39 90 45 91 40 92 41 93 42 94
REMARK SMILES IDX 43 95 44 96
REMARK H PARENT 65 52 35 63
REMARK Flexibility Score: inf
ROOT
ATOM      1  C   UNL     1       2.896  -3.246   0.158  1.00  0.00     0.202 C 
ENDROOT
BRANCH   1   2
ATOM      2  O   UNL     1       3.684  -2.425  -0.708  1.00  0.00    -0.374 OA
BRANCH   2   3
ATOM      3  C   UNL     1       4.195  -0.969  -0.550  1.00  0.00     0.202 C 
BRANCH   3   4
ATOM      4  C   UNL     1       3.162   0.881  -0.057  1.00  0.00     0.261 C 
BRANCH   4   5
ATOM      5  O   UNL     1       2.304   1.750  -1.000  1.00  0.00    -0.460 OA
BRANCH   5   6
ATOM      6  C   UNL     1       2.627   1.598  -2.286  1.00  0.00     0.338 C 
ATOM      7  O   UNL     1       2.112   2.059  -3.272  1.00  0.00    -0.246 OA
BRANCH   6   8
ATOM      8  C   UNL     1       3.517   0.480  -2.079  1.00  0.00     0.087 C 
ATOM      9  C   UNL     1       4.825   0.971  -1.542  1.00  0.00     0.027 C 
ATOM     10  C   UNL     1       2.267  -0.619  -1.089  1.00  0.00     0.316 C 
ATOM     11  C   UNL     1       5.353   0.713   0.186  1.00  0.00     0.020 A 
ATOM     12  O   UNL     1       2.788  -0.857   0.745  1.00  0.00    -0.474 OA
ATOM     13  C   UNL     1       6.508   1.300   0.613  1.00  0.00     0.032 A 
ATOM     14  C   UNL     1       4.308  -0.072   1.362  1.00  0.00     0.143 A 
ATOM     15  C   UNL     1       6.692   1.240   1.997  1.00  0.00     0.043 A 
ATOM     16  C   UNL     1       4.537  -0.019   2.706  1.00  0.00     0.069 A 
ATOM     17  Cl  UNL     1       8.172   1.902   2.618  1.00  0.00    -0.084 Cl
ATOM     18  C   UNL     1       5.755   0.662   2.961  1.00  0.00     0.041 A 
BRANCH  10  19
ATOM     19  C   UNL     1       1.878  -1.699  -2.175  1.00  0.00     0.430 C 
ATOM     20  F   UNL     1       1.150  -2.738  -1.730  1.00  0.00    -0.167 F 
ATOM     21  F   UNL     1       1.086  -1.071  -3.098  1.00  0.00    -0.167 F 
ATOM     22  F   UNL     1       2.923  -2.163  -2.903  1.00  0.00    -0.167 F 
ENDBRANCH  10  19
BRANCH  16  23
ATOM     23  C   UNL     1       3.750  -0.562   3.765  1.00  0.00    -0.058 C 
ATOM     24  C   UNL     1       3.275  -1.096   4.748  1.00  0.00    -0.062 C 
BRANCH  24  25
ATOM     25  C   UNL     1       3.011  -1.859   5.940  1.00  0.00     0.025 A 
ATOM     26  C   UNL     1       3.340  -1.338   7.199  1.00  0.00     0.017 A 
ATOM     27  C   UNL     1       2.699  -3.224   5.834  1.00  0.00     0.017 A 
ATOM     28  C   UNL     1       3.437  -2.182   8.314  1.00  0.00     0.001 A 
ATOM     29  C   UNL     1       2.814  -4.070   6.947  1.00  0.00     0.001 A 
ATOM     30  C   UNL     1       3.200  -3.551   8.182  1.00  0.00     0.000 A 
ENDBRANCH  24  25
ENDBRANCH  16  23
ENDBRANCH   6   8
ENDBRANCH   5   6
ENDBRANCH   4   5
ENDBRANCH   3   4
ENDBRANCH   2   3
ENDBRANCH   1   2
BRANCH   1  31
ATOM     31  C   UNL     1       3.433  -3.887   1.422  1.00  0.00     0.261 C 
BRANCH  31  32
ATOM     32  O   UNL     1       4.362  -3.117   2.156  1.00  0.00    -0.460 OA
BRANCH  32  33
ATOM     33  C   UNL     1       5.672  -3.437   2.010  1.00  0.00     0.338 C 
ATOM     34  O   UNL     1       6.205  -4.012   1.084  1.00  0.00    -0.246 OA
BRANCH  33  35
ATOM     35  C   UNL     1       6.295  -3.020   3.282  1.00  0.00     0.060 A 
ATOM     36  C   UNL     1       7.320  -2.077   3.368  1.00  0.00     0.016 A 
ATOM     37  C   UNL     1       5.698  -3.493   4.439  1.00  0.00     0.016 A 
ATOM     38  C   UNL     1       7.656  -1.514   4.625  1.00  0.00     0.010 A 
ATOM     39  C   UNL     1       5.993  -2.887   5.651  1.00  0.00     0.010 A 
ATOM     40  C   UNL     1       6.960  -1.882   5.785  1.00  0.00    -0.014 A 
BRANCH  40  41
ATOM     41  C   UNL     1       7.266  -1.406   7.178  1.00  0.00     0.031 A 
ATOM     42  C   UNL     1       7.632  -2.457   8.207  1.00  0.00     0.074 A 
ATOM     43  C   UNL     1       7.081  -0.138   7.618  1.00  0.00     0.049 A 
ATOM     44  N   UNL     1       7.830  -2.326   9.494  1.00  0.00    -0.248 NA
ATOM     45  C   UNL     1       7.675  -3.859   7.745  1.00  0.00     0.031 C 
ATOM     46  C   UNL     1       6.535   0.974   6.848  1.00  0.00     0.029 A 
ATOM     47  N   UNL     1       7.316   0.434   8.853  1.00  0.00    -0.354 N 
ATOM     48  C   UNL     1       7.972  -3.621   9.971  1.00  0.00     0.074 A 
ATOM     49  C   UNL     1       7.649  -4.515   8.889  1.00  0.00     0.031 C 
ATOM     50  C   UNL     1       6.555   2.101   7.582  1.00  0.00     0.029 A 
ATOM     51  C   UNL     1       7.082   1.795   8.907  1.00  0.00     0.049 A 
ATOM     52  H   UNL     1       7.625  -0.085   9.631  1.00  0.00     0.167 HD
ATOM     53  C   UNL     1       8.443  -4.054  11.162  1.00  0.00     0.031 A 
ATOM     54  C   UNL     1       7.283   2.694   9.896  1.00  0.00     0.031 A 
ATOM     55  C   UNL     1       8.849  -3.178  12.218  1.00  0.00     0.049 A 
ATOM     56  C   UNL     1       7.858   2.217  11.211  1.00  0.00     0.074 A 
ATOM     57  C   UNL     1       9.460  -3.500  13.414  1.00  0.00     0.029 A 
ATOM     58  N   UNL     1       8.696  -1.802  12.195  1.00  0.00    -0.354 N 
ATOM     59  N   UNL     1       8.163   0.997  11.585  1.00  0.00    -0.248 NA
ATOM     60  C   UNL     1       8.141   3.242  12.228  1.00  0.00     0.031 C 
ATOM     61  C   UNL     1       9.621  -2.321  14.145  1.00  0.00     0.029 A 
ATOM     62  C   UNL     1       9.181  -1.260  13.369  1.00  0.00     0.049 A 
ATOM     63  H   UNL     1       8.301  -1.289  11.454  1.00  0.00     0.167 HD
ATOM     64  C   UNL     1       8.723   1.117  12.855  1.00  0.00     0.074 A 
ATOM     65  C   UNL     1       8.722   2.527  13.181  1.00  0.00     0.031 C 
ATOM     66  C   UNL     1       9.199   0.147  13.674  1.00  0.00     0.031 A 
BRANCH  53  67
ATOM     67  C   UNL     1       8.610  -5.541  11.330  1.00  0.00    -0.014 A 
ATOM     68  C   UNL     1       9.507  -6.261  10.514  1.00  0.00     0.010 A 
ATOM     69  C   UNL     1       7.863  -6.230  12.298  1.00  0.00     0.010 A 
ATOM     70  C   UNL     1       9.594  -7.648  10.608  1.00  0.00     0.020 A 
ATOM     71  C   UNL     1       7.986  -7.616  12.430  1.00  0.00     0.020 A 
ATOM     72  C   UNL     1       8.832  -8.317  11.568  1.00  0.00     0.054 A 
BRANCH  72  73
ATOM     73  S   UNL     1       8.987 -10.118  11.682  1.00  0.00     0.124 S 
ATOM     74  O   UNL     1       8.319 -10.555  10.458  1.00  0.00    -0.237 OA
ATOM     75  O   UNL     1      10.434 -10.311  11.710  1.00  0.00    -0.237 OA
ATOM     76  O   UNL     1       8.291 -10.447  12.923  1.00  0.00    -0.744 OA
ENDBRANCH  72  73
ENDBRANCH  53  67
BRANCH  54  77
ATOM     77  C   UNL     1       7.037   4.158   9.685  1.00  0.00    -0.014 A 
ATOM     78  C   UNL     1       8.123   5.057   9.643  1.00  0.00     0.010 A 
ATOM     79  C   UNL     1       5.734   4.678   9.584  1.00  0.00     0.010 A 
ATOM     80  C   UNL     1       7.913   6.438   9.540  1.00  0.00     0.020 A 
ATOM     81  C   UNL     1       5.520   6.058   9.447  1.00  0.00     0.020 A 
ATOM     82  C   UNL     1       6.611   6.931   9.438  1.00  0.00     0.054 A 
BRANCH  82  83
ATOM     83  S   UNL     1       6.370   8.723   9.262  1.00  0.00     0.124 S 
ATOM     84  O   UNL     1       6.776   9.219  10.573  1.00  0.00    -0.237 OA
ATOM     85  O   UNL     1       7.266   9.052   8.156  1.00  0.00    -0.237 OA
ATOM     86  O   UNL     1       4.946   8.849   8.960  1.00  0.00    -0.744 OA
ENDBRANCH  82  83
ENDBRANCH  54  77
BRANCH  66  87
ATOM     87  C   UNL     1       9.831   0.561  14.977  1.00  0.00    -0.014 A 
ATOM     88  C   UNL     1       9.069   1.089  16.033  1.00  0.00     0.010 A 
ATOM     89  C   UNL     1      11.206   0.329  15.173  1.00  0.00     0.010 A 
ATOM     90  C   UNL     1       9.679   1.408  17.250  1.00  0.00     0.020 A 
ATOM     91  C   UNL     1      11.810   0.609  16.399  1.00  0.00     0.020 A 
ATOM     92  C   UNL     1      11.044   1.161  17.426  1.00  0.00     0.054 A 
BRANCH  92  93
ATOM     93  S   UNL     1      11.798   1.537  19.032  1.00  0.00     0.124 S 
ATOM     94  O   UNL     1      11.780   2.997  19.042  1.00  0.00    -0.237 OA
ATOM     95  O   UNL     1      10.885   0.890  19.971  1.00  0.00    -0.237 OA
ATOM     96  O   UNL     1      13.125   0.932  18.944  1.00  0.00    -0.744 OA
ENDBRANCH  92  93
ENDBRANCH  66  87
ENDBRANCH  40  41
ENDBRANCH  33  35
ENDBRANCH  32  33
ENDBRANCH  31  32
ENDBRANCH   1  31
TORSDOF 20
