REMARK SMILES C[C@H](NC1=[NH+]S(=O)(=O)c2ccccc21)C(=O)OCCOCCOC(=O)c1ccc(-c2c3nc(c(-c4ccc(S(=O)(=O)[O-])cc4)c4ccc([nH]4)c(-c4ccc(S(=O)(=O)[O-])cc4)c4nc(c(-c5ccc(S(=O)(=O)[O-])cc5)c5ccc2[nH]5)C=C4)C=C3)cc1
REMARK SMILES IDX 21 1 20 2 19 3 18 4 17 5 15 6 16 7 2 8 1 9 3 10 4 11 5 13
REMARK SMILES IDX 14 14 6 15 9 17 13 18 7 19 8 20 10 21 12 22 11 23 22 24
REMARK SMILES IDX 23 25 24 26 25 27 26 28 27 29 85 30 28 31 84 32 29 33 30 34
REMARK SMILES IDX 31 35 78 36 32 37 83 38 77 39 79 40 33 41 82 42 76 43 75 44
REMARK SMILES IDX 34 46 64 47 45 48 63 49 46 50 49 51 62 52 80 53 47 54 48 55
REMARK SMILES IDX 61 57 81 58 50 59 35 60 36 61 44 62 37 63 43 64 38 65 39 66
REMARK SMILES IDX 40 67 41 68 42 69 65 70 66 71 74 72 67 73 73 74 68 75 69 76
REMARK SMILES IDX 70 77 71 78 72 79 51 80 52 81 60 82 53 83 59 84 54 85 55 86
REMARK SMILES IDX 56 87 57 88 58 89
REMARK H PARENT 3 12 5 16 79 45 49 56
REMARK Flexibility Score: inf
ROOT
ATOM      1  C   UNL     1      -1.993  -0.242   1.833  1.00  0.00     0.202 C 
ENDROOT
BRANCH   1   2
ATOM      2  O   UNL     1      -3.177   0.551   1.722  1.00  0.00    -0.374 OA
BRANCH   2   3
ATOM      3  C   UNL     1      -3.724   0.753   0.424  1.00  0.00     0.202 C 
BRANCH   3   4
ATOM      4  C   UNL     1      -3.033   1.780  -0.477  1.00  0.00     0.261 C 
BRANCH   4   5
ATOM      5  O   UNL     1      -1.610   1.601  -0.562  1.00  0.00    -0.460 OA
BRANCH   5   6
ATOM      6  C   UNL     1      -0.890   2.506   0.164  1.00  0.00     0.350 C 
ATOM      7  O   UNL     1      -1.374   3.432   0.807  1.00  0.00    -0.247 OA
BRANCH   6   8
ATOM      8  C   UNL     1       0.614   2.305   0.037  1.00  0.00     0.279 C 
ATOM      9  C   UNL     1       1.126   3.219  -1.073  1.00  0.00     0.071 C 
BRANCH   8  10
ATOM     10  N   UNL     1       1.043   0.922  -0.257  1.00  0.00    -0.260 N 
ATOM     11  C   UNL     1       2.377   0.615  -0.121  1.00  0.00     0.292 C 
ATOM     12  H   UNL     1       0.393   0.240  -0.540  1.00  0.00     0.306 HD
ATOM     13  N   UNL     1       3.112   1.110   0.836  1.00  0.00    -0.162 N 
ATOM     14  C   UNL     1       3.110  -0.168  -1.142  1.00  0.00     0.087 A 
ATOM     15  S   UNL     1       4.694   0.758   0.611  1.00  0.00     0.329 S 
ATOM     16  H   UNL     1       2.760   1.628   1.596  1.00  0.00     0.327 HD
ATOM     17  C   UNL     1       4.468  -0.089  -0.888  1.00  0.00     0.124 A 
ATOM     18  C   UNL     1       2.650  -0.785  -2.291  1.00  0.00     0.018 A 
ATOM     19  O   UNL     1       5.148  -0.204   1.587  1.00  0.00    -0.179 OA
ATOM     20  O   UNL     1       5.430   1.972   0.312  1.00  0.00    -0.179 OA
ATOM     21  C   UNL     1       5.435  -0.538  -1.764  1.00  0.00     0.025 A 
ATOM     22  C   UNL     1       3.605  -1.283  -3.189  1.00  0.00     0.001 A 
ATOM     23  C   UNL     1       4.985  -1.144  -2.936  1.00  0.00     0.002 A 
ENDBRANCH   8  10
ENDBRANCH   6   8
ENDBRANCH   5   6
ENDBRANCH   4   5
ENDBRANCH   3   4
ENDBRANCH   2   3
ENDBRANCH   1   2
BRANCH   1  24
ATOM     24  C   UNL     1      -2.124  -1.743   1.544  1.00  0.00     0.261 C 
BRANCH  24  25
ATOM     25  O   UNL     1      -2.350  -2.013   0.147  1.00  0.00    -0.460 OA
BRANCH  25  26
ATOM     26  C   UNL     1      -3.535  -2.617  -0.130  1.00  0.00     0.338 C 
ATOM     27  O   UNL     1      -4.381  -2.983   0.668  1.00  0.00    -0.246 OA
BRANCH  26  28
ATOM     28  C   UNL     1      -3.772  -2.610  -1.586  1.00  0.00     0.060 A 
ATOM     29  C   UNL     1      -4.958  -2.027  -2.053  1.00  0.00     0.016 A 
ATOM     30  C   UNL     1      -2.894  -3.240  -2.469  1.00  0.00     0.016 A 
ATOM     31  C   UNL     1      -5.293  -2.110  -3.404  1.00  0.00     0.010 A 
ATOM     32  C   UNL     1      -3.237  -3.332  -3.821  1.00  0.00     0.010 A 
ATOM     33  C   UNL     1      -4.452  -2.796  -4.288  1.00  0.00    -0.014 A 
BRANCH  33  34
ATOM     34  C   UNL     1      -4.903  -3.083  -5.671  1.00  0.00     0.031 A 
ATOM     35  C   UNL     1      -5.466  -4.442  -5.986  1.00  0.00     0.074 A 
ATOM     36  C   UNL     1      -4.798  -2.154  -6.637  1.00  0.00     0.049 A 
ATOM     37  N   UNL     1      -5.836  -4.936  -7.138  1.00  0.00    -0.248 NA
ATOM     38  C   UNL     1      -5.626  -5.365  -4.851  1.00  0.00     0.031 C 
ATOM     39  C   UNL     1      -4.304  -0.791  -6.447  1.00  0.00     0.029 A 
ATOM     40  N   UNL     1      -5.083  -2.228  -7.977  1.00  0.00    -0.354 N 
ATOM     41  C   UNL     1      -6.255  -6.235  -6.873  1.00  0.00     0.074 A 
ATOM     42  C   UNL     1      -6.077  -6.456  -5.454  1.00  0.00     0.031 C 
ATOM     43  C   UNL     1      -4.295  -0.164  -7.636  1.00  0.00     0.029 A 
ATOM     44  C   UNL     1      -4.748  -1.091  -8.672  1.00  0.00     0.049 A 
ATOM     45  H   UNL     1      -5.489  -3.019  -8.400  1.00  0.00     0.167 HD
ATOM     46  C   UNL     1      -6.741  -7.161  -7.734  1.00  0.00     0.031 A 
ATOM     47  C   UNL     1      -4.771  -0.837  -9.996  1.00  0.00     0.031 A 
ATOM     48  C   UNL     1      -6.904  -6.941  -9.146  1.00  0.00     0.049 A 
ATOM     49  C   UNL     1      -5.259  -1.898 -10.945  1.00  0.00     0.074 A 
ATOM     50  C   UNL     1      -7.416  -7.806 -10.097  1.00  0.00     0.029 A 
ATOM     51  N   UNL     1      -6.547  -5.779  -9.812  1.00  0.00    -0.354 N 
ATOM     52  N   UNL     1      -5.685  -3.109 -10.676  1.00  0.00    -0.248 NA
ATOM     53  C   UNL     1      -5.275  -1.558 -12.375  1.00  0.00     0.031 C 
ATOM     54  C   UNL     1      -7.316  -7.187 -11.348  1.00  0.00     0.029 A 
ATOM     55  C   UNL     1      -6.796  -5.914 -11.166  1.00  0.00     0.049 A 
ATOM     56  H   UNL     1      -6.171  -4.975  -9.384  1.00  0.00     0.167 HD
ATOM     57  C   UNL     1      -6.041  -3.668 -11.899  1.00  0.00     0.074 A 
ATOM     58  C   UNL     1      -5.787  -2.660 -12.909  1.00  0.00     0.031 C 
ATOM     59  C   UNL     1      -6.538  -4.902 -12.160  1.00  0.00     0.031 A 
BRANCH  46  60
ATOM     60  C   UNL     1      -7.082  -8.514  -7.172  1.00  0.00    -0.014 A 
ATOM     61  C   UNL     1      -8.203  -8.703  -6.343  1.00  0.00     0.010 A 
ATOM     62  C   UNL     1      -6.270  -9.619  -7.489  1.00  0.00     0.010 A 
ATOM     63  C   UNL     1      -8.475  -9.961  -5.800  1.00  0.00     0.020 A 
ATOM     64  C   UNL     1      -6.555 -10.884  -6.968  1.00  0.00     0.020 A 
ATOM     65  C   UNL     1      -7.643 -11.042  -6.108  1.00  0.00     0.054 A 
BRANCH  65  66
ATOM     66  S   UNL     1      -8.012 -12.663  -5.384  1.00  0.00     0.124 S 
ATOM     67  O   UNL     1      -7.573 -12.480  -4.003  1.00  0.00    -0.237 OA
ATOM     68  O   UNL     1      -9.456 -12.780  -5.573  1.00  0.00    -0.237 OA
ATOM     69  O   UNL     1      -7.206 -13.589  -6.176  1.00  0.00    -0.744 OA
ENDBRANCH  65  66
ENDBRANCH  46  60
BRANCH  47  70
ATOM     70  C   UNL     1      -4.278   0.474 -10.496  1.00  0.00    -0.014 A 
ATOM     71  C   UNL     1      -5.171   1.441 -10.987  1.00  0.00     0.010 A 
ATOM     72  C   UNL     1      -2.904   0.773 -10.444  1.00  0.00     0.010 A 
ATOM     73  C   UNL     1      -4.699   2.685 -11.415  1.00  0.00     0.020 A 
ATOM     74  C   UNL     1      -2.431   2.023 -10.848  1.00  0.00     0.020 A 
ATOM     75  C   UNL     1      -3.332   2.971 -11.336  1.00  0.00     0.054 A 
BRANCH  75  76
ATOM     76  S   UNL     1      -2.751   4.622 -11.814  1.00  0.00     0.124 S 
ATOM     77  O   UNL     1      -2.818   4.558 -13.270  1.00  0.00    -0.237 OA
ATOM     78  O   UNL     1      -3.727   5.498 -11.171  1.00  0.00    -0.237 OA
ATOM     79  O   UNL     1      -1.404   4.685 -11.249  1.00  0.00    -0.744 OA
ENDBRANCH  75  76
ENDBRANCH  47  70
BRANCH  59  80
ATOM     80  C   UNL     1      -6.872  -5.236 -13.590  1.00  0.00    -0.014 A 
ATOM     81  C   UNL     1      -5.863  -5.526 -14.524  1.00  0.00     0.010 A 
ATOM     82  C   UNL     1      -8.220  -5.352 -13.976  1.00  0.00     0.010 A 
ATOM     83  C   UNL     1      -6.197  -5.916 -15.824  1.00  0.00     0.020 A 
ATOM     84  C   UNL     1      -8.558  -5.763 -15.268  1.00  0.00     0.020 A 
ATOM     85  C   UNL     1      -7.543  -6.036 -16.187  1.00  0.00     0.054 A 
BRANCH  85  86
ATOM     86  S   UNL     1      -7.950  -6.616 -17.857  1.00  0.00     0.124 S 
ATOM     87  O   UNL     1      -7.652  -5.439 -18.668  1.00  0.00    -0.237 OA
ATOM     88  O   UNL     1      -7.044  -7.748 -18.034  1.00  0.00    -0.237 OA
ATOM     89  O   UNL     1      -9.366  -6.968 -17.765  1.00  0.00    -0.744 OA
ENDBRANCH  85  86
ENDBRANCH  59  80
ENDBRANCH  33  34
ENDBRANCH  26  28
ENDBRANCH  25  26
ENDBRANCH  24  25
ENDBRANCH   1  24
TORSDOF 18
