REMARK SMILES CCC[C@H](NC(=O)Cn1cccc1C(=O)OCCOCCOC(=O)c1ccc(-c2c3nc(c(-c4ccc(S(=O)(=O)[O-])cc4)c4ccc([nH]4)c(-c4ccc(S(=O)(=O)[O-])cc4)c4nc(c(-c5ccc(S(=O)(=O)[O-])cc5)c5ccc2[nH]5)C=C4)C=C3)cc1)c1cccs1
REMARK SMILES IDX 18 1 17 2 16 3 14 4 15 5 13 6 9 7 10 8 11 9 12 10 8 11 6 12
REMARK SMILES IDX 5 13 7 15 4 16 3 17 2 18 1 19 85 20 86 21 89 22 87 23 88 24
REMARK SMILES IDX 19 25 20 26 21 27 22 28 23 29 24 30 25 31 26 32 84 33 27 34
REMARK SMILES IDX 83 35 28 36 29 37 30 38 77 39 31 40 82 41 76 42 78 43 32 44
REMARK SMILES IDX 81 45 75 46 74 47 33 49 63 50 44 51 62 52 45 53 48 54 61 55
REMARK SMILES IDX 79 56 46 57 47 58 60 60 80 61 49 62 34 63 35 64 43 65 36 66
REMARK SMILES IDX 42 67 37 68 38 69 39 70 40 71 41 72 64 73 65 74 73 75 66 76
REMARK SMILES IDX 72 77 67 78 68 79 69 80 70 81 71 82 50 83 51 84 59 85 52 86
REMARK SMILES IDX 58 87 53 88 54 89 55 90 56 91 57 92
REMARK H PARENT 5 14 78 48 48 59
REMARK Flexibility Score: inf
ROOT
ATOM      1  C   UNL     1      -0.969   1.761  -5.444  1.00  0.00     0.202 C 
ENDROOT
BRANCH   1   2
ATOM      2  C   UNL     1      -1.152   1.571  -3.947  1.00  0.00     0.261 C 
BRANCH   2   3
ATOM      3  O   UNL     1      -0.049   0.860  -3.335  1.00  0.00    -0.459 OA
BRANCH   3   4
ATOM      4  C   UNL     1      -0.411  -0.007  -2.349  1.00  0.00     0.355 C 
ATOM      5  O   UNL     1      -1.574  -0.184  -1.982  1.00  0.00    -0.244 OA
BRANCH   4   6
ATOM      6  C   UNL     1       0.707  -0.760  -1.829  1.00  0.00     0.128 A 
ATOM      7  N   UNL     1       1.896  -0.331  -1.255  1.00  0.00    -0.333 N 
ATOM      8  C   UNL     1       2.586  -1.426  -0.771  1.00  0.00     0.087 A 
ATOM      9  C   UNL     1       1.876  -2.562  -1.066  1.00  0.00     0.020 A 
ATOM     10  C   UNL     1       0.702  -2.148  -1.721  1.00  0.00     0.035 A 
BRANCH   7  11
ATOM     11  C   UNL     1       2.468   1.012  -1.207  1.00  0.00     0.222 C 
BRANCH  11  12
ATOM     12  C   UNL     1       2.119   1.817   0.043  1.00  0.00     0.240 C 
ATOM     13  N   UNL     1       1.274   2.898  -0.032  1.00  0.00    -0.347 N 
ATOM     14  H   UNL     1       1.294   3.529   0.723  1.00  0.00     0.164 HD
ATOM     15  O   UNL     1       2.617   1.554   1.141  1.00  0.00    -0.273 OA
BRANCH  13  16
ATOM     16  C   UNL     1       0.360   3.201  -1.108  1.00  0.00     0.122 C 
BRANCH  16  17
ATOM     17  C   UNL     1      -1.120   3.034  -0.729  1.00  0.00     0.030 C 
BRANCH  17  18
ATOM     18  C   UNL     1      -1.730   3.776   0.456  1.00  0.00    -0.001 C 
ATOM     19  C   UNL     1      -2.233   5.170   0.130  1.00  0.00     0.004 C 
ENDBRANCH  17  18
ENDBRANCH  16  17
BRANCH  16  20
ATOM     20  C   UNL     1       0.795   4.382  -1.940  1.00  0.00     0.027 A 
ATOM     21  C   UNL     1       0.464   5.722  -1.903  1.00  0.00     0.017 A 
ATOM     22  S   UNL     1       1.879   4.089  -3.267  1.00  0.00    -0.147 S 
ATOM     23  C   UNL     1       0.990   6.463  -3.007  1.00  0.00     0.012 A 
ATOM     24  C   UNL     1       1.777   5.691  -3.825  1.00  0.00     0.065 A 
ENDBRANCH  16  20
ENDBRANCH  13  16
ENDBRANCH  11  12
ENDBRANCH   7  11
ENDBRANCH   4   6
ENDBRANCH   3   4
ENDBRANCH   2   3
ENDBRANCH   1   2
BRANCH   1  25
ATOM     25  O   UNL     1      -1.119   0.582  -6.229  1.00  0.00    -0.374 OA
BRANCH  25  26
ATOM     26  C   UNL     1      -0.237  -0.501  -5.967  1.00  0.00     0.202 C 
BRANCH  26  27
ATOM     27  C   UNL     1       1.207  -0.366  -6.446  1.00  0.00     0.261 C 
BRANCH  27  28
ATOM     28  O   UNL     1       1.910   0.795  -6.005  1.00  0.00    -0.460 OA
BRANCH  28  29
ATOM     29  C   UNL     1       1.892   1.784  -6.930  1.00  0.00     0.338 C 
ATOM     30  O   UNL     1       1.022   2.009  -7.759  1.00  0.00    -0.246 OA
BRANCH  29  31
ATOM     31  C   UNL     1       3.171   2.491  -6.957  1.00  0.00     0.060 A 
ATOM     32  C   UNL     1       3.169   3.811  -7.419  1.00  0.00     0.016 A 
ATOM     33  C   UNL     1       4.344   1.731  -6.885  1.00  0.00     0.016 A 
ATOM     34  C   UNL     1       4.338   4.336  -7.938  1.00  0.00     0.010 A 
ATOM     35  C   UNL     1       5.500   2.240  -7.445  1.00  0.00     0.010 A 
ATOM     36  C   UNL     1       5.473   3.518  -8.018  1.00  0.00    -0.014 A 
BRANCH  36  37
ATOM     37  C   UNL     1       6.622   3.991  -8.808  1.00  0.00     0.031 A 
ATOM     38  C   UNL     1       7.651   4.737  -7.992  1.00  0.00     0.074 A 
ATOM     39  C   UNL     1       6.559   3.749 -10.149  1.00  0.00     0.049 A 
ATOM     40  N   UNL     1       8.446   5.693  -8.359  1.00  0.00    -0.248 NA
ATOM     41  C   UNL     1       7.748   4.457  -6.537  1.00  0.00     0.031 C 
ATOM     42  C   UNL     1       5.457   3.012 -10.806  1.00  0.00     0.029 A 
ATOM     43  N   UNL     1       7.365   4.060 -11.222  1.00  0.00    -0.354 N 
ATOM     44  C   UNL     1       9.221   6.035  -7.239  1.00  0.00     0.074 A 
ATOM     45  C   UNL     1       8.678   5.317  -6.123  1.00  0.00     0.031 C 
ATOM     46  C   UNL     1       5.630   2.985 -12.141  1.00  0.00     0.029 A 
ATOM     47  C   UNL     1       6.851   3.686 -12.484  1.00  0.00     0.049 A 
ATOM     48  H   UNL     1       8.235   4.509 -11.117  1.00  0.00     0.167 HD
ATOM     49  C   UNL     1      10.342   6.804  -7.301  1.00  0.00     0.031 A 
ATOM     50  C   UNL     1       7.340   3.955 -13.731  1.00  0.00     0.031 A 
ATOM     51  C   UNL     1      10.612   7.243  -8.631  1.00  0.00     0.049 A 
ATOM     52  C   UNL     1       8.613   4.684 -13.550  1.00  0.00     0.074 A 
ATOM     53  C   UNL     1      10.085   8.209  -9.449  1.00  0.00     0.029 A 
ATOM     54  N   UNL     1      11.425   6.436  -9.391  1.00  0.00    -0.354 N 
ATOM     55  N   UNL     1       9.713   4.180 -13.080  1.00  0.00    -0.248 NA
ATOM     56  C   UNL     1       8.653   6.122 -13.848  1.00  0.00     0.031 C 
ATOM     57  C   UNL     1      10.296   7.726 -10.765  1.00  0.00     0.029 A 
ATOM     58  C   UNL     1      10.961   6.500 -10.687  1.00  0.00     0.049 A 
ATOM     59  H   UNL     1      12.194   5.911  -9.070  1.00  0.00     0.167 HD
ATOM     60  C   UNL     1      10.430   5.287 -12.690  1.00  0.00     0.074 A 
ATOM     61  C   UNL     1       9.879   6.409 -13.416  1.00  0.00     0.031 C 
ATOM     62  C   UNL     1      11.066   5.299 -11.491  1.00  0.00     0.031 A 
BRANCH  49  63
ATOM     63  C   UNL     1      11.389   7.033  -6.251  1.00  0.00    -0.014 A 
ATOM     64  C   UNL     1      12.212   8.175  -6.391  1.00  0.00     0.010 A 
ATOM     65  C   UNL     1      11.778   6.056  -5.322  1.00  0.00     0.010 A 
ATOM     66  C   UNL     1      13.424   8.289  -5.709  1.00  0.00     0.020 A 
ATOM     67  C   UNL     1      12.978   6.181  -4.605  1.00  0.00     0.020 A 
ATOM     68  C   UNL     1      13.815   7.272  -4.843  1.00  0.00     0.054 A 
BRANCH  68  69
ATOM     69  S   UNL     1      15.463   7.359  -4.096  1.00  0.00     0.124 S 
ATOM     70  O   UNL     1      16.324   6.975  -5.211  1.00  0.00    -0.237 OA
ATOM     71  O   UNL     1      15.556   8.759  -3.686  1.00  0.00    -0.237 OA
ATOM     72  O   UNL     1      15.391   6.401  -2.995  1.00  0.00    -0.744 OA
ENDBRANCH  68  69
ENDBRANCH  49  63
BRANCH  50  73
ATOM     73  C   UNL     1       6.819   3.817 -15.141  1.00  0.00    -0.014 A 
ATOM     74  C   UNL     1       5.563   3.310 -15.501  1.00  0.00     0.010 A 
ATOM     75  C   UNL     1       7.594   4.355 -16.204  1.00  0.00     0.010 A 
ATOM     76  C   UNL     1       5.054   3.455 -16.809  1.00  0.00     0.020 A 
ATOM     77  C   UNL     1       7.087   4.544 -17.494  1.00  0.00     0.020 A 
ATOM     78  C   UNL     1       5.802   4.113 -17.785  1.00  0.00     0.054 A 
BRANCH  78  79
ATOM     79  S   UNL     1       5.069   4.537 -19.389  1.00  0.00     0.124 S 
ATOM     80  O   UNL     1       5.503   3.429 -20.233  1.00  0.00    -0.237 OA
ATOM     81  O   UNL     1       3.638   4.585 -19.098  1.00  0.00    -0.237 OA
ATOM     82  O   UNL     1       5.673   5.834 -19.693  1.00  0.00    -0.744 OA
ENDBRANCH  78  79
ENDBRANCH  50  73
BRANCH  62  83
ATOM     83  C   UNL     1      11.370   3.920 -10.927  1.00  0.00    -0.014 A 
ATOM     84  C   UNL     1      12.294   3.074 -11.562  1.00  0.00     0.010 A 
ATOM     85  C   UNL     1      10.670   3.405  -9.819  1.00  0.00     0.010 A 
ATOM     86  C   UNL     1      12.504   1.762 -11.108  1.00  0.00     0.020 A 
ATOM     87  C   UNL     1      10.876   2.101  -9.351  1.00  0.00     0.020 A 
ATOM     88  C   UNL     1      11.791   1.282 -10.005  1.00  0.00     0.054 A 
BRANCH  88  89
ATOM     89  S   UNL     1      12.047  -0.433  -9.463  1.00  0.00     0.124 S 
ATOM     90  O   UNL     1      11.737  -1.201 -10.665  1.00  0.00    -0.237 OA
ATOM     91  O   UNL     1      13.453  -0.431  -9.067  1.00  0.00    -0.237 OA
ATOM     92  O   UNL     1      11.095  -0.600  -8.365  1.00  0.00    -0.744 OA
ENDBRANCH  88  89
ENDBRANCH  62  83
ENDBRANCH  36  37
ENDBRANCH  29  31
ENDBRANCH  28  29
ENDBRANCH  27  28
ENDBRANCH  26  27
ENDBRANCH  25  26
ENDBRANCH   1  25
TORSDOF 23
