REMARK SMILES O=C(CCCc1nc(-c2ccc(Cl)c(Cl)c2)c(-c2ccccc2)o1)OCCOCCOC(=O)c1ccc(-c2c3nc(c(-c4ccc(S(=O)(=O)[O-])cc4)c4ccc([nH]4)c(-c4ccc(S(=O)(=O)[O-])cc4)c4nc(c(-c5ccc(S(=O)(=O)[O-])cc5)c5ccc2[nH]5)C=C4)C=C3)cc1
REMARK SMILES IDX 27 1 26 2 25 3 2 4 1 5 3 6 4 7 5 8 6 9 7 10 24 11 8 12 17 13
REMARK SMILES IDX 9 14 10 15 16 16 11 17 14 18 12 19 15 20 13 21 18 22 19 23
REMARK SMILES IDX 23 24 20 25 22 26 21 27 28 28 29 29 30 30 31 31 32 32 33 33
REMARK SMILES IDX 34 34 35 35 93 36 36 37 92 38 37 39 38 40 39 41 86 42 40 43
REMARK SMILES IDX 91 44 85 45 87 46 41 47 90 48 84 49 83 50 42 52 72 53 53 54
REMARK SMILES IDX 71 55 54 56 57 57 70 58 88 59 55 60 56 61 69 63 89 64 58 65
REMARK SMILES IDX 43 66 44 67 52 68 45 69 51 70 46 71 47 72 48 73 49 74 50 75
REMARK SMILES IDX 73 76 74 77 82 78 75 79 81 80 76 81 77 82 78 83 79 84 80 85
REMARK SMILES IDX 59 86 60 87 68 88 61 89 67 90 62 91 63 92 64 93 65 94 66 95
REMARK H PARENT 87 51 57 62
REMARK Flexibility Score: inf
ROOT
ATOM      1  C   UNL     1       3.419   1.107  -1.084  1.00  0.00     0.202 C 
ENDROOT
BRANCH   1   2
ATOM      2  C   UNL     1       3.651  -0.311  -1.618  1.00  0.00     0.261 C 
BRANCH   2   3
ATOM      3  O   UNL     1       3.252  -1.464  -0.869  1.00  0.00    -0.463 OA
BRANCH   3   4
ATOM      4  C   UNL     1       2.461  -1.287   0.204  1.00  0.00     0.305 C 
ATOM      5  O   UNL     1       1.262  -1.050   0.121  1.00  0.00    -0.252 OA
BRANCH   4   6
ATOM      6  C   UNL     1       3.213  -1.416   1.516  1.00  0.00     0.123 C 
BRANCH   6   7
ATOM      7  C   UNL     1       4.479  -2.274   1.516  1.00  0.00     0.021 C 
BRANCH   7   8
ATOM      8  C   UNL     1       5.722  -1.784   0.765  1.00  0.00     0.098 C 
BRANCH   8   9
ATOM      9  C   UNL     1       6.469  -0.609   1.306  1.00  0.00     0.195 A 
ATOM     10  N   UNL     1       7.707  -0.629   1.773  1.00  0.00    -0.213 NA
ATOM     11  O   UNL     1       5.951   0.657   1.126  1.00  0.00    -0.440 OA
ATOM     12  C   UNL     1       8.022   0.693   1.918  1.00  0.00     0.117 A 
ATOM     13  C   UNL     1       6.969   1.490   1.525  1.00  0.00     0.162 A 
BRANCH  12  14
ATOM     14  C   UNL     1       9.281   1.210   2.397  1.00  0.00     0.006 A 
ATOM     15  C   UNL     1      10.463   0.985   1.687  1.00  0.00     0.012 A 
ATOM     16  C   UNL     1       9.295   2.031   3.532  1.00  0.00     0.032 A 
ATOM     17  C   UNL     1      11.650   1.591   2.107  1.00  0.00     0.023 A 
ATOM     18  C   UNL     1      10.479   2.636   3.952  1.00  0.00     0.060 A 
ATOM     19  C   UNL     1      11.661   2.416   3.238  1.00  0.00     0.059 A 
ATOM     20  Cl  UNL     1      10.404   3.650   5.348  1.00  0.00    -0.083 Cl
ATOM     21  Cl  UNL     1      13.162   3.131   3.702  1.00  0.00    -0.083 Cl
ENDBRANCH  12  14
BRANCH  13  22
ATOM     22  C   UNL     1       6.829   2.936   1.428  1.00  0.00     0.020 A 
ATOM     23  C   UNL     1       6.014   3.649   2.314  1.00  0.00     0.012 A 
ATOM     24  C   UNL     1       7.661   3.654   0.549  1.00  0.00     0.012 A 
ATOM     25  C   UNL     1       6.014   5.052   2.301  1.00  0.00     0.001 A 
ATOM     26  C   UNL     1       7.644   5.052   0.521  1.00  0.00     0.001 A 
ATOM     27  C   UNL     1       6.818   5.751   1.397  1.00  0.00     0.000 A 
ENDBRANCH  13  22
ENDBRANCH   8   9
ENDBRANCH   7   8
ENDBRANCH   6   7
ENDBRANCH   4   6
ENDBRANCH   3   4
ENDBRANCH   2   3
ENDBRANCH   1   2
BRANCH   1  28
ATOM     28  O   UNL     1       3.200   1.280   0.309  1.00  0.00    -0.374 OA
BRANCH  28  29
ATOM     29  C   UNL     1       1.979   1.963   0.623  1.00  0.00     0.202 C 
BRANCH  29  30
ATOM     30  C   UNL     1       2.006   3.485   0.429  1.00  0.00     0.261 C 
BRANCH  30  31
ATOM     31  O   UNL     1       2.443   3.845  -0.894  1.00  0.00    -0.460 OA
BRANCH  31  32
ATOM     32  C   UNL     1       3.734   4.253  -0.927  1.00  0.00     0.338 C 
ATOM     33  O   UNL     1       4.428   4.503   0.031  1.00  0.00    -0.246 OA
BRANCH  32  34
ATOM     34  C   UNL     1       4.290   4.230  -2.283  1.00  0.00     0.060 A 
ATOM     35  C   UNL     1       5.517   3.576  -2.492  1.00  0.00     0.016 A 
ATOM     36  C   UNL     1       3.652   4.912  -3.311  1.00  0.00     0.016 A 
ATOM     37  C   UNL     1       6.117   3.596  -3.743  1.00  0.00     0.010 A 
ATOM     38  C   UNL     1       4.264   4.955  -4.555  1.00  0.00     0.010 A 
ATOM     39  C   UNL     1       5.500   4.311  -4.768  1.00  0.00    -0.014 A 
BRANCH  39  40
ATOM     40  C   UNL     1       6.173   4.520  -6.059  1.00  0.00     0.031 A 
ATOM     41  C   UNL     1       6.779   5.861  -6.323  1.00  0.00     0.074 A 
ATOM     42  C   UNL     1       6.113   3.564  -6.998  1.00  0.00     0.049 A 
ATOM     43  N   UNL     1       7.146   6.390  -7.456  1.00  0.00    -0.248 NA
ATOM     44  C   UNL     1       6.963   6.735  -5.151  1.00  0.00     0.031 C 
ATOM     45  C   UNL     1       5.582   2.215  -6.798  1.00  0.00     0.029 A 
ATOM     46  N   UNL     1       6.450   3.606  -8.324  1.00  0.00    -0.354 N 
ATOM     47  C   UNL     1       7.559   7.679  -7.145  1.00  0.00     0.074 A 
ATOM     48  C   UNL     1       7.393   7.851  -5.718  1.00  0.00     0.031 C 
ATOM     49  C   UNL     1       5.579   1.572  -7.977  1.00  0.00     0.029 A 
ATOM     50  C   UNL     1       6.048   2.487  -9.013  1.00  0.00     0.049 A 
ATOM     51  H   UNL     1       6.929   4.358  -8.741  1.00  0.00     0.167 HD
ATOM     52  C   UNL     1       8.016   8.632  -7.989  1.00  0.00     0.031 A 
ATOM     53  C   UNL     1       6.004   2.259 -10.339  1.00  0.00     0.031 A 
ATOM     54  C   UNL     1       8.139   8.425  -9.408  1.00  0.00     0.049 A 
ATOM     55  C   UNL     1       6.466   3.348 -11.269  1.00  0.00     0.074 A 
ATOM     56  C   UNL     1       8.619   9.296 -10.367  1.00  0.00     0.029 A 
ATOM     57  N   UNL     1       7.763   7.263 -10.069  1.00  0.00    -0.354 N 
ATOM     58  N   UNL     1       6.884   4.558 -10.973  1.00  0.00    -0.248 NA
ATOM     59  C   UNL     1       6.459   3.045 -12.704  1.00  0.00     0.031 C 
ATOM     60  C   UNL     1       8.468   8.686 -11.616  1.00  0.00     0.029 A 
ATOM     61  C   UNL     1       7.970   7.404 -11.428  1.00  0.00     0.049 A 
ATOM     62  H   UNL     1       7.402   6.457  -9.634  1.00  0.00     0.167 HD
ATOM     63  C   UNL     1       7.220   5.151 -12.184  1.00  0.00     0.074 A 
ATOM     64  C   UNL     1       6.961   4.162 -13.214  1.00  0.00     0.031 C 
ATOM     65  C   UNL     1       7.705   6.394 -12.426  1.00  0.00     0.031 A 
BRANCH  52  66
ATOM     66  C   UNL     1       8.343   9.982  -7.408  1.00  0.00    -0.014 A 
ATOM     67  C   UNL     1       9.414  10.162  -6.514  1.00  0.00     0.010 A 
ATOM     68  C   UNL     1       7.562  11.096  -7.766  1.00  0.00     0.010 A 
ATOM     69  C   UNL     1       9.663  11.416  -5.949  1.00  0.00     0.020 A 
ATOM     70  C   UNL     1       7.829  12.360  -7.231  1.00  0.00     0.020 A 
ATOM     71  C   UNL     1       8.865  12.506  -6.308  1.00  0.00     0.054 A 
BRANCH  71  72
ATOM     72  S   UNL     1       9.213  14.121  -5.561  1.00  0.00     0.124 S 
ATOM     73  O   UNL     1       8.780  13.914  -4.181  1.00  0.00    -0.237 OA
ATOM     74  O   UNL     1      10.655  14.257  -5.752  1.00  0.00    -0.237 OA
ATOM     75  O   UNL     1       8.394  15.048  -6.338  1.00  0.00    -0.744 OA
ENDBRANCH  71  72
ENDBRANCH  52  66
BRANCH  53  76
ATOM     76  C   UNL     1       5.472   0.965 -10.844  1.00  0.00    -0.014 A 
ATOM     77  C   UNL     1       6.333   0.016 -11.419  1.00  0.00     0.010 A 
ATOM     78  C   UNL     1       4.107   0.649 -10.696  1.00  0.00     0.010 A 
ATOM     79  C   UNL     1       5.840  -1.224 -11.838  1.00  0.00     0.020 A 
ATOM     80  C   UNL     1       3.617  -0.600 -11.086  1.00  0.00     0.020 A 
ATOM     81  C   UNL     1       4.487  -1.527 -11.660  1.00  0.00     0.054 A 
BRANCH  81  82
ATOM     82  S   UNL     1       3.894  -3.173 -12.140  1.00  0.00     0.124 S 
ATOM     83  O   UNL     1       3.967  -3.110 -13.596  1.00  0.00    -0.237 OA
ATOM     84  O   UNL     1       4.864  -4.055 -11.494  1.00  0.00    -0.237 OA
ATOM     85  O   UNL     1       2.545  -3.228 -11.581  1.00  0.00    -0.744 OA
ENDBRANCH  81  82
ENDBRANCH  53  76
BRANCH  65  86
ATOM     86  C   UNL     1       8.039   6.744 -13.851  1.00  0.00    -0.014 A 
ATOM     87  C   UNL     1       7.034   6.995 -14.800  1.00  0.00     0.010 A 
ATOM     88  C   UNL     1       9.388   6.923 -14.211  1.00  0.00     0.010 A 
ATOM     89  C   UNL     1       7.374   7.408 -16.090  1.00  0.00     0.020 A 
ATOM     90  C   UNL     1       9.730   7.366 -15.489  1.00  0.00     0.020 A 
ATOM     91  C   UNL     1       8.720   7.600 -16.423  1.00  0.00     0.054 A 
BRANCH  91  92
ATOM     92  S   UNL     1       9.127   8.218 -18.078  1.00  0.00     0.124 S 
ATOM     93  O   UNL     1       8.818   7.065 -18.919  1.00  0.00    -0.237 OA
ATOM     94  O   UNL     1       8.228   9.361 -18.221  1.00  0.00    -0.237 OA
ATOM     95  O   UNL     1      10.546   8.556 -17.983  1.00  0.00    -0.744 OA
ENDBRANCH  91  92
ENDBRANCH  65  86
ENDBRANCH  39  40
ENDBRANCH  32  34
ENDBRANCH  31  32
ENDBRANCH  30  31
ENDBRANCH  29  30
ENDBRANCH  28  29
ENDBRANCH   1  28
TORSDOF 22
