REMARK SMILES O=C(CCOCc1ccccc1)OCCOCCOC(=O)c1ccc(-c2c3nc(c(-c4ccc(S(=O)(=O)[O-])cc4)c4ccc([nH]4)c(-c4ccc(S(=O)(=O)[O-])cc4)c4nc(c(-c5ccc(S(=O)(=O)[O-])cc5)c5ccc2[nH]5)C=C4)C=C3)cc1
REMARK SMILES IDX 15 1 14 2 13 3 2 4 1 5 3 6 4 7 5 8 6 9 7 10 8 11 12 12 9 13
REMARK SMILES IDX 11 14 10 15 16 16 17 17 18 18 19 19 20 20 21 21 22 22 23 23
REMARK SMILES IDX 81 24 24 25 80 26 25 27 26 28 27 29 74 30 28 31 79 32 73 33
REMARK SMILES IDX 75 34 29 35 78 36 72 37 71 38 30 40 60 41 41 42 59 43 42 44
REMARK SMILES IDX 45 45 58 46 76 47 43 48 44 49 57 51 77 52 46 53 31 54 32 55
REMARK SMILES IDX 40 56 33 57 39 58 34 59 35 60 36 61 37 62 38 63 61 64 62 65
REMARK SMILES IDX 70 66 63 67 69 68 64 69 65 70 66 71 67 72 68 73 47 74 48 75
REMARK SMILES IDX 56 76 49 77 55 78 50 79 51 80 52 81 53 82 54 83
REMARK H PARENT 75 39 45 50
REMARK Flexibility Score: inf
ROOT
ATOM      1  C   UNL     1       4.868  -0.536   1.405  1.00  0.00     0.202 C 
ENDROOT
BRANCH   1   2
ATOM      2  C   UNL     1       4.301   0.699   0.699  1.00  0.00     0.261 C 
BRANCH   2   3
ATOM      3  O   UNL     1       2.952   0.696   0.200  1.00  0.00    -0.463 OA
BRANCH   3   4
ATOM      4  C   UNL     1       2.392  -0.105  -0.723  1.00  0.00     0.308 C 
ATOM      5  O   UNL     1       1.236   0.099  -1.091  1.00  0.00    -0.252 OA
BRANCH   4   6
ATOM      6  C   UNL     1       3.136  -1.310  -1.193  1.00  0.00     0.151 C 
BRANCH   6   7
ATOM      7  C   UNL     1       4.150  -1.187  -2.313  1.00  0.00     0.172 C 
BRANCH   7   8
ATOM      8  O   UNL     1       4.905  -0.015  -2.497  1.00  0.00    -0.376 OA
BRANCH   8   9
ATOM      9  C   UNL     1       4.336   1.257  -2.783  1.00  0.00     0.195 C 
BRANCH   9  10
ATOM     10  C   UNL     1       3.120   1.545  -3.639  1.00  0.00    -0.022 A 
ATOM     11  C   UNL     1       2.824   2.914  -3.824  1.00  0.00     0.006 A 
ATOM     12  C   UNL     1       2.235   0.617  -4.187  1.00  0.00     0.006 A 
ATOM     13  C   UNL     1       1.683   3.332  -4.507  1.00  0.00     0.000 A 
ATOM     14  C   UNL     1       1.082   1.034  -4.863  1.00  0.00     0.000 A 
ATOM     15  C   UNL     1       0.804   2.388  -5.020  1.00  0.00     0.000 A 
ENDBRANCH   9  10
ENDBRANCH   8   9
ENDBRANCH   7   8
ENDBRANCH   6   7
ENDBRANCH   4   6
ENDBRANCH   3   4
ENDBRANCH   2   3
ENDBRANCH   1   2
BRANCH   1  16
ATOM     16  O   UNL     1       4.023  -1.534   1.958  1.00  0.00    -0.374 OA
BRANCH  16  17
ATOM     17  C   UNL     1       2.774  -1.202   2.545  1.00  0.00     0.202 C 
BRANCH  17  18
ATOM     18  C   UNL     1       2.796  -0.448   3.870  1.00  0.00     0.261 C 
BRANCH  18  19
ATOM     19  O   UNL     1       3.240   0.906   3.721  1.00  0.00    -0.460 OA
BRANCH  19  20
ATOM     20  C   UNL     1       4.478   1.160   4.197  1.00  0.00     0.338 C 
ATOM     21  O   UNL     1       5.266   0.356   4.680  1.00  0.00    -0.246 OA
BRANCH  20  22
ATOM     22  C   UNL     1       4.831   2.560   3.924  1.00  0.00     0.060 A 
ATOM     23  C   UNL     1       6.064   2.825   3.315  1.00  0.00     0.016 A 
ATOM     24  C   UNL     1       3.993   3.601   4.331  1.00  0.00     0.016 A 
ATOM     25  C   UNL     1       6.495   4.140   3.167  1.00  0.00     0.010 A 
ATOM     26  C   UNL     1       4.431   4.918   4.194  1.00  0.00     0.010 A 
ATOM     27  C   UNL     1       5.703   5.186   3.657  1.00  0.00    -0.014 A 
BRANCH  27  28
ATOM     28  C   UNL     1       6.290   6.535   3.816  1.00  0.00     0.031 A 
ATOM     29  C   UNL     1       6.822   6.922   5.168  1.00  0.00     0.074 A 
ATOM     30  C   UNL     1       6.352   7.389   2.781  1.00  0.00     0.049 A 
ATOM     31  N   UNL     1       7.332   8.058   5.565  1.00  0.00    -0.248 NA
ATOM     32  C   UNL     1       6.766   5.887   6.215  1.00  0.00     0.031 C 
ATOM     33  C   UNL     1       5.910   7.102   1.418  1.00  0.00     0.029 A 
ATOM     34  N   UNL     1       6.808   8.681   2.726  1.00  0.00    -0.354 N 
ATOM     35  C   UNL     1       7.641   7.880   6.909  1.00  0.00     0.074 A 
ATOM     36  C   UNL     1       7.235   6.539   7.266  1.00  0.00     0.031 C 
ATOM     37  C   UNL     1       6.112   8.192   0.658  1.00  0.00     0.029 A 
ATOM     38  C   UNL     1       6.661   9.262   1.491  1.00  0.00     0.049 A 
ATOM     39  H   UNL     1       7.203   9.147   3.498  1.00  0.00     0.167 HD
ATOM     40  C   UNL     1       8.214   8.756   7.768  1.00  0.00     0.031 A 
ATOM     41  C   UNL     1       6.922  10.520   1.087  1.00  0.00     0.031 A 
ATOM     42  C   UNL     1       8.591  10.096   7.407  1.00  0.00     0.049 A 
ATOM     43  C   UNL     1       7.490  11.503   2.077  1.00  0.00     0.074 A 
ATOM     44  C   UNL     1       9.187  11.066   8.193  1.00  0.00     0.029 A 
ATOM     45  N   UNL     1       8.395  10.660   6.154  1.00  0.00    -0.354 N 
ATOM     46  N   UNL     1       7.798  11.319   3.340  1.00  0.00    -0.248 NA
ATOM     47  C   UNL     1       7.756  12.861   1.584  1.00  0.00     0.031 C 
ATOM     48  C   UNL     1       9.296  12.235   7.432  1.00  0.00     0.029 A 
ATOM     49  C   UNL     1       8.833  11.972   6.151  1.00  0.00     0.049 A 
ATOM     50  H   UNL     1       8.001  10.194   5.381  1.00  0.00     0.167 HD
ATOM     51  C   UNL     1       8.325  12.528   3.783  1.00  0.00     0.074 A 
ATOM     52  C   UNL     1       8.300  13.432   2.651  1.00  0.00     0.031 C 
ATOM     53  C   UNL     1       8.795  12.858   5.013  1.00  0.00     0.031 A 
BRANCH  40  54
ATOM     54  C   UNL     1       8.413   8.298   9.190  1.00  0.00    -0.014 A 
ATOM     55  C   UNL     1       9.344   7.294   9.515  1.00  0.00     0.010 A 
ATOM     56  C   UNL     1       7.650   8.879  10.220  1.00  0.00     0.010 A 
ATOM     57  C   UNL     1       9.467   6.840  10.831  1.00  0.00     0.020 A 
ATOM     58  C   UNL     1       7.792   8.450  11.542  1.00  0.00     0.020 A 
ATOM     59  C   UNL     1       8.684   7.417  11.836  1.00  0.00     0.054 A 
BRANCH  59  60
ATOM     60  S   UNL     1       8.856   6.803  13.534  1.00  0.00     0.124 S 
ATOM     61  O   UNL     1       8.203   5.499  13.450  1.00  0.00    -0.237 OA
ATOM     62  O   UNL     1      10.304   6.769  13.717  1.00  0.00    -0.237 OA
ATOM     63  O   UNL     1       8.152   7.801  14.336  1.00  0.00    -0.744 OA
ENDBRANCH  59  60
ENDBRANCH  40  54
BRANCH  41  64
ATOM     64  C   UNL     1       6.649  10.915  -0.322  1.00  0.00    -0.014 A 
ATOM     65  C   UNL     1       7.709  11.165  -1.211  1.00  0.00     0.010 A 
ATOM     66  C   UNL     1       5.326  11.011  -0.791  1.00  0.00     0.010 A 
ATOM     67  C   UNL     1       7.451  11.505  -2.542  1.00  0.00     0.020 A 
ATOM     68  C   UNL     1       5.064  11.325  -2.128  1.00  0.00     0.020 A 
ATOM     69  C   UNL     1       6.130  11.575  -2.994  1.00  0.00     0.054 A 
BRANCH  69  70
ATOM     70  S   UNL     1       5.825  11.941  -4.745  1.00  0.00     0.124 S 
ATOM     71  O   UNL     1       6.184  13.353  -4.828  1.00  0.00    -0.237 OA
ATOM     72  O   UNL     1       6.731  11.016  -5.420  1.00  0.00    -0.237 OA
ATOM     73  O   UNL     1       4.404  11.645  -4.914  1.00  0.00    -0.744 OA
ENDBRANCH  69  70
ENDBRANCH  41  64
BRANCH  53  74
ATOM     74  C   UNL     1       9.363  14.242   5.191  1.00  0.00    -0.014 A 
ATOM     75  C   UNL     1       8.537  15.379   5.212  1.00  0.00     0.010 A 
ATOM     76  C   UNL     1      10.747  14.396   5.399  1.00  0.00     0.010 A 
ATOM     77  C   UNL     1       9.089  16.649   5.404  1.00  0.00     0.020 A 
ATOM     78  C   UNL     1      11.298  15.659   5.622  1.00  0.00     0.020 A 
ATOM     79  C   UNL     1      10.467  16.780   5.608  1.00  0.00     0.054 A 
BRANCH  79  80
ATOM     80  S   UNL     1      11.153  18.434   5.896  1.00  0.00     0.124 S 
ATOM     81  O   UNL     1      11.074  19.032   4.567  1.00  0.00    -0.237 OA
ATOM     82  O   UNL     1      10.240  18.991   6.892  1.00  0.00    -0.237 OA
ATOM     83  O   UNL     1      12.506  18.169   6.381  1.00  0.00    -0.744 OA
ENDBRANCH  79  80
ENDBRANCH  53  74
ENDBRANCH  27  28
ENDBRANCH  20  22
ENDBRANCH  19  20
ENDBRANCH  18  19
ENDBRANCH  17  18
ENDBRANCH  16  17
ENDBRANCH   1  16
TORSDOF 21
