REMARK SMILES Cc1ccc(C(=O)NC2CC2)cc1NC(=O)[C@@H]1[C@@H](C(=O)OCCOCCOC(=O)c2ccc(-c3c4nc(c(-c5ccc(S(=O)(=O)[O-])cc5)c5ccc([nH]5)c(-c5ccc(S(=O)(=O)[O-])cc5)c5nc(c(-c6ccc(S(=O)(=O)[O-])cc6)c6ccc3[nH]6)C=C5)C=C4)cc2)[C@H]2C=C[C@@H]1C2
REMARK SMILES IDX 23 1 22 2 21 3 19 4 20 5 18 6 17 7 93 8 90 9 92 10 94 11
REMARK SMILES IDX 91 12 15 13 14 14 16 16 13 17 1 18 2 19 3 20 4 21 12 22 5 23
REMARK SMILES IDX 6 24 7 25 8 26 9 28 10 29 11 30 24 31 25 32 26 33 27 34
REMARK SMILES IDX 28 35 29 36 30 37 31 38 89 39 32 40 88 41 33 42 34 43 35 44
REMARK SMILES IDX 82 45 36 46 87 47 81 48 83 49 37 50 86 51 80 52 79 53 38 55
REMARK SMILES IDX 68 56 49 57 67 58 50 59 53 60 66 61 84 62 51 63 52 64 65 66
REMARK SMILES IDX 85 67 54 68 39 69 40 70 48 71 41 72 47 73 42 74 43 75 44 76
REMARK SMILES IDX 45 77 46 78 69 79 70 80 78 81 71 82 77 83 72 84 73 85 74 86
REMARK SMILES IDX 75 87 76 88 55 89 56 90 64 91 57 92 63 93 58 94 59 95 60 96
REMARK SMILES IDX 61 97 62 98
REMARK H PARENT 14 15 8 27 83 54 53 65
REMARK Flexibility Score: inf
ROOT
ATOM      1  C   UNL     1      -0.909   5.424  -3.171  1.00  0.00     0.202 C 
ENDROOT
BRANCH   1   2
ATOM      2  C   UNL     1      -2.023   5.563  -2.121  1.00  0.00     0.261 C 
BRANCH   2   3
ATOM      3  O   UNL     1      -1.589   5.544  -0.765  1.00  0.00    -0.463 OA
BRANCH   3   4
ATOM      4  C   UNL     1      -1.050   4.380  -0.387  1.00  0.00     0.310 C 
ATOM      5  O   UNL     1      -0.900   3.403  -1.136  1.00  0.00    -0.252 OA
BRANCH   4   6
ATOM      6  C   UNL     1      -0.482   4.460   0.986  1.00  0.00     0.119 C 
ATOM      7  C   UNL     1      -0.026   3.045   1.433  1.00  0.00     0.100 C 
ATOM      8  C   UNL     1      -0.420   3.018   2.924  1.00  0.00     0.025 C 
ATOM      9  C   UNL     1      -1.411   4.881   2.143  1.00  0.00     0.027 C 
ATOM     10  C   UNL     1      -1.919   2.760   2.910  1.00  0.00    -0.027 C 
ATOM     11  C   UNL     1      -0.483   4.501   3.311  1.00  0.00     0.017 C 
ATOM     12  C   UNL     1      -2.501   3.859   2.401  1.00  0.00    -0.027 C 
BRANCH   7  13
ATOM     13  C   UNL     1       1.413   2.794   1.042  1.00  0.00     0.228 C 
ATOM     14  N   UNL     1       1.849   1.613   0.500  1.00  0.00    -0.326 N 
ATOM     15  H   UNL     1       2.792   1.646   0.217  1.00  0.00     0.169 HD
ATOM     16  O   UNL     1       2.270   3.665   1.238  1.00  0.00    -0.274 OA
BRANCH  14  17
ATOM     17  C   UNL     1       1.244   0.356   0.256  1.00  0.00     0.044 A 
ATOM     18  C   UNL     1       3.530  -0.813   0.319  1.00  0.00     0.046 C 
ATOM     19  C   UNL     1       2.027  -0.808   0.276  1.00  0.00    -0.027 A 
ATOM     20  C   UNL     1       1.387  -2.063   0.232  1.00  0.00     0.006 A 
ATOM     21  C   UNL     1      -0.005  -2.168   0.188  1.00  0.00     0.014 A 
ATOM     22  C   UNL     1      -0.124   0.204   0.018  1.00  0.00     0.040 A 
ATOM     23  C   UNL     1      -0.788  -1.025   0.067  1.00  0.00     0.041 A 
BRANCH  23  24
ATOM     24  C   UNL     1      -2.279  -1.197   0.125  1.00  0.00     0.251 C 
ATOM     25  O   UNL     1      -2.731  -2.221   0.641  1.00  0.00    -0.269 OA
ATOM     26  N   UNL     1      -3.165  -0.242  -0.320  1.00  0.00    -0.349 N 
ATOM     27  H   UNL     1      -4.118  -0.440  -0.170  1.00  0.00     0.164 HD
BRANCH  26  28
ATOM     28  C   UNL     1      -2.888   0.983  -0.962  1.00  0.00     0.082 C 
ATOM     29  C   UNL     1      -2.564   1.010  -2.387  1.00  0.00     0.027 C 
ATOM     30  C   UNL     1      -3.833   1.687  -1.889  1.00  0.00     0.027 C 
ENDBRANCH  26  28
ENDBRANCH  23  24
ENDBRANCH  14  17
ENDBRANCH   7  13
ENDBRANCH   4   6
ENDBRANCH   3   4
ENDBRANCH   2   3
ENDBRANCH   1   2
BRANCH   1  31
ATOM     31  O   UNL     1       0.357   6.016  -2.917  1.00  0.00    -0.374 OA
BRANCH  31  32
ATOM     32  C   UNL     1       0.407   7.331  -2.372  1.00  0.00     0.202 C 
BRANCH  32  33
ATOM     33  C   UNL     1      -0.280   8.434  -3.192  1.00  0.00     0.261 C 
BRANCH  33  34
ATOM     34  O   UNL     1      -1.414   8.921  -2.448  1.00  0.00    -0.460 OA
BRANCH  34  35
ATOM     35  C   UNL     1      -2.742   8.998  -2.654  1.00  0.00     0.338 C 
ATOM     36  O   UNL     1      -3.447   9.123  -1.653  1.00  0.00    -0.246 OA
BRANCH  35  37
ATOM     37  C   UNL     1      -3.462   8.736  -3.964  1.00  0.00     0.060 A 
ATOM     38  C   UNL     1      -4.846   8.934  -3.837  1.00  0.00     0.016 A 
ATOM     39  C   UNL     1      -3.071   7.647  -4.729  1.00  0.00     0.016 A 
ATOM     40  C   UNL     1      -5.699   7.829  -3.876  1.00  0.00     0.010 A 
ATOM     41  C   UNL     1      -3.895   6.522  -4.745  1.00  0.00     0.010 A 
ATOM     42  C   UNL     1      -5.144   6.575  -4.122  1.00  0.00    -0.014 A 
BRANCH  42  43
ATOM     43  C   UNL     1      -5.604   5.394  -3.361  1.00  0.00     0.031 A 
ATOM     44  C   UNL     1      -5.997   4.103  -3.991  1.00  0.00     0.074 A 
ATOM     45  C   UNL     1      -5.459   5.423  -2.006  1.00  0.00     0.049 A 
ATOM     46  N   UNL     1      -6.753   3.209  -3.435  1.00  0.00    -0.248 NA
ATOM     47  C   UNL     1      -5.527   3.694  -5.306  1.00  0.00     0.031 C 
ATOM     48  C   UNL     1      -5.607   4.297  -1.085  1.00  0.00     0.029 A 
ATOM     49  N   UNL     1      -5.211   6.489  -1.137  1.00  0.00    -0.354 N 
ATOM     50  C   UNL     1      -6.582   2.019  -4.117  1.00  0.00     0.074 A 
ATOM     51  C   UNL     1      -5.901   2.411  -5.334  1.00  0.00     0.031 C 
ATOM     52  C   UNL     1      -5.618   4.731   0.183  1.00  0.00     0.029 A 
ATOM     53  C   UNL     1      -5.758   6.169   0.109  1.00  0.00     0.049 A 
ATOM     54  H   UNL     1      -4.735   7.321  -1.362  1.00  0.00     0.167 HD
ATOM     55  C   UNL     1      -6.872   0.816  -3.520  1.00  0.00     0.031 A 
ATOM     56  C   UNL     1      -6.811   6.846   0.652  1.00  0.00     0.031 A 
ATOM     57  C   UNL     1      -7.386   0.973  -2.139  1.00  0.00     0.049 A 
ATOM     58  C   UNL     1      -8.032   5.938   0.771  1.00  0.00     0.074 A 
ATOM     59  C   UNL     1      -6.973   0.496  -0.904  1.00  0.00     0.029 A 
ATOM     60  N   UNL     1      -8.406   1.893  -1.853  1.00  0.00    -0.354 N 
ATOM     61  N   UNL     1      -8.189   4.840   0.072  1.00  0.00    -0.248 NA
ATOM     62  C   UNL     1      -9.129   6.142   1.713  1.00  0.00     0.031 C 
ATOM     63  C   UNL     1      -7.663   1.204   0.115  1.00  0.00     0.029 A 
ATOM     64  C   UNL     1      -8.553   2.076  -0.490  1.00  0.00     0.049 A 
ATOM     65  H   UNL     1      -8.949   2.350  -2.536  1.00  0.00     0.167 HD
ATOM     66  C   UNL     1      -9.287   4.158   0.509  1.00  0.00     0.074 A 
ATOM     67  C   UNL     1      -9.877   5.041   1.504  1.00  0.00     0.031 C 
ATOM     68  C   UNL     1      -9.616   2.905   0.076  1.00  0.00     0.031 A 
BRANCH  55  69
ATOM     69  C   UNL     1      -6.418  -0.542  -4.098  1.00  0.00    -0.014 A 
ATOM     70  C   UNL     1      -6.329  -1.704  -3.296  1.00  0.00     0.010 A 
ATOM     71  C   UNL     1      -6.041  -0.739  -5.442  1.00  0.00     0.010 A 
ATOM     72  C   UNL     1      -5.792  -2.924  -3.767  1.00  0.00     0.020 A 
ATOM     73  C   UNL     1      -5.468  -1.931  -5.922  1.00  0.00     0.020 A 
ATOM     74  C   UNL     1      -5.333  -3.021  -5.076  1.00  0.00     0.054 A 
BRANCH  74  75
ATOM     75  S   UNL     1      -4.599  -4.568  -5.679  1.00  0.00     0.124 S 
ATOM     76  O   UNL     1      -3.497  -4.785  -4.747  1.00  0.00    -0.237 OA
ATOM     77  O   UNL     1      -5.711  -5.508  -5.576  1.00  0.00    -0.237 OA
ATOM     78  O   UNL     1      -4.190  -4.246  -7.046  1.00  0.00    -0.744 OA
ENDBRANCH  74  75
ENDBRANCH  55  69
BRANCH  56  79
ATOM     79  C   UNL     1      -6.774   8.321   0.438  1.00  0.00    -0.014 A 
ATOM     80  C   UNL     1      -5.717   9.031   1.057  1.00  0.00     0.010 A 
ATOM     81  C   UNL     1      -7.471   8.953  -0.604  1.00  0.00     0.010 A 
ATOM     82  C   UNL     1      -5.289  10.278   0.579  1.00  0.00     0.020 A 
ATOM     83  C   UNL     1      -7.048  10.210  -1.082  1.00  0.00     0.020 A 
ATOM     84  C   UNL     1      -5.936  10.849  -0.514  1.00  0.00     0.054 A 
BRANCH  84  85
ATOM     85  S   UNL     1      -5.198  12.313  -1.325  1.00  0.00     0.124 S 
ATOM     86  O   UNL     1      -5.820  13.413  -0.595  1.00  0.00    -0.237 OA
ATOM     87  O   UNL     1      -3.761  12.162  -1.112  1.00  0.00    -0.237 OA
ATOM     88  O   UNL     1      -5.621  12.172  -2.719  1.00  0.00    -0.744 OA
ENDBRANCH  84  85
ENDBRANCH  56  79
BRANCH  68  89
ATOM     89  C   UNL     1     -10.971   2.269   0.270  1.00  0.00    -0.014 A 
ATOM     90  C   UNL     1     -12.150   3.022   0.379  1.00  0.00     0.010 A 
ATOM     91  C   UNL     1     -11.110   0.867   0.140  1.00  0.00     0.010 A 
ATOM     92  C   UNL     1     -13.408   2.405   0.387  1.00  0.00     0.020 A 
ATOM     93  C   UNL     1     -12.360   0.244   0.112  1.00  0.00     0.020 A 
ATOM     94  C   UNL     1     -13.505   1.021   0.245  1.00  0.00     0.054 A 
BRANCH  94  95
ATOM     95  S   UNL     1     -15.138   0.249   0.116  1.00  0.00     0.124 S 
ATOM     96  O   UNL     1     -15.465   0.001   1.518  1.00  0.00    -0.237 OA
ATOM     97  O   UNL     1     -15.938   1.281  -0.540  1.00  0.00    -0.237 OA
ATOM     98  O   UNL     1     -14.890  -0.942  -0.692  1.00  0.00    -0.744 OA
ENDBRANCH  94  95
ENDBRANCH  68  89
ENDBRANCH  42  43
ENDBRANCH  35  37
ENDBRANCH  34  35
ENDBRANCH  33  34
ENDBRANCH  32  33
ENDBRANCH  31  32
ENDBRANCH   1  31
TORSDOF 21
