REMARK SMILES CCCCOC(=O)c1ccc(N2C[C@H](C(=O)OCCOCCOC(=O)c3ccc(-c4c5nc(c(-c6ccc(S(=O)(=O)[O-])cc6)c6ccc([nH]6)c(-c6ccc(S(=O)(=O)[O-])cc6)c6nc(c(-c7ccc(S(=O)(=O)[O-])cc7)c7ccc4[nH]7)C=C6)C=C5)cc3)CC2=O)cc1
REMARK SMILES IDX 18 1 17 2 15 3 16 4 14 5 12 6 13 7 87 8 86 9 88 10 11 11
REMARK SMILES IDX 8 12 9 13 90 14 10 15 89 16 6 17 7 18 5 19 4 20 3 21 2 22
REMARK SMILES IDX 1 23 19 24 20 25 21 26 22 27 23 28 24 29 25 30 26 31 27 32
REMARK SMILES IDX 85 33 28 34 84 35 29 36 30 37 31 38 78 39 32 40 83 41 77 42
REMARK SMILES IDX 79 43 33 44 82 45 76 46 75 47 34 49 64 50 45 51 63 52 46 53
REMARK SMILES IDX 49 54 62 55 80 56 47 57 48 58 61 60 81 61 50 62 35 63 36 64
REMARK SMILES IDX 44 65 37 66 43 67 38 68 39 69 40 70 41 71 42 72 65 73 66 74
REMARK SMILES IDX 74 75 67 76 73 77 68 78 69 79 70 80 71 81 72 82 51 83 52 84
REMARK SMILES IDX 60 85 53 86 59 87 54 88 55 89 56 90 57 91 58 92
REMARK H PARENT 79 48 49 59
REMARK Flexibility Score: inf
ROOT
ATOM      1  C   UNL     1     -10.516  -2.009  -0.889  1.00  0.00     0.261 C 
ENDROOT
BRANCH   1   2
ATOM      2  O   UNL     1      -9.843  -0.831  -0.403  1.00  0.00    -0.463 OA
BRANCH   2   3
ATOM      3  C   UNL     1     -10.612   0.104   0.203  1.00  0.00     0.311 C 
ATOM      4  O   UNL     1     -11.835   0.084   0.263  1.00  0.00    -0.252 OA
BRANCH   3   5
ATOM      5  C   UNL     1      -9.802   1.224   0.816  1.00  0.00     0.128 C 
ATOM      6  N   UNL     1      -7.520   1.756   0.443  1.00  0.00    -0.312 N 
ATOM      7  C   UNL     1      -8.372   0.876   1.196  1.00  0.00     0.141 C 
ATOM      8  C   UNL     1      -8.250   2.633  -0.360  1.00  0.00     0.227 C 
ATOM      9  C   UNL     1      -9.718   2.399  -0.138  1.00  0.00     0.117 C 
ATOM     10  O   UNL     1      -7.840   3.483  -1.137  1.00  0.00    -0.274 OA
BRANCH   6  11
ATOM     11  C   UNL     1      -6.102   1.714   0.542  1.00  0.00     0.044 A 
ATOM     12  C   UNL     1      -3.293   1.609   0.617  1.00  0.00     0.060 A 
ATOM     13  C   UNL     1      -4.033   0.506   1.039  1.00  0.00     0.018 A 
ATOM     14  C   UNL     1      -3.932   2.770   0.192  1.00  0.00     0.018 A 
ATOM     15  C   UNL     1      -5.434   0.569   1.017  1.00  0.00     0.027 A 
ATOM     16  C   UNL     1      -5.326   2.816   0.154  1.00  0.00     0.027 A 
BRANCH  12  17
ATOM     17  C   UNL     1      -1.837   1.539   0.484  1.00  0.00     0.338 C 
ATOM     18  O   UNL     1      -1.287   1.278  -0.574  1.00  0.00    -0.246 OA
BRANCH  17  19
ATOM     19  O   UNL     1      -1.264   1.892   1.656  1.00  0.00    -0.462 OA
BRANCH  19  20
ATOM     20  C   UNL     1       0.159   2.089   1.610  1.00  0.00     0.233 C 
BRANCH  20  21
ATOM     21  C   UNL     1       0.903   0.909   2.232  1.00  0.00     0.041 C 
BRANCH  21  22
ATOM     22  C   UNL     1       0.762  -0.414   1.476  1.00  0.00     0.000 C 
ATOM     23  C   UNL     1       1.475  -0.422   0.131  1.00  0.00     0.004 C 
ENDBRANCH  21  22
ENDBRANCH  20  21
ENDBRANCH  19  20
ENDBRANCH  17  19
ENDBRANCH  12  17
ENDBRANCH   6  11
ENDBRANCH   3   5
ENDBRANCH   2   3
ENDBRANCH   1   2
BRANCH   1  24
ATOM     24  C   UNL     1      -9.898  -3.265  -0.268  1.00  0.00     0.202 C 
BRANCH  24  25
ATOM     25  O   UNL     1     -10.217  -3.475   1.111  1.00  0.00    -0.374 OA
BRANCH  25  26
ATOM     26  C   UNL     1      -9.477  -2.723   2.070  1.00  0.00     0.202 C 
BRANCH  26  27
ATOM     27  C   UNL     1      -8.082  -3.266   2.410  1.00  0.00     0.261 C 
BRANCH  27  28
ATOM     28  O   UNL     1      -7.196  -3.233   1.276  1.00  0.00    -0.460 OA
BRANCH  28  29
ATOM     29  C   UNL     1      -6.829  -4.460   0.823  1.00  0.00     0.338 C 
ATOM     30  O   UNL     1      -7.080  -5.535   1.343  1.00  0.00    -0.246 OA
BRANCH  29  31
ATOM     31  C   UNL     1      -6.199  -4.362  -0.509  1.00  0.00     0.060 A 
ATOM     32  C   UNL     1      -6.683  -5.222  -1.503  1.00  0.00     0.016 A 
ATOM     33  C   UNL     1      -5.110  -3.525  -0.768  1.00  0.00     0.016 A 
ATOM     34  C   UNL     1      -6.043  -5.292  -2.738  1.00  0.00     0.010 A 
ATOM     35  C   UNL     1      -4.464  -3.602  -2.010  1.00  0.00     0.010 A 
ATOM     36  C   UNL     1      -4.904  -4.515  -2.985  1.00  0.00    -0.014 A 
BRANCH  36  37
ATOM     37  C   UNL     1      -4.103  -4.790  -4.205  1.00  0.00     0.031 A 
ATOM     38  C   UNL     1      -2.923  -5.721  -4.112  1.00  0.00     0.074 A 
ATOM     39  C   UNL     1      -4.466  -4.285  -5.399  1.00  0.00     0.049 A 
ATOM     40  N   UNL     1      -2.140  -6.163  -5.063  1.00  0.00    -0.248 NA
ATOM     41  C   UNL     1      -2.589  -6.231  -2.771  1.00  0.00     0.031 C 
ATOM     42  C   UNL     1      -5.610  -3.404  -5.633  1.00  0.00     0.029 A 
ATOM     43  N   UNL     1      -3.911  -4.455  -6.643  1.00  0.00    -0.354 N 
ATOM     44  C   UNL     1      -1.228  -7.007  -4.440  1.00  0.00     0.074 A 
ATOM     45  C   UNL     1      -1.534  -6.992  -3.026  1.00  0.00     0.031 C 
ATOM     46  C   UNL     1      -5.674  -3.114  -6.945  1.00  0.00     0.029 A 
ATOM     47  C   UNL     1      -4.568  -3.773  -7.638  1.00  0.00     0.049 A 
ATOM     48  H   UNL     1      -3.117  -5.014  -6.806  1.00  0.00     0.167 HD
ATOM     49  C   UNL     1      -0.231  -7.739  -4.993  1.00  0.00     0.031 A 
ATOM     50  C   UNL     1      -4.306  -3.686  -8.958  1.00  0.00     0.031 A 
ATOM     51  C   UNL     1       0.092  -7.744  -6.394  1.00  0.00     0.049 A 
ATOM     52  C   UNL     1      -3.144  -4.449  -9.538  1.00  0.00     0.074 A 
ATOM     53  C   UNL     1       1.085  -8.456  -7.046  1.00  0.00     0.029 A 
ATOM     54  N   UNL     1      -0.563  -6.996  -7.359  1.00  0.00    -0.354 N 
ATOM     55  N   UNL     1      -2.312  -5.266  -8.938  1.00  0.00    -0.248 NA
ATOM     56  C   UNL     1      -2.894  -4.285 -10.978  1.00  0.00     0.031 C 
ATOM     57  C   UNL     1       1.055  -8.106  -8.401  1.00  0.00     0.029 A 
ATOM     58  C   UNL     1       0.016  -7.211  -8.598  1.00  0.00     0.049 A 
ATOM     59  H   UNL     1      -1.327  -6.399  -7.189  1.00  0.00     0.167 HD
ATOM     60  C   UNL     1      -1.454  -5.729  -9.931  1.00  0.00     0.074 A 
ATOM     61  C   UNL     1      -1.876  -5.112 -11.171  1.00  0.00     0.031 C 
ATOM     62  C   UNL     1      -0.413  -6.591  -9.825  1.00  0.00     0.031 A 
BRANCH  49  63
ATOM     63  C   UNL     1       0.599  -8.583  -4.067  1.00  0.00    -0.014 A 
ATOM     64  C   UNL     1       0.092  -9.784  -3.537  1.00  0.00     0.010 A 
ATOM     65  C   UNL     1       1.911  -8.191  -3.748  1.00  0.00     0.010 A 
ATOM     66  C   UNL     1       0.872 -10.560  -2.676  1.00  0.00     0.020 A 
ATOM     67  C   UNL     1       2.700  -8.975  -2.903  1.00  0.00     0.020 A 
ATOM     68  C   UNL     1       2.169 -10.147  -2.359  1.00  0.00     0.054 A 
BRANCH  68  69
ATOM     69  S   UNL     1       3.168 -11.179  -1.251  1.00  0.00     0.124 S 
ATOM     70  O   UNL     1       2.585 -10.871   0.053  1.00  0.00    -0.237 OA
ATOM     71  O   UNL     1       2.913 -12.529  -1.748  1.00  0.00    -0.237 OA
ATOM     72  O   UNL     1       4.529 -10.691  -1.456  1.00  0.00    -0.744 OA
ENDBRANCH  68  69
ENDBRANCH  49  63
BRANCH  50  73
ATOM     73  C   UNL     1      -5.156  -2.833  -9.830  1.00  0.00    -0.014 A 
ATOM     74  C   UNL     1      -6.038  -3.411 -10.760  1.00  0.00     0.010 A 
ATOM     75  C   UNL     1      -5.073  -1.431  -9.743  1.00  0.00     0.010 A 
ATOM     76  C   UNL     1      -6.809  -2.602 -11.600  1.00  0.00     0.020 A 
ATOM     77  C   UNL     1      -5.858  -0.620 -10.566  1.00  0.00     0.020 A 
ATOM     78  C   UNL     1      -6.712  -1.211 -11.499  1.00  0.00     0.054 A 
BRANCH  78  79
ATOM     79  S   UNL     1      -7.752  -0.176 -12.568  1.00  0.00     0.124 S 
ATOM     80  O   UNL     1      -7.033  -0.234 -13.837  1.00  0.00    -0.237 OA
ATOM     81  O   UNL     1      -9.036  -0.872 -12.535  1.00  0.00    -0.237 OA
ATOM     82  O   UNL     1      -7.740   1.123 -11.899  1.00  0.00    -0.744 OA
ENDBRANCH  78  79
ENDBRANCH  50  73
BRANCH  62  83
ATOM     83  C   UNL     1       0.330  -6.942 -11.085  1.00  0.00    -0.014 A 
ATOM     84  C   UNL     1       1.228  -6.035 -11.675  1.00  0.00     0.010 A 
ATOM     85  C   UNL     1       0.167  -8.217 -11.656  1.00  0.00     0.010 A 
ATOM     86  C   UNL     1       1.931  -6.389 -12.829  1.00  0.00     0.020 A 
ATOM     87  C   UNL     1       0.884  -8.582 -12.798  1.00  0.00     0.020 A 
ATOM     88  C   UNL     1       1.753  -7.660 -13.386  1.00  0.00     0.054 A 
BRANCH  88  89
ATOM     89  S   UNL     1       2.710  -8.116 -14.858  1.00  0.00     0.124 S 
ATOM     90  O   UNL     1       1.976  -7.434 -15.921  1.00  0.00    -0.237 OA
ATOM     91  O   UNL     1       4.036  -7.577 -14.564  1.00  0.00    -0.237 OA
ATOM     92  O   UNL     1       2.631  -9.575 -14.883  1.00  0.00    -0.744 OA
ENDBRANCH  88  89
ENDBRANCH  62  83
ENDBRANCH  36  37
ENDBRANCH  29  31
ENDBRANCH  28  29
ENDBRANCH  27  28
ENDBRANCH  26  27
ENDBRANCH  25  26
ENDBRANCH  24  25
ENDBRANCH   1  24
TORSDOF 23
