REMARK SMILES COc1ccc(NC2=[NH+]C(=O)/C(=C\c3ccccc3C(=O)OCCOCCOC(=O)c3ccc(-c4c5nc(c(-c6ccc(S(=O)(=O)[O-])cc6)c6ccc([nH]6)c(-c6ccc(S(=O)(=O)[O-])cc6)c6nc(c(-c7ccc(S(=O)(=O)[O-])cc7)c7ccc4[nH]7)C=C6)C=C5)cc3)S2)cc1
REMARK SMILES IDX 25 1 24 2 23 3 22 4 20 5 21 6 19 7 14 8 15 9 16 10 18 11
REMARK SMILES IDX 17 12 13 13 7 14 8 15 9 17 91 18 10 19 12 21 11 22 6 23 3 24
REMARK SMILES IDX 4 25 93 26 5 27 92 28 2 29 1 30 26 31 27 32 28 33 29 34
REMARK SMILES IDX 30 35 31 36 32 37 90 38 33 39 89 40 34 41 35 42 36 43 83 44
REMARK SMILES IDX 37 45 88 46 82 47 84 48 38 49 87 50 81 51 80 52 39 54 69 55
REMARK SMILES IDX 50 56 68 57 51 58 54 59 67 60 85 61 52 62 53 63 66 65 86 66
REMARK SMILES IDX 55 67 40 68 41 69 49 70 42 71 48 72 43 73 44 74 45 75 46 76
REMARK SMILES IDX 47 77 70 78 71 79 79 80 72 81 78 82 73 83 74 84 75 85 76 86
REMARK SMILES IDX 77 87 56 88 57 89 65 90 58 91 64 92 59 93 60 94 61 95 62 96
REMARK SMILES IDX 63 97
REMARK H PARENT 7 16 9 20 84 53 54 64
REMARK Flexibility Score: inf
ROOT
ATOM      1  O   UNL     1      -3.903  -6.664  -4.623  1.00  0.00    -0.374 OA
ENDROOT
BRANCH   1   2
ATOM      2  C   UNL     1      -2.825  -5.755  -4.397  1.00  0.00     0.202 C 
BRANCH   2   3
ATOM      3  C   UNL     1      -1.606  -5.916  -5.308  1.00  0.00     0.261 C 
BRANCH   3   4
ATOM      4  O   UNL     1      -1.927  -5.556  -6.662  1.00  0.00    -0.460 OA
BRANCH   4   5
ATOM      5  C   UNL     1      -1.720  -6.516  -7.598  1.00  0.00     0.338 C 
ATOM      6  O   UNL     1      -1.248  -7.623  -7.394  1.00  0.00    -0.246 OA
BRANCH   5   7
ATOM      7  C   UNL     1      -2.323  -6.127  -8.907  1.00  0.00     0.067 A 
ATOM      8  C   UNL     1      -2.407  -4.814  -9.419  1.00  0.00    -0.010 A 
ATOM      9  C   UNL     1      -3.028  -4.620 -10.667  1.00  0.00     0.009 A 
ATOM     10  C   UNL     1      -3.561  -5.695 -11.385  1.00  0.00     0.001 A 
ATOM     11  C   UNL     1      -2.869  -7.198  -9.640  1.00  0.00     0.016 A 
ATOM     12  C   UNL     1      -3.491  -6.983 -10.867  1.00  0.00     0.001 A 
BRANCH   8  13
ATOM     13  C   UNL     1      -1.970  -3.603  -8.703  1.00  0.00     0.033 C 
ATOM     14  N   UNL     1       1.950  -2.361  -5.772  1.00  0.00    -0.235 N 
ATOM     15  C   UNL     1       1.145  -2.831  -6.763  1.00  0.00     0.322 C 
ATOM     16  H   UNL     1       2.881  -2.178  -6.034  1.00  0.00     0.313 HD
ATOM     17  N   UNL     1       1.484  -3.814  -7.538  1.00  0.00    -0.199 N 
ATOM     18  S   UNL     1      -0.400  -2.080  -7.123  1.00  0.00     0.006 SA
ATOM     19  C   UNL     1       0.501  -4.157  -8.434  1.00  0.00     0.346 C 
ATOM     20  H   UNL     1       2.356  -4.267  -7.488  1.00  0.00     0.316 HD
ATOM     21  C   UNL     1      -0.738  -3.351  -8.237  1.00  0.00     0.110 C 
ATOM     22  O   UNL     1       0.615  -5.031  -9.289  1.00  0.00    -0.240 OA
BRANCH  14  23
ATOM     23  C   UNL     1       1.639  -2.099  -4.423  1.00  0.00     0.125 A 
ATOM     24  C   UNL     1       1.144  -1.506  -1.710  1.00  0.00     0.119 A 
ATOM     25  C   UNL     1       0.181  -2.155  -2.475  1.00  0.00     0.051 A 
ATOM     26  C   UNL     1       2.368  -1.174  -2.281  1.00  0.00     0.051 A 
ATOM     27  C   UNL     1       0.415  -2.423  -3.828  1.00  0.00     0.055 A 
ATOM     28  C   UNL     1       2.606  -1.463  -3.629  1.00  0.00     0.055 A 
BRANCH  24  29
ATOM     29  O   UNL     1       0.832  -1.281  -0.398  1.00  0.00    -0.497 OA
ATOM     30  C   UNL     1       1.106   0.060   0.012  1.00  0.00     0.278 C 
ENDBRANCH  24  29
ENDBRANCH  14  23
ENDBRANCH   8  13
ENDBRANCH   5   7
ENDBRANCH   4   5
ENDBRANCH   3   4
ENDBRANCH   2   3
ENDBRANCH   1   2
BRANCH   1  31
ATOM     31  C   UNL     1      -4.699  -6.472  -5.790  1.00  0.00     0.202 C 
BRANCH  31  32
ATOM     32  C   UNL     1      -5.745  -5.351  -5.744  1.00  0.00     0.261 C 
BRANCH  32  33
ATOM     33  O   UNL     1      -5.180  -4.043  -5.556  1.00  0.00    -0.460 OA
BRANCH  33  34
ATOM     34  C   UNL     1      -5.380  -3.530  -4.316  1.00  0.00     0.338 C 
ATOM     35  O   UNL     1      -5.976  -4.057  -3.391  1.00  0.00    -0.246 OA
BRANCH  34  36
ATOM     36  C   UNL     1      -4.652  -2.258  -4.148  1.00  0.00     0.060 A 
ATOM     37  C   UNL     1      -3.848  -2.127  -3.010  1.00  0.00     0.016 A 
ATOM     38  C   UNL     1      -4.859  -1.169  -5.000  1.00  0.00     0.016 A 
ATOM     39  C   UNL     1      -3.300  -0.889  -2.684  1.00  0.00     0.010 A 
ATOM     40  C   UNL     1      -4.308   0.075  -4.667  1.00  0.00     0.010 A 
ATOM     41  C   UNL     1      -3.562   0.228  -3.486  1.00  0.00    -0.014 A 
BRANCH  41  42
ATOM     42  C   UNL     1      -3.195   1.572  -2.976  1.00  0.00     0.031 A 
ATOM     43  C   UNL     1      -4.235   2.383  -2.249  1.00  0.00     0.074 A 
ATOM     44  C   UNL     1      -1.937   2.034  -3.089  1.00  0.00     0.049 A 
ATOM     45  N   UNL     1      -4.121   3.556  -1.680  1.00  0.00    -0.248 NA
ATOM     46  C   UNL     1      -5.579   1.791  -2.148  1.00  0.00     0.031 C 
ATOM     47  C   UNL     1      -0.832   1.325  -3.730  1.00  0.00     0.029 A 
ATOM     48  N   UNL     1      -1.379   3.210  -2.656  1.00  0.00    -0.354 N 
ATOM     49  C   UNL     1      -5.376   3.843  -1.153  1.00  0.00     0.074 A 
ATOM     50  C   UNL     1      -6.242   2.736  -1.497  1.00  0.00     0.031 C 
ATOM     51  C   UNL     1       0.278   2.079  -3.642  1.00  0.00     0.029 A 
ATOM     52  C   UNL     1      -0.046   3.334  -2.968  1.00  0.00     0.049 A 
ATOM     53  H   UNL     1      -1.884   3.900  -2.168  1.00  0.00     0.167 HD
ATOM     54  C   UNL     1      -5.772   4.927  -0.444  1.00  0.00     0.031 A 
ATOM     55  C   UNL     1       0.810   4.351  -2.745  1.00  0.00     0.031 A 
ATOM     56  C   UNL     1      -4.918   6.040  -0.123  1.00  0.00     0.049 A 
ATOM     57  C   UNL     1       0.328   5.579  -2.017  1.00  0.00     0.074 A 
ATOM     58  C   UNL     1      -5.229   7.187   0.587  1.00  0.00     0.029 A 
ATOM     59  N   UNL     1      -3.588   6.150  -0.498  1.00  0.00    -0.354 N 
ATOM     60  N   UNL     1      -0.857   5.825  -1.509  1.00  0.00    -0.248 NA
ATOM     61  C   UNL     1       1.304   6.660  -1.822  1.00  0.00     0.031 C 
ATOM     62  C   UNL     1      -4.100   8.014   0.595  1.00  0.00     0.029 A 
ATOM     63  C   UNL     1      -3.069   7.355  -0.055  1.00  0.00     0.049 A 
ATOM     64  H   UNL     1      -3.087   5.471  -1.005  1.00  0.00     0.167 HD
ATOM     65  C   UNL     1      -0.759   7.079  -0.911  1.00  0.00     0.074 A 
ATOM     66  C   UNL     1       0.605   7.528  -1.105  1.00  0.00     0.031 C 
ATOM     67  C   UNL     1      -1.710   7.792  -0.258  1.00  0.00     0.031 A 
BRANCH  54  68
ATOM     68  C   UNL     1      -7.212   4.975  -0.004  1.00  0.00    -0.014 A 
ATOM     69  C   UNL     1      -7.692   4.135   1.017  1.00  0.00     0.010 A 
ATOM     70  C   UNL     1      -8.093   5.890  -0.609  1.00  0.00     0.010 A 
ATOM     71  C   UNL     1      -9.037   4.180   1.396  1.00  0.00     0.020 A 
ATOM     72  C   UNL     1      -9.432   5.957  -0.214  1.00  0.00     0.020 A 
ATOM     73  C   UNL     1      -9.899   5.087   0.774  1.00  0.00     0.054 A 
BRANCH  73  74
ATOM     74  S   UNL     1     -11.638   5.132   1.291  1.00  0.00     0.124 S 
ATOM     75  O   UNL     1     -12.158   3.900   0.703  1.00  0.00    -0.237 OA
ATOM     76  O   UNL     1     -11.539   5.141   2.748  1.00  0.00    -0.237 OA
ATOM     77  O   UNL     1     -12.144   6.367   0.697  1.00  0.00    -0.744 OA
ENDBRANCH  73  74
ENDBRANCH  54  68
BRANCH  55  78
ATOM     78  C   UNL     1       2.214   4.259  -3.230  1.00  0.00    -0.014 A 
ATOM     79  C   UNL     1       3.284   4.153  -2.325  1.00  0.00     0.010 A 
ATOM     80  C   UNL     1       2.486   4.288  -4.611  1.00  0.00     0.010 A 
ATOM     81  C   UNL     1       4.601   4.094  -2.790  1.00  0.00     0.020 A 
ATOM     82  C   UNL     1       3.799   4.201  -5.080  1.00  0.00     0.020 A 
ATOM     83  C   UNL     1       4.849   4.115  -4.165  1.00  0.00     0.054 A 
BRANCH  83  84
ATOM     84  S   UNL     1       6.562   3.977  -4.747  1.00  0.00     0.124 S 
ATOM     85  O   UNL     1       7.100   5.293  -4.422  1.00  0.00    -0.237 OA
ATOM     86  O   UNL     1       7.073   2.865  -3.949  1.00  0.00    -0.237 OA
ATOM     87  O   UNL     1       6.415   3.692  -6.173  1.00  0.00    -0.744 OA
ENDBRANCH  83  84
ENDBRANCH  55  78
BRANCH  67  88
ATOM     88  C   UNL     1      -1.300   9.116   0.333  1.00  0.00    -0.014 A 
ATOM     89  C   UNL     1      -1.017  10.228  -0.480  1.00  0.00     0.010 A 
ATOM     90  C   UNL     1      -1.224   9.256   1.732  1.00  0.00     0.010 A 
ATOM     91  C   UNL     1      -0.619  11.440   0.092  1.00  0.00     0.020 A 
ATOM     92  C   UNL     1      -0.857  10.474   2.309  1.00  0.00     0.020 A 
ATOM     93  C   UNL     1      -0.536  11.553   1.483  1.00  0.00     0.054 A 
BRANCH  93  94
ATOM     94  S   UNL     1      -0.031  13.139   2.204  1.00  0.00     0.124 S 
ATOM     95  O   UNL     1       1.406  13.146   1.944  1.00  0.00    -0.237 OA
ATOM     96  O   UNL     1      -0.813  14.105   1.438  1.00  0.00    -0.237 OA
ATOM     97  O   UNL     1      -0.409  13.016   3.610  1.00  0.00    -0.744 OA
ENDBRANCH  93  94
ENDBRANCH  67  88
ENDBRANCH  41  42
ENDBRANCH  34  36
ENDBRANCH  33  34
ENDBRANCH  32  33
ENDBRANCH  31  32
ENDBRANCH   1  31
TORSDOF 20
