REMARK SMILES C[C@]1(Cn2c(=O)[nH]c3cc(C(=O)OCCOCCOC(=O)c4ccc(-c5c6nc(c(-c7ccc(S(=O)(=O)[O-])cc7)c7ccc([nH]7)c(-c7ccc(S(=O)(=O)[O-])cc7)c7nc(c(-c8ccc(S(=O)(=O)[O-])cc8)c8ccc5[nH]8)C=C7)C=C6)cc4)ccc32)CCCO1
REMARK SMILES IDX 17 1 16 2 15 3 14 4 13 5 11 6 12 7 10 8 4 9 5 10 84 11 6 12
REMARK SMILES IDX 7 13 8 14 83 15 9 17 82 18 3 19 2 20 1 21 85 22 88 23 86 24
REMARK SMILES IDX 87 25 18 26 19 27 20 28 21 29 22 30 23 31 81 32 24 33 80 34
REMARK SMILES IDX 25 35 26 36 27 37 74 38 28 39 79 40 73 41 75 42 29 43 78 44
REMARK SMILES IDX 72 45 71 46 30 48 60 49 41 50 59 51 42 52 45 53 58 54 76 55
REMARK SMILES IDX 43 56 44 57 57 59 77 60 46 61 31 62 32 63 40 64 33 65 39 66
REMARK SMILES IDX 34 67 35 68 36 69 37 70 38 71 61 72 62 73 70 74 63 75 69 76
REMARK SMILES IDX 64 77 65 78 66 79 67 80 68 81 47 82 48 83 56 84 49 85 55 86
REMARK SMILES IDX 50 87 51 88 52 89 53 90 54 91
REMARK H PARENT 7 16 75 47 45 58
REMARK Flexibility Score: inf
ROOT
ATOM      1  C   UNL     1      -3.422  -6.627  -0.388  1.00  0.00     0.202 C 
ENDROOT
BRANCH   1   2
ATOM      2  O   UNL     1      -3.571  -7.660   0.589  1.00  0.00    -0.374 OA
BRANCH   2   3
ATOM      3  C   UNL     1      -4.522  -7.494   1.636  1.00  0.00     0.202 C 
BRANCH   3   4
ATOM      4  C   UNL     1      -4.286  -6.445   2.734  1.00  0.00     0.261 C 
BRANCH   4   5
ATOM      5  O   UNL     1      -3.657  -5.261   2.253  1.00  0.00    -0.460 OA
BRANCH   5   6
ATOM      6  C   UNL     1      -2.319  -5.271   2.456  1.00  0.00     0.338 C 
ATOM      7  O   UNL     1      -1.675  -6.096   3.083  1.00  0.00    -0.246 OA
BRANCH   6   8
ATOM      8  C   UNL     1      -1.669  -4.223   1.645  1.00  0.00     0.062 A 
ATOM      9  N   UNL     1       0.746  -1.345   0.005  1.00  0.00    -0.289 N 
ATOM     10  C   UNL     1       1.967  -2.061  -0.049  1.00  0.00     0.326 A 
ATOM     11  C   UNL     1      -0.276  -2.232   0.373  1.00  0.00     0.069 A 
ATOM     12  O   UNL     1       3.078  -1.639  -0.322  1.00  0.00    -0.248 OA
ATOM     13  N   UNL     1       1.673  -3.375   0.341  1.00  0.00    -0.306 N 
ATOM     14  C   UNL     1       0.329  -3.451   0.666  1.00  0.00     0.067 A 
ATOM     15  C   UNL     1      -1.629  -2.043   0.553  1.00  0.00     0.029 A 
ATOM     16  H   UNL     1       2.316  -4.120   0.378  1.00  0.00     0.171 HD
ATOM     17  C   UNL     1      -0.336  -4.468   1.292  1.00  0.00     0.044 A 
ATOM     18  C   UNL     1      -2.333  -3.046   1.228  1.00  0.00     0.018 A 
BRANCH   9  19
ATOM     19  C   UNL     1       0.657   0.101   0.010  1.00  0.00     0.162 C 
BRANCH  19  20
ATOM     20  C   UNL     1       0.475   0.757   1.413  1.00  0.00     0.083 C 
ATOM     21  C   UNL     1      -0.986   0.722   1.895  1.00  0.00     0.044 C 
ATOM     22  C   UNL     1       1.435   0.225   2.477  1.00  0.00     0.039 C 
ATOM     23  O   UNL     1       0.828   2.162   1.328  1.00  0.00    -0.373 OA
ATOM     24  C   UNL     1       1.445   1.343   3.492  1.00  0.00     0.031 C 
ATOM     25  C   UNL     1       1.284   2.584   2.631  1.00  0.00     0.161 C 
ENDBRANCH  19  20
ENDBRANCH   9  19
ENDBRANCH   6   8
ENDBRANCH   5   6
ENDBRANCH   4   5
ENDBRANCH   3   4
ENDBRANCH   2   3
ENDBRANCH   1   2
BRANCH   1  26
ATOM     26  C   UNL     1      -4.640  -6.122  -1.182  1.00  0.00     0.261 C 
BRANCH  26  27
ATOM     27  O   UNL     1      -5.646  -5.566  -0.327  1.00  0.00    -0.460 OA
BRANCH  27  28
ATOM     28  C   UNL     1      -6.918  -5.965  -0.599  1.00  0.00     0.338 C 
ATOM     29  O   UNL     1      -7.344  -6.408  -1.654  1.00  0.00    -0.246 OA
BRANCH  28  30
ATOM     30  C   UNL     1      -7.581  -6.130   0.711  1.00  0.00     0.060 A 
ATOM     31  C   UNL     1      -7.525  -5.123   1.674  1.00  0.00     0.016 A 
ATOM     32  C   UNL     1      -7.990  -7.432   1.051  1.00  0.00     0.016 A 
ATOM     33  C   UNL     1      -7.812  -5.448   2.997  1.00  0.00     0.010 A 
ATOM     34  C   UNL     1      -8.232  -7.762   2.384  1.00  0.00     0.010 A 
ATOM     35  C   UNL     1      -8.117  -6.777   3.365  1.00  0.00    -0.014 A 
BRANCH  35  36
ATOM     36  C   UNL     1      -8.591  -7.009   4.735  1.00  0.00     0.031 A 
ATOM     37  C   UNL     1      -9.866  -6.287   4.987  1.00  0.00     0.074 A 
ATOM     38  C   UNL     1      -8.104  -7.827   5.695  1.00  0.00     0.049 A 
ATOM     39  N   UNL     1     -10.040  -5.267   5.758  1.00  0.00    -0.248 NA
ATOM     40  C   UNL     1     -11.028  -6.624   4.151  1.00  0.00     0.031 C 
ATOM     41  C   UNL     1      -7.034  -8.820   5.609  1.00  0.00     0.029 A 
ATOM     42  N   UNL     1      -8.554  -7.984   6.981  1.00  0.00    -0.354 N 
ATOM     43  C   UNL     1     -11.385  -4.939   5.650  1.00  0.00     0.074 A 
ATOM     44  C   UNL     1     -11.900  -5.694   4.536  1.00  0.00     0.031 C 
ATOM     45  C   UNL     1      -7.076  -9.623   6.703  1.00  0.00     0.029 A 
ATOM     46  C   UNL     1      -8.075  -9.118   7.633  1.00  0.00     0.049 A 
ATOM     47  H   UNL     1      -9.169  -7.345   7.410  1.00  0.00     0.167 HD
ATOM     48  C   UNL     1     -12.023  -4.220   6.612  1.00  0.00     0.031 A 
ATOM     49  C   UNL     1      -8.492  -9.618   8.830  1.00  0.00     0.031 A 
ATOM     50  C   UNL     1     -11.097  -3.558   7.491  1.00  0.00     0.049 A 
ATOM     51  C   UNL     1      -9.125  -8.507   9.579  1.00  0.00     0.074 A 
ATOM     52  C   UNL     1     -10.088  -2.632   7.313  1.00  0.00     0.029 A 
ATOM     53  N   UNL     1     -10.883  -4.120   8.727  1.00  0.00    -0.354 N 
ATOM     54  N   UNL     1      -8.469  -7.490  10.057  1.00  0.00    -0.248 NA
ATOM     55  C   UNL     1     -10.561  -8.329   9.446  1.00  0.00     0.031 C 
ATOM     56  C   UNL     1      -9.062  -3.030   8.214  1.00  0.00     0.029 A 
ATOM     57  C   UNL     1      -9.531  -4.123   8.945  1.00  0.00     0.049 A 
ATOM     58  H   UNL     1     -11.574  -4.458   9.342  1.00  0.00     0.167 HD
ATOM     59  C   UNL     1      -9.316  -6.412   9.860  1.00  0.00     0.074 A 
ATOM     60  C   UNL     1     -10.620  -7.001   9.559  1.00  0.00     0.031 C 
ATOM     61  C   UNL     1      -8.828  -5.149   9.687  1.00  0.00     0.031 A 
BRANCH  48  62
ATOM     62  C   UNL     1     -13.476  -4.408   6.959  1.00  0.00    -0.014 A 
ATOM     63  C   UNL     1     -14.235  -5.513   6.525  1.00  0.00     0.010 A 
ATOM     64  C   UNL     1     -14.049  -3.589   7.952  1.00  0.00     0.010 A 
ATOM     65  C   UNL     1     -15.506  -5.782   7.029  1.00  0.00     0.020 A 
ATOM     66  C   UNL     1     -15.305  -3.877   8.501  1.00  0.00     0.020 A 
ATOM     67  C   UNL     1     -16.030  -4.967   8.025  1.00  0.00     0.054 A 
BRANCH  67  68
ATOM     68  S   UNL     1     -17.644  -5.398   8.713  1.00  0.00     0.124 S 
ATOM     69  O   UNL     1     -18.528  -5.136   7.579  1.00  0.00    -0.237 OA
ATOM     70  O   UNL     1     -17.468  -6.803   9.065  1.00  0.00    -0.237 OA
ATOM     71  O   UNL     1     -17.789  -4.484   9.842  1.00  0.00    -0.744 OA
ENDBRANCH  67  68
ENDBRANCH  48  62
BRANCH  49  72
ATOM     72  C   UNL     1      -8.771 -11.034   9.209  1.00  0.00    -0.014 A 
ATOM     73  C   UNL     1      -9.055 -11.983   8.210  1.00  0.00     0.010 A 
ATOM     74  C   UNL     1      -9.118 -11.364  10.540  1.00  0.00     0.010 A 
ATOM     75  C   UNL     1      -9.756 -13.160   8.504  1.00  0.00     0.020 A 
ATOM     76  C   UNL     1      -9.825 -12.543  10.841  1.00  0.00     0.020 A 
ATOM     77  C   UNL     1     -10.180 -13.411   9.809  1.00  0.00     0.054 A 
BRANCH  77  78
ATOM     78  S   UNL     1     -11.289 -14.823  10.098  1.00  0.00     0.124 S 
ATOM     79  O   UNL     1     -12.503 -14.400   9.405  1.00  0.00    -0.237 OA
ATOM     80  O   UNL     1     -10.565 -15.927   9.472  1.00  0.00    -0.237 OA
ATOM     81  O   UNL     1     -11.391 -14.895  11.553  1.00  0.00    -0.744 OA
ENDBRANCH  77  78
ENDBRANCH  49  72
BRANCH  61  82
ATOM     82  C   UNL     1      -7.390  -4.839  10.043  1.00  0.00    -0.014 A 
ATOM     83  C   UNL     1      -7.169  -3.671  10.797  1.00  0.00     0.010 A 
ATOM     84  C   UNL     1      -6.272  -5.515   9.515  1.00  0.00     0.010 A 
ATOM     85  C   UNL     1      -5.885  -3.159  10.979  1.00  0.00     0.020 A 
ATOM     86  C   UNL     1      -4.972  -5.022   9.722  1.00  0.00     0.020 A 
ATOM     87  C   UNL     1      -4.793  -3.830  10.429  1.00  0.00     0.054 A 
BRANCH  87  88
ATOM     88  S   UNL     1      -3.153  -3.086  10.635  1.00  0.00     0.124 S 
ATOM     89  O   UNL     1      -3.230  -1.918   9.760  1.00  0.00    -0.237 OA
ATOM     90  O   UNL     1      -3.112  -2.789  12.066  1.00  0.00    -0.237 OA
ATOM     91  O   UNL     1      -2.231  -4.130  10.195  1.00  0.00    -0.744 OA
ENDBRANCH  87  88
ENDBRANCH  61  82
ENDBRANCH  35  36
ENDBRANCH  28  30
ENDBRANCH  27  28
ENDBRANCH  26  27
ENDBRANCH   1  26
TORSDOF 19
