REMARK SMILES Cc1cc(F)cc(/C=C/C(=O)OCCOCCOC(=O)c2ccc(-c3c4nc(c(-c5ccc(S(=O)(=O)[O-])cc5)c5ccc([nH]5)c(-c5ccc(S(=O)(=O)[O-])cc5)c5nc(c(-c6ccc(S(=O)(=O)[O-])cc6)c6ccc3[nH]6)C=C5)C=C4)cc2)c1
REMARK SMILES IDX 16 1 15 2 14 3 13 4 12 5 10 6 11 7 9 8 8 9 7 10 1 11 2 12
REMARK SMILES IDX 3 13 81 14 4 15 5 16 6 17 17 18 18 19 19 20 20 21 21 22
REMARK SMILES IDX 22 23 80 24 23 25 79 26 24 27 25 28 26 29 73 30 27 31 78 32
REMARK SMILES IDX 72 33 74 34 28 35 77 36 71 37 70 38 29 40 59 41 40 42 58 43
REMARK SMILES IDX 41 44 44 45 57 46 75 47 42 48 43 49 56 51 76 52 45 53 30 54
REMARK SMILES IDX 31 55 39 56 32 57 38 58 33 59 34 60 35 61 36 62 37 63 60 64
REMARK SMILES IDX 61 65 69 66 62 67 68 68 63 69 64 70 65 71 66 72 67 73 46 74
REMARK SMILES IDX 47 75 55 76 48 77 54 78 49 79 50 80 51 81 52 82 53 83
REMARK H PARENT 74 39 44 50
REMARK Flexibility Score: inf
ROOT
ATOM      1  C   UNL     1      -1.320  -6.386   1.938  1.00  0.00     0.202 C 
ENDROOT
BRANCH   1   2
ATOM      2  O   UNL     1      -1.378  -7.635   1.247  1.00  0.00    -0.374 OA
BRANCH   2   3
ATOM      3  C   UNL     1      -0.187  -8.051   0.578  1.00  0.00     0.202 C 
BRANCH   3   4
ATOM      4  C   UNL     1       0.028  -7.460  -0.817  1.00  0.00     0.261 C 
BRANCH   4   5
ATOM      5  O   UNL     1       0.158  -6.029  -0.765  1.00  0.00    -0.460 OA
BRANCH   5   6
ATOM      6  C   UNL     1      -0.848  -5.338  -1.350  1.00  0.00     0.330 C 
ATOM      7  O   UNL     1      -1.786  -5.806  -1.979  1.00  0.00    -0.247 OA
BRANCH   6   8
ATOM      8  C   UNL     1      -0.766  -3.887  -1.089  1.00  0.00     0.094 C 
ATOM      9  C   UNL     1       0.212  -3.234  -0.440  1.00  0.00     0.016 C 
BRANCH   9  10
ATOM     10  C   UNL     1       0.173  -1.776  -0.215  1.00  0.00    -0.022 A 
ATOM     11  C   UNL     1       2.649   1.132   0.042  1.00  0.00     0.044 C 
ATOM     12  C   UNL     1       1.371   0.346   0.026  1.00  0.00    -0.048 A 
ATOM     13  C   UNL     1       0.150   1.012   0.176  1.00  0.00     0.042 A 
ATOM     14  C   UNL     1       1.373  -1.048  -0.167  1.00  0.00     0.011 A 
ATOM     15  C   UNL     1      -1.034   0.289   0.161  1.00  0.00     0.124 A 
ATOM     16  F   UNL     1      -2.200   0.930   0.317  1.00  0.00    -0.207 F 
ATOM     17  C   UNL     1      -1.033  -1.090  -0.019  1.00  0.00     0.047 A 
ENDBRANCH   9  10
ENDBRANCH   6   8
ENDBRANCH   5   6
ENDBRANCH   4   5
ENDBRANCH   3   4
ENDBRANCH   2   3
ENDBRANCH   1   2
BRANCH   1  18
ATOM     18  C   UNL     1      -0.645  -6.414   3.316  1.00  0.00     0.261 C 
BRANCH  18  19
ATOM     19  O   UNL     1       0.776  -6.626   3.213  1.00  0.00    -0.460 OA
BRANCH  19  20
ATOM     20  C   UNL     1       1.210  -7.828   3.660  1.00  0.00     0.338 C 
ATOM     21  O   UNL     1       0.542  -8.695   4.208  1.00  0.00    -0.246 OA
BRANCH  20  22
ATOM     22  C   UNL     1       2.604  -8.052   3.232  1.00  0.00     0.060 A 
ATOM     23  C   UNL     1       2.898  -9.261   2.588  1.00  0.00     0.016 A 
ATOM     24  C   UNL     1       3.618  -7.130   3.503  1.00  0.00     0.016 A 
ATOM     25  C   UNL     1       4.214  -9.574   2.254  1.00  0.00     0.010 A 
ATOM     26  C   UNL     1       4.941  -7.450   3.174  1.00  0.00     0.010 A 
ATOM     27  C   UNL     1       5.249  -8.687   2.578  1.00  0.00    -0.014 A 
BRANCH  27  28
ATOM     28  C   UNL     1       6.660  -9.114   2.417  1.00  0.00     0.031 A 
ATOM     29  C   UNL     1       7.418  -9.603   3.622  1.00  0.00     0.074 A 
ATOM     30  C   UNL     1       7.253  -9.090   1.210  1.00  0.00     0.049 A 
ATOM     31  N   UNL     1       8.660 -10.004   3.711  1.00  0.00    -0.248 NA
ATOM     32  C   UNL     1       6.678  -9.646   4.893  1.00  0.00     0.031 C 
ATOM     33  C   UNL     1       6.614  -8.678  -0.040  1.00  0.00     0.029 A 
ATOM     34  N   UNL     1       8.533  -9.421   0.840  1.00  0.00    -0.354 N 
ATOM     35  C   UNL     1       8.854 -10.338   5.046  1.00  0.00     0.074 A 
ATOM     36  C   UNL     1       7.610 -10.068   5.735  1.00  0.00     0.031 C 
ATOM     37  C   UNL     1       7.508  -8.777  -1.039  1.00  0.00     0.029 A 
ATOM     38  C   UNL     1       8.788  -9.228  -0.497  1.00  0.00     0.049 A 
ATOM     39  H   UNL     1       9.205  -9.764   1.472  1.00  0.00     0.167 HD
ATOM     40  C   UNL     1       9.965 -10.829   5.646  1.00  0.00     0.031 A 
ATOM     41  C   UNL     1       9.928  -9.380  -1.200  1.00  0.00     0.031 A 
ATOM     42  C   UNL     1      11.205 -11.087   4.962  1.00  0.00     0.049 A 
ATOM     43  C   UNL     1      11.171  -9.860  -0.498  1.00  0.00     0.074 A 
ATOM     44  C   UNL     1      12.381 -11.602   5.479  1.00  0.00     0.029 A 
ATOM     45  N   UNL     1      11.433 -10.842   3.617  1.00  0.00    -0.354 N 
ATOM     46  N   UNL     1      11.331 -10.195   0.760  1.00  0.00    -0.248 NA
ATOM     47  C   UNL     1      12.387  -9.991  -1.315  1.00  0.00     0.031 C 
ATOM     48  C   UNL     1      13.337 -11.617   4.458  1.00  0.00     0.029 A 
ATOM     49  C   UNL     1      12.739 -11.168   3.292  1.00  0.00     0.049 A 
ATOM     50  H   UNL     1      10.765 -10.489   2.986  1.00  0.00     0.167 HD
ATOM     51  C   UNL     1      12.656 -10.602   0.880  1.00  0.00     0.074 A 
ATOM     52  C   UNL     1      13.251 -10.481  -0.435  1.00  0.00     0.031 C 
ATOM     53  C   UNL     1      13.319 -11.041   1.979  1.00  0.00     0.031 A 
BRANCH  40  54
ATOM     54  C   UNL     1       9.899 -11.086   7.128  1.00  0.00    -0.014 A 
ATOM     55  C   UNL     1       9.156 -12.160   7.650  1.00  0.00     0.010 A 
ATOM     56  C   UNL     1      10.618 -10.259   8.009  1.00  0.00     0.010 A 
ATOM     57  C   UNL     1       9.102 -12.378   9.029  1.00  0.00     0.020 A 
ATOM     58  C   UNL     1      10.588 -10.489   9.387  1.00  0.00     0.020 A 
ATOM     59  C   UNL     1       9.816 -11.538   9.890  1.00  0.00     0.054 A 
BRANCH  59  60
ATOM     60  S   UNL     1       9.742 -11.852  11.675  1.00  0.00     0.124 S 
ATOM     61  O   UNL     1       8.395 -11.393  12.005  1.00  0.00    -0.237 OA
ATOM     62  O   UNL     1       9.951 -13.295  11.756  1.00  0.00    -0.237 OA
ATOM     63  O   UNL     1      10.827 -11.037  12.216  1.00  0.00    -0.744 OA
ENDBRANCH  59  60
ENDBRANCH  40  54
BRANCH  41  64
ATOM     64  C   UNL     1       9.952  -9.057  -2.652  1.00  0.00    -0.014 A 
ATOM     65  C   UNL     1      10.076 -10.077  -3.612  1.00  0.00     0.010 A 
ATOM     66  C   UNL     1       9.848  -7.722  -3.083  1.00  0.00     0.010 A 
ATOM     67  C   UNL     1      10.108  -9.767  -4.975  1.00  0.00     0.020 A 
ATOM     68  C   UNL     1       9.853  -7.410  -4.445  1.00  0.00     0.020 A 
ATOM     69  C   UNL     1       9.993  -8.434  -5.383  1.00  0.00     0.054 A 
BRANCH  69  70
ATOM     70  S   UNL     1       9.979  -8.059  -7.158  1.00  0.00     0.124 S 
ATOM     71  O   UNL     1      11.382  -8.238  -7.517  1.00  0.00    -0.237 OA
ATOM     72  O   UNL     1       9.056  -9.061  -7.685  1.00  0.00    -0.237 OA
ATOM     73  O   UNL     1       9.488  -6.683  -7.211  1.00  0.00    -0.744 OA
ENDBRANCH  69  70
ENDBRANCH  41  64
BRANCH  53  74
ATOM     74  C   UNL     1      14.756 -11.457   1.805  1.00  0.00    -0.014 A 
ATOM     75  C   UNL     1      15.774 -10.507   1.609  1.00  0.00     0.010 A 
ATOM     76  C   UNL     1      15.098 -12.819   1.897  1.00  0.00     0.010 A 
ATOM     77  C   UNL     1      17.105 -10.914   1.480  1.00  0.00     0.020 A 
ATOM     78  C   UNL     1      16.430 -13.228   1.794  1.00  0.00     0.020 A 
ATOM     79  C   UNL     1      17.424 -12.273   1.572  1.00  0.00     0.054 A 
BRANCH  79  80
ATOM     80  S   UNL     1      19.164 -12.773   1.445  1.00  0.00     0.124 S 
ATOM     81  O   UNL     1      19.418 -12.626   0.014  1.00  0.00    -0.237 OA
ATOM     82  O   UNL     1      19.840 -11.805   2.305  1.00  0.00    -0.237 OA
ATOM     83  O   UNL     1      19.166 -14.147   1.941  1.00  0.00    -0.744 OA
ENDBRANCH  79  80
ENDBRANCH  53  74
ENDBRANCH  27  28
ENDBRANCH  20  22
ENDBRANCH  19  20
ENDBRANCH  18  19
ENDBRANCH   1  18
TORSDOF 18
