REMARK SMILES O=C(OCCOCCOC(=O)c1cc(-c2ccc(C(F)(F)F)cc2)cc([N+](=O)[O-])c1)c1ccc(-c2c3nc(c(-c4ccc(S(=O)(=O)[O-])cc4)c4ccc([nH]4)c(-c4ccc(S(=O)(=O)[O-])cc4)c4nc(c(-c5ccc(S(=O)(=O)[O-])cc5)c5ccc2[nH]5)C=C4)C=C3)cc1
REMARK SMILES IDX 5 1 4 2 3 3 2 4 1 5 31 6 32 7 90 8 33 9 89 10 34 11 35 12
REMARK SMILES IDX 36 13 83 14 37 15 88 16 82 17 84 18 38 19 87 20 81 21 80 22
REMARK SMILES IDX 39 24 69 25 50 26 68 27 51 28 54 29 67 30 85 31 52 32 53 33
REMARK SMILES IDX 66 35 86 36 55 37 40 38 41 39 49 40 42 41 48 42 43 43 44 44
REMARK SMILES IDX 45 45 46 46 47 47 70 48 71 49 79 50 72 51 78 52 73 53 74 54
REMARK SMILES IDX 75 55 76 56 77 57 56 58 57 59 65 60 58 61 64 62 59 63 60 64
REMARK SMILES IDX 61 65 62 66 63 67 6 68 7 69 8 70 9 71 10 72 11 73 12 74
REMARK SMILES IDX 13 75 30 76 14 77 26 78 25 79 15 80 16 81 24 82 17 83 23 84
REMARK SMILES IDX 18 85 19 86 20 87 21 88 22 89 27 90 28 91 29 92
REMARK H PARENT 84 23 54 34
REMARK Flexibility Score: inf
ROOT
ATOM      1  C   UNL     1       4.399  -1.602   0.345  1.00  0.00     0.202 C 
ENDROOT
BRANCH   1   2
ATOM      2  C   UNL     1       4.149  -0.420   1.286  1.00  0.00     0.261 C 
BRANCH   2   3
ATOM      3  O   UNL     1       2.753  -0.092   1.314  1.00  0.00    -0.460 OA
BRANCH   3   4
ATOM      4  C   UNL     1       2.112   0.852   0.587  1.00  0.00     0.338 C 
ATOM      5  O   UNL     1       0.887   0.923   0.672  1.00  0.00    -0.246 OA
BRANCH   4   6
ATOM      6  C   UNL     1       2.808   1.823  -0.309  1.00  0.00     0.060 A 
ATOM      7  C   UNL     1       3.985   1.565  -1.020  1.00  0.00     0.016 A 
ATOM      8  C   UNL     1       2.164   3.050  -0.524  1.00  0.00     0.016 A 
ATOM      9  C   UNL     1       4.526   2.483  -1.899  1.00  0.00     0.010 A 
ATOM     10  C   UNL     1       2.695   3.984  -1.414  1.00  0.00     0.010 A 
ATOM     11  C   UNL     1       3.883   3.695  -2.093  1.00  0.00    -0.014 A 
BRANCH  11  12
ATOM     12  C   UNL     1       4.579   4.709  -2.887  1.00  0.00     0.031 A 
ATOM     13  C   UNL     1       5.303   5.780  -2.143  1.00  0.00     0.074 A 
ATOM     14  C   UNL     1       4.628   4.591  -4.223  1.00  0.00     0.049 A 
ATOM     15  N   UNL     1       5.873   6.858  -2.597  1.00  0.00    -0.248 NA
ATOM     16  C   UNL     1       5.399   5.607  -0.682  1.00  0.00     0.031 C 
ATOM     17  C   UNL     1       4.079   3.471  -4.994  1.00  0.00     0.029 A 
ATOM     18  N   UNL     1       5.171   5.415  -5.167  1.00  0.00    -0.354 N 
ATOM     19  C   UNL     1       6.349   7.521  -1.474  1.00  0.00     0.074 A 
ATOM     20  C   UNL     1       6.009   6.723  -0.320  1.00  0.00     0.031 C 
ATOM     21  C   UNL     1       4.301   3.691  -6.300  1.00  0.00     0.029 A 
ATOM     22  C   UNL     1       4.933   4.996  -6.453  1.00  0.00     0.049 A 
ATOM     23  H   UNL     1       5.682   6.228  -4.948  1.00  0.00     0.167 HD
ATOM     24  C   UNL     1       6.988   8.711  -1.429  1.00  0.00     0.031 A 
ATOM     25  C   UNL     1       5.149   5.638  -7.616  1.00  0.00     0.031 A 
ATOM     26  C   UNL     1       7.268   9.474  -2.613  1.00  0.00     0.049 A 
ATOM     27  C   UNL     1       5.763   7.009  -7.543  1.00  0.00     0.074 A 
ATOM     28  C   UNL     1       7.851  10.720  -2.724  1.00  0.00     0.029 A 
ATOM     29  N   UNL     1       6.966   9.049  -3.903  1.00  0.00    -0.354 N 
ATOM     30  N   UNL     1       6.144   7.681  -6.479  1.00  0.00    -0.248 NA
ATOM     31  C   UNL     1       5.974   7.715  -8.811  1.00  0.00     0.031 C 
ATOM     32  C   UNL     1       7.844  11.074  -4.077  1.00  0.00     0.029 A 
ATOM     33  C   UNL     1       7.333  10.015  -4.818  1.00  0.00     0.049 A 
ATOM     34  H   UNL     1       6.552   8.185  -4.130  1.00  0.00     0.167 HD
ATOM     35  C   UNL     1       6.669   8.877  -6.948  1.00  0.00     0.074 A 
ATOM     36  C   UNL     1       6.554   8.834  -8.395  1.00  0.00     0.031 C 
ATOM     37  C   UNL     1       7.206   9.912  -6.254  1.00  0.00     0.031 A 
BRANCH  24  38
ATOM     38  C   UNL     1       7.291   9.270  -0.066  1.00  0.00    -0.014 A 
ATOM     39  C   UNL     1       8.224   8.666   0.798  1.00  0.00     0.010 A 
ATOM     40  C   UNL     1       6.564  10.385   0.390  1.00  0.00     0.010 A 
ATOM     41  C   UNL     1       8.369   9.121   2.113  1.00  0.00     0.020 A 
ATOM     42  C   UNL     1       6.731  10.864   1.692  1.00  0.00     0.020 A 
ATOM     43  C   UNL     1       7.612  10.210   2.554  1.00  0.00     0.054 A 
BRANCH  43  44
ATOM     44  S   UNL     1       7.790  10.756   4.274  1.00  0.00     0.124 S 
ATOM     45  O   UNL     1       7.119   9.681   5.002  1.00  0.00    -0.237 OA
ATOM     46  O   UNL     1       9.239  10.818   4.443  1.00  0.00    -0.237 OA
ATOM     47  O   UNL     1       7.106  12.047   4.302  1.00  0.00    -0.744 OA
ENDBRANCH  43  44
ENDBRANCH  24  38
BRANCH  25  48
ATOM     48  C   UNL     1       4.722   5.011  -8.896  1.00  0.00    -0.014 A 
ATOM     49  C   UNL     1       5.665   4.563  -9.835  1.00  0.00     0.010 A 
ATOM     50  C   UNL     1       3.353   4.794  -9.152  1.00  0.00     0.010 A 
ATOM     51  C   UNL     1       5.250   3.905 -10.999  1.00  0.00     0.020 A 
ATOM     52  C   UNL     1       2.935   4.113 -10.299  1.00  0.00     0.020 A 
ATOM     53  C   UNL     1       3.888   3.675 -11.219  1.00  0.00     0.054 A 
BRANCH  53  54
ATOM     54  S   UNL     1       3.381   2.749 -12.695  1.00  0.00     0.124 S 
ATOM     55  O   UNL     1       3.675   3.696 -13.766  1.00  0.00    -0.237 OA
ATOM     56  O   UNL     1       4.244   1.571 -12.638  1.00  0.00    -0.237 OA
ATOM     57  O   UNL     1       1.963   2.484 -12.466  1.00  0.00    -0.744 OA
ENDBRANCH  53  54
ENDBRANCH  25  48
BRANCH  37  58
ATOM     58  C   UNL     1       7.772  11.052  -7.050  1.00  0.00    -0.014 A 
ATOM     59  C   UNL     1       6.941  11.999  -7.669  1.00  0.00     0.010 A 
ATOM     60  C   UNL     1       9.167  11.239  -7.060  1.00  0.00     0.010 A 
ATOM     61  C   UNL     1       7.499  13.118  -8.290  1.00  0.00     0.020 A 
ATOM     62  C   UNL     1       9.725  12.371  -7.651  1.00  0.00     0.020 A 
ATOM     63  C   UNL     1       8.886  13.302  -8.265  1.00  0.00     0.054 A 
BRANCH  63  64
ATOM     64  S   UNL     1       9.576  14.815  -8.985  1.00  0.00     0.124 S 
ATOM     65  O   UNL     1       9.398  14.579 -10.415  1.00  0.00    -0.237 OA
ATOM     66  O   UNL     1       8.729  15.857  -8.408  1.00  0.00    -0.237 OA
ATOM     67  O   UNL     1      10.962  14.820  -8.521  1.00  0.00    -0.744 OA
ENDBRANCH  63  64
ENDBRANCH  37  58
ENDBRANCH  11  12
ENDBRANCH   4   6
ENDBRANCH   3   4
ENDBRANCH   2   3
ENDBRANCH   1   2
BRANCH   1  68
ATOM     68  O   UNL     1       4.026  -1.379  -1.015  1.00  0.00    -0.374 OA
BRANCH  68  69
ATOM     69  C   UNL     1       2.662  -1.644  -1.361  1.00  0.00     0.202 C 
BRANCH  69  70
ATOM     70  C   UNL     1       2.612  -2.688  -2.477  1.00  0.00     0.261 C 
BRANCH  70  71
ATOM     71  O   UNL     1       3.189  -3.903  -1.975  1.00  0.00    -0.460 OA
BRANCH  71  72
ATOM     72  C   UNL     1       4.536  -3.971  -2.099  1.00  0.00     0.338 C 
ATOM     73  O   UNL     1       5.261  -3.318  -2.831  1.00  0.00    -0.246 OA
BRANCH  72  74
ATOM     74  C   UNL     1       5.046  -4.857  -1.037  1.00  0.00     0.067 A 
ATOM     75  C   UNL     1       6.237  -4.498  -0.388  1.00  0.00     0.025 A 
ATOM     76  C   UNL     1       4.378  -6.033  -0.701  1.00  0.00     0.101 A 
ATOM     77  C   UNL     1       6.783  -5.312   0.612  1.00  0.00    -0.011 A 
ATOM     78  C   UNL     1       4.934  -6.861   0.276  1.00  0.00     0.270 A 
ATOM     79  C   UNL     1       6.117  -6.502   0.945  1.00  0.00     0.094 A 
BRANCH  77  80
ATOM     80  C   UNL     1       8.105  -5.010   1.163  1.00  0.00    -0.018 A 
ATOM     81  C   UNL     1       8.306  -4.128   2.233  1.00  0.00     0.009 A 
ATOM     82  C   UNL     1       9.226  -5.605   0.565  1.00  0.00     0.009 A 
ATOM     83  C   UNL     1       9.603  -3.855   2.693  1.00  0.00     0.014 A 
ATOM     84  C   UNL     1      10.515  -5.334   1.019  1.00  0.00     0.014 A 
ATOM     85  C   UNL     1      10.720  -4.457   2.090  1.00  0.00     0.056 A 
BRANCH  85  86
ATOM     86  C   UNL     1      12.118  -4.163   2.580  1.00  0.00     0.416 C 
ATOM     87  F   UNL     1      12.447  -2.847   2.476  1.00  0.00    -0.166 F 
ATOM     88  F   UNL     1      12.288  -4.492   3.892  1.00  0.00    -0.166 F 
ATOM     89  F   UNL     1      13.084  -4.845   1.902  1.00  0.00    -0.166 F 
ENDBRANCH  85  86
ENDBRANCH  77  80
BRANCH  78  90
ATOM     90  N   UNL     1       4.315  -8.163   0.542  1.00  0.00     0.062 N 
ATOM     91  O   UNL     1       4.965  -8.983   1.206  1.00  0.00    -0.258 OA
ATOM     92  O   UNL     1       3.189  -8.372   0.071  1.00  0.00    -0.258 OA
ENDBRANCH  78  90
ENDBRANCH  72  74
ENDBRANCH  71  72
ENDBRANCH  70  71
ENDBRANCH  69  70
ENDBRANCH  68  69
ENDBRANCH   1  68
TORSDOF 20
