REMARK SMILES O=C(OCCOCCOC(=O)[C@@H](CCOC(F)(F)F)Cc1ccccc1Cl)c1ccc(-c2c3nc(c(-c4ccc(S(=O)(=O)[O-])cc4)c4ccc([nH]4)c(-c4ccc(S(=O)(=O)[O-])cc4)c4nc(c(-c5ccc(S(=O)(=O)[O-])cc5)c5ccc2[nH]5)C=C4)C=C3)cc1
REMARK SMILES IDX 7 1 6 2 5 3 4 4 3 5 2 6 1 7 28 8 29 9 87 10 30 11 86 12
REMARK SMILES IDX 31 13 32 14 33 15 80 16 34 17 85 18 79 19 81 20 35 21 84 22
REMARK SMILES IDX 78 23 77 24 36 26 66 27 47 28 65 29 48 30 51 31 64 32 82 33
REMARK SMILES IDX 49 34 50 35 63 37 83 38 52 39 37 40 38 41 46 42 39 43 45 44
REMARK SMILES IDX 40 45 41 46 42 47 43 48 44 49 67 50 68 51 76 52 69 53 75 54
REMARK SMILES IDX 70 55 71 56 72 57 73 58 74 59 53 60 54 61 62 62 55 63 61 64
REMARK SMILES IDX 56 65 57 66 58 67 59 68 60 69 8 70 9 71 10 72 11 73 12 74
REMARK SMILES IDX 13 75 14 76 15 77 16 78 17 79 18 80 19 81 20 82 21 83 22 84
REMARK SMILES IDX 26 85 23 86 25 87 27 88 24 89
REMARK H PARENT 81 25 51 36
REMARK Flexibility Score: inf
ROOT
ATOM      1  C   UNL     1       2.632   1.932  -0.282  1.00  0.00     0.202 C 
ENDROOT
BRANCH   1   2
ATOM      2  O   UNL     1       3.964   1.431  -0.197  1.00  0.00    -0.374 OA
BRANCH   2   3
ATOM      3  C   UNL     1       4.417   0.484  -1.161  1.00  0.00     0.202 C 
BRANCH   3   4
ATOM      4  C   UNL     1       4.138  -0.984  -0.830  1.00  0.00     0.261 C 
BRANCH   4   5
ATOM      5  O   UNL     1       2.740  -1.174  -0.568  1.00  0.00    -0.460 OA
BRANCH   5   6
ATOM      6  C   UNL     1       2.133  -1.121   0.643  1.00  0.00     0.338 C 
ATOM      7  O   UNL     1       0.908  -1.215   0.696  1.00  0.00    -0.246 OA
BRANCH   6   8
ATOM      8  C   UNL     1       2.887  -0.969   1.922  1.00  0.00     0.060 A 
ATOM      9  C   UNL     1       4.080  -0.261   2.054  1.00  0.00     0.016 A 
ATOM     10  C   UNL     1       2.314  -1.507   3.083  1.00  0.00     0.016 A 
ATOM     11  C   UNL     1       4.708  -0.086   3.259  1.00  0.00     0.010 A 
ATOM     12  C   UNL     1       2.937  -1.335   4.323  1.00  0.00     0.010 A 
ATOM     13  C   UNL     1       4.135  -0.619   4.398  1.00  0.00    -0.014 A 
BRANCH  13  14
ATOM     14  C   UNL     1       4.960  -0.517   5.599  1.00  0.00     0.031 A 
ATOM     15  C   UNL     1       5.772  -1.713   5.970  1.00  0.00     0.074 A 
ATOM     16  C   UNL     1       5.147   0.696   6.150  1.00  0.00     0.049 A 
ATOM     17  N   UNL     1       6.562  -1.883   6.988  1.00  0.00    -0.248 NA
ATOM     18  C   UNL     1       5.705  -2.868   5.052  1.00  0.00     0.031 C 
ATOM     19  C   UNL     1       4.548   1.947   5.663  1.00  0.00     0.029 A 
ATOM     20  N   UNL     1       5.933   1.089   7.193  1.00  0.00    -0.354 N 
ATOM     21  C   UNL     1       7.043  -3.179   6.867  1.00  0.00     0.074 A 
ATOM     22  C   UNL     1       6.478  -3.748   5.668  1.00  0.00     0.031 C 
ATOM     23  C   UNL     1       5.007   2.969   6.402  1.00  0.00     0.029 A 
ATOM     24  C   UNL     1       5.850   2.433   7.462  1.00  0.00     0.049 A 
ATOM     25  H   UNL     1       6.504   0.469   7.703  1.00  0.00     0.167 HD
ATOM     26  C   UNL     1       7.868  -3.828   7.717  1.00  0.00     0.031 A 
ATOM     27  C   UNL     1       6.361   3.128   8.493  1.00  0.00     0.031 A 
ATOM     28  C   UNL     1       8.385  -3.207   8.903  1.00  0.00     0.049 A 
ATOM     29  C   UNL     1       7.158   2.349   9.502  1.00  0.00     0.074 A 
ATOM     30  C   UNL     1       9.143  -3.760   9.914  1.00  0.00     0.029 A 
ATOM     31  N   UNL     1       8.185  -1.868   9.228  1.00  0.00    -0.354 N 
ATOM     32  N   UNL     1       7.511   1.082   9.466  1.00  0.00    -0.248 NA
ATOM     33  C   UNL     1       7.607   3.071  10.694  1.00  0.00     0.031 C 
ATOM     34  C   UNL     1       9.354  -2.769  10.879  1.00  0.00     0.029 A 
ATOM     35  C   UNL     1       8.788  -1.580  10.435  1.00  0.00     0.049 A 
ATOM     36  H   UNL     1       7.688  -1.222   8.677  1.00  0.00     0.167 HD
ATOM     37  C   UNL     1       8.238   0.857  10.625  1.00  0.00     0.074 A 
ATOM     38  C   UNL     1       8.292   2.128  11.328  1.00  0.00     0.031 C 
ATOM     39  C   UNL     1       8.808  -0.288  11.079  1.00  0.00     0.031 A 
BRANCH  26  40
ATOM     40  C   UNL     1       8.129  -5.281   7.439  1.00  0.00    -0.014 A 
ATOM     41  C   UNL     1       8.927  -5.703   6.360  1.00  0.00     0.010 A 
ATOM     42  C   UNL     1       7.511  -6.250   8.252  1.00  0.00     0.010 A 
ATOM     43  C   UNL     1       9.069  -7.065   6.077  1.00  0.00     0.020 A 
ATOM     44  C   UNL     1       7.673  -7.612   7.989  1.00  0.00     0.020 A 
ATOM     45  C   UNL     1       8.437  -8.011   6.892  1.00  0.00     0.054 A 
BRANCH  45  46
ATOM     46  S   UNL     1       8.641  -9.771   6.505  1.00  0.00     0.124 S 
ATOM     47  O   UNL     1       7.837  -9.909   5.293  1.00  0.00    -0.237 OA
ATOM     48  O   UNL     1      10.084  -9.892   6.318  1.00  0.00    -0.237 OA
ATOM     49  O   UNL     1       8.110 -10.450   7.684  1.00  0.00    -0.744 OA
ENDBRANCH  45  46
ENDBRANCH  26  40
BRANCH  27  50
ATOM     50  C   UNL     1       6.049   4.575   8.664  1.00  0.00    -0.014 A 
ATOM     51  C   UNL     1       7.062   5.548   8.640  1.00  0.00     0.010 A 
ATOM     52  C   UNL     1       4.716   4.991   8.853  1.00  0.00     0.010 A 
ATOM     53  C   UNL     1       6.751   6.901   8.823  1.00  0.00     0.020 A 
ATOM     54  C   UNL     1       4.396   6.343   9.004  1.00  0.00     0.020 A 
ATOM     55  C   UNL     1       5.419   7.290   9.004  1.00  0.00     0.054 A 
BRANCH  55  56
ATOM     56  S   UNL     1       5.037   9.051   9.216  1.00  0.00     0.124 S 
ATOM     57  O   UNL     1       5.562   9.316  10.552  1.00  0.00    -0.237 OA
ATOM     58  O   UNL     1       5.771   9.667   8.113  1.00  0.00    -0.237 OA
ATOM     59  O   UNL     1       3.582   9.104   9.094  1.00  0.00    -0.744 OA
ENDBRANCH  55  56
ENDBRANCH  27  50
BRANCH  39  60
ATOM     60  C   UNL     1       9.569  -0.193  12.368  1.00  0.00    -0.014 A 
ATOM     61  C   UNL     1       8.902  -0.063  13.598  1.00  0.00     0.010 A 
ATOM     62  C   UNL     1      10.970  -0.309  12.342  1.00  0.00     0.010 A 
ATOM     63  C   UNL     1       9.633  -0.025  14.786  1.00  0.00     0.020 A 
ATOM     64  C   UNL     1      11.699  -0.305  13.530  1.00  0.00     0.020 A 
ATOM     65  C   UNL     1      11.026  -0.150  14.743  1.00  0.00     0.054 A 
BRANCH  65  66
ATOM     66  S   UNL     1      11.945  -0.159  16.303  1.00  0.00     0.124 S 
ATOM     67  O   UNL     1      11.875   1.243  16.703  1.00  0.00    -0.237 OA
ATOM     68  O   UNL     1      11.172  -1.088  17.124  1.00  0.00    -0.237 OA
ATOM     69  O   UNL     1      13.273  -0.633  15.919  1.00  0.00    -0.744 OA
ENDBRANCH  65  66
ENDBRANCH  39  60
ENDBRANCH  13  14
ENDBRANCH   6   8
ENDBRANCH   5   6
ENDBRANCH   4   5
ENDBRANCH   3   4
ENDBRANCH   2   3
ENDBRANCH   1   2
BRANCH   1  70
ATOM     70  C   UNL     1       2.661   3.445  -0.532  1.00  0.00     0.261 C 
BRANCH  70  71
ATOM     71  O   UNL     1       3.206   3.709  -1.837  1.00  0.00    -0.463 OA
BRANCH  71  72
ATOM     72  C   UNL     1       4.548   3.557  -1.935  1.00  0.00     0.309 C 
ATOM     73  O   UNL     1       5.329   3.513  -1.000  1.00  0.00    -0.252 OA
BRANCH  72  74
ATOM     74  C   UNL     1       5.006   3.442  -3.378  1.00  0.00     0.106 C 
BRANCH  74  75
ATOM     75  C   UNL     1       4.374   2.317  -4.254  1.00  0.00     0.044 C 
BRANCH  75  76
ATOM     76  C   UNL     1       2.919   1.841  -4.066  1.00  0.00     0.171 C 
BRANCH  76  77
ATOM     77  O   UNL     1       2.047   2.167  -5.133  1.00  0.00    -0.292 OA
BRANCH  77  78
ATOM     78  C   UNL     1       1.558   3.489  -5.091  1.00  0.00     0.522 C 
ATOM     79  F   UNL     1       1.470   3.959  -3.835  1.00  0.00    -0.144 F 
ATOM     80  F   UNL     1       2.375   4.274  -5.815  1.00  0.00    -0.144 F 
ATOM     81  F   UNL     1       0.330   3.515  -5.645  1.00  0.00    -0.144 F 
ENDBRANCH  77  78
ENDBRANCH  76  77
ENDBRANCH  75  76
ENDBRANCH  74  75
BRANCH  74  82
ATOM     82  C   UNL     1       5.020   4.812  -4.076  1.00  0.00     0.052 C 
BRANCH  82  83
ATOM     83  C   UNL     1       5.386   6.016  -3.227  1.00  0.00    -0.028 A 
ATOM     84  C   UNL     1       6.410   5.936  -2.265  1.00  0.00     0.005 A 
ATOM     85  C   UNL     1       4.685   7.230  -3.335  1.00  0.00     0.044 A 
ATOM     86  C   UNL     1       6.612   6.962  -1.339  1.00  0.00     0.000 A 
ATOM     87  C   UNL     1       4.910   8.268  -2.426  1.00  0.00     0.021 A 
ATOM     88  Cl  UNL     1       3.512   7.512  -4.576  1.00  0.00    -0.084 Cl
ATOM     89  C   UNL     1       5.848   8.120  -1.407  1.00  0.00     0.002 A 
ENDBRANCH  82  83
ENDBRANCH  74  82
ENDBRANCH  72  74
ENDBRANCH  71  72
ENDBRANCH  70  71
ENDBRANCH   1  70
TORSDOF 23
