REMARK SMILES Cc1ccc(NC(=O)C[C@@H](C(=O)OCCOCCOC(=O)c2ccc(-c3c4nc(c(-c5ccc(S(=O)(=O)[O-])cc5)c5ccc([nH]5)c(-c5ccc(S(=O)(=O)[O-])cc5)c5nc(c(-c6ccc(S(=O)(=O)[O-])cc6)c6ccc3[nH]6)C=C5)C=C4)cc2)[NH+]2CCOCC2)cc1
REMARK SMILES IDX 16 1 15 2 14 3 13 4 11 5 12 6 10 7 9 8 7 9 6 10 8 12 5 13
REMARK SMILES IDX 1 14 2 15 3 16 89 17 4 18 88 19 82 20 83 21 87 22 84 24
REMARK SMILES IDX 86 25 85 26 17 27 18 28 19 29 20 30 21 31 22 32 23 33 81 34
REMARK SMILES IDX 24 35 80 36 25 37 26 38 27 39 74 40 28 41 79 42 73 43 75 44
REMARK SMILES IDX 29 45 78 46 72 47 71 48 30 50 60 51 41 52 59 53 42 54 45 55
REMARK SMILES IDX 58 56 76 57 43 58 44 59 57 61 77 62 46 63 31 64 32 65 40 66
REMARK SMILES IDX 33 67 39 68 34 69 35 70 36 71 37 72 38 73 61 74 62 75 70 76
REMARK SMILES IDX 63 77 69 78 64 79 65 80 66 81 67 82 68 83 47 84 48 85 56 86
REMARK SMILES IDX 49 87 55 88 50 89 51 90 52 91 53 92 54 93
REMARK H PARENT 6 11 82 23 75 49 45 60
REMARK Flexibility Score: inf
ROOT
ATOM      1  O   UNL     1      -0.495  -2.095   2.549  1.00  0.00    -0.374 OA
ENDROOT
BRANCH   1   2
ATOM      2  C   UNL     1      -0.304  -0.705   1.506  1.00  0.00     0.202 C 
BRANCH   2   3
ATOM      3  C   UNL     1      -1.407  -0.697  -0.501  1.00  0.00     0.261 C 
BRANCH   3   4
ATOM      4  O   UNL     1      -2.095  -1.685  -1.284  1.00  0.00    -0.459 OA
BRANCH   4   5
ATOM      5  C   UNL     1      -1.520  -2.555  -2.061  1.00  0.00     0.365 C 
ATOM      6  O   UNL     1      -0.501  -2.379  -2.702  1.00  0.00    -0.245 OA
BRANCH   5   7
ATOM      7  C   UNL     1      -2.320  -3.826  -1.814  1.00  0.00     0.304 C 
BRANCH   7   8
ATOM      8  C   UNL     1      -2.962  -3.832  -0.345  1.00  0.00     0.177 C 
BRANCH   8   9
ATOM      9  C   UNL     1      -3.780  -2.639   0.240  1.00  0.00     0.231 C 
ATOM     10  N   UNL     1      -3.212  -1.701   1.096  1.00  0.00    -0.326 N 
ATOM     11  H   UNL     1      -3.798  -1.307   1.782  1.00  0.00     0.169 HD
ATOM     12  O   UNL     1      -4.976  -2.526  -0.056  1.00  0.00    -0.274 OA
BRANCH  10  13
ATOM     13  C   UNL     1      -1.854  -1.258   1.071  1.00  0.00     0.041 A 
ATOM     14  C   UNL     1       3.465   0.554  -0.490  1.00  0.00     0.044 C 
ATOM     15  C   UNL     1       1.929   0.356  -0.340  1.00  0.00    -0.051 A 
ATOM     16  C   UNL     1       1.583  -1.541   0.086  1.00  0.00     0.005 A 
ATOM     17  C   UNL     1       0.168   1.511  -0.011  1.00  0.00     0.005 A 
ATOM     18  C   UNL     1      -0.226  -2.243   0.446  1.00  0.00     0.026 A 
ATOM     19  C   UNL     1      -1.429   0.703   0.807  1.00  0.00     0.026 A 
ENDBRANCH  10  13
ENDBRANCH   8   9
ENDBRANCH   7   8
BRANCH   7  20
ATOM     20  N   UNL     1      -1.309  -4.864  -2.064  1.00  0.00    -0.319 N 
ATOM     21  C   UNL     1      -0.877  -4.969  -3.477  1.00  0.00     0.291 C 
ATOM     22  C   UNL     1      -1.427  -6.158  -1.434  1.00  0.00     0.291 C 
ATOM     23  H   UNL     1      -0.555  -4.451  -1.514  1.00  0.00     0.348 HD
ATOM     24  C   UNL     1      -1.700  -5.977  -4.264  1.00  0.00     0.221 C 
ATOM     25  C   UNL     1      -2.180  -7.171  -2.294  1.00  0.00     0.221 C 
ATOM     26  O   UNL     1      -1.668  -7.257  -3.629  1.00  0.00    -0.370 OA
ENDBRANCH   7  20
ENDBRANCH   5   7
ENDBRANCH   4   5
ENDBRANCH   3   4
ENDBRANCH   2   3
ENDBRANCH   1   2
BRANCH   1  27
ATOM     27  C   UNL     1      -0.690  -1.790   3.906  1.00  0.00     0.202 C 
BRANCH  27  28
ATOM     28  C   UNL     1      -0.369  -0.352   4.312  1.00  0.00     0.261 C 
BRANCH  28  29
ATOM     29  O   UNL     1       0.931   0.023   3.714  1.00  0.00    -0.460 OA
BRANCH  29  30
ATOM     30  C   UNL     1       1.006   1.101   2.858  1.00  0.00     0.338 C 
ATOM     31  O   UNL     1       1.103   2.243   3.295  1.00  0.00    -0.246 OA
BRANCH  30  32
ATOM     32  C   UNL     1       1.254   0.810   1.289  1.00  0.00     0.060 A 
ATOM     33  C   UNL     1       2.000   2.323   0.613  1.00  0.00     0.016 A 
ATOM     34  C   UNL     1       0.339  -0.174  -0.249  1.00  0.00     0.016 A 
ATOM     35  C   UNL     1       1.839   2.674  -1.134  1.00  0.00     0.010 A 
ATOM     36  C   UNL     1       0.513   0.403  -1.895  1.00  0.00     0.010 A 
ATOM     37  C   UNL     1       1.054   1.722  -2.294  1.00  0.00    -0.014 A 
BRANCH  37  38
ATOM     38  C   UNL     1       0.715   1.564  -3.784  1.00  0.00     0.031 A 
ATOM     39  C   UNL     1       1.814   0.900  -4.580  1.00  0.00     0.074 A 
ATOM     40  C   UNL     1      -0.606   1.119  -3.997  1.00  0.00     0.049 A 
ATOM     41  N   UNL     1       2.060   1.002  -5.846  1.00  0.00    -0.248 NA
ATOM     42  C   UNL     1       2.797   0.033  -3.906  1.00  0.00     0.031 C 
ATOM     43  C   UNL     1      -1.141  -0.126  -4.637  1.00  0.00     0.029 A 
ATOM     44  N   UNL     1      -1.726   1.443  -3.206  1.00  0.00    -0.354 N 
ATOM     45  C   UNL     1       2.940  -0.046  -6.135  1.00  0.00     0.074 A 
ATOM     46  C   UNL     1       3.600  -0.362  -4.890  1.00  0.00     0.031 C 
ATOM     47  C   UNL     1      -2.484  -0.246  -4.463  1.00  0.00     0.029 A 
ATOM     48  C   UNL     1      -2.934   0.837  -3.601  1.00  0.00     0.049 A 
ATOM     49  H   UNL     1      -1.668   2.049  -2.432  1.00  0.00     0.167 HD
ATOM     50  C   UNL     1       2.623  -1.035  -7.035  1.00  0.00     0.031 A 
ATOM     51  C   UNL     1      -3.964   1.698  -3.781  1.00  0.00     0.031 A 
ATOM     52  C   UNL     1       1.176  -1.037  -7.357  1.00  0.00     0.049 A 
ATOM     53  C   UNL     1      -3.645   2.209  -5.197  1.00  0.00     0.074 A 
ATOM     54  C   UNL     1       0.172  -1.992  -7.339  1.00  0.00     0.029 A 
ATOM     55  N   UNL     1       0.504   0.179  -7.518  1.00  0.00    -0.354 N 
ATOM     56  N   UNL     1      -2.459   2.061  -5.757  1.00  0.00    -0.248 NA
ATOM     57  C   UNL     1      -4.660   2.493  -6.204  1.00  0.00     0.031 C 
ATOM     58  C   UNL     1      -1.090  -1.321  -7.525  1.00  0.00     0.029 A 
ATOM     59  C   UNL     1      -0.874   0.056  -7.583  1.00  0.00     0.049 A 
ATOM     60  H   UNL     1       0.969   1.044  -7.579  1.00  0.00     0.167 HD
ATOM     61  C   UNL     1      -2.593   1.851  -7.093  1.00  0.00     0.074 A 
ATOM     62  C   UNL     1      -3.973   2.262  -7.343  1.00  0.00     0.031 C 
ATOM     63  C   UNL     1      -1.698   1.232  -7.933  1.00  0.00     0.031 A 
BRANCH  50  64
ATOM     64  C   UNL     1       3.624  -2.142  -7.431  1.00  0.00    -0.014 A 
ATOM     65  C   UNL     1       3.232  -3.179  -8.302  1.00  0.00     0.010 A 
ATOM     66  C   UNL     1       5.007  -2.131  -7.101  1.00  0.00     0.010 A 
ATOM     67  C   UNL     1       4.146  -4.120  -8.827  1.00  0.00     0.020 A 
ATOM     68  C   UNL     1       5.927  -3.086  -7.592  1.00  0.00     0.020 A 
ATOM     69  C   UNL     1       5.494  -4.059  -8.482  1.00  0.00     0.054 A 
BRANCH  69  70
ATOM     70  S   UNL     1       6.672  -5.189  -9.287  1.00  0.00     0.124 S 
ATOM     71  O   UNL     1       6.143  -6.505  -8.938  1.00  0.00    -0.237 OA
ATOM     72  O   UNL     1       6.551  -4.818 -10.694  1.00  0.00    -0.237 OA
ATOM     73  O   UNL     1       7.955  -4.858  -8.669  1.00  0.00    -0.744 OA
ENDBRANCH  69  70
ENDBRANCH  50  64
BRANCH  51  74
ATOM     74  C   UNL     1      -4.327   2.299  -2.410  1.00  0.00    -0.014 A 
ATOM     75  C   UNL     1      -5.180   1.506  -1.581  1.00  0.00     0.010 A 
ATOM     76  C   UNL     1      -3.576   3.275  -1.712  1.00  0.00     0.010 A 
ATOM     77  C   UNL     1      -5.236   1.626  -0.166  1.00  0.00     0.020 A 
ATOM     78  C   UNL     1      -3.622   3.402  -0.284  1.00  0.00     0.020 A 
ATOM     79  C   UNL     1      -4.442   2.564   0.486  1.00  0.00     0.054 A 
BRANCH  79  80
ATOM     80  S   UNL     1      -4.220   2.398   2.323  1.00  0.00     0.124 S 
ATOM     81  O   UNL     1      -5.402   3.051   2.867  1.00  0.00    -0.237 OA
ATOM     82  O   UNL     1      -4.163   0.942   2.491  1.00  0.00    -0.237 OA
ATOM     83  O   UNL     1      -2.950   3.075   2.571  1.00  0.00    -0.744 OA
ENDBRANCH  79  80
ENDBRANCH  51  74
BRANCH  63  84
ATOM     84  C   UNL     1      -1.413   1.883  -9.259  1.00  0.00    -0.014 A 
ATOM     85  C   UNL     1      -1.995   3.097  -9.637  1.00  0.00     0.010 A 
ATOM     86  C   UNL     1      -0.388   1.364 -10.088  1.00  0.00     0.010 A 
ATOM     87  C   UNL     1      -1.646   3.714 -10.829  1.00  0.00     0.020 A 
ATOM     88  C   UNL     1       0.036   2.022 -11.233  1.00  0.00     0.020 A 
ATOM     89  C   UNL     1      -0.633   3.171 -11.617  1.00  0.00     0.054 A 
BRANCH  89  90
ATOM     90  S   UNL     1      -0.222   3.998 -13.156  1.00  0.00     0.124 S 
ATOM     91  O   UNL     1      -1.388   3.678 -13.976  1.00  0.00    -0.237 OA
ATOM     92  O   UNL     1      -0.108   5.394 -12.742  1.00  0.00    -0.237 OA
ATOM     93  O   UNL     1       1.028   3.367 -13.569  1.00  0.00    -0.744 OA
ENDBRANCH  89  90
ENDBRANCH  63  84
ENDBRANCH  37  38
ENDBRANCH  30  32
ENDBRANCH  29  30
ENDBRANCH  28  29
ENDBRANCH  27  28
ENDBRANCH   1  27
TORSDOF 21
