REMARK SMILES Cc1c(CC(=O)OCCOCCOC(=O)c2ccc(-c3c4nc(c(-c5ccc(S(=O)(=O)[O-])cc5)c5ccc([nH]5)c(-c5ccc(S(=O)(=O)[O-])cc5)c5nc(c(-c6ccc(S(=O)(=O)[O-])cc6)c6ccc3[nH]6)C=C5)C=C4)cc2)cc(-c2ccc(S(C)(=O)=O)cc2)n1-c1cccc(F)c1
REMARK SMILES IDX 10 1 9 2 8 3 7 4 5 5 6 6 4 7 3 8 1 9 2 10 88 11 76 12 77 13
REMARK SMILES IDX 89 14 90 15 95 16 91 17 93 18 92 19 94 20 78 21 79 22 87 23
REMARK SMILES IDX 80 24 86 25 81 26 82 27 83 28 84 29 85 30 11 31 12 32 13 33
REMARK SMILES IDX 14 34 15 35 16 36 17 37 75 38 18 39 74 40 19 41 20 42 21 43
REMARK SMILES IDX 68 44 22 45 73 46 67 47 69 48 23 49 72 50 66 51 65 52 24 54
REMARK SMILES IDX 54 55 35 56 53 57 36 58 39 59 52 60 70 61 37 62 38 63 51 65
REMARK SMILES IDX 71 66 40 67 25 68 26 69 34 70 27 71 33 72 28 73 29 74 30 75
REMARK SMILES IDX 31 76 32 77 55 78 56 79 64 80 57 81 63 82 58 83 59 84 60 85
REMARK SMILES IDX 61 86 62 87 41 88 42 89 50 90 43 91 49 92 44 93 45 94 46 95
REMARK SMILES IDX 47 96 48 97
REMARK H PARENT 69 53 39 64
REMARK Flexibility Score: inf
ROOT
ATOM      1  O   UNL     1      -2.755  -0.888  -1.420  1.00  0.00    -0.374 OA
ENDROOT
BRANCH   1   2
ATOM      2  C   UNL     1      -3.999  -0.593  -0.817  1.00  0.00     0.202 C 
BRANCH   2   3
ATOM      3  C   UNL     1      -4.026  -0.468   0.720  1.00  0.00     0.261 C 
BRANCH   3   4
ATOM      4  O   UNL     1      -2.889   0.209   1.300  1.00  0.00    -0.463 OA
BRANCH   4   5
ATOM      5  C   UNL     1      -2.113  -0.529   2.142  1.00  0.00     0.310 C 
ATOM      6  O   UNL     1      -2.405  -1.659   2.531  1.00  0.00    -0.252 OA
BRANCH   5   7
ATOM      7  C   UNL     1      -0.890   0.185   2.690  1.00  0.00     0.160 C 
BRANCH   7   8
ATOM      8  C   UNL     1      -0.213   1.252   1.866  1.00  0.00    -0.015 A 
ATOM      9  C   UNL     1       1.496  -0.101   0.421  1.00  0.00     0.065 C 
ATOM     10  C   UNL     1       0.782   1.123   0.895  1.00  0.00     0.024 A 
ATOM     11  N   UNL     1       1.149   2.395   0.455  1.00  0.00    -0.313 N 
ATOM     12  C   UNL     1      -0.349   2.648   2.095  1.00  0.00     0.033 A 
ATOM     13  C   UNL     1       0.538   3.332   1.282  1.00  0.00     0.053 A 
BRANCH  11  14
ATOM     14  C   UNL     1       2.024   2.691  -0.633  1.00  0.00     0.049 A 
ATOM     15  C   UNL     1       3.184   3.445  -0.432  1.00  0.00     0.027 A 
ATOM     16  C   UNL     1       1.665   2.311  -1.928  1.00  0.00     0.065 A 
ATOM     17  C   UNL     1       3.967   3.825  -1.530  1.00  0.00     0.005 A 
ATOM     18  C   UNL     1       2.412   2.755  -3.012  1.00  0.00     0.125 A 
ATOM     19  C   UNL     1       3.565   3.502  -2.826  1.00  0.00     0.039 A 
ATOM     20  F   UNL     1       2.002   2.463  -4.252  1.00  0.00    -0.207 F 
ENDBRANCH  11  14
BRANCH  13  21
ATOM     21  C   UNL     1       0.765   4.776   1.231  1.00  0.00    -0.001 A 
ATOM     22  C   UNL     1       0.370   5.528   0.116  1.00  0.00     0.011 A 
ATOM     23  C   UNL     1       1.386   5.417   2.312  1.00  0.00     0.011 A 
ATOM     24  C   UNL     1       0.615   6.902   0.070  1.00  0.00     0.021 A 
ATOM     25  C   UNL     1       1.640   6.789   2.270  1.00  0.00     0.021 A 
ATOM     26  C   UNL     1       1.259   7.523   1.142  1.00  0.00     0.067 A 
BRANCH  26  27
ATOM     27  S   UNL     1       1.561   9.275   1.105  1.00  0.00     0.175 S 
ATOM     28  C   UNL     1       2.627   9.513  -0.294  1.00  0.00     0.163 C 
ATOM     29  O   UNL     1       0.265   9.906   0.803  1.00  0.00    -0.224 OA
ATOM     30  O   UNL     1       2.289   9.626   2.280  1.00  0.00    -0.224 OA
ENDBRANCH  26  27
ENDBRANCH  13  21
ENDBRANCH   7   8
ENDBRANCH   5   7
ENDBRANCH   4   5
ENDBRANCH   3   4
ENDBRANCH   2   3
ENDBRANCH   1   2
BRANCH   1  31
ATOM     31  C   UNL     1      -1.802   0.167  -1.376  1.00  0.00     0.202 C 
BRANCH  31  32
ATOM     32  C   UNL     1      -2.024   1.542  -2.127  1.00  0.00     0.261 C 
BRANCH  32  33
ATOM     33  O   UNL     1      -3.016   2.616  -1.802  1.00  0.00    -0.460 OA
BRANCH  33  34
ATOM     34  C   UNL     1      -3.580   3.296  -2.899  1.00  0.00     0.338 C 
ATOM     35  O   UNL     1      -3.651   2.743  -3.992  1.00  0.00    -0.246 OA
BRANCH  34  36
ATOM     36  C   UNL     1      -4.109   4.799  -2.762  1.00  0.00     0.060 A 
ATOM     37  C   UNL     1      -5.468   5.179  -2.797  1.00  0.00     0.016 A 
ATOM     38  C   UNL     1      -3.328   5.910  -3.076  1.00  0.00     0.016 A 
ATOM     39  C   UNL     1      -6.015   6.611  -2.984  1.00  0.00     0.010 A 
ATOM     40  C   UNL     1      -3.885   7.313  -3.301  1.00  0.00     0.010 A 
ATOM     41  C   UNL     1      -5.267   7.826  -3.193  1.00  0.00    -0.014 A 
BRANCH  41  42
ATOM     42  C   UNL     1      -6.031   9.256  -4.055  1.00  0.00     0.031 A 
ATOM     43  C   UNL     1      -6.595   8.471  -5.226  1.00  0.00     0.074 A 
ATOM     44  C   UNL     1      -6.221  10.758  -4.302  1.00  0.00     0.049 A 
ATOM     45  N   UNL     1      -5.797   7.596  -5.764  1.00  0.00    -0.248 NA
ATOM     46  C   UNL     1      -7.620   8.914  -6.146  1.00  0.00     0.031 C 
ATOM     47  C   UNL     1      -6.478  11.330  -5.699  1.00  0.00     0.029 A 
ATOM     48  N   UNL     1      -6.026  12.142  -3.736  1.00  0.00    -0.354 N 
ATOM     49  C   UNL     1      -5.528   8.238  -6.939  1.00  0.00     0.074 A 
ATOM     50  C   UNL     1      -6.840   8.854  -7.239  1.00  0.00     0.031 C 
ATOM     51  C   UNL     1      -6.709  12.652  -5.844  1.00  0.00     0.029 A 
ATOM     52  C   UNL     1      -6.588  13.399  -4.575  1.00  0.00     0.049 A 
ATOM     53  H   UNL     1      -5.568  12.275  -2.874  1.00  0.00     0.167 HD
ATOM     54  C   UNL     1      -4.250   8.741  -7.018  1.00  0.00     0.031 A 
ATOM     55  C   UNL     1      -6.164  14.760  -4.833  1.00  0.00     0.031 A 
ATOM     56  C   UNL     1      -3.605   9.724  -6.098  1.00  0.00     0.049 A 
ATOM     57  C   UNL     1      -4.698  14.732  -4.852  1.00  0.00     0.074 A 
ATOM     58  C   UNL     1      -3.359   9.978  -4.750  1.00  0.00     0.029 A 
ATOM     59  N   UNL     1      -2.769  10.670  -6.663  1.00  0.00    -0.354 N 
ATOM     60  N   UNL     1      -3.933  14.748  -5.893  1.00  0.00    -0.248 NA
ATOM     61  C   UNL     1      -4.066  14.513  -3.563  1.00  0.00     0.031 C 
ATOM     62  C   UNL     1      -2.572  11.119  -4.530  1.00  0.00     0.029 A 
ATOM     63  C   UNL     1      -2.508  11.698  -5.761  1.00  0.00     0.049 A 
ATOM     64  H   UNL     1      -2.408  10.623  -7.578  1.00  0.00     0.167 HD
ATOM     65  C   UNL     1      -2.827  14.053  -5.441  1.00  0.00     0.074 A 
ATOM     66  C   UNL     1      -2.893  14.069  -3.986  1.00  0.00     0.031 C 
ATOM     67  C   UNL     1      -2.398  13.041  -6.237  1.00  0.00     0.031 A 
BRANCH  54  68
ATOM     68  C   UNL     1      -3.388   7.673  -7.633  1.00  0.00    -0.014 A 
ATOM     69  C   UNL     1      -3.938   6.717  -8.514  1.00  0.00     0.010 A 
ATOM     70  C   UNL     1      -2.002   7.669  -7.415  1.00  0.00     0.010 A 
ATOM     71  C   UNL     1      -3.121   5.877  -9.249  1.00  0.00     0.020 A 
ATOM     72  C   UNL     1      -1.175   6.851  -8.173  1.00  0.00     0.020 A 
ATOM     73  C   UNL     1      -1.742   5.990  -9.110  1.00  0.00     0.054 A 
BRANCH  73  74
ATOM     74  S   UNL     1      -0.706   5.082 -10.267  1.00  0.00     0.124 S 
ATOM     75  O   UNL     1      -0.924   3.699  -9.850  1.00  0.00    -0.237 OA
ATOM     76  O   UNL     1      -1.288   5.445 -11.556  1.00  0.00    -0.237 OA
ATOM     77  O   UNL     1       0.634   5.604 -10.011  1.00  0.00    -0.744 OA
ENDBRANCH  73  74
ENDBRANCH  54  68
BRANCH  55  78
ATOM     78  C   UNL     1      -6.606  16.322  -4.655  1.00  0.00    -0.014 A 
ATOM     79  C   UNL     1      -7.096  17.250  -5.638  1.00  0.00     0.010 A 
ATOM     80  C   UNL     1      -6.133  17.003  -3.500  1.00  0.00     0.010 A 
ATOM     81  C   UNL     1      -7.247  18.686  -5.390  1.00  0.00     0.020 A 
ATOM     82  C   UNL     1      -6.229  18.405  -3.262  1.00  0.00     0.020 A 
ATOM     83  C   UNL     1      -6.843  19.246  -4.175  1.00  0.00     0.054 A 
BRANCH  83  84
ATOM     84  S   UNL     1      -7.221  20.985  -3.676  1.00  0.00     0.124 S 
ATOM     85  O   UNL     1      -6.335  21.792  -4.508  1.00  0.00    -0.237 OA
ATOM     86  O   UNL     1      -8.647  21.104  -3.974  1.00  0.00    -0.237 OA
ATOM     87  O   UNL     1      -6.903  21.006  -2.246  1.00  0.00    -0.744 OA
ENDBRANCH  83  84
ENDBRANCH  55  78
BRANCH  67  88
ATOM     88  C   UNL     1      -2.302  13.324  -7.685  1.00  0.00    -0.014 A 
ATOM     89  C   UNL     1      -1.162  14.014  -8.098  1.00  0.00     0.010 A 
ATOM     90  C   UNL     1      -3.149  12.704  -8.624  1.00  0.00     0.010 A 
ATOM     91  C   UNL     1      -0.785  13.957  -9.427  1.00  0.00     0.020 A 
ATOM     92  C   UNL     1      -2.733  12.580  -9.941  1.00  0.00     0.020 A 
ATOM     93  C   UNL     1      -1.542  13.197 -10.325  1.00  0.00     0.054 A 
BRANCH  93  94
ATOM     94  S   UNL     1      -0.902  13.002 -11.999  1.00  0.00     0.124 S 
ATOM     95  O   UNL     1      -0.816  14.389 -12.450  1.00  0.00    -0.237 OA
ATOM     96  O   UNL     1       0.377  12.341 -11.757  1.00  0.00    -0.237 OA
ATOM     97  O   UNL     1      -1.920  12.195 -12.665  1.00  0.00    -0.744 OA
ENDBRANCH  93  94
ENDBRANCH  67  88
ENDBRANCH  41  42
ENDBRANCH  34  36
ENDBRANCH  33  34
ENDBRANCH  32  33
ENDBRANCH  31  32
ENDBRANCH   1  31
TORSDOF 21
