REMARK SMILES Cc1c2c([nH]c(=O)c1C(=O)OCCOCCOC(=O)c1ccc(-c3c4nc(c(-c5ccc(S(=O)(=O)[O-])cc5)c5ccc([nH]5)c(-c5ccc(S(=O)(=O)[O-])cc5)c5nc(c(-c6ccc(S(=O)(=O)[O-])cc6)c6ccc3[nH]6)C=C5)C=C4)cc1)CC(C)(C)CC2=O
REMARK SMILES IDX 15 1 14 2 13 3 12 4 11 5 9 6 10 7 8 8 1 9 2 10 3 11 4 12
REMARK SMILES IDX 85 13 6 14 5 15 80 16 84 17 86 18 7 19 81 21 82 22 83 23
REMARK SMILES IDX 16 24 17 25 18 26 19 27 20 28 21 29 79 30 22 31 78 32 23 33
REMARK SMILES IDX 24 34 25 35 72 36 26 37 77 38 71 39 73 40 27 41 76 42 70 43
REMARK SMILES IDX 69 44 28 46 58 47 39 48 57 49 40 50 43 51 56 52 74 53 41 54
REMARK SMILES IDX 42 55 55 57 75 58 44 59 29 60 30 61 38 62 31 63 37 64 32 65
REMARK SMILES IDX 33 66 34 67 35 68 36 69 59 70 60 71 68 72 61 73 67 74 62 75
REMARK SMILES IDX 63 76 64 77 65 78 66 79 45 80 46 81 54 82 47 83 53 84 48 85
REMARK SMILES IDX 49 86 50 87 51 88 52 89
REMARK H PARENT 5 20 73 45 43 56
REMARK Flexibility Score: inf
ROOT
ATOM      1  C   UNL     1      -1.599   3.552   1.090  1.00  0.00     0.202 C 
ENDROOT
BRANCH   1   2
ATOM      2  O   UNL     1      -0.899   4.761   0.794  1.00  0.00    -0.374 OA
BRANCH   2   3
ATOM      3  C   UNL     1       0.190   4.683  -0.130  1.00  0.00     0.202 C 
BRANCH   3   4
ATOM      4  C   UNL     1       1.478   4.084   0.434  1.00  0.00     0.261 C 
BRANCH   4   5
ATOM      5  O   UNL     1       1.251   2.689   0.683  1.00  0.00    -0.459 OA
BRANCH   5   6
ATOM      6  C   UNL     1       1.626   2.226   1.893  1.00  0.00     0.344 C 
ATOM      7  O   UNL     1       2.340   2.819   2.689  1.00  0.00    -0.246 OA
BRANCH   6   8
ATOM      8  C   UNL     1       0.985   0.920   2.197  1.00  0.00     0.128 A 
ATOM      9  C   UNL     1       1.300  -0.120  -0.094  1.00  0.00     0.046 C 
ATOM     10  C   UNL     1       0.951  -0.163   1.375  1.00  0.00    -0.018 A 
ATOM     11  C   UNL     1       0.568  -1.483   1.934  1.00  0.00     0.041 A 
ATOM     12  C   UNL     1       0.051  -1.565   3.178  1.00  0.00     0.030 A 
ATOM     13  C   UNL     1       0.875  -2.792   1.243  1.00  0.00     0.165 C 
ATOM     14  C   UNL     1       0.328   0.820   3.536  1.00  0.00     0.263 A 
ATOM     15  N   UNL     1      -0.097  -0.422   3.921  1.00  0.00    -0.325 N 
ATOM     16  C   UNL     1      -0.348  -2.832   3.894  1.00  0.00     0.061 C 
ATOM     17  C   UNL     1       0.781  -4.071   2.050  1.00  0.00     0.088 C 
ATOM     18  O   UNL     1       1.276  -2.847   0.083  1.00  0.00    -0.294 OA
ATOM     19  O   UNL     1       0.095   1.790   4.250  1.00  0.00    -0.269 OA
ATOM     20  H   UNL     1      -0.541  -0.501   4.796  1.00  0.00     0.169 HD
ATOM     21  C   UNL     1      -0.426  -4.073   2.991  1.00  0.00    -0.023 C 
ATOM     22  C   UNL     1      -1.742  -4.083   2.188  1.00  0.00     0.012 C 
ATOM     23  C   UNL     1      -0.383  -5.340   3.864  1.00  0.00     0.012 C 
ENDBRANCH   6   8
ENDBRANCH   5   6
ENDBRANCH   4   5
ENDBRANCH   3   4
ENDBRANCH   2   3
ENDBRANCH   1   2
BRANCH   1  24
ATOM     24  C   UNL     1      -2.644   3.106   0.060  1.00  0.00     0.261 C 
BRANCH  24  25
ATOM     25  O   UNL     1      -2.049   2.720  -1.192  1.00  0.00    -0.460 OA
BRANCH  25  26
ATOM     26  C   UNL     1      -2.247   3.594  -2.205  1.00  0.00     0.338 C 
ATOM     27  O   UNL     1      -2.919   4.620  -2.176  1.00  0.00    -0.246 OA
BRANCH  26  28
ATOM     28  C   UNL     1      -1.386   3.250  -3.349  1.00  0.00     0.060 A 
ATOM     29  C   UNL     1      -0.522   4.241  -3.831  1.00  0.00     0.016 A 
ATOM     30  C   UNL     1      -1.476   2.012  -3.990  1.00  0.00     0.016 A 
ATOM     31  C   UNL     1       0.225   4.015  -4.984  1.00  0.00     0.010 A 
ATOM     32  C   UNL     1      -0.735   1.792  -5.156  1.00  0.00     0.010 A 
ATOM     33  C   UNL     1       0.091   2.804  -5.677  1.00  0.00    -0.014 A 
BRANCH  33  34
ATOM     34  C   UNL     1       0.698   2.667  -7.023  1.00  0.00     0.031 A 
ATOM     35  C   UNL     1      -0.163   2.898  -8.235  1.00  0.00     0.074 A 
ATOM     36  C   UNL     1       2.007   2.394  -7.164  1.00  0.00     0.049 A 
ATOM     37  N   UNL     1       0.158   2.831  -9.501  1.00  0.00    -0.248 NA
ATOM     38  C   UNL     1      -1.569   3.258  -7.987  1.00  0.00     0.031 C 
ATOM     39  C   UNL     1       2.956   2.211  -6.066  1.00  0.00     0.029 A 
ATOM     40  N   UNL     1       2.766   2.231  -8.296  1.00  0.00    -0.354 N 
ATOM     41  C   UNL     1      -1.002   3.142 -10.201  1.00  0.00     0.074 A 
ATOM     42  C   UNL     1      -2.042   3.365  -9.221  1.00  0.00     0.031 C 
ATOM     43  C   UNL     1       4.174   1.966  -6.579  1.00  0.00     0.029 A 
ATOM     44  C   UNL     1       4.085   1.941  -8.038  1.00  0.00     0.049 A 
ATOM     45  H   UNL     1       2.401   2.315  -9.206  1.00  0.00     0.167 HD
ATOM     46  C   UNL     1      -1.183   3.242 -11.539  1.00  0.00     0.031 A 
ATOM     47  C   UNL     1       5.100   1.672  -8.883  1.00  0.00     0.031 A 
ATOM     48  C   UNL     1      -0.153   3.002 -12.513  1.00  0.00     0.049 A 
ATOM     49  C   UNL     1       4.850   1.690 -10.368  1.00  0.00     0.074 A 
ATOM     50  C   UNL     1      -0.240   3.073 -13.893  1.00  0.00     0.029 A 
ATOM     51  N   UNL     1       1.151   2.639 -12.213  1.00  0.00    -0.354 N 
ATOM     52  N   UNL     1       3.748   1.986 -11.015  1.00  0.00    -0.248 NA
ATOM     53  C   UNL     1       5.983   1.341 -11.238  1.00  0.00     0.031 C 
ATOM     54  C   UNL     1       0.997   2.699 -14.428  1.00  0.00     0.029 A 
ATOM     55  C   UNL     1       1.871   2.455 -13.381  1.00  0.00     0.049 A 
ATOM     56  H   UNL     1       1.512   2.529 -11.304  1.00  0.00     0.167 HD
ATOM     57  C   UNL     1       4.059   1.878 -12.366  1.00  0.00     0.074 A 
ATOM     58  C   UNL     1       5.457   1.504 -12.444  1.00  0.00     0.031 C 
ATOM     59  C   UNL     1       3.260   2.073 -13.445  1.00  0.00     0.031 A 
BRANCH  46  60
ATOM     60  C   UNL     1      -2.560   3.604 -12.030  1.00  0.00    -0.014 A 
ATOM     61  C   UNL     1      -3.064   4.909 -11.878  1.00  0.00     0.010 A 
ATOM     62  C   UNL     1      -3.341   2.640 -12.692  1.00  0.00     0.010 A 
ATOM     63  C   UNL     1      -4.337   5.234 -12.354  1.00  0.00     0.020 A 
ATOM     64  C   UNL     1      -4.605   2.969 -13.191  1.00  0.00     0.020 A 
ATOM     65  C   UNL     1      -5.100   4.261 -13.007  1.00  0.00     0.054 A 
BRANCH  65  66
ATOM     66  S   UNL     1      -6.737   4.721 -13.638  1.00  0.00     0.124 S 
ATOM     67  O   UNL     1      -7.500   4.888 -12.403  1.00  0.00    -0.237 OA
ATOM     68  O   UNL     1      -6.461   5.950 -14.376  1.00  0.00    -0.237 OA
ATOM     69  O   UNL     1      -7.128   3.578 -14.459  1.00  0.00    -0.744 OA
ENDBRANCH  65  66
ENDBRANCH  46  60
BRANCH  47  70
ATOM     70  C   UNL     1       6.449   1.353  -8.339  1.00  0.00    -0.014 A 
ATOM     71  C   UNL     1       7.513   2.260  -8.489  1.00  0.00     0.010 A 
ATOM     72  C   UNL     1       6.671   0.147  -7.650  1.00  0.00     0.010 A 
ATOM     73  C   UNL     1       8.774   1.965  -7.962  1.00  0.00     0.020 A 
ATOM     74  C   UNL     1       7.923  -0.140  -7.099  1.00  0.00     0.020 A 
ATOM     75  C   UNL     1       8.969   0.770  -7.264  1.00  0.00     0.054 A 
BRANCH  75  76
ATOM     76  S   UNL     1      10.596   0.443  -6.530  1.00  0.00     0.124 S 
ATOM     77  O   UNL     1      11.418   0.193  -7.710  1.00  0.00    -0.237 OA
ATOM     78  O   UNL     1      10.873   1.688  -5.817  1.00  0.00    -0.237 OA
ATOM     79  O   UNL     1      10.360  -0.717  -5.674  1.00  0.00    -0.744 OA
ENDBRANCH  75  76
ENDBRANCH  47  70
BRANCH  59  80
ATOM     80  C   UNL     1       3.873   1.903 -14.810  1.00  0.00    -0.014 A 
ATOM     81  C   UNL     1       4.182   0.627 -15.313  1.00  0.00     0.010 A 
ATOM     82  C   UNL     1       4.069   3.029 -15.630  1.00  0.00     0.010 A 
ATOM     83  C   UNL     1       4.697   0.483 -16.604  1.00  0.00     0.020 A 
ATOM     84  C   UNL     1       4.558   2.886 -16.932  1.00  0.00     0.020 A 
ATOM     85  C   UNL     1       4.878   1.613 -17.407  1.00  0.00     0.054 A 
BRANCH  85  86
ATOM     86  S   UNL     1       5.496   1.390 -19.098  1.00  0.00     0.124 S 
ATOM     87  O   UNL     1       6.889   1.020 -18.867  1.00  0.00    -0.237 OA
ATOM     88  O   UNL     1       4.640   0.324 -19.612  1.00  0.00    -0.237 OA
ATOM     89  O   UNL     1       5.293   2.698 -19.718  1.00  0.00    -0.744 OA
ENDBRANCH  85  86
ENDBRANCH  59  80
ENDBRANCH  33  34
ENDBRANCH  26  28
ENDBRANCH  25  26
ENDBRANCH  24  25
ENDBRANCH   1  24
TORSDOF 17
