REMARK SMILES [NH3+][C@H]1C=C[C@@H](C(=O)NC2(CC(=O)OCCOCCOC(=O)c3ccc(-c4c5nc(c(-c6ccc(S(=O)(=O)[O-])cc6)c6ccc([nH]6)c(-c6ccc(S(=O)(=O)[O-])cc6)c6nc(c(-c7ccc(S(=O)(=O)[O-])cc7)c7ccc4[nH]7)C=C6)C=C5)cc3)CCC2)C1
REMARK SMILES IDX 15 1 14 2 13 3 11 4 12 5 10 6 9 7 82 8 84 9 83 10 8 11 6 12
REMARK SMILES IDX 7 13 5 15 2 16 3 17 85 18 4 19 1 20 16 24 17 25 18 26 19 27
REMARK SMILES IDX 20 28 21 29 22 30 23 31 81 32 24 33 80 34 25 35 26 36 27 37
REMARK SMILES IDX 74 38 28 39 79 40 73 41 75 42 29 43 78 44 72 45 71 46 30 48
REMARK SMILES IDX 60 49 41 50 59 51 42 52 45 53 58 54 76 55 43 56 44 57 57 59
REMARK SMILES IDX 77 60 46 61 31 62 32 63 40 64 33 65 39 66 34 67 35 68 36 69
REMARK SMILES IDX 37 70 38 71 61 72 62 73 70 74 63 75 69 76 64 77 65 78 66 79
REMARK SMILES IDX 67 80 68 81 47 82 48 83 56 84 49 85 55 86 50 87 51 88 52 89
REMARK SMILES IDX 53 90 54 91
REMARK H PARENT 8 14 1 21 1 22 1 23 75 47 45 58
REMARK Flexibility Score: inf
ROOT
ATOM      1  C   UNL     1       5.831  -5.713  -3.967  1.00  0.00     0.202 C 
ENDROOT
BRANCH   1   2
ATOM      2  C   UNL     1       5.634  -4.577  -4.977  1.00  0.00     0.261 C 
BRANCH   2   3
ATOM      3  O   UNL     1       4.670  -3.612  -4.510  1.00  0.00    -0.463 OA
BRANCH   3   4
ATOM      4  C   UNL     1       3.442  -3.632  -5.086  1.00  0.00     0.308 C 
ATOM      5  O   UNL     1       3.095  -4.388  -5.984  1.00  0.00    -0.252 OA
BRANCH   4   6
ATOM      6  C   UNL     1       2.539  -2.568  -4.518  1.00  0.00     0.151 C 
BRANCH   6   7
ATOM      7  C   UNL     1       2.264  -2.558  -2.993  1.00  0.00     0.051 C 
ATOM      8  C   UNL     1       1.737  -1.160  -2.614  1.00  0.00     0.029 C 
ATOM      9  C   UNL     1       3.479  -2.293  -2.055  1.00  0.00     0.029 C 
ATOM     10  C   UNL     1       3.151  -0.792  -2.128  1.00  0.00     0.005 C 
BRANCH   7  11
ATOM     11  N   UNL     1       1.444  -3.739  -2.619  1.00  0.00    -0.350 N 
ATOM     12  C   UNL     1       0.631  -4.158  -1.616  1.00  0.00     0.227 C 
ATOM     13  O   UNL     1       0.305  -5.355  -1.725  1.00  0.00    -0.274 OA
ATOM     14  H   UNL     1       1.512  -4.433  -3.314  1.00  0.00     0.164 HD
BRANCH  12  15
ATOM     15  C   UNL     1       0.002  -3.364  -0.465  1.00  0.00     0.107 C 
ATOM     16  C   UNL     1      -0.031  -1.233   0.750  1.00  0.00     0.205 C 
ATOM     17  C   UNL     1      -1.119  -1.312  -0.270  1.00  0.00     0.033 C 
ATOM     18  C   UNL     1       0.829  -2.480   0.463  1.00  0.00     0.087 C 
ATOM     19  C   UNL     1      -1.107  -2.473  -0.935  1.00  0.00    -0.012 C 
BRANCH  16  20
ATOM     20  N   UNL     1       0.734  -0.007   0.606  1.00  0.00    -0.352 N 
ATOM     21  H   UNL     1       0.134   0.793   0.802  1.00  0.00     0.345 HD
ATOM     22  H   UNL     1       1.090   0.061  -0.348  1.00  0.00     0.345 HD
ATOM     23  H   UNL     1       1.516  -0.016   1.260  1.00  0.00     0.345 HD
ENDBRANCH  16  20
ENDBRANCH  12  15
ENDBRANCH   7  11
ENDBRANCH   6   7
ENDBRANCH   4   6
ENDBRANCH   3   4
ENDBRANCH   2   3
ENDBRANCH   1   2
BRANCH   1  24
ATOM     24  O   UNL     1       4.755  -6.650  -3.891  1.00  0.00    -0.374 OA
BRANCH  24  25
ATOM     25  C   UNL     1       3.657  -6.265  -3.064  1.00  0.00     0.202 C 
BRANCH  25  26
ATOM     26  C   UNL     1       3.771  -6.662  -1.591  1.00  0.00     0.261 C 
BRANCH  26  27
ATOM     27  O   UNL     1       4.777  -5.868  -0.937  1.00  0.00    -0.460 OA
BRANCH  27  28
ATOM     28  C   UNL     1       5.937  -6.520  -0.704  1.00  0.00     0.338 C 
ATOM     29  O   UNL     1       6.158  -7.713  -0.870  1.00  0.00    -0.246 OA
BRANCH  28  30
ATOM     30  C   UNL     1       7.004  -5.556  -0.380  1.00  0.00     0.060 A 
ATOM     31  C   UNL     1       8.248  -5.767  -0.987  1.00  0.00     0.016 A 
ATOM     32  C   UNL     1       6.826  -4.511   0.531  1.00  0.00     0.016 A 
ATOM     33  C   UNL     1       9.341  -4.990  -0.621  1.00  0.00     0.010 A 
ATOM     34  C   UNL     1       7.926  -3.729   0.897  1.00  0.00     0.010 A 
ATOM     35  C   UNL     1       9.198  -4.003   0.361  1.00  0.00    -0.014 A 
BRANCH  35  36
ATOM     36  C   UNL     1      10.419  -3.400   0.946  1.00  0.00     0.031 A 
ATOM     37  C   UNL     1      10.912  -3.908   2.274  1.00  0.00     0.074 A 
ATOM     38  C   UNL     1      11.116  -2.470   0.271  1.00  0.00     0.049 A 
ATOM     39  N   UNL     1      11.974  -3.558   2.952  1.00  0.00    -0.248 NA
ATOM     40  C   UNL     1      10.099  -4.950   2.923  1.00  0.00     0.031 C 
ATOM     41  C   UNL     1      10.755  -1.932  -1.041  1.00  0.00     0.029 A 
ATOM     42  N   UNL     1      12.277  -1.819   0.596  1.00  0.00    -0.354 N 
ATOM     43  C   UNL     1      11.956  -4.333   4.106  1.00  0.00     0.074 A 
ATOM     44  C   UNL     1      10.756  -5.138   4.057  1.00  0.00     0.031 C 
ATOM     45  C   UNL     1      11.678  -1.027  -1.407  1.00  0.00     0.029 A 
ATOM     46  C   UNL     1      12.676  -0.903  -0.346  1.00  0.00     0.049 A 
ATOM     47  H   UNL     1      12.778  -1.991   1.427  1.00  0.00     0.167 HD
ATOM     48  C   UNL     1      12.863  -4.379   5.112  1.00  0.00     0.031 A 
ATOM     49  C   UNL     1      13.719  -0.050  -0.347  1.00  0.00     0.031 A 
ATOM     50  C   UNL     1      14.043  -3.558   5.165  1.00  0.00     0.049 A 
ATOM     51  C   UNL     1      14.684  -0.071   0.807  1.00  0.00     0.074 A 
ATOM     52  C   UNL     1      15.027  -3.523   6.136  1.00  0.00     0.029 A 
ATOM     53  N   UNL     1      14.393  -2.617   4.206  1.00  0.00    -0.354 N 
ATOM     54  N   UNL     1      14.664  -0.822   1.883  1.00  0.00    -0.248 NA
ATOM     55  C   UNL     1      15.819   0.859   0.741  1.00  0.00     0.031 C 
ATOM     56  C   UNL     1      15.942  -2.521   5.793  1.00  0.00     0.029 A 
ATOM     57  C   UNL     1      15.565  -1.978   4.575  1.00  0.00     0.049 A 
ATOM     58  H   UNL     1      13.883  -2.431   3.385  1.00  0.00     0.167 HD
ATOM     59  C   UNL     1      15.796  -0.472   2.613  1.00  0.00     0.074 A 
ATOM     60  C   UNL     1      16.484   0.548   1.846  1.00  0.00     0.031 C 
ATOM     61  C   UNL     1      16.229  -0.954   3.805  1.00  0.00     0.031 A 
BRANCH  48  62
ATOM     62  C   UNL     1      12.577  -5.323   6.252  1.00  0.00    -0.014 A 
ATOM     63  C   UNL     1      12.626  -6.719   6.077  1.00  0.00     0.010 A 
ATOM     64  C   UNL     1      12.245  -4.807   7.518  1.00  0.00     0.010 A 
ATOM     65  C   UNL     1      12.287  -7.578   7.127  1.00  0.00     0.020 A 
ATOM     66  C   UNL     1      11.937  -5.663   8.579  1.00  0.00     0.020 A 
ATOM     67  C   UNL     1      11.935  -7.043   8.369  1.00  0.00     0.054 A 
BRANCH  67  68
ATOM     68  S   UNL     1      11.482  -8.177   9.710  1.00  0.00     0.124 S 
ATOM     69  O   UNL     1      10.160  -8.632   9.285  1.00  0.00    -0.237 OA
ATOM     70  O   UNL     1      12.540  -9.182   9.653  1.00  0.00    -0.237 OA
ATOM     71  O   UNL     1      11.495  -7.330  10.901  1.00  0.00    -0.744 OA
ENDBRANCH  67  68
ENDBRANCH  48  62
BRANCH  49  72
ATOM     72  C   UNL     1      13.883   0.899  -1.481  1.00  0.00    -0.014 A 
ATOM     73  C   UNL     1      14.913   0.734  -2.423  1.00  0.00     0.010 A 
ATOM     74  C   UNL     1      12.963   1.951  -1.651  1.00  0.00     0.010 A 
ATOM     75  C   UNL     1      15.017   1.601  -3.516  1.00  0.00     0.020 A 
ATOM     76  C   UNL     1      13.047   2.802  -2.755  1.00  0.00     0.020 A 
ATOM     77  C   UNL     1      14.077   2.623  -3.680  1.00  0.00     0.054 A 
BRANCH  77  78
ATOM     78  S   UNL     1      14.175   3.676  -5.155  1.00  0.00     0.124 S 
ATOM     79  O   UNL     1      15.339   4.504  -4.862  1.00  0.00    -0.237 OA
ATOM     80  O   UNL     1      14.345   2.699  -6.228  1.00  0.00    -0.237 OA
ATOM     81  O   UNL     1      12.892   4.376  -5.161  1.00  0.00    -0.744 OA
ENDBRANCH  77  78
ENDBRANCH  49  72
BRANCH  61  82
ATOM     82  C   UNL     1      17.522  -0.403   4.347  1.00  0.00    -0.014 A 
ATOM     83  C   UNL     1      17.604   0.905   4.855  1.00  0.00     0.010 A 
ATOM     84  C   UNL     1      18.660  -1.230   4.397  1.00  0.00     0.010 A 
ATOM     85  C   UNL     1      18.810   1.388   5.371  1.00  0.00     0.020 A 
ATOM     86  C   UNL     1      19.858  -0.761   4.940  1.00  0.00     0.020 A 
ATOM     87  C   UNL     1      19.930   0.551   5.410  1.00  0.00     0.054 A 
BRANCH  87  88
ATOM     88  S   UNL     1      21.472   1.189   6.120  1.00  0.00     0.124 S 
ATOM     89  O   UNL     1      21.931   2.103   5.077  1.00  0.00    -0.237 OA
ATOM     90  O   UNL     1      21.019   1.821   7.356  1.00  0.00    -0.237 OA
ATOM     91  O   UNL     1      22.291  -0.008   6.302  1.00  0.00    -0.744 OA
ENDBRANCH  87  88
ENDBRANCH  61  82
ENDBRANCH  35  36
ENDBRANCH  28  30
ENDBRANCH  27  28
ENDBRANCH  26  27
ENDBRANCH  25  26
ENDBRANCH  24  25
ENDBRANCH   1  24
TORSDOF 21
