REMARK SMILES COc1cc([C@H]2c3c(-c4ccccc4)n[nH]c3C(=O)N2c2ccc(C(=O)OCCOCCOC(=O)c3ccc(-c4c5nc(c(-c6ccc(S(=O)(=O)[O-])cc6)c6ccc([nH]6)c(-c6ccc(S(=O)(=O)[O-])cc6)c6nc(c(-c7ccc(S(=O)(=O)[O-])cc7)c7ccc4[nH]7)C=C6)C=C5)cc3)cc2)ccc1O
REMARK SMILES IDX 30 1 29 2 28 3 27 4 25 5 26 6 24 7 21 8 22 9 97 10 23 11
REMARK SMILES IDX 96 12 20 13 6 14 7 15 8 16 17 17 18 18 15 19 16 20 19 21
REMARK SMILES IDX 5 23 3 24 4 25 100 26 99 27 98 28 2 29 1 30 101 31 9 33
REMARK SMILES IDX 10 34 14 35 11 36 13 37 12 38 31 39 32 40 33 41 34 42 35 43
REMARK SMILES IDX 36 44 37 45 95 46 38 47 94 48 39 49 40 50 41 51 88 52 42 53
REMARK SMILES IDX 93 54 87 55 89 56 43 57 92 58 86 59 85 60 44 62 74 63 55 64
REMARK SMILES IDX 73 65 56 66 59 67 72 68 90 69 57 70 58 71 71 73 91 74 60 75
REMARK SMILES IDX 45 76 46 77 54 78 47 79 53 80 48 81 49 82 50 83 51 84 52 85
REMARK SMILES IDX 75 86 76 87 84 88 77 89 83 90 78 91 79 92 80 93 81 94 82 95
REMARK SMILES IDX 61 96 62 97 70 98 63 99 69 100 64 101 65 102 66 103 67 104
REMARK SMILES IDX 68 105
REMARK H PARENT 16 22 101 32 89 61 59 72
REMARK Flexibility Score: inf
ROOT
ATOM      1  O   UNL     1     -10.001   2.058  -3.205  1.00  0.00    -0.374 OA
ENDROOT
BRANCH   1   2
ATOM      2  C   UNL     1      -9.606   3.277  -2.579  1.00  0.00     0.202 C 
BRANCH   2   3
ATOM      3  C   UNL     1      -8.238   3.336  -1.894  1.00  0.00     0.261 C 
BRANCH   3   4
ATOM      4  O   UNL     1      -7.141   3.102  -2.792  1.00  0.00    -0.460 OA
BRANCH   4   5
ATOM      5  C   UNL     1      -6.541   1.897  -2.635  1.00  0.00     0.338 C 
ATOM      6  O   UNL     1      -6.810   1.043  -1.806  1.00  0.00    -0.246 OA
BRANCH   5   7
ATOM      7  C   UNL     1      -5.574   1.652  -3.724  1.00  0.00     0.060 A 
ATOM      8  C   UNL     1      -3.587   0.962  -5.559  1.00  0.00     0.045 A 
ATOM      9  C   UNL     1      -4.602   0.050  -5.262  1.00  0.00     0.027 A 
ATOM     10  C   UNL     1      -3.623   2.249  -5.001  1.00  0.00     0.027 A 
ATOM     11  C   UNL     1      -5.571   0.382  -4.316  1.00  0.00     0.018 A 
ATOM     12  C   UNL     1      -4.636   2.610  -4.108  1.00  0.00     0.018 A 
BRANCH   8  13
ATOM     13  N   UNL     1      -2.484   0.555  -6.330  1.00  0.00    -0.295 N 
ATOM     14  C   UNL     1      -1.089   0.741  -5.827  1.00  0.00     0.156 C 
ATOM     15  C   UNL     1      -0.335   0.132  -6.947  1.00  0.00     0.038 A 
ATOM     16  C   UNL     1       0.951  -0.150  -7.433  1.00  0.00     0.099 A 
ATOM     17  C   UNL     1      -1.198  -0.353  -7.886  1.00  0.00     0.129 A 
ATOM     18  C   UNL     1      -2.555  -0.178  -7.526  1.00  0.00     0.277 C 
ATOM     19  N   UNL     1       0.863  -0.739  -8.649  1.00  0.00    -0.174 NA
ATOM     20  N   UNL     1      -0.467  -0.849  -8.897  1.00  0.00    -0.272 N 
ATOM     21  O   UNL     1      -3.536  -0.579  -8.143  1.00  0.00    -0.267 OA
ATOM     22  H   UNL     1      -0.848  -1.243  -9.715  1.00  0.00     0.190 HD
BRANCH  14  23
ATOM     23  C   UNL     1      -0.795  -0.082  -4.580  1.00  0.00    -0.016 A 
ATOM     24  C   UNL     1      -0.084  -0.139  -2.226  1.00  0.00     0.160 A 
ATOM     25  C   UNL     1      -0.381   0.569  -3.402  1.00  0.00     0.056 A 
ATOM     26  C   UNL     1      -0.193  -1.530  -2.239  1.00  0.00     0.157 A 
ATOM     27  C   UNL     1      -0.616  -2.198  -3.385  1.00  0.00     0.050 A 
ATOM     28  C   UNL     1      -0.944  -1.481  -4.536  1.00  0.00     0.010 A 
BRANCH  24  29
ATOM     29  O   UNL     1       0.210   0.665  -1.159  1.00  0.00    -0.493 OA
ATOM     30  C   UNL     1       1.083   0.170  -0.153  1.00  0.00     0.278 C 
ENDBRANCH  24  29
BRANCH  26  31
ATOM     31  O   UNL     1       0.021  -2.318  -1.146  1.00  0.00    -0.504 OA
ATOM     32  H   UNL     1       0.307  -1.934  -0.341  1.00  0.00     0.293 HD
ENDBRANCH  26  31
ENDBRANCH  14  23
BRANCH  16  33
ATOM     33  C   UNL     1       2.241   0.095  -6.804  1.00  0.00     0.002 A 
ATOM     34  C   UNL     1       3.207   0.872  -7.453  1.00  0.00     0.010 A 
ATOM     35  C   UNL     1       2.546  -0.471  -5.559  1.00  0.00     0.010 A 
ATOM     36  C   UNL     1       4.450   1.095  -6.855  1.00  0.00     0.001 A 
ATOM     37  C   UNL     1       3.787  -0.245  -4.961  1.00  0.00     0.001 A 
ATOM     38  C   UNL     1       4.738   0.539  -5.609  1.00  0.00     0.000 A 
ENDBRANCH  16  33
ENDBRANCH   8  13
ENDBRANCH   5   7
ENDBRANCH   4   5
ENDBRANCH   3   4
ENDBRANCH   2   3
ENDBRANCH   1   2
BRANCH   1  39
ATOM     39  C   UNL     1      -9.345   1.629  -4.393  1.00  0.00     0.202 C 
BRANCH  39  40
ATOM     40  C   UNL     1      -9.535   2.431  -5.671  1.00  0.00     0.261 C 
BRANCH  40  41
ATOM     41  O   UNL     1      -9.091   3.773  -5.544  1.00  0.00    -0.460 OA
BRANCH  41  42
ATOM     42  C   UNL     1     -10.097   4.671  -5.435  1.00  0.00     0.338 C 
ATOM     43  O   UNL     1     -11.250   4.447  -5.106  1.00  0.00    -0.246 OA
BRANCH  42  44
ATOM     44  C   UNL     1      -9.624   5.962  -5.941  1.00  0.00     0.060 A 
ATOM     45  C   UNL     1     -10.580   6.974  -6.035  1.00  0.00     0.016 A 
ATOM     46  C   UNL     1      -8.377   6.053  -6.580  1.00  0.00     0.016 A 
ATOM     47  C   UNL     1     -10.381   7.961  -6.972  1.00  0.00     0.010 A 
ATOM     48  C   UNL     1      -8.181   7.041  -7.514  1.00  0.00     0.010 A 
ATOM     49  C   UNL     1      -9.227   7.919  -7.768  1.00  0.00    -0.014 A 
BRANCH  49  50
ATOM     50  C   UNL     1      -9.090   8.911  -8.811  1.00  0.00     0.031 A 
ATOM     51  C   UNL     1      -8.912  10.268  -8.254  1.00  0.00     0.074 A 
ATOM     52  C   UNL     1      -9.072   8.618 -10.125  1.00  0.00     0.049 A 
ATOM     53  N   UNL     1      -9.795  11.206  -8.216  1.00  0.00    -0.248 NA
ATOM     54  C   UNL     1      -7.711  10.532  -7.445  1.00  0.00     0.031 C 
ATOM     55  C   UNL     1      -9.002   7.313 -10.786  1.00  0.00     0.029 A 
ATOM     56  N   UNL     1      -9.039   9.482 -11.171  1.00  0.00    -0.354 N 
ATOM     57  C   UNL     1      -9.178  12.271  -7.577  1.00  0.00     0.074 A 
ATOM     58  C   UNL     1      -7.991  11.740  -6.956  1.00  0.00     0.031 C 
ATOM     59  C   UNL     1      -8.689   7.490 -12.095  1.00  0.00     0.029 A 
ATOM     60  C   UNL     1      -8.693   8.914 -12.392  1.00  0.00     0.049 A 
ATOM     61  H   UNL     1      -9.244  10.440 -11.073  1.00  0.00     0.167 HD
ATOM     62  C   UNL     1      -9.555  13.553  -7.833  1.00  0.00     0.031 A 
ATOM     63  C   UNL     1      -8.397   9.585 -13.537  1.00  0.00     0.031 A 
ATOM     64  C   UNL     1     -10.839  13.607  -8.484  1.00  0.00     0.049 A 
ATOM     65  C   UNL     1      -9.001  10.937 -13.407  1.00  0.00     0.074 A 
ATOM     66  C   UNL     1     -12.117  13.220  -8.131  1.00  0.00     0.029 A 
ATOM     67  N   UNL     1     -10.839  13.718  -9.856  1.00  0.00    -0.354 N 
ATOM     68  N   UNL     1     -10.290  11.134 -13.356  1.00  0.00    -0.248 NA
ATOM     69  C   UNL     1      -8.185  11.993 -12.826  1.00  0.00     0.031 C 
ATOM     70  C   UNL     1     -12.672  12.660  -9.318  1.00  0.00     0.029 A 
ATOM     71  C   UNL     1     -11.745  12.813 -10.351  1.00  0.00     0.049 A 
ATOM     72  H   UNL     1     -10.288  14.337 -10.387  1.00  0.00     0.167 HD
ATOM     73  C   UNL     1     -10.465  12.092 -12.367  1.00  0.00     0.074 A 
ATOM     74  C   UNL     1      -9.127  12.637 -12.128  1.00  0.00     0.031 C 
ATOM     75  C   UNL     1     -11.617  12.155 -11.636  1.00  0.00     0.031 A 
BRANCH  62  76
ATOM     76  C   UNL     1      -8.574  14.693  -7.875  1.00  0.00    -0.014 A 
ATOM     77  C   UNL     1      -9.056  15.994  -8.109  1.00  0.00     0.010 A 
ATOM     78  C   UNL     1      -7.179  14.498  -7.966  1.00  0.00     0.010 A 
ATOM     79  C   UNL     1      -8.188  17.032  -8.473  1.00  0.00     0.020 A 
ATOM     80  C   UNL     1      -6.302  15.532  -8.287  1.00  0.00     0.020 A 
ATOM     81  C   UNL     1      -6.817  16.788  -8.568  1.00  0.00     0.054 A 
BRANCH  81  82
ATOM     82  S   UNL     1      -5.717  18.112  -9.120  1.00  0.00     0.124 S 
ATOM     83  O   UNL     1      -6.169  18.327 -10.491  1.00  0.00    -0.237 OA
ATOM     84  O   UNL     1      -6.024  19.180  -8.174  1.00  0.00    -0.237 OA
ATOM     85  O   UNL     1      -4.384  17.529  -8.983  1.00  0.00    -0.744 OA
ENDBRANCH  81  82
ENDBRANCH  62  76
BRANCH  63  86
ATOM     86  C   UNL     1      -7.318   9.290 -14.522  1.00  0.00    -0.014 A 
ATOM     87  C   UNL     1      -7.251   9.958 -15.762  1.00  0.00     0.010 A 
ATOM     88  C   UNL     1      -6.178   8.569 -14.113  1.00  0.00     0.010 A 
ATOM     89  C   UNL     1      -6.069   9.954 -16.531  1.00  0.00     0.020 A 
ATOM     90  C   UNL     1      -5.000   8.559 -14.872  1.00  0.00     0.020 A 
ATOM     91  C   UNL     1      -4.942   9.270 -16.068  1.00  0.00     0.054 A 
BRANCH  91  92
ATOM     92  S   UNL     1      -3.365   9.414 -16.968  1.00  0.00     0.124 S 
ATOM     93  O   UNL     1      -3.628   8.650 -18.184  1.00  0.00    -0.237 OA
ATOM     94  O   UNL     1      -3.228  10.856 -17.145  1.00  0.00    -0.237 OA
ATOM     95  O   UNL     1      -2.393   8.810 -16.057  1.00  0.00    -0.744 OA
ENDBRANCH  91  92
ENDBRANCH  63  86
BRANCH  75  96
ATOM     96  C   UNL     1     -12.803  11.327 -12.086  1.00  0.00    -0.014 A 
ATOM     97  C   UNL     1     -12.812   9.918 -12.154  1.00  0.00     0.010 A 
ATOM     98  C   UNL     1     -14.011  12.011 -12.306  1.00  0.00     0.010 A 
ATOM     99  C   UNL     1     -13.995   9.221 -12.459  1.00  0.00     0.020 A 
ATOM    100  C   UNL     1     -15.192  11.325 -12.592  1.00  0.00     0.020 A 
ATOM    101  C   UNL     1     -15.179   9.934 -12.679  1.00  0.00     0.054 A 
BRANCH 101 102
ATOM    102  S   UNL     1     -16.716   9.039 -13.047  1.00  0.00     0.124 S 
ATOM    103  O   UNL     1     -16.451   8.483 -14.370  1.00  0.00    -0.237 OA
ATOM    104  O   UNL     1     -16.796   8.067 -11.959  1.00  0.00    -0.237 OA
ATOM    105  O   UNL     1     -17.743  10.081 -13.010  1.00  0.00    -0.744 OA
ENDBRANCH 101 102
ENDBRANCH  75  96
ENDBRANCH  49  50
ENDBRANCH  42  44
ENDBRANCH  41  42
ENDBRANCH  40  41
ENDBRANCH  39  40
ENDBRANCH   1  39
TORSDOF 22
