REMARK SMILES O=C(OCCOCCOC(=O)c1ccc(-c2c3nc(c(-c4ccc(S(=O)(=O)[O-])cc4)c4ccc([nH]4)c(-c4ccc(S(=O)(=O)[O-])cc4)c4nc(c(-c5ccc(S(=O)(=O)[O-])cc5)c5ccc2[nH]5)C=C4)C=C3)cc1)/C(=C/c1ccccc1Cl)NC(=O)c1ccccc1
REMARK SMILES IDX 7 1 6 2 5 3 4 4 3 5 2 6 1 7 72 8 73 9 81 10 82 11 83 13
REMARK SMILES IDX 84 14 85 15 89 16 86 17 88 18 87 19 74 20 75 21 79 22 76 23
REMARK SMILES IDX 78 24 80 25 77 26 8 27 9 28 10 29 11 30 12 31 13 32 71 33
REMARK SMILES IDX 14 34 70 35 15 36 16 37 17 38 64 39 18 40 69 41 63 42 65 43
REMARK SMILES IDX 19 44 68 45 62 46 61 47 20 49 50 50 31 51 49 52 32 53 35 54
REMARK SMILES IDX 48 55 66 56 33 57 34 58 47 60 67 61 36 62 21 63 22 64 30 65
REMARK SMILES IDX 23 66 29 67 24 68 25 69 26 70 27 71 28 72 51 73 52 74 60 75
REMARK SMILES IDX 53 76 59 77 54 78 55 79 56 80 57 81 58 82 37 83 38 84 46 85
REMARK SMILES IDX 39 86 45 87 40 88 41 89 42 90 43 91 44 92
REMARK H PARENT 81 12 65 48 35 59
REMARK Flexibility Score: inf
ROOT
ATOM      1  C   UNL     1       1.665  -3.157   1.445  1.00  0.00     0.202 C 
ENDROOT
BRANCH   1   2
ATOM      2  O   UNL     1       2.446  -2.596   0.392  1.00  0.00    -0.374 OA
BRANCH   2   3
ATOM      3  C   UNL     1       3.071  -1.371   0.738  1.00  0.00     0.202 C 
BRANCH   3   4
ATOM      4  C   UNL     1       2.121  -0.172   0.727  1.00  0.00     0.261 C 
BRANCH   4   5
ATOM      5  O   UNL     1       1.646   0.163  -0.575  1.00  0.00    -0.459 OA
BRANCH   5   6
ATOM      6  C   UNL     1       2.469   1.002  -1.268  1.00  0.00     0.354 C 
ATOM      7  O   UNL     1       2.089   2.069  -1.730  1.00  0.00    -0.244 OA
BRANCH   6   8
ATOM      8  C   UNL     1       3.672   0.287  -1.792  1.00  0.00     0.128 C 
ATOM      9  C   UNL     1       3.292  -0.600  -2.747  1.00  0.00     0.043 C 
BRANCH   8  10
ATOM     10  N   UNL     1       4.977   0.556  -1.432  1.00  0.00    -0.316 N 
ATOM     11  C   UNL     1       5.675   1.312  -0.497  1.00  0.00     0.255 C 
ATOM     12  H   UNL     1       5.602   0.064  -2.011  1.00  0.00     0.170 HD
ATOM     13  O   UNL     1       6.897   1.399  -0.666  1.00  0.00    -0.269 OA
BRANCH  11  14
ATOM     14  C   UNL     1       5.160   1.970   0.736  1.00  0.00     0.040 A 
ATOM     15  C   UNL     1       5.404   3.335   0.941  1.00  0.00     0.014 A 
ATOM     16  C   UNL     1       4.784   1.228   1.858  1.00  0.00     0.014 A 
ATOM     17  C   UNL     1       5.101   3.952   2.169  1.00  0.00     0.001 A 
ATOM     18  C   UNL     1       4.385   1.848   3.054  1.00  0.00     0.001 A 
ATOM     19  C   UNL     1       4.530   3.220   3.204  1.00  0.00     0.000 A 
ENDBRANCH  11  14
ENDBRANCH   8  10
BRANCH   9  20
ATOM     20  C   UNL     1       3.957  -1.544  -3.676  1.00  0.00    -0.005 A 
ATOM     21  C   UNL     1       3.441  -1.529  -4.993  1.00  0.00     0.010 A 
ATOM     22  C   UNL     1       4.875  -2.556  -3.357  1.00  0.00     0.048 A 
ATOM     23  C   UNL     1       3.822  -2.475  -5.951  1.00  0.00     0.001 A 
ATOM     24  C   UNL     1       5.257  -3.506  -4.323  1.00  0.00     0.021 A 
ATOM     25  Cl  UNL     1       5.539  -2.747  -1.778  1.00  0.00    -0.084 Cl
ATOM     26  C   UNL     1       4.730  -3.468  -5.614  1.00  0.00     0.002 A 
ENDBRANCH   9  20
ENDBRANCH   6   8
ENDBRANCH   5   6
ENDBRANCH   4   5
ENDBRANCH   3   4
ENDBRANCH   2   3
ENDBRANCH   1   2
BRANCH   1  27
ATOM     27  C   UNL     1       2.495  -3.784   2.578  1.00  0.00     0.261 C 
BRANCH  27  28
ATOM     28  O   UNL     1       3.068  -2.800   3.478  1.00  0.00    -0.460 OA
BRANCH  28  29
ATOM     29  C   UNL     1       4.428  -2.750   3.530  1.00  0.00     0.338 C 
ATOM     30  O   UNL     1       5.194  -3.420   2.850  1.00  0.00    -0.246 OA
BRANCH  29  31
ATOM     31  C   UNL     1       4.912  -1.686   4.455  1.00  0.00     0.060 A 
ATOM     32  C   UNL     1       6.201  -1.162   4.259  1.00  0.00     0.016 A 
ATOM     33  C   UNL     1       4.153  -1.237   5.541  1.00  0.00     0.016 A 
ATOM     34  C   UNL     1       6.755  -0.254   5.173  1.00  0.00     0.010 A 
ATOM     35  C   UNL     1       4.707  -0.325   6.455  1.00  0.00     0.010 A 
ATOM     36  C   UNL     1       6.030   0.133   6.307  1.00  0.00    -0.014 A 
BRANCH  36  37
ATOM     37  C   UNL     1       6.718   0.806   7.448  1.00  0.00     0.031 A 
ATOM     38  C   UNL     1       7.147  -0.044   8.619  1.00  0.00     0.074 A 
ATOM     39  C   UNL     1       6.972   2.129   7.469  1.00  0.00     0.049 A 
ATOM     40  N   UNL     1       7.759   0.304   9.722  1.00  0.00    -0.248 NA
ATOM     41  C   UNL     1       6.839  -1.482   8.532  1.00  0.00     0.031 C 
ATOM     42  C   UNL     1       6.661   3.069   6.397  1.00  0.00     0.029 A 
ATOM     43  N   UNL     1       7.554   2.913   8.439  1.00  0.00    -0.354 N 
ATOM     44  C   UNL     1       7.905  -0.866  10.458  1.00  0.00     0.074 A 
ATOM     45  C   UNL     1       7.277  -1.925   9.700  1.00  0.00     0.031 C 
ATOM     46  C   UNL     1       7.038   4.306   6.771  1.00  0.00     0.029 A 
ATOM     47  C   UNL     1       7.615   4.249   8.114  1.00  0.00     0.049 A 
ATOM     48  H   UNL     1       7.895   2.551   9.289  1.00  0.00     0.167 HD
ATOM     49  C   UNL     1       8.519  -1.054  11.651  1.00  0.00     0.031 A 
ATOM     50  C   UNL     1       8.085   5.304   8.812  1.00  0.00     0.031 A 
ATOM     51  C   UNL     1       9.136  -0.007  12.419  1.00  0.00     0.049 A 
ATOM     52  C   UNL     1       8.704   5.082  10.171  1.00  0.00     0.074 A 
ATOM     53  C   UNL     1       9.809  -0.109  13.625  1.00  0.00     0.029 A 
ATOM     54  N   UNL     1       9.147   1.333  12.067  1.00  0.00    -0.354 N 
ATOM     55  N   UNL     1       8.882   3.959  10.826  1.00  0.00    -0.248 NA
ATOM     56  C   UNL     1       9.210   6.272  10.874  1.00  0.00     0.031 C 
ATOM     57  C   UNL     1      10.171   1.179  14.032  1.00  0.00     0.029 A 
ATOM     58  C   UNL     1       9.787   2.074  13.047  1.00  0.00     0.049 A 
ATOM     59  H   UNL     1       8.758   1.703  11.242  1.00  0.00     0.167 HD
ATOM     60  C   UNL     1       9.561   4.303  11.993  1.00  0.00     0.074 A 
ATOM     61  C   UNL     1       9.764   5.736  11.952  1.00  0.00     0.031 C 
ATOM     62  C   UNL     1       9.988   3.500  13.000  1.00  0.00     0.031 A 
BRANCH  49  63
ATOM     63  C   UNL     1       8.518  -2.452  12.212  1.00  0.00    -0.014 A 
ATOM     64  C   UNL     1       9.275  -3.479  11.619  1.00  0.00     0.010 A 
ATOM     65  C   UNL     1       7.754  -2.739  13.358  1.00  0.00     0.010 A 
ATOM     66  C   UNL     1       9.228  -4.778  12.132  1.00  0.00     0.020 A 
ATOM     67  C   UNL     1       7.729  -4.030  13.892  1.00  0.00     0.020 A 
ATOM     68  C   UNL     1       8.450  -5.046  13.262  1.00  0.00     0.054 A 
BRANCH  68  69
ATOM     69  S   UNL     1       8.409  -6.739  13.909  1.00  0.00     0.124 S 
ATOM     70  O   UNL     1       7.601  -7.425  12.903  1.00  0.00    -0.237 OA
ATOM     71  O   UNL     1       9.822  -7.106  13.936  1.00  0.00    -0.237 OA
ATOM     72  O   UNL     1       7.780  -6.596  15.219  1.00  0.00    -0.744 OA
ENDBRANCH  68  69
ENDBRANCH  49  63
BRANCH  50  73
ATOM     73  C   UNL     1       8.019   6.679   8.237  1.00  0.00    -0.014 A 
ATOM     74  C   UNL     1       9.194   7.350   7.848  1.00  0.00     0.010 A 
ATOM     75  C   UNL     1       6.783   7.337   8.098  1.00  0.00     0.010 A 
ATOM     76  C   UNL     1       9.136   8.657   7.353  1.00  0.00     0.020 A 
ATOM     77  C   UNL     1       6.719   8.634   7.578  1.00  0.00     0.020 A 
ATOM     78  C   UNL     1       7.898   9.291   7.219  1.00  0.00     0.054 A 
BRANCH  78  79
ATOM     79  S   UNL     1       7.844  10.969   6.529  1.00  0.00     0.124 S 
ATOM     80  O   UNL     1       8.396  11.765   7.621  1.00  0.00    -0.237 OA
ATOM     81  O   UNL     1       8.688  10.849   5.343  1.00  0.00    -0.237 OA
ATOM     82  O   UNL     1       6.424  11.180   6.256  1.00  0.00    -0.744 OA
ENDBRANCH  78  79
ENDBRANCH  50  73
BRANCH  62  83
ATOM     83  C   UNL     1      10.768   4.137  14.123  1.00  0.00    -0.014 A 
ATOM     84  C   UNL     1      10.157   4.994  15.055  1.00  0.00     0.010 A 
ATOM     85  C   UNL     1      12.134   3.831  14.273  1.00  0.00     0.010 A 
ATOM     86  C   UNL     1      10.906   5.567  16.088  1.00  0.00     0.020 A 
ATOM     87  C   UNL     1      12.879   4.375  15.322  1.00  0.00     0.020 A 
ATOM     88  C   UNL     1      12.264   5.256  16.213  1.00  0.00     0.054 A 
BRANCH  88  89
ATOM     89  S   UNL     1      13.209   5.991  17.576  1.00  0.00     0.124 S 
ATOM     90  O   UNL     1      13.358   7.374  17.132  1.00  0.00    -0.237 OA
ATOM     91  O   UNL     1      12.327   5.790  18.723  1.00  0.00    -0.237 OA
ATOM     92  O   UNL     1      14.443   5.209  17.604  1.00  0.00    -0.744 OA
ENDBRANCH  88  89
ENDBRANCH  62  83
ENDBRANCH  36  37
ENDBRANCH  29  31
ENDBRANCH  28  29
ENDBRANCH  27  28
ENDBRANCH   1  27
TORSDOF 20
