REMARK SMILES CC(C)(C)OC(=O)N[C@H](Cc1ccc(O)c(Cl)c1)C(=O)OCCOCCOC(=O)c1ccc(-c2c3nc(c(-c4ccc(S(=O)(=O)[O-])cc4)c4ccc([nH]4)c(-c4ccc(S(=O)(=O)[O-])cc4)c4nc(c(-c5ccc(S(=O)(=O)[O-])cc5)c5ccc2[nH]5)C=C4)C=C3)cc1
REMARK SMILES IDX 24 1 23 2 22 3 21 4 19 5 20 6 9 7 8 8 6 9 7 10 5 12 2 13
REMARK SMILES IDX 1 14 3 15 4 16 10 17 11 18 12 19 18 20 13 21 16 22 14 23
REMARK SMILES IDX 17 24 15 25 25 27 26 28 27 29 28 30 29 31 30 32 31 33 89 34
REMARK SMILES IDX 32 35 88 36 33 37 34 38 35 39 82 40 36 41 87 42 81 43 83 44
REMARK SMILES IDX 37 45 86 46 80 47 79 48 38 50 68 51 49 52 67 53 50 54 53 55
REMARK SMILES IDX 66 56 84 57 51 58 52 59 65 61 85 62 54 63 39 64 40 65 48 66
REMARK SMILES IDX 41 67 47 68 42 69 43 70 44 71 45 72 46 73 69 74 70 75 78 76
REMARK SMILES IDX 71 77 77 78 72 79 73 80 74 81 75 82 76 83 55 84 56 85 64 86
REMARK SMILES IDX 57 87 63 88 58 89 59 90 60 91 61 92 62 93
REMARK H PARENT 8 11 15 26 83 49 53 60
REMARK Flexibility Score: inf
ROOT
ATOM      1  O   UNL     1      -0.863  -5.270  -4.154  1.00  0.00    -0.374 OA
ENDROOT
BRANCH   1   2
ATOM      2  C   UNL     1      -0.540  -6.656  -4.070  1.00  0.00     0.202 C 
BRANCH   2   3
ATOM      3  C   UNL     1       0.865  -7.013  -3.584  1.00  0.00     0.261 C 
BRANCH   3   4
ATOM      4  O   UNL     1       1.156  -6.440  -2.300  1.00  0.00    -0.462 OA
BRANCH   4   5
ATOM      5  C   UNL     1       2.180  -5.548  -2.282  1.00  0.00     0.329 C 
ATOM      6  O   UNL     1       2.871  -5.254  -3.255  1.00  0.00    -0.250 OA
BRANCH   5   7
ATOM      7  C   UNL     1       2.468  -4.971  -0.890  1.00  0.00     0.199 C 
BRANCH   7   8
ATOM      8  N   UNL     1       3.756  -5.501  -0.451  1.00  0.00    -0.308 N 
ATOM      9  C   UNL     1       4.015  -6.809  -0.168  1.00  0.00     0.408 C 
ATOM     10  O   UNL     1       5.159  -7.174   0.082  1.00  0.00    -0.225 OA
ATOM     11  H   UNL     1       4.497  -4.862  -0.350  1.00  0.00     0.168 HD
BRANCH   9  12
ATOM     12  O   UNL     1       2.917  -7.593  -0.238  1.00  0.00    -0.444 OA
BRANCH  12  13
ATOM     13  C   UNL     1       3.019  -9.037  -0.115  1.00  0.00     0.106 C 
ATOM     14  C   UNL     1       1.575  -9.560  -0.204  1.00  0.00     0.056 C 
ATOM     15  C   UNL     1       3.597  -9.448   1.243  1.00  0.00     0.056 C 
ATOM     16  C   UNL     1       3.818  -9.620  -1.286  1.00  0.00     0.056 C 
ENDBRANCH  12  13
ENDBRANCH   9  12
ENDBRANCH   7   8
BRANCH   7  17
ATOM     17  C   UNL     1       1.361  -5.010   0.187  1.00  0.00     0.072 C 
BRANCH  17  18
ATOM     18  C   UNL     1       1.131  -3.654   0.853  1.00  0.00    -0.044 A 
ATOM     19  C   UNL     1       2.201  -2.885   1.337  1.00  0.00     0.008 A 
ATOM     20  C   UNL     1      -0.171  -3.155   1.015  1.00  0.00     0.028 A 
ATOM     21  C   UNL     1       1.986  -1.622   1.902  1.00  0.00     0.048 A 
ATOM     22  C   UNL     1      -0.391  -1.893   1.581  1.00  0.00     0.083 A 
ATOM     23  C   UNL     1       0.691  -1.123   2.014  1.00  0.00     0.134 A 
ATOM     24  Cl  UNL     1      -2.013  -1.318   1.716  1.00  0.00    -0.080 Cl
BRANCH  23  25
ATOM     25  O   UNL     1       0.483   0.117   2.551  1.00  0.00    -0.506 OA
ATOM     26  H   UNL     1       1.211   0.630   2.841  1.00  0.00     0.293 HD
ENDBRANCH  23  25
ENDBRANCH  17  18
ENDBRANCH   7  17
ENDBRANCH   5   7
ENDBRANCH   4   5
ENDBRANCH   3   4
ENDBRANCH   2   3
ENDBRANCH   1   2
BRANCH   1  27
ATOM     27  C   UNL     1      -1.047  -4.541  -2.941  1.00  0.00     0.202 C 
BRANCH  27  28
ATOM     28  C   UNL     1      -2.231  -4.930  -2.045  1.00  0.00     0.261 C 
BRANCH  28  29
ATOM     29  O   UNL     1      -2.113  -6.253  -1.488  1.00  0.00    -0.460 OA
BRANCH  29  30
ATOM     30  C   UNL     1      -3.119  -7.092  -1.848  1.00  0.00     0.338 C 
ATOM     31  O   UNL     1      -4.095  -6.814  -2.526  1.00  0.00    -0.246 OA
BRANCH  30  32
ATOM     32  C   UNL     1      -2.818  -8.486  -1.475  1.00  0.00     0.060 A 
ATOM     33  C   UNL     1      -2.773  -9.426  -2.513  1.00  0.00     0.016 A 
ATOM     34  C   UNL     1      -2.764  -8.896  -0.142  1.00  0.00     0.016 A 
ATOM     35  C   UNL     1      -2.753 -10.787  -2.221  1.00  0.00     0.010 A 
ATOM     36  C   UNL     1      -2.745 -10.267   0.148  1.00  0.00     0.010 A 
ATOM     37  C   UNL     1      -2.794 -11.218  -0.889  1.00  0.00    -0.014 A 
BRANCH  37  38
ATOM     38  C   UNL     1      -3.070 -12.651  -0.608  1.00  0.00     0.031 A 
ATOM     39  C   UNL     1      -4.461 -13.065  -0.199  1.00  0.00     0.074 A 
ATOM     40  C   UNL     1      -2.117 -13.584  -0.791  1.00  0.00     0.049 A 
ATOM     41  N   UNL     1      -4.926 -14.260   0.065  1.00  0.00    -0.248 NA
ATOM     42  C   UNL     1      -5.461 -11.992  -0.074  1.00  0.00     0.031 C 
ATOM     43  C   UNL     1      -0.750 -13.319  -1.239  1.00  0.00     0.029 A 
ATOM     44  N   UNL     1      -2.161 -14.946  -0.630  1.00  0.00    -0.354 N 
ATOM     45  C   UNL     1      -6.265 -14.082   0.397  1.00  0.00     0.074 A 
ATOM     46  C   UNL     1      -6.530 -12.661   0.333  1.00  0.00     0.031 C 
ATOM     47  C   UNL     1      -0.086 -14.484  -1.322  1.00  0.00     0.029 A 
ATOM     48  C   UNL     1      -0.968 -15.572  -0.901  1.00  0.00     0.049 A 
ATOM     49  H   UNL     1      -2.971 -15.429  -0.348  1.00  0.00     0.167 HD
ATOM     50  C   UNL     1      -7.194 -15.015   0.716  1.00  0.00     0.031 A 
ATOM     51  C   UNL     1      -0.620 -16.871  -0.807  1.00  0.00     0.031 A 
ATOM     52  C   UNL     1      -6.928 -16.428   0.785  1.00  0.00     0.049 A 
ATOM     53  C   UNL     1      -1.651 -17.883  -0.378  1.00  0.00     0.074 A 
ATOM     54  C   UNL     1      -7.806 -17.455   1.089  1.00  0.00     0.029 A 
ATOM     55  N   UNL     1      -5.694 -17.015   0.553  1.00  0.00    -0.354 N 
ATOM     56  N   UNL     1      -2.917 -17.698  -0.084  1.00  0.00    -0.248 NA
ATOM     57  C   UNL     1      -1.208 -19.281  -0.280  1.00  0.00     0.031 C 
ATOM     58  C   UNL     1      -7.088 -18.655   1.102  1.00  0.00     0.029 A 
ATOM     59  C   UNL     1      -5.779 -18.385   0.735  1.00  0.00     0.049 A 
ATOM     60  H   UNL     1      -4.877 -16.529   0.297  1.00  0.00     0.167 HD
ATOM     61  C   UNL     1      -3.428 -18.961   0.201  1.00  0.00     0.074 A 
ATOM     62  C   UNL     1      -2.338 -19.900   0.032  1.00  0.00     0.031 C 
ATOM     63  C   UNL     1      -4.687 -19.311   0.564  1.00  0.00     0.031 A 
BRANCH  50  64
ATOM     64  C   UNL     1      -8.582 -14.532   1.055  1.00  0.00    -0.014 A 
ATOM     65  C   UNL     1      -9.434 -13.999   0.071  1.00  0.00     0.010 A 
ATOM     66  C   UNL     1      -9.054 -14.650   2.376  1.00  0.00     0.010 A 
ATOM     67  C   UNL     1     -10.716 -13.555   0.410  1.00  0.00     0.020 A 
ATOM     68  C   UNL     1     -10.346 -14.236   2.712  1.00  0.00     0.020 A 
ATOM     69  C   UNL     1     -11.163 -13.674   1.730  1.00  0.00     0.054 A 
BRANCH  69  70
ATOM     70  S   UNL     1     -12.838 -13.107   2.137  1.00  0.00     0.124 S 
ATOM     71  O   UNL     1     -12.694 -11.656   2.049  1.00  0.00    -0.237 OA
ATOM     72  O   UNL     1     -13.647 -13.722   1.089  1.00  0.00    -0.237 OA
ATOM     73  O   UNL     1     -13.064 -13.630   3.482  1.00  0.00    -0.744 OA
ENDBRANCH  69  70
ENDBRANCH  50  64
BRANCH  51  74
ATOM     74  C   UNL     1       0.776 -17.289  -1.111  1.00  0.00    -0.014 A 
ATOM     75  C   UNL     1       1.064 -18.080  -2.237  1.00  0.00     0.010 A 
ATOM     76  C   UNL     1       1.831 -16.894  -0.267  1.00  0.00     0.010 A 
ATOM     77  C   UNL     1       2.377 -18.482  -2.503  1.00  0.00     0.020 A 
ATOM     78  C   UNL     1       3.148 -17.267  -0.547  1.00  0.00     0.020 A 
ATOM     79  C   UNL     1       3.411 -18.069  -1.658  1.00  0.00     0.054 A 
BRANCH  79  80
ATOM     80  S   UNL     1       5.112 -18.560  -2.052  1.00  0.00     0.124 S 
ATOM     81  O   UNL     1       5.101 -19.983  -1.729  1.00  0.00    -0.237 OA
ATOM     82  O   UNL     1       5.212 -18.233  -3.473  1.00  0.00    -0.237 OA
ATOM     83  O   UNL     1       5.922 -17.723  -1.170  1.00  0.00    -0.744 OA
ENDBRANCH  79  80
ENDBRANCH  51  74
BRANCH  63  84
ATOM     84  C   UNL     1      -4.974 -20.779   0.762  1.00  0.00    -0.014 A 
ATOM     85  C   UNL     1      -4.455 -21.489   1.858  1.00  0.00     0.010 A 
ATOM     86  C   UNL     1      -5.824 -21.444  -0.142  1.00  0.00     0.010 A 
ATOM     87  C   UNL     1      -4.749 -22.846   2.026  1.00  0.00     0.020 A 
ATOM     88  C   UNL     1      -6.146 -22.791   0.039  1.00  0.00     0.020 A 
ATOM     89  C   UNL     1      -5.593 -23.488   1.114  1.00  0.00     0.054 A 
BRANCH  89  90
ATOM     90  S   UNL     1      -5.987 -25.240   1.374  1.00  0.00     0.124 S 
ATOM     91  O   UNL     1      -4.730 -25.891   1.015  1.00  0.00    -0.237 OA
ATOM     92  O   UNL     1      -6.335 -25.283   2.792  1.00  0.00    -0.237 OA
ATOM     93  O   UNL     1      -7.099 -25.485   0.457  1.00  0.00    -0.744 OA
ENDBRANCH  89  90
ENDBRANCH  63  84
ENDBRANCH  37  38
ENDBRANCH  30  32
ENDBRANCH  29  30
ENDBRANCH  28  29
ENDBRANCH  27  28
ENDBRANCH   1  27
TORSDOF 23
