REMARK SMILES O=C(OCCOCCOC(=O)[C@@H](Cc1cccc(F)c1)[C@H]1CCCCC[C@@H]1O)c1ccc(-c2c3nc(c(-c4ccc(S(=O)(=O)[O-])cc4)c4ccc([nH]4)c(-c4ccc(S(=O)(=O)[O-])cc4)c4nc(c(-c5ccc(S(=O)(=O)[O-])cc5)c5ccc2[nH]5)C=C4)C=C3)cc1
REMARK SMILES IDX 7 1 6 2 5 3 4 4 3 5 2 6 1 7 29 8 30 9 88 10 31 11 87 12
REMARK SMILES IDX 32 13 33 14 34 15 81 16 35 17 86 18 80 19 82 20 36 21 85 22
REMARK SMILES IDX 79 23 78 24 37 26 67 27 48 28 66 29 49 30 52 31 65 32 83 33
REMARK SMILES IDX 50 34 51 35 64 37 84 38 53 39 38 40 39 41 47 42 40 43 46 44
REMARK SMILES IDX 41 45 42 46 43 47 44 48 45 49 68 50 69 51 77 52 70 53 76 54
REMARK SMILES IDX 71 55 72 56 73 57 74 58 75 59 54 60 55 61 63 62 56 63 62 64
REMARK SMILES IDX 57 65 58 66 59 67 60 68 61 69 8 70 9 71 10 72 11 73 12 74
REMARK SMILES IDX 13 75 14 76 15 77 20 78 16 79 18 80 17 81 19 82 21 83 22 84
REMARK SMILES IDX 23 85 24 86 25 87 27 89 26 90 28 92
REMARK H PARENT 82 25 52 36 28 93
REMARK Flexibility Score: 90.00
ROOT
ATOM      1  C   UNL     1       3.157  -1.207   0.063  1.00  0.00     0.202 C 
ENDROOT
BRANCH   1   2
ATOM      2  O   UNL     1       4.513  -0.759   0.081  1.00  0.00    -0.374 OA
BRANCH   2   3
ATOM      3  C   UNL     1       4.830   0.307   0.972  1.00  0.00     0.202 C 
BRANCH   3   4
ATOM      4  C   UNL     1       4.372   1.711   0.534  1.00  0.00     0.261 C 
BRANCH   4   5
ATOM      5  O   UNL     1       2.962   1.767   0.250  1.00  0.00    -0.460 OA
BRANCH   5   6
ATOM      6  C   UNL     1       2.340   1.754  -0.956  1.00  0.00     0.338 C 
ATOM      7  O   UNL     1       1.131   1.981  -0.999  1.00  0.00    -0.246 OA
BRANCH   6   8
ATOM      8  C   UNL     1       3.025   1.393  -2.237  1.00  0.00     0.060 A 
ATOM      9  C   UNL     1       4.254   0.744  -2.311  1.00  0.00     0.016 A 
ATOM     10  C   UNL     1       2.341   1.622  -3.444  1.00  0.00     0.016 A 
ATOM     11  C   UNL     1       4.777   0.274  -3.490  1.00  0.00     0.010 A 
ATOM     12  C   UNL     1       2.892   1.217  -4.667  1.00  0.00     0.010 A 
ATOM     13  C   UNL     1       4.115   0.541  -4.675  1.00  0.00    -0.014 A 
BRANCH  13  14
ATOM     14  C   UNL     1       4.926   0.314  -5.871  1.00  0.00     0.031 A 
ATOM     15  C   UNL     1       5.766   1.465  -6.330  1.00  0.00     0.074 A 
ATOM     16  C   UNL     1       5.119  -0.945  -6.300  1.00  0.00     0.049 A 
ATOM     17  N   UNL     1       6.588   1.537  -7.336  1.00  0.00    -0.248 NA
ATOM     18  C   UNL     1       5.704   2.696  -5.513  1.00  0.00     0.031 C 
ATOM     19  C   UNL     1       4.525  -2.143  -5.695  1.00  0.00     0.029 A 
ATOM     20  N   UNL     1       5.916  -1.433  -7.293  1.00  0.00    -0.354 N 
ATOM     21  C   UNL     1       7.104   2.827  -7.299  1.00  0.00     0.074 A 
ATOM     22  C   UNL     1       6.534   3.498  -6.157  1.00  0.00     0.031 C 
ATOM     23  C   UNL     1       4.993  -3.231  -6.330  1.00  0.00     0.029 A 
ATOM     24  C   UNL     1       5.850  -2.799  -7.427  1.00  0.00     0.049 A 
ATOM     25  H   UNL     1       6.484  -0.862  -7.859  1.00  0.00     0.167 HD
ATOM     26  C   UNL     1       7.956   3.397  -8.178  1.00  0.00     0.031 A 
ATOM     27  C   UNL     1       6.390  -3.587  -8.374  1.00  0.00     0.031 A 
ATOM     28  C   UNL     1       8.461   2.683  -9.315  1.00  0.00     0.049 A 
ATOM     29  C   UNL     1       7.199  -2.900  -9.442  1.00  0.00     0.074 A 
ATOM     30  C   UNL     1       9.204   3.150 -10.378  1.00  0.00     0.029 A 
ATOM     31  N   UNL     1       8.258   1.322  -9.524  1.00  0.00    -0.354 N 
ATOM     32  N   UNL     1       7.558  -1.636  -9.513  1.00  0.00    -0.248 NA
ATOM     33  C   UNL     1       7.650  -3.722 -10.568  1.00  0.00     0.031 C 
ATOM     34  C   UNL     1       9.406   2.079 -11.257  1.00  0.00     0.029 A 
ATOM     35  C   UNL     1       8.846   0.932 -10.708  1.00  0.00     0.049 A 
ATOM     36  H   UNL     1       7.766   0.725  -8.914  1.00  0.00     0.167 HD
ATOM     37  C   UNL     1       8.286  -1.511 -10.687  1.00  0.00     0.074 A 
ATOM     38  C   UNL     1       8.334  -2.836 -11.281  1.00  0.00     0.031 C 
ATOM     39  C   UNL     1       8.858  -0.410 -11.237  1.00  0.00     0.031 A 
BRANCH  26  40
ATOM     40  C   UNL     1       8.243   4.860  -7.996  1.00  0.00    -0.014 A 
ATOM     41  C   UNL     1       9.064   5.335  -6.957  1.00  0.00     0.010 A 
ATOM     42  C   UNL     1       7.613   5.787  -8.847  1.00  0.00     0.010 A 
ATOM     43  C   UNL     1       9.215   6.711  -6.749  1.00  0.00     0.020 A 
ATOM     44  C   UNL     1       7.779   7.161  -8.656  1.00  0.00     0.020 A 
ATOM     45  C   UNL     1       8.565   7.615  -7.596  1.00  0.00     0.054 A 
BRANCH  45  46
ATOM     46  S   UNL     1       8.768   9.394  -7.299  1.00  0.00     0.124 S 
ATOM     47  O   UNL     1       7.968   9.592  -6.093  1.00  0.00    -0.237 OA
ATOM     48  O   UNL     1      10.211   9.527  -7.124  1.00  0.00    -0.237 OA
ATOM     49  O   UNL     1       8.231  10.011  -8.510  1.00  0.00    -0.744 OA
ENDBRANCH  45  46
ENDBRANCH  26  40
BRANCH  27  50
ATOM     50  C   UNL     1       6.095  -5.048  -8.413  1.00  0.00    -0.014 A 
ATOM     51  C   UNL     1       7.115  -6.007  -8.293  1.00  0.00     0.010 A 
ATOM     52  C   UNL     1       4.768  -5.494  -8.583  1.00  0.00     0.010 A 
ATOM     53  C   UNL     1       6.817  -7.375  -8.358  1.00  0.00     0.020 A 
ATOM     54  C   UNL     1       4.462  -6.857  -8.617  1.00  0.00     0.020 A 
ATOM     55  C   UNL     1       5.492  -7.791  -8.520  1.00  0.00     0.054 A 
BRANCH  55  56
ATOM     56  S   UNL     1       5.124  -9.568  -8.575  1.00  0.00     0.124 S 
ATOM     57  O   UNL     1       5.647  -9.946  -9.883  1.00  0.00    -0.237 OA
ATOM     58  O   UNL     1       5.865 -10.079  -7.424  1.00  0.00    -0.237 OA
ATOM     59  O   UNL     1       3.670  -9.621  -8.443  1.00  0.00    -0.744 OA
ENDBRANCH  55  56
ENDBRANCH  27  50
BRANCH  39  60
ATOM     60  C   UNL     1       9.611  -0.614 -12.518  1.00  0.00    -0.014 A 
ATOM     61  C   UNL     1       8.933  -0.808 -13.733  1.00  0.00     0.010 A 
ATOM     62  C   UNL     1      11.014  -0.526 -12.505  1.00  0.00     0.010 A 
ATOM     63  C   UNL     1       9.655  -0.933 -14.919  1.00  0.00     0.020 A 
ATOM     64  C   UNL     1      11.735  -0.621 -13.693  1.00  0.00     0.020 A 
ATOM     65  C   UNL     1      11.051  -0.835 -14.891  1.00  0.00     0.054 A 
BRANCH  65  66
ATOM     66  S   UNL     1      11.961  -0.936 -16.453  1.00  0.00     0.124 S 
ATOM     67  O   UNL     1      11.889  -2.363 -16.753  1.00  0.00    -0.237 OA
ATOM     68  O   UNL     1      11.183  -0.067 -17.334  1.00  0.00    -0.237 OA
ATOM     69  O   UNL     1      13.290  -0.435 -16.111  1.00  0.00    -0.744 OA
ENDBRANCH  65  66
ENDBRANCH  39  60
ENDBRANCH  13  14
ENDBRANCH   6   8
ENDBRANCH   5   6
ENDBRANCH   4   5
ENDBRANCH   3   4
ENDBRANCH   2   3
ENDBRANCH   1   2
BRANCH   1  70
ATOM     70  C   UNL     1       3.121  -2.670   0.438  1.00  0.00     0.261 C 
BRANCH  70  71
ATOM     71  O   UNL     1       3.304  -2.752   1.852  1.00  0.00    -0.463 OA
BRANCH  71  72
ATOM     72  C   UNL     1       4.562  -2.793   2.320  1.00  0.00     0.309 C 
ATOM     73  O   UNL     1       5.595  -2.811   1.650  1.00  0.00    -0.252 OA
BRANCH  72  74
ATOM     74  C   UNL     1       4.558  -2.953   3.811  1.00  0.00     0.109 C 
BRANCH  74  75
ATOM     75  C   UNL     1       3.931  -1.743   4.571  1.00  0.00     0.051 C 
BRANCH  75  76
ATOM     76  C   UNL     1       2.544  -1.198   4.279  1.00  0.00    -0.044 A 
ATOM     77  C   UNL     1       1.388  -1.863   4.693  1.00  0.00     0.004 A 
ATOM     78  C   UNL     1       2.363   0.049   3.657  1.00  0.00     0.043 A 
ATOM     79  C   UNL     1       0.108  -1.391   4.375  1.00  0.00     0.003 A 
ATOM     80  C   UNL     1       1.088   0.527   3.351  1.00  0.00     0.123 A 
ATOM     81  C   UNL     1      -0.043  -0.198   3.681  1.00  0.00     0.039 A 
ATOM     82  F   UNL     1       0.955   1.715   2.747  1.00  0.00    -0.207 F 
ENDBRANCH  75  76
ENDBRANCH  74  75
BRANCH  74  83
ATOM     83  C   UNL     1       4.303  -4.436   4.241  1.00  0.00     0.032 C 
BRANCH  83  84
ATOM     84  C   UNL     1       2.878  -4.968   4.470  1.00  0.00     0.007 C 
BRANCH  84  85
ATOM     85  C   UNL     1       1.880  -4.964   3.320  1.00  0.00     0.000 C 
BRANCH  85  86
ATOM     86  C   UNL     1       2.042  -6.025   2.234  1.00  0.00     0.000 C 
BRANCH  86  87
ATOM     87  C   UNL     1       3.348  -6.806   2.173  1.00  0.00     0.003 CG0
ATOM     88  G   UNL     1       4.609  -5.953   2.085  1.00  0.00     0.000 G0
ENDBRANCH  86  87
ENDBRANCH  85  86
ENDBRANCH  84  85
ENDBRANCH  83  84
BRANCH  83  89
ATOM     89  C   UNL     1       5.165  -5.446   3.426  1.00  0.00     0.118 C 
BRANCH  89  90
ATOM     90  C   UNL     1       4.609  -5.953   2.085  1.00  0.00     0.032 CG0
ATOM     91  G   UNL     1       3.348  -6.806   2.173  1.00  0.00     0.000 G0
ENDBRANCH  89  90
BRANCH  89  92
ATOM     92  O   UNL     1       5.404  -6.580   4.274  1.00  0.00    -0.393 OA
ATOM     93  H   UNL     1       4.561  -7.016   4.477  1.00  0.00     0.210 HD
ENDBRANCH  89  92
ENDBRANCH  83  89
ENDBRANCH  74  83
ENDBRANCH  72  74
ENDBRANCH  71  72
ENDBRANCH  70  71
ENDBRANCH   1  70
TORSDOF 21
