REMARK SMILES O=C(OCCOCCOC(=O)c1ccc(S(=O)(=O)N[C@@H]2CC[N@H+]3CCC[C@H]23)cc1)c1ccc(-c2c3nc(c(-c4ccc(S(=O)(=O)[O-])cc4)c4ccc([nH]4)c(-c4ccc(S(=O)(=O)[O-])cc4)c4nc(c(-c5ccc(S(=O)(=O)[O-])cc5)c5ccc2[nH]5)C=C4)C=C3)cc1
REMARK SMILES IDX 6 1 5 2 4 3 3 4 2 5 1 6 30 7 31 8 89 9 32 10 88 11 33 12
REMARK SMILES IDX 34 13 35 14 82 15 36 16 87 17 81 18 83 19 37 20 86 21 80 22
REMARK SMILES IDX 79 23 38 25 68 26 49 27 67 28 50 29 53 30 66 31 84 32 51 33
REMARK SMILES IDX 52 34 65 36 85 37 54 38 39 39 40 40 48 41 41 42 47 43 42 44
REMARK SMILES IDX 43 45 44 46 45 47 46 48 69 49 70 50 78 51 71 52 77 53 72 54
REMARK SMILES IDX 73 55 74 56 75 57 76 58 55 59 56 60 64 61 57 62 63 63 58 64
REMARK SMILES IDX 59 65 60 66 61 67 62 68 7 69 8 70 9 71 10 72 11 73 12 74
REMARK SMILES IDX 13 75 29 76 14 77 28 78 15 79 16 80 17 81 18 82 19 83 20 85
REMARK SMILES IDX 21 86 27 87 22 88 23 89 26 90 24 91 25 93
REMARK H PARENT 83 24 53 35 19 84 23 92
REMARK Flexibility Score: inf
ROOT
ATOM      1  O   UNL     1       3.940   1.547   0.871  1.00  0.00    -0.374 OA
ENDROOT
BRANCH   1   2
ATOM      2  C   UNL     1       3.996   1.730  -0.545  1.00  0.00     0.202 C 
BRANCH   2   3
ATOM      3  C   UNL     1       3.690   0.468  -1.356  1.00  0.00     0.261 C 
BRANCH   3   4
ATOM      4  O   UNL     1       2.356   0.008  -1.071  1.00  0.00    -0.460 OA
BRANCH   4   5
ATOM      5  C   UNL     1       1.965  -1.097  -0.395  1.00  0.00     0.338 C 
ATOM      6  O   UNL     1       0.769  -1.384  -0.395  1.00  0.00    -0.246 OA
BRANCH   5   7
ATOM      7  C   UNL     1       2.897  -1.979   0.377  1.00  0.00     0.060 A 
ATOM      8  C   UNL     1       4.130  -1.583   0.896  1.00  0.00     0.016 A 
ATOM      9  C   UNL     1       2.442  -3.274   0.687  1.00  0.00     0.016 A 
ATOM     10  C   UNL     1       4.921  -2.457   1.634  1.00  0.00     0.010 A 
ATOM     11  C   UNL     1       3.207  -4.142   1.475  1.00  0.00     0.010 A 
ATOM     12  C   UNL     1       4.461  -3.737   1.939  1.00  0.00    -0.014 A 
BRANCH  12  13
ATOM     13  C   UNL     1       5.350  -4.622   2.719  1.00  0.00     0.031 A 
ATOM     14  C   UNL     1       6.101  -5.710   2.014  1.00  0.00     0.074 A 
ATOM     15  C   UNL     1       5.581  -4.337   4.015  1.00  0.00     0.049 A 
ATOM     16  N   UNL     1       6.988  -6.540   2.493  1.00  0.00    -0.248 NA
ATOM     17  C   UNL     1       5.834  -5.874   0.574  1.00  0.00     0.031 C 
ATOM     18  C   UNL     1       4.953  -3.241   4.762  1.00  0.00     0.029 A 
ATOM     19  N   UNL     1       6.438  -4.906   4.919  1.00  0.00    -0.354 N 
ATOM     20  C   UNL     1       7.387  -7.324   1.418  1.00  0.00     0.074 A 
ATOM     21  C   UNL     1       6.634  -6.885   0.264  1.00  0.00     0.031 C 
ATOM     22  C   UNL     1       5.481  -3.192   5.995  1.00  0.00     0.029 A 
ATOM     23  C   UNL     1       6.442  -4.279   6.143  1.00  0.00     0.049 A 
ATOM     24  H   UNL     1       6.997  -5.689   4.713  1.00  0.00     0.167 HD
ATOM     25  C   UNL     1       8.302  -8.321   1.399  1.00  0.00     0.031 A 
ATOM     26  C   UNL     1       7.139  -4.561   7.261  1.00  0.00     0.031 A 
ATOM     27  C   UNL     1       9.018  -8.765   2.563  1.00  0.00     0.049 A 
ATOM     28  C   UNL     1       8.093  -5.723   7.229  1.00  0.00     0.074 A 
ATOM     29  C   UNL     1       9.891  -9.830   2.689  1.00  0.00     0.029 A 
ATOM     30  N   UNL     1       8.941  -8.158   3.809  1.00  0.00    -0.354 N 
ATOM     31  N   UNL     1       8.410  -6.499   6.218  1.00  0.00    -0.248 NA
ATOM     32  C   UNL     1       8.774  -6.056   8.486  1.00  0.00     0.031 C 
ATOM     33  C   UNL     1      10.319  -9.884   4.022  1.00  0.00     0.029 A 
ATOM     34  C   UNL     1       9.744  -8.828   4.713  1.00  0.00     0.049 A 
ATOM     35  H   UNL     1       8.395  -7.366   4.018  1.00  0.00     0.167 HD
ATOM     36  C   UNL     1       9.323  -7.418   6.719  1.00  0.00     0.074 A 
ATOM     37  C   UNL     1       9.536  -7.075   8.112  1.00  0.00     0.031 C 
ATOM     38  C   UNL     1       9.921  -8.462   6.094  1.00  0.00     0.031 A 
BRANCH  25  39
ATOM     39  C   UNL     1       8.524  -9.018   0.087  1.00  0.00    -0.014 A 
ATOM     40  C   UNL     1       9.277  -8.414  -0.936  1.00  0.00     0.010 A 
ATOM     41  C   UNL     1       7.957 -10.286  -0.134  1.00  0.00     0.010 A 
ATOM     42  C   UNL     1       9.428  -9.050  -2.171  1.00  0.00     0.020 A 
ATOM     43  C   UNL     1       8.120 -10.933  -1.362  1.00  0.00     0.020 A 
ATOM     44  C   UNL     1       8.839 -10.302  -2.379  1.00  0.00     0.054 A 
BRANCH  44  45
ATOM     45  S   UNL     1       9.041 -11.104  -3.994  1.00  0.00     0.124 S 
ATOM     46  O   UNL     1       8.124 -10.332  -4.829  1.00  0.00    -0.237 OA
ATOM     47  O   UNL     1      10.461 -10.911  -4.276  1.00  0.00    -0.237 OA
ATOM     48  O   UNL     1       8.642 -12.487  -3.746  1.00  0.00    -0.744 OA
ENDBRANCH  44  45
ENDBRANCH  25  39
BRANCH  26  49
ATOM     49  C   UNL     1       6.919  -3.774   8.507  1.00  0.00    -0.014 A 
ATOM     50  C   UNL     1       7.931  -2.962   9.046  1.00  0.00     0.010 A 
ATOM     51  C   UNL     1       5.681  -3.851   9.174  1.00  0.00     0.010 A 
ATOM     52  C   UNL     1       7.720  -2.265  10.242  1.00  0.00     0.020 A 
ATOM     53  C   UNL     1       5.457  -3.135  10.352  1.00  0.00     0.020 A 
ATOM     54  C   UNL     1       6.485  -2.361  10.890  1.00  0.00     0.054 A 
BRANCH  54  55
ATOM     55  S   UNL     1       6.212  -1.434  12.426  1.00  0.00     0.124 S 
ATOM     56  O   UNL     1       6.861  -2.289  13.414  1.00  0.00    -0.237 OA
ATOM     57  O   UNL     1       6.875  -0.160  12.157  1.00  0.00    -0.237 OA
ATOM     58  O   UNL     1       4.755  -1.359  12.521  1.00  0.00    -0.744 OA
ENDBRANCH  54  55
ENDBRANCH  26  49
BRANCH  38  59
ATOM     59  C   UNL     1      10.855  -9.296   6.922  1.00  0.00    -0.014 A 
ATOM     60  C   UNL     1      10.354 -10.210   7.866  1.00  0.00     0.010 A 
ATOM     61  C   UNL     1      12.243  -9.189   6.731  1.00  0.00     0.010 A 
ATOM     62  C   UNL     1      11.230 -10.980   8.632  1.00  0.00     0.020 A 
ATOM     63  C   UNL     1      13.121  -9.973   7.481  1.00  0.00     0.020 A 
ATOM     64  C   UNL     1      12.609 -10.852   8.439  1.00  0.00     0.054 A 
BRANCH  64  65
ATOM     65  S   UNL     1      13.731 -11.884   9.421  1.00  0.00     0.124 S 
ATOM     66  O   UNL     1      13.766 -11.166  10.692  1.00  0.00    -0.237 OA
ATOM     67  O   UNL     1      13.047 -13.175   9.447  1.00  0.00    -0.237 OA
ATOM     68  O   UNL     1      14.976 -11.862   8.656  1.00  0.00    -0.744 OA
ENDBRANCH  64  65
ENDBRANCH  38  59
ENDBRANCH  12  13
ENDBRANCH   5   7
ENDBRANCH   4   5
ENDBRANCH   3   4
ENDBRANCH   2   3
ENDBRANCH   1   2
BRANCH   1  69
ATOM     69  C   UNL     1       2.638   1.659   1.462  1.00  0.00     0.202 C 
BRANCH  69  70
ATOM     70  C   UNL     1       2.744   2.450   2.770  1.00  0.00     0.261 C 
BRANCH  70  71
ATOM     71  O   UNL     1       3.132   3.790   2.429  1.00  0.00    -0.460 OA
BRANCH  71  72
ATOM     72  C   UNL     1       4.473   3.956   2.315  1.00  0.00     0.338 C 
ATOM     73  O   UNL     1       5.340   3.393   2.960  1.00  0.00    -0.246 OA
BRANCH  72  74
ATOM     74  C   UNL     1       4.744   4.810   1.132  1.00  0.00     0.060 A 
ATOM     75  C   UNL     1       6.012   4.729   0.538  1.00  0.00     0.017 A 
ATOM     76  C   UNL     1       3.756   5.633   0.573  1.00  0.00     0.017 A 
ATOM     77  C   UNL     1       6.314   5.510  -0.576  1.00  0.00     0.022 A 
ATOM     78  C   UNL     1       4.047   6.402  -0.550  1.00  0.00     0.022 A 
ATOM     79  C   UNL     1       5.336   6.363  -1.096  1.00  0.00     0.082 A 
BRANCH  79  80
ATOM     80  S   UNL     1       5.816   7.629  -2.248  1.00  0.00     0.241 S 
ATOM     81  O   UNL     1       7.248   7.824  -2.138  1.00  0.00    -0.207 OA
ATOM     82  O   UNL     1       5.166   7.361  -3.505  1.00  0.00    -0.207 OA
BRANCH  80  83
ATOM     83  N   UNL     1       5.086   8.976  -1.579  1.00  0.00    -0.202 NA
ATOM     84  H   UNL     1       4.083   8.793  -1.565  1.00  0.00     0.141 HD
BRANCH  83  85
ATOM     85  C   UNL     1       5.457   9.410  -0.229  1.00  0.00     0.133 C 
ATOM     86  C   UNL     1       4.195   9.940   0.499  1.00  0.00     0.087 C 
ATOM     87  C   UNL     1       6.400  10.595  -0.183  1.00  0.00     0.202 C 
ATOM     88  C   UNL     1       4.524  11.383   0.906  1.00  0.00     0.264 C 
ATOM     89  N   UNL     1       5.472  11.730  -0.130  1.00  0.00    -0.331 N 
ATOM     90  C   UNL     1       7.300  11.050  -1.303  1.00  0.00     0.072 C 
ATOM     91  C   UNL     1       6.327  12.888   0.015  1.00  0.00     0.262 C 
ATOM     92  H   UNL     1       4.885  11.951  -0.934  1.00  0.00     0.348 HD
ATOM     93  C   UNL     1       7.433  12.559  -1.006  1.00  0.00     0.068 C 
ENDBRANCH  83  85
ENDBRANCH  80  83
ENDBRANCH  79  80
ENDBRANCH  72  74
ENDBRANCH  71  72
ENDBRANCH  70  71
ENDBRANCH  69  70
ENDBRANCH   1  69
TORSDOF 20
