REMARK SMILES O=C(OCCOCCOC(=O)[C@@H]1[C@@H](C(=O)NCCCn2ccnc2)[C@@H]2C=C[C@H]1C2)c1ccc(-c2c3nc(c(-c4ccc(S(=O)(=O)[O-])cc4)c4ccc([nH]4)c(-c4ccc(S(=O)(=O)[O-])cc4)c4nc(c(-c5ccc(S(=O)(=O)[O-])cc5)c5ccc2[nH]5)C=C4)C=C3)cc1
REMARK SMILES IDX 7 1 6 2 5 3 4 4 3 5 2 6 1 7 30 8 31 9 89 10 32 11 88 12
REMARK SMILES IDX 33 13 34 14 35 15 82 16 36 17 87 18 81 19 83 20 37 21 86 22
REMARK SMILES IDX 80 23 79 24 38 26 68 27 49 28 67 29 50 30 53 31 66 32 84 33
REMARK SMILES IDX 51 34 52 35 65 37 85 38 54 39 39 40 40 41 48 42 41 43 47 44
REMARK SMILES IDX 42 45 43 46 44 47 45 48 46 49 69 50 70 51 78 52 71 53 77 54
REMARK SMILES IDX 72 55 73 56 74 57 75 58 76 59 55 60 56 61 64 62 57 63 63 64
REMARK SMILES IDX 58 65 59 66 60 67 61 68 62 69 8 70 9 71 10 72 11 73 12 74
REMARK SMILES IDX 13 75 28 76 25 77 27 78 29 79 26 80 14 81 15 82 16 83 17 85
REMARK SMILES IDX 18 86 19 87 20 88 21 89 24 90 22 91 23 92
REMARK H PARENT 83 25 53 36 16 84
REMARK Flexibility Score: inf
ROOT
ATOM      1  C   UNL     1       3.385   1.647   1.209  1.00  0.00     0.202 C 
ENDROOT
BRANCH   1   2
ATOM      2  O   UNL     1       4.515   0.792   0.963  1.00  0.00    -0.374 OA
BRANCH   2   3
ATOM      3  C   UNL     1       5.014   0.722  -0.370  1.00  0.00     0.202 C 
BRANCH   3   4
ATOM      4  C   UNL     1       4.953  -0.614  -1.110  1.00  0.00     0.261 C 
BRANCH   4   5
ATOM      5  O   UNL     1       3.633  -0.929  -1.615  1.00  0.00    -0.460 OA
BRANCH   5   6
ATOM      6  C   UNL     1       2.532  -0.521  -0.938  1.00  0.00     0.338 C 
ATOM      7  O   UNL     1       1.721   0.285  -1.377  1.00  0.00    -0.246 OA
BRANCH   6   8
ATOM      8  C   UNL     1       2.238  -1.383   0.216  1.00  0.00     0.060 A 
ATOM      9  C   UNL     1       3.265  -1.959   0.960  1.00  0.00     0.016 A 
ATOM     10  C   UNL     1       0.910  -1.763   0.412  1.00  0.00     0.016 A 
ATOM     11  C   UNL     1       3.044  -3.155   1.569  1.00  0.00     0.010 A 
ATOM     12  C   UNL     1       0.661  -2.907   1.140  1.00  0.00     0.010 A 
ATOM     13  C   UNL     1       1.755  -3.669   1.555  1.00  0.00    -0.014 A 
BRANCH  13  14
ATOM     14  C   UNL     1       1.666  -5.068   1.925  1.00  0.00     0.031 A 
ATOM     15  C   UNL     1       2.269  -5.409   3.242  1.00  0.00     0.074 A 
ATOM     16  C   UNL     1       1.105  -5.949   1.080  1.00  0.00     0.049 A 
ATOM     17  N   UNL     1       3.136  -6.327   3.529  1.00  0.00    -0.248 NA
ATOM     18  C   UNL     1       1.972  -4.484   4.353  1.00  0.00     0.031 C 
ATOM     19  C   UNL     1       0.347  -5.664  -0.145  1.00  0.00     0.029 A 
ATOM     20  N   UNL     1       0.938  -7.286   1.245  1.00  0.00    -0.354 N 
ATOM     21  C   UNL     1       3.357  -6.208   4.898  1.00  0.00     0.074 A 
ATOM     22  C   UNL     1       2.747  -4.972   5.316  1.00  0.00     0.031 C 
ATOM     23  C   UNL     1      -0.464  -6.710  -0.399  1.00  0.00     0.029 A 
ATOM     24  C   UNL     1      -0.168  -7.761   0.558  1.00  0.00     0.049 A 
ATOM     25  H   UNL     1       1.533  -7.851   1.789  1.00  0.00     0.167 HD
ATOM     26  C   UNL     1       3.814  -7.231   5.668  1.00  0.00     0.031 A 
ATOM     27  C   UNL     1      -0.900  -8.847   0.894  1.00  0.00     0.031 A 
ATOM     28  C   UNL     1       4.525  -8.225   4.918  1.00  0.00     0.049 A 
ATOM     29  C   UNL     1      -0.058  -9.701   1.768  1.00  0.00     0.074 A 
ATOM     30  C   UNL     1       5.698  -8.236   4.191  1.00  0.00     0.029 A 
ATOM     31  N   UNL     1       3.854  -9.374   4.575  1.00  0.00    -0.354 N 
ATOM     32  N   UNL     1       1.039 -10.284   1.368  1.00  0.00    -0.248 NA
ATOM     33  C   UNL     1      -0.198  -9.580   3.212  1.00  0.00     0.031 C 
ATOM     34  C   UNL     1       5.472  -9.156   3.128  1.00  0.00     0.029 A 
ATOM     35  C   UNL     1       4.178  -9.662   3.273  1.00  0.00     0.049 A 
ATOM     36  H   UNL     1       3.253  -9.894   5.156  1.00  0.00     0.167 HD
ATOM     37  C   UNL     1       1.895 -10.242   2.460  1.00  0.00     0.074 A 
ATOM     38  C   UNL     1       1.039  -9.912   3.595  1.00  0.00     0.031 C 
ATOM     39  C   UNL     1       3.252 -10.205   2.299  1.00  0.00     0.031 A 
BRANCH  26  40
ATOM     40  C   UNL     1       3.251  -7.477   7.044  1.00  0.00    -0.014 A 
ATOM     41  C   UNL     1       3.819  -8.462   7.871  1.00  0.00     0.010 A 
ATOM     42  C   UNL     1       1.998  -6.952   7.437  1.00  0.00     0.010 A 
ATOM     43  C   UNL     1       3.133  -8.937   8.999  1.00  0.00     0.020 A 
ATOM     44  C   UNL     1       1.331  -7.380   8.580  1.00  0.00     0.020 A 
ATOM     45  C   UNL     1       1.884  -8.404   9.331  1.00  0.00     0.054 A 
BRANCH  45  46
ATOM     46  S   UNL     1       0.929  -9.125  10.687  1.00  0.00     0.124 S 
ATOM     47  O   UNL     1       0.573 -10.429  10.137  1.00  0.00    -0.237 OA
ATOM     48  O   UNL     1       1.899  -9.138  11.779  1.00  0.00    -0.237 OA
ATOM     49  O   UNL     1      -0.181  -8.191  10.857  1.00  0.00    -0.744 OA
ENDBRANCH  45  46
ENDBRANCH  26  40
BRANCH  27  50
ATOM     50  C   UNL     1      -2.382  -8.893   0.850  1.00  0.00    -0.014 A 
ATOM     51  C   UNL     1      -3.073 -10.112   0.904  1.00  0.00     0.010 A 
ATOM     52  C   UNL     1      -3.137  -7.702   0.964  1.00  0.00     0.010 A 
ATOM     53  C   UNL     1      -4.467 -10.136   1.082  1.00  0.00     0.020 A 
ATOM     54  C   UNL     1      -4.524  -7.717   1.122  1.00  0.00     0.020 A 
ATOM     55  C   UNL     1      -5.182  -8.938   1.196  1.00  0.00     0.054 A 
BRANCH  55  56
ATOM     56  S   UNL     1      -6.962  -8.985   1.543  1.00  0.00     0.124 S 
ATOM     57  O   UNL     1      -7.507  -9.502   0.291  1.00  0.00    -0.237 OA
ATOM     58  O   UNL     1      -7.037  -9.887   2.688  1.00  0.00    -0.237 OA
ATOM     59  O   UNL     1      -7.294  -7.590   1.833  1.00  0.00    -0.744 OA
ENDBRANCH  55  56
ENDBRANCH  27  50
BRANCH  39  60
ATOM     60  C   UNL     1       3.812 -10.446   0.913  1.00  0.00    -0.014 A 
ATOM     61  C   UNL     1       3.571  -9.563  -0.160  1.00  0.00     0.010 A 
ATOM     62  C   UNL     1       4.752 -11.475   0.732  1.00  0.00     0.010 A 
ATOM     63  C   UNL     1       4.239  -9.714  -1.382  1.00  0.00     0.020 A 
ATOM     64  C   UNL     1       5.434 -11.622  -0.481  1.00  0.00     0.020 A 
ATOM     65  C   UNL     1       5.172 -10.742  -1.534  1.00  0.00     0.054 A 
BRANCH  65  66
ATOM     66  S   UNL     1       6.098 -10.874  -3.091  1.00  0.00     0.124 S 
ATOM     67  O   UNL     1       5.085 -11.358  -4.024  1.00  0.00    -0.237 OA
ATOM     68  O   UNL     1       6.556  -9.504  -3.316  1.00  0.00    -0.237 OA
ATOM     69  O   UNL     1       7.163 -11.828  -2.783  1.00  0.00    -0.744 OA
ENDBRANCH  65  66
ENDBRANCH  39  60
ENDBRANCH  13  14
ENDBRANCH   6   8
ENDBRANCH   5   6
ENDBRANCH   4   5
ENDBRANCH   3   4
ENDBRANCH   2   3
ENDBRANCH   1   2
BRANCH   1  70
ATOM     70  C   UNL     1       3.482   3.144   0.878  1.00  0.00     0.261 C 
BRANCH  70  71
ATOM     71  O   UNL     1       3.597   3.432  -0.533  1.00  0.00    -0.463 OA
BRANCH  71  72
ATOM     72  C   UNL     1       4.864   3.583  -0.989  1.00  0.00     0.310 C 
ATOM     73  O   UNL     1       5.862   3.488  -0.279  1.00  0.00    -0.252 OA
BRANCH  72  74
ATOM     74  C   UNL     1       4.983   3.853  -2.467  1.00  0.00     0.119 C 
ATOM     75  C   UNL     1       3.924   4.795  -3.095  1.00  0.00     0.100 C 
ATOM     76  C   UNL     1       4.969   2.612  -3.393  1.00  0.00     0.027 C 
ATOM     77  C   UNL     1       3.600   4.053  -4.427  1.00  0.00     0.025 C 
ATOM     78  C   UNL     1       3.603   1.978  -3.475  1.00  0.00    -0.027 C 
ATOM     79  C   UNL     1       4.924   3.328  -4.745  1.00  0.00     0.017 C 
ATOM     80  C   UNL     1       2.778   2.840  -4.080  1.00  0.00    -0.027 C 
BRANCH  75  81
ATOM     81  C   UNL     1       4.511   6.172  -3.362  1.00  0.00     0.224 C 
ATOM     82  O   UNL     1       4.699   6.603  -4.500  1.00  0.00    -0.275 OA
ATOM     83  N   UNL     1       4.848   6.982  -2.317  1.00  0.00    -0.356 N 
ATOM     84  H   UNL     1       5.248   7.845  -2.572  1.00  0.00     0.163 HD
BRANCH  83  85
ATOM     85  C   UNL     1       4.709   6.771  -0.887  1.00  0.00     0.117 C 
BRANCH  85  86
ATOM     86  C   UNL     1       6.047   6.421  -0.228  1.00  0.00     0.043 C 
BRANCH  86  87
ATOM     87  C   UNL     1       6.984   7.601  -0.008  1.00  0.00     0.125 C 
BRANCH  87  88
ATOM     88  N   UNL     1       6.428   8.575   0.902  1.00  0.00    -0.337 N 
ATOM     89  C   UNL     1       6.308   8.439   2.255  1.00  0.00     0.107 A 
ATOM     90  C   UNL     1       5.843   9.754   0.544  1.00  0.00     0.199 A 
ATOM     91  C   UNL     1       5.605   9.551   2.656  1.00  0.00     0.130 A 
ATOM     92  N   UNL     1       5.324  10.363   1.586  1.00  0.00    -0.245 NA
ENDBRANCH  87  88
ENDBRANCH  86  87
ENDBRANCH  85  86
ENDBRANCH  83  85
ENDBRANCH  75  81
ENDBRANCH  72  74
ENDBRANCH  71  72
ENDBRANCH  70  71
ENDBRANCH   1  70
TORSDOF 22
