REMARK SMILES Cc1cc(N(C)C(C)C)cc(C(=O)OCCOCCOC(=O)c2ccc(-c3c4nc(c(-c5ccc(S(=O)(=O)[O-])cc5)c5ccc([nH]5)c(-c5ccc(S(=O)(=O)[O-])cc5)c5nc(c(-c6ccc(S(=O)(=O)[O-])cc6)c6ccc3[nH]6)C=C5)C=C4)cc2)c1N
REMARK SMILES IDX 18 1 17 2 16 3 15 4 14 5 12 6 13 7 11 8 1 9 2 10 3 11 83 12
REMARK SMILES IDX 4 13 10 14 84 15 5 18 6 19 7 20 8 21 9 22 19 23 20 24 21 25
REMARK SMILES IDX 22 26 23 27 24 28 82 29 25 30 81 31 26 32 27 33 28 34 75 35
REMARK SMILES IDX 29 36 80 37 74 38 76 39 30 40 79 41 73 42 72 43 31 45 61 46
REMARK SMILES IDX 42 47 60 48 43 49 46 50 59 51 77 52 44 53 45 54 58 56 78 57
REMARK SMILES IDX 47 58 32 59 33 60 41 61 34 62 40 63 35 64 36 65 37 66 38 67
REMARK SMILES IDX 39 68 62 69 63 70 71 71 64 72 70 73 65 74 66 75 67 76 68 77
REMARK SMILES IDX 69 78 48 79 49 80 57 81 50 82 56 83 51 84 52 85 53 86 54 87
REMARK SMILES IDX 55 88
REMARK H PARENT 84 16 84 17 76 44 46 55
REMARK Flexibility Score: inf
ROOT
ATOM      1  C   UNL     1       0.117  -3.720  -1.877  1.00  0.00     0.202 C 
ENDROOT
BRANCH   1   2
ATOM      2  O   UNL     1       0.224  -4.956  -1.165  1.00  0.00    -0.374 OA
BRANCH   2   3
ATOM      3  C   UNL     1      -0.960  -5.423  -0.516  1.00  0.00     0.202 C 
BRANCH   3   4
ATOM      4  C   UNL     1      -1.248  -4.825   0.864  1.00  0.00     0.261 C 
BRANCH   4   5
ATOM      5  O   UNL     1      -1.438  -3.402   0.784  1.00  0.00    -0.460 OA
BRANCH   5   6
ATOM      6  C   UNL     1      -0.457  -2.666   1.363  1.00  0.00     0.340 C 
ATOM      7  O   UNL     1       0.446  -3.094   2.069  1.00  0.00    -0.246 OA
BRANCH   6   8
ATOM      8  C   UNL     1      -0.500  -1.262   0.879  1.00  0.00     0.085 A 
ATOM      9  C   UNL     1       1.925   1.485  -0.144  1.00  0.00     0.047 C 
ATOM     10  C   UNL     1       0.674   0.714   0.177  1.00  0.00    -0.025 A 
ATOM     11  C   UNL     1      -0.574   1.356   0.033  1.00  0.00     0.031 A 
ATOM     12  C   UNL     1       0.722  -0.619   0.598  1.00  0.00     0.049 A 
ATOM     13  C   UNL     1      -1.811   0.739   0.279  1.00  0.00     0.038 A 
ATOM     14  C   UNL     1      -1.733  -0.594   0.721  1.00  0.00     0.043 A 
BRANCH  12  15
ATOM     15  N   UNL     1       1.927  -1.327   0.553  1.00  0.00    -0.398 N 
ATOM     16  H   UNL     1       2.768  -0.856   0.355  1.00  0.00     0.156 HD
ATOM     17  H   UNL     1       1.934  -2.298   0.720  1.00  0.00     0.156 HD
ENDBRANCH  12  15
BRANCH  13  18
ATOM     18  N   UNL     1      -3.022   1.395   0.080  1.00  0.00    -0.372 N 
ATOM     19  C   UNL     1      -4.267   0.618   0.037  1.00  0.00     0.144 C 
BRANCH  18  20
ATOM     20  C   UNL     1      -3.215   2.866   0.053  1.00  0.00     0.075 C 
ATOM     21  C   UNL     1      -2.613   3.576   1.264  1.00  0.00     0.030 C 
ATOM     22  C   UNL     1      -2.828   3.486  -1.290  1.00  0.00     0.030 C 
ENDBRANCH  18  20
ENDBRANCH  13  18
ENDBRANCH   6   8
ENDBRANCH   5   6
ENDBRANCH   4   5
ENDBRANCH   3   4
ENDBRANCH   2   3
ENDBRANCH   1   2
BRANCH   1  23
ATOM     23  C   UNL     1      -0.515  -3.799  -3.272  1.00  0.00     0.261 C 
BRANCH  23  24
ATOM     24  O   UNL     1      -1.920  -4.108  -3.207  1.00  0.00    -0.460 OA
BRANCH  24  25
ATOM     25  C   UNL     1      -2.254  -5.347  -3.635  1.00  0.00     0.338 C 
ATOM     26  O   UNL     1      -1.514  -6.175  -4.151  1.00  0.00    -0.246 OA
BRANCH  25  27
ATOM     27  C   UNL     1      -3.636  -5.666  -3.225  1.00  0.00     0.060 A 
ATOM     28  C   UNL     1      -3.849  -6.884  -2.566  1.00  0.00     0.016 A 
ATOM     29  C   UNL     1      -4.710  -4.823  -3.520  1.00  0.00     0.016 A 
ATOM     30  C   UNL     1      -5.144  -7.288  -2.246  1.00  0.00     0.010 A 
ATOM     31  C   UNL     1      -6.010  -5.235  -3.206  1.00  0.00     0.010 A 
ATOM     32  C   UNL     1      -6.235  -6.485  -2.599  1.00  0.00    -0.014 A 
BRANCH  32  33
ATOM     33  C   UNL     1      -7.612  -7.020  -2.465  1.00  0.00     0.031 A 
ATOM     34  C   UNL     1      -8.297  -7.583  -3.681  1.00  0.00     0.074 A 
ATOM     35  C   UNL     1      -8.233  -7.034  -1.271  1.00  0.00     0.049 A 
ATOM     36  N   UNL     1      -9.501  -8.080  -3.796  1.00  0.00    -0.248 NA
ATOM     37  C   UNL     1      -7.520  -7.587  -4.932  1.00  0.00     0.031 C 
ATOM     38  C   UNL     1      -7.660  -6.556  -0.013  1.00  0.00     0.029 A 
ATOM     39  N   UNL     1      -9.489  -7.465  -0.927  1.00  0.00    -0.354 N 
ATOM     40  C   UNL     1      -9.629  -8.452  -5.130  1.00  0.00     0.074 A 
ATOM     41  C   UNL     1      -8.392  -8.096  -5.790  1.00  0.00     0.031 C 
ATOM     42  C   UNL     1      -8.567  -6.713   0.966  1.00  0.00     0.029 A 
ATOM     43  C   UNL     1      -9.793  -7.272   0.400  1.00  0.00     0.049 A 
ATOM     44  H   UNL     1     -10.113  -7.875  -1.569  1.00  0.00     0.167 HD
ATOM     45  C   UNL     1     -10.679  -9.044  -5.748  1.00  0.00     0.031 A 
ATOM     46  C   UNL     1     -10.937  -7.501   1.075  1.00  0.00     0.031 A 
ATOM     47  C   UNL     1     -11.915  -9.384  -5.094  1.00  0.00     0.049 A 
ATOM     48  C   UNL     1     -12.117  -8.094   0.351  1.00  0.00     0.074 A 
ATOM     49  C   UNL     1     -13.036  -9.991  -5.633  1.00  0.00     0.029 A 
ATOM     50  N   UNL     1     -12.194  -9.143  -3.757  1.00  0.00    -0.354 N 
ATOM     51  N   UNL     1     -12.216  -8.456  -0.906  1.00  0.00    -0.248 NA
ATOM     52  C   UNL     1     -13.338  -8.317   1.140  1.00  0.00     0.031 C 
ATOM     53  C   UNL     1     -14.012 -10.069  -4.635  1.00  0.00     0.029 A 
ATOM     54  C   UNL     1     -13.479  -9.566  -3.460  1.00  0.00     0.049 A 
ATOM     55  H   UNL     1     -11.572  -8.731  -3.115  1.00  0.00     0.167 HD
ATOM     56  C   UNL     1     -13.500  -8.973  -1.052  1.00  0.00     0.074 A 
ATOM     57  C   UNL     1     -14.135  -8.889   0.247  1.00  0.00     0.031 C 
ATOM     58  C   UNL     1     -14.098  -9.475  -2.162  1.00  0.00     0.031 A 
BRANCH  45  59
ATOM     59  C   UNL     1     -10.545  -9.333  -7.219  1.00  0.00    -0.014 A 
ATOM     60  C   UNL     1      -9.707 -10.361  -7.685  1.00  0.00     0.010 A 
ATOM     61  C   UNL     1     -11.298  -8.590  -8.147  1.00  0.00     0.010 A 
ATOM     62  C   UNL     1      -9.596 -10.618  -9.055  1.00  0.00     0.020 A 
ATOM     63  C   UNL     1     -11.209  -8.860  -9.516  1.00  0.00     0.020 A 
ATOM     64  C   UNL     1     -10.346  -9.863  -9.962  1.00  0.00     0.054 A 
BRANCH  64  65
ATOM     65  S   UNL     1     -10.201 -10.232 -11.732  1.00  0.00     0.124 S 
ATOM     66  O   UNL     1      -8.880  -9.692 -12.044  1.00  0.00    -0.237 OA
ATOM     67  O   UNL     1     -10.308 -11.688 -11.766  1.00  0.00    -0.237 OA
ATOM     68  O   UNL     1     -11.324  -9.514 -12.329  1.00  0.00    -0.744 OA
ENDBRANCH  64  65
ENDBRANCH  45  59
BRANCH  46  69
ATOM     69  C   UNL     1     -11.031  -7.145   2.518  1.00  0.00    -0.014 A 
ATOM     70  C   UNL     1     -11.110  -8.143   3.504  1.00  0.00     0.010 A 
ATOM     71  C   UNL     1     -11.043  -5.793   2.910  1.00  0.00     0.010 A 
ATOM     72  C   UNL     1     -11.216  -7.796   4.855  1.00  0.00     0.020 A 
ATOM     73  C   UNL     1     -11.122  -5.443   4.260  1.00  0.00     0.020 A 
ATOM     74  C   UNL     1     -11.220  -6.448   5.224  1.00  0.00     0.054 A 
BRANCH  74  75
ATOM     75  S   UNL     1     -11.307  -6.020   6.986  1.00  0.00     0.124 S 
ATOM     76  O   UNL     1     -12.707  -6.290   7.294  1.00  0.00    -0.237 OA
ATOM     77  O   UNL     1     -10.338  -6.936   7.582  1.00  0.00    -0.237 OA
ATOM     78  O   UNL     1     -10.919  -4.611   7.013  1.00  0.00    -0.744 OA
ENDBRANCH  74  75
ENDBRANCH  46  69
BRANCH  58  79
ATOM     79  C   UNL     1     -15.500 -10.004  -2.017  1.00  0.00    -0.014 A 
ATOM     80  C   UNL     1     -16.595  -9.137  -1.856  1.00  0.00     0.010 A 
ATOM     81  C   UNL     1     -15.730 -11.390  -2.102  1.00  0.00     0.010 A 
ATOM     82  C   UNL     1     -17.892  -9.649  -1.752  1.00  0.00     0.020 A 
ATOM     83  C   UNL     1     -17.027 -11.903  -2.026  1.00  0.00     0.020 A 
ATOM     84  C   UNL     1     -18.099 -11.030  -1.837  1.00  0.00     0.054 A 
BRANCH  84  85
ATOM     85  S   UNL     1     -19.796 -11.666  -1.743  1.00  0.00     0.124 S 
ATOM     86  O   UNL     1     -20.095 -11.525  -0.321  1.00  0.00    -0.237 OA
ATOM     87  O   UNL     1     -20.526 -10.766  -2.632  1.00  0.00    -0.237 OA
ATOM     88  O   UNL     1     -19.676 -13.042  -2.222  1.00  0.00    -0.744 OA
ENDBRANCH  84  85
ENDBRANCH  58  79
ENDBRANCH  32  33
ENDBRANCH  25  27
ENDBRANCH  24  25
ENDBRANCH  23  24
ENDBRANCH   1  23
TORSDOF 20
