REMARK SMILES Cc1cc([N+](=O)[O-])ccc1NC(=O)[C@@H]1[C@@H](C(=O)OCCOCCOC(=O)c2ccc(-c3c4nc(c(-c5ccc(S(=O)(=O)[O-])cc5)c5ccc([nH]5)c(-c5ccc(S(=O)(=O)[O-])cc5)c5nc(c(-c6ccc(S(=O)(=O)[O-])cc6)c6ccc3[nH]6)C=C5)C=C4)cc2)[C@H]2C=C[C@@H]1C2
REMARK SMILES IDX 21 1 20 2 19 3 18 4 16 5 17 6 15 7 14 8 90 9 87 10 89 11
REMARK SMILES IDX 91 12 88 13 12 14 11 15 13 17 10 18 1 19 2 20 3 21 4 22 9 23
REMARK SMILES IDX 8 24 5 25 6 26 7 27 22 28 23 29 24 30 25 31 26 32 27 33
REMARK SMILES IDX 28 34 86 35 29 36 85 37 30 38 31 39 32 40 79 41 33 42 84 43
REMARK SMILES IDX 78 44 80 45 34 46 83 47 77 48 76 49 35 51 65 52 46 53 64 54
REMARK SMILES IDX 47 55 50 56 63 57 81 58 48 59 49 60 62 62 82 63 51 64 36 65
REMARK SMILES IDX 37 66 45 67 38 68 44 69 39 70 40 71 41 72 42 73 43 74 66 75
REMARK SMILES IDX 67 76 75 77 68 78 74 79 69 80 70 81 71 82 72 83 73 84 52 85
REMARK SMILES IDX 53 86 61 87 54 88 60 89 55 90 56 91 57 92 58 93 59 94
REMARK H PARENT 11 16 80 50 50 61
REMARK Flexibility Score: inf
ROOT
ATOM      1  O   UNL     1       0.021   5.397  -3.573  1.00  0.00    -0.374 OA
ENDROOT
BRANCH   1   2
ATOM      2  C   UNL     1      -1.339   5.679  -3.792  1.00  0.00     0.202 C 
BRANCH   2   3
ATOM      3  C   UNL     1      -2.286   5.323  -2.631  1.00  0.00     0.261 C 
BRANCH   3   4
ATOM      4  O   UNL     1      -1.851   5.548  -1.299  1.00  0.00    -0.463 OA
BRANCH   4   5
ATOM      5  C   UNL     1      -2.253   4.579  -0.458  1.00  0.00     0.310 C 
ATOM      6  O   UNL     1      -2.953   3.632  -0.793  1.00  0.00    -0.252 OA
BRANCH   5   7
ATOM      7  C   UNL     1      -1.442   4.626   0.804  1.00  0.00     0.119 C 
ATOM      8  C   UNL     1      -0.639   3.313   0.739  1.00  0.00     0.100 C 
ATOM      9  C   UNL     1      -0.865   2.664   2.108  1.00  0.00     0.025 C 
ATOM     10  C   UNL     1      -2.249   4.433   2.109  1.00  0.00     0.027 C 
ATOM     11  C   UNL     1      -2.267   2.113   2.050  1.00  0.00    -0.027 C 
ATOM     12  C   UNL     1      -1.133   3.880   3.003  1.00  0.00     0.017 C 
ATOM     13  C   UNL     1      -3.090   3.169   2.064  1.00  0.00    -0.027 C 
BRANCH   8  14
ATOM     14  C   UNL     1       0.760   3.279   0.207  1.00  0.00     0.228 C 
ATOM     15  N   UNL     1       1.204   2.082  -0.333  1.00  0.00    -0.326 N 
ATOM     16  H   UNL     1       2.120   2.102  -0.693  1.00  0.00     0.169 HD
ATOM     17  O   UNL     1       1.523   4.240   0.295  1.00  0.00    -0.274 OA
BRANCH  15  18
ATOM     18  C   UNL     1       0.538   0.827  -0.447  1.00  0.00     0.044 A 
ATOM     19  C   UNL     1       2.735  -0.396   0.050  1.00  0.00     0.047 C 
ATOM     20  C   UNL     1       1.244  -0.347  -0.139  1.00  0.00    -0.021 A 
ATOM     21  C   UNL     1       0.536  -1.564  -0.006  1.00  0.00     0.091 A 
ATOM     22  C   UNL     1      -0.853  -1.615  -0.185  1.00  0.00     0.269 A 
ATOM     23  C   UNL     1      -0.816   0.695  -0.813  1.00  0.00     0.033 A 
ATOM     24  C   UNL     1      -1.533  -0.489  -0.621  1.00  0.00     0.088 A 
BRANCH  22  25
ATOM     25  N   UNL     1      -1.592  -2.849   0.097  1.00  0.00     0.062 N 
ATOM     26  O   UNL     1      -0.929  -3.882   0.276  1.00  0.00    -0.258 OA
ATOM     27  O   UNL     1      -2.824  -2.772   0.205  1.00  0.00    -0.258 OA
ENDBRANCH  22  25
ENDBRANCH  15  18
ENDBRANCH   8  14
ENDBRANCH   5   7
ENDBRANCH   4   5
ENDBRANCH   3   4
ENDBRANCH   2   3
ENDBRANCH   1   2
BRANCH   1  28
ATOM     28  C   UNL     1       0.470   6.085  -2.413  1.00  0.00     0.202 C 
BRANCH  28  29
ATOM     29  C   UNL     1       0.058   7.679  -2.250  1.00  0.00     0.261 C 
BRANCH  29  30
ATOM     30  O   UNL     1      -1.528   7.827  -2.313  1.00  0.00    -0.460 OA
BRANCH  30  31
ATOM     31  C   UNL     1      -2.692   8.547  -2.508  1.00  0.00     0.338 C 
ATOM     32  O   UNL     1      -3.270   8.690  -1.402  1.00  0.00    -0.246 OA
BRANCH  31  33
ATOM     33  C   UNL     1      -3.707   8.398  -3.738  1.00  0.00     0.060 A 
ATOM     34  C   UNL     1      -5.070   8.498  -3.425  1.00  0.00     0.016 A 
ATOM     35  C   UNL     1      -3.579   7.418  -4.680  1.00  0.00     0.016 A 
ATOM     36  C   UNL     1      -5.881   7.378  -3.209  1.00  0.00     0.010 A 
ATOM     37  C   UNL     1      -4.359   6.259  -4.514  1.00  0.00     0.010 A 
ATOM     38  C   UNL     1      -5.321   6.170  -3.504  1.00  0.00    -0.014 A 
BRANCH  38  39
ATOM     39  C   UNL     1      -5.522   4.961  -2.643  1.00  0.00     0.031 A 
ATOM     40  C   UNL     1      -5.784   3.666  -3.359  1.00  0.00     0.074 A 
ATOM     41  C   UNL     1      -5.375   5.140  -1.286  1.00  0.00     0.049 A 
ATOM     42  N   UNL     1      -6.782   2.861  -3.185  1.00  0.00    -0.248 NA
ATOM     43  C   UNL     1      -5.004   3.245  -4.542  1.00  0.00     0.031 C 
ATOM     44  C   UNL     1      -5.494   4.228  -0.139  1.00  0.00     0.029 A 
ATOM     45  N   UNL     1      -5.133   6.357  -0.623  1.00  0.00    -0.354 N 
ATOM     46  C   UNL     1      -6.495   1.728  -3.952  1.00  0.00     0.074 A 
ATOM     47  C   UNL     1      -5.673   2.195  -5.010  1.00  0.00     0.031 C 
ATOM     48  C   UNL     1      -5.600   4.927   1.018  1.00  0.00     0.029 A 
ATOM     49  C   UNL     1      -5.648   6.335   0.675  1.00  0.00     0.049 A 
ATOM     50  H   UNL     1      -4.662   7.123  -1.022  1.00  0.00     0.167 HD
ATOM     51  C   UNL     1      -6.543   0.464  -3.425  1.00  0.00     0.031 A 
ATOM     52  C   UNL     1      -6.747   7.110   0.915  1.00  0.00     0.031 A 
ATOM     53  C   UNL     1      -6.892   0.582  -2.007  1.00  0.00     0.049 A 
ATOM     54  C   UNL     1      -7.952   6.113   0.787  1.00  0.00     0.074 A 
ATOM     55  C   UNL     1      -6.175   0.414  -0.838  1.00  0.00     0.029 A 
ATOM     56  N   UNL     1      -7.998   1.357  -1.666  1.00  0.00    -0.354 N 
ATOM     57  N   UNL     1      -8.044   5.116  -0.085  1.00  0.00    -0.248 NA
ATOM     58  C   UNL     1      -8.874   5.927   1.915  1.00  0.00     0.031 C 
ATOM     59  C   UNL     1      -6.827   1.194   0.178  1.00  0.00     0.029 A 
ATOM     60  C   UNL     1      -7.883   1.905  -0.397  1.00  0.00     0.049 A 
ATOM     61  H   UNL     1      -8.773   1.498  -2.257  1.00  0.00     0.167 HD
ATOM     62  C   UNL     1      -8.835   4.104   0.443  1.00  0.00     0.074 A 
ATOM     63  C   UNL     1      -9.361   4.699   1.673  1.00  0.00     0.031 C 
ATOM     64  C   UNL     1      -8.965   2.770   0.098  1.00  0.00     0.031 A 
BRANCH  51  65
ATOM     65  C   UNL     1      -5.972  -0.814  -4.079  1.00  0.00    -0.014 A 
ATOM     66  C   UNL     1      -5.933  -2.013  -3.336  1.00  0.00     0.010 A 
ATOM     67  C   UNL     1      -5.497  -0.937  -5.410  1.00  0.00     0.010 A 
ATOM     68  C   UNL     1      -5.457  -3.232  -3.870  1.00  0.00     0.020 A 
ATOM     69  C   UNL     1      -4.998  -2.143  -5.955  1.00  0.00     0.020 A 
ATOM     70  C   UNL     1      -4.995  -3.293  -5.182  1.00  0.00     0.054 A 
BRANCH  70  71
ATOM     71  S   UNL     1      -4.452  -4.887  -5.870  1.00  0.00     0.124 S 
ATOM     72  O   UNL     1      -3.344  -5.251  -4.991  1.00  0.00    -0.237 OA
ATOM     73  O   UNL     1      -5.652  -5.709  -5.748  1.00  0.00    -0.237 OA
ATOM     74  O   UNL     1      -4.064  -4.562  -7.242  1.00  0.00    -0.744 OA
ENDBRANCH  70  71
ENDBRANCH  51  65
BRANCH  52  75
ATOM     75  C   UNL     1      -6.502   8.548   0.443  1.00  0.00    -0.014 A 
ATOM     76  C   UNL     1      -5.343   9.240   0.928  1.00  0.00     0.010 A 
ATOM     77  C   UNL     1      -7.126   9.135  -0.662  1.00  0.00     0.010 A 
ATOM     78  C   UNL     1      -4.744  10.333   0.242  1.00  0.00     0.020 A 
ATOM     79  C   UNL     1      -6.538  10.245  -1.346  1.00  0.00     0.020 A 
ATOM     80  C   UNL     1      -5.312  10.797  -0.940  1.00  0.00     0.054 A 
BRANCH  80  81
ATOM     81  S   UNL     1      -4.324  11.884  -2.091  1.00  0.00     0.124 S 
ATOM     82  O   UNL     1      -4.819  13.217  -1.762  1.00  0.00    -0.237 OA
ATOM     83  O   UNL     1      -2.927  11.641  -1.739  1.00  0.00    -0.237 OA
ATOM     84  O   UNL     1      -4.683  11.431  -3.435  1.00  0.00    -0.744 OA
ENDBRANCH  80  81
ENDBRANCH  52  75
BRANCH  64  85
ATOM     85  C   UNL     1     -10.353   2.139   0.139  1.00  0.00    -0.014 A 
ATOM     86  C   UNL     1     -11.506   2.886   0.414  1.00  0.00     0.010 A 
ATOM     87  C   UNL     1     -10.552   0.799  -0.288  1.00  0.00     0.010 A 
ATOM     88  C   UNL     1     -12.772   2.311   0.372  1.00  0.00     0.020 A 
ATOM     89  C   UNL     1     -11.821   0.243  -0.436  1.00  0.00     0.020 A 
ATOM     90  C   UNL     1     -12.921   0.994  -0.055  1.00  0.00     0.054 A 
BRANCH  90  91
ATOM     91  S   UNL     1     -14.579   0.299  -0.104  1.00  0.00     0.124 S 
ATOM     92  O   UNL     1     -14.852   0.096   1.316  1.00  0.00    -0.237 OA
ATOM     93  O   UNL     1     -15.350   1.362  -0.746  1.00  0.00    -0.237 OA
ATOM     94  O   UNL     1     -14.425  -0.919  -0.894  1.00  0.00    -0.744 OA
ENDBRANCH  90  91
ENDBRANCH  64  85
ENDBRANCH  38  39
ENDBRANCH  31  33
ENDBRANCH  30  31
ENDBRANCH  29  30
ENDBRANCH  28  29
ENDBRANCH   1  28
TORSDOF 20
