REMARK SMILES Cc1noc(C)c1[C@@H](C)NC(=O)N(CC(=O)OCCOCCOC(=O)c1ccc(-c2c3nc(c(-c4ccc(S(=O)(=O)[O-])cc4)c4ccc([nH]4)c(-c4ccc(S(=O)(=O)[O-])cc4)c4nc(c(-c5ccc(S(=O)(=O)[O-])cc5)c5ccc2[nH]5)C=C4)C=C3)cc1)C(C)C
REMARK SMILES IDX 19 1 18 2 17 3 15 4 16 5 14 6 13 7 11 8 10 9 12 11 8 12 9 13
REMARK SMILES IDX 7 14 1 15 2 16 3 17 4 18 5 19 6 20 86 21 87 22 88 23 20 24
REMARK SMILES IDX 21 25 22 26 23 27 24 28 25 29 26 30 27 31 85 32 28 33 84 34
REMARK SMILES IDX 29 35 30 36 31 37 78 38 32 39 83 40 77 41 79 42 33 43 82 44
REMARK SMILES IDX 76 45 75 46 34 48 64 49 45 50 63 51 46 52 49 53 62 54 80 55
REMARK SMILES IDX 47 56 48 57 61 59 81 60 50 61 35 62 36 63 44 64 37 65 43 66
REMARK SMILES IDX 38 67 39 68 40 69 41 70 42 71 65 72 66 73 74 74 67 75 73 76
REMARK SMILES IDX 68 77 69 78 70 79 71 80 72 81 51 82 52 83 60 84 53 85 59 86
REMARK SMILES IDX 54 87 55 88 56 89 57 90 58 91
REMARK H PARENT 10 10 79 47 49 58
REMARK Flexibility Score: inf
ROOT
ATOM      1  C   UNL     1       3.255   7.406  -1.272  1.00  0.00     0.202 C 
ENDROOT
BRANCH   1   2
ATOM      2  C   UNL     1       2.389   6.177  -1.578  1.00  0.00     0.261 C 
BRANCH   2   3
ATOM      3  O   UNL     1       2.016   5.449  -0.394  1.00  0.00    -0.462 OA
BRANCH   3   4
ATOM      4  C   UNL     1       2.600   4.230  -0.246  1.00  0.00     0.325 C 
ATOM      5  O   UNL     1       3.355   3.706  -1.061  1.00  0.00    -0.250 OA
BRANCH   4   6
ATOM      6  C   UNL     1       2.322   3.580   1.109  1.00  0.00     0.244 C 
BRANCH   6   7
ATOM      7  N   UNL     1       1.259   4.114   1.957  1.00  0.00    -0.311 N 
BRANCH   7   8
ATOM      8  C   UNL     1      -0.042   3.692   1.937  1.00  0.00     0.318 C 
ATOM      9  N   UNL     1      -0.571   2.927   0.971  1.00  0.00    -0.331 N 
ATOM     10  H   UNL     1      -1.490   2.665   1.208  1.00  0.00     0.165 HD
ATOM     11  O   UNL     1      -0.834   3.972   2.841  1.00  0.00    -0.249 OA
BRANCH   9  12
ATOM     12  C   UNL     1      -0.204   2.364  -0.322  1.00  0.00     0.116 C 
ATOM     13  C   UNL     1      -1.111   2.923  -1.416  1.00  0.00     0.036 C 
BRANCH  12  14
ATOM     14  C   UNL     1      -0.234   0.869  -0.200  1.00  0.00     0.040 A 
ATOM     15  C   UNL     1      -2.800   0.301  -0.014  1.00  0.00     0.071 C 
ATOM     16  C   UNL     1      -1.351  -0.012  -0.061  1.00  0.00     0.086 A 
ATOM     17  N   UNL     1      -0.963  -1.289   0.037  1.00  0.00    -0.085 NA
ATOM     18  O   UNL     1       0.409  -1.274  -0.035  1.00  0.00    -0.361 OA
ATOM     19  C   UNL     1       0.846   0.002  -0.183  1.00  0.00     0.139 A 
ATOM     20  C   UNL     1       2.312   0.152  -0.270  1.00  0.00     0.091 C 
ENDBRANCH  12  14
ENDBRANCH   9  12
ENDBRANCH   7   8
BRANCH   7  21
ATOM     21  C   UNL     1       1.726   4.941   3.095  1.00  0.00     0.081 C 
ATOM     22  C   UNL     1       0.888   6.193   3.368  1.00  0.00     0.031 C 
ATOM     23  C   UNL     1       1.903   4.096   4.361  1.00  0.00     0.031 C 
ENDBRANCH   7  21
ENDBRANCH   6   7
ENDBRANCH   4   6
ENDBRANCH   3   4
ENDBRANCH   2   3
ENDBRANCH   1   2
BRANCH   1  24
ATOM     24  O   UNL     1       4.480   7.172  -0.579  1.00  0.00    -0.374 OA
BRANCH  24  25
ATOM     25  C   UNL     1       4.408   6.898   0.820  1.00  0.00     0.202 C 
BRANCH  25  26
ATOM     26  C   UNL     1       3.995   8.054   1.738  1.00  0.00     0.261 C 
BRANCH  26  27
ATOM     27  O   UNL     1       2.635   8.463   1.509  1.00  0.00    -0.460 OA
BRANCH  27  28
ATOM     28  C   UNL     1       2.485   9.786   1.263  1.00  0.00     0.338 C 
ATOM     29  O   UNL     1       3.351  10.647   1.338  1.00  0.00    -0.246 OA
BRANCH  28  30
ATOM     30  C   UNL     1       1.154  10.067   0.695  1.00  0.00     0.060 A 
ATOM     31  C   UNL     1       1.117  10.725  -0.540  1.00  0.00     0.016 A 
ATOM     32  C   UNL     1      -0.026   9.800   1.392  1.00  0.00     0.016 A 
ATOM     33  C   UNL     1      -0.095  11.181  -1.052  1.00  0.00     0.010 A 
ATOM     34  C   UNL     1      -1.245  10.263   0.877  1.00  0.00     0.010 A 
ATOM     35  C   UNL     1      -1.278  10.994  -0.324  1.00  0.00    -0.014 A 
BRANCH  35  36
ATOM     36  C   UNL     1      -2.509  11.696  -0.768  1.00  0.00     0.031 A 
ATOM     37  C   UNL     1      -2.898  12.992  -0.109  1.00  0.00     0.074 A 
ATOM     38  C   UNL     1      -3.236  11.222  -1.795  1.00  0.00     0.049 A 
ATOM     39  N   UNL     1      -3.884  13.803  -0.397  1.00  0.00    -0.248 NA
ATOM     40  C   UNL     1      -2.064  13.432   1.020  1.00  0.00     0.031 C 
ATOM     41  C   UNL     1      -2.952   9.992  -2.533  1.00  0.00     0.029 A 
ATOM     42  N   UNL     1      -4.363  11.725  -2.395  1.00  0.00    -0.354 N 
ATOM     43  C   UNL     1      -3.789  14.851   0.511  1.00  0.00     0.074 A 
ATOM     44  C   UNL     1      -2.672  14.553   1.382  1.00  0.00     0.031 C 
ATOM     45  C   UNL     1      -3.886   9.833  -3.485  1.00  0.00     0.029 A 
ATOM     46  C   UNL     1      -4.842  10.937  -3.412  1.00  0.00     0.049 A 
ATOM     47  H   UNL     1      -4.788  12.570  -2.122  1.00  0.00     0.167 HD
ATOM     48  C   UNL     1      -4.553  15.966   0.608  1.00  0.00     0.031 A 
ATOM     49  C   UNL     1      -5.934  11.079  -4.190  1.00  0.00     0.031 A 
ATOM     50  C   UNL     1      -5.683  16.250  -0.237  1.00  0.00     0.049 A 
ATOM     51  C   UNL     1      -6.807  12.292  -4.031  1.00  0.00     0.074 A 
ATOM     52  C   UNL     1      -6.508  17.361  -0.229  1.00  0.00     0.029 A 
ATOM     53  N   UNL     1      -6.159  15.406  -1.230  1.00  0.00    -0.354 N 
ATOM     54  N   UNL     1      -6.673  13.300  -3.201  1.00  0.00    -0.248 NA
ATOM     55  C   UNL     1      -7.971  12.396  -4.921  1.00  0.00     0.031 C 
ATOM     56  C   UNL     1      -7.517  17.163  -1.180  1.00  0.00     0.029 A 
ATOM     57  C   UNL     1      -7.286  15.955  -1.819  1.00  0.00     0.049 A 
ATOM     58  H   UNL     1      -5.754  14.544  -1.480  1.00  0.00     0.167 HD
ATOM     59  C   UNL     1      -7.728  14.162  -3.476  1.00  0.00     0.074 A 
ATOM     60  C   UNL     1      -8.481  13.567  -4.562  1.00  0.00     0.031 C 
ATOM     61  C   UNL     1      -8.042  15.342  -2.884  1.00  0.00     0.031 A 
BRANCH  48  62
ATOM     62  C   UNL     1      -4.206  16.938   1.706  1.00  0.00    -0.014 A 
ATOM     63  C   UNL     1      -3.037  17.719   1.645  1.00  0.00     0.010 A 
ATOM     64  C   UNL     1      -5.054  17.062   2.821  1.00  0.00     0.010 A 
ATOM     65  C   UNL     1      -2.691  18.558   2.708  1.00  0.00     0.020 A 
ATOM     66  C   UNL     1      -4.725  17.920   3.874  1.00  0.00     0.020 A 
ATOM     67  C   UNL     1      -3.531  18.642   3.822  1.00  0.00     0.054 A 
BRANCH  67  68
ATOM     68  S   UNL     1      -3.045  19.713   5.204  1.00  0.00     0.124 S 
ATOM     69  O   UNL     1      -1.995  18.922   5.840  1.00  0.00    -0.237 OA
ATOM     70  O   UNL     1      -2.594  20.927   4.528  1.00  0.00    -0.237 OA
ATOM     71  O   UNL     1      -4.274  19.856   5.979  1.00  0.00    -0.744 OA
ENDBRANCH  67  68
ENDBRANCH  48  62
BRANCH  49  72
ATOM     72  C   UNL     1      -6.257  10.018  -5.181  1.00  0.00    -0.014 A 
ATOM     73  C   UNL     1      -6.051  10.224  -6.555  1.00  0.00     0.010 A 
ATOM     74  C   UNL     1      -6.715   8.763  -4.736  1.00  0.00     0.010 A 
ATOM     75  C   UNL     1      -6.283   9.189  -7.466  1.00  0.00     0.020 A 
ATOM     76  C   UNL     1      -6.926   7.721  -5.640  1.00  0.00     0.020 A 
ATOM     77  C   UNL     1      -6.709   7.940  -7.001  1.00  0.00     0.054 A 
BRANCH  77  78
ATOM     78  S   UNL     1      -6.893   6.578  -8.186  1.00  0.00     0.124 S 
ATOM     79  O   UNL     1      -8.142   6.923  -8.856  1.00  0.00    -0.237 OA
ATOM     80  O   UNL     1      -5.684   6.699  -8.996  1.00  0.00    -0.237 OA
ATOM     81  O   UNL     1      -6.943   5.391  -7.334  1.00  0.00    -0.744 OA
ENDBRANCH  77  78
ENDBRANCH  49  72
BRANCH  61  82
ATOM     82  C   UNL     1      -9.254  16.075  -3.398  1.00  0.00    -0.014 A 
ATOM     83  C   UNL     1     -10.553  15.621  -3.110  1.00  0.00     0.010 A 
ATOM     84  C   UNL     1      -9.091  17.266  -4.130  1.00  0.00     0.010 A 
ATOM     85  C   UNL     1     -11.668  16.328  -3.570  1.00  0.00     0.020 A 
ATOM     86  C   UNL     1     -10.203  17.989  -4.570  1.00  0.00     0.020 A 
ATOM     87  C   UNL     1     -11.486  17.507  -4.299  1.00  0.00     0.054 A 
BRANCH  87  88
ATOM     88  S   UNL     1     -12.947  18.431  -4.848  1.00  0.00     0.124 S 
ATOM     89  O   UNL     1     -13.421  17.615  -5.962  1.00  0.00    -0.237 OA
ATOM     90  O   UNL     1     -13.797  18.426  -3.660  1.00  0.00    -0.237 OA
ATOM     91  O   UNL     1     -12.412  19.739  -5.217  1.00  0.00    -0.744 OA
ENDBRANCH  87  88
ENDBRANCH  61  82
ENDBRANCH  35  36
ENDBRANCH  28  30
ENDBRANCH  27  28
ENDBRANCH  26  27
ENDBRANCH  25  26
ENDBRANCH  24  25
ENDBRANCH   1  24
TORSDOF 22
