REMARK SMILES CC(C)(C)OC(=O)N1C[C@H](c2ccc(C(F)(F)F)cc2)[C@H](C(=O)OCCOCCOC(=O)c2ccc(-c3c4nc(c(-c5ccc(S(=O)(=O)[O-])cc5)c5ccc([nH]5)c(-c5ccc(S(=O)(=O)[O-])cc5)c5nc(c(-c6ccc(S(=O)(=O)[O-])cc6)c6ccc3[nH]6)C=C5)C=C4)cc2)C1
REMARK SMILES IDX 27 1 26 2 25 3 24 4 22 5 23 6 21 7 8 8 9 9 93 10 10 11 6 12
REMARK SMILES IDX 7 13 5 14 2 15 1 16 3 17 4 18 11 19 12 20 20 21 13 22 19 23
REMARK SMILES IDX 14 24 15 25 16 26 17 27 18 28 28 29 29 30 30 31 31 32 32 33
REMARK SMILES IDX 33 34 34 35 92 36 35 37 91 38 36 39 37 40 38 41 85 42 39 43
REMARK SMILES IDX 90 44 84 45 86 46 40 47 89 48 83 49 82 50 41 52 71 53 52 54
REMARK SMILES IDX 70 55 53 56 56 57 69 58 87 59 54 60 55 61 68 63 88 64 57 65
REMARK SMILES IDX 42 66 43 67 51 68 44 69 50 70 45 71 46 72 47 73 48 74 49 75
REMARK SMILES IDX 72 76 73 77 81 78 74 79 80 80 75 81 76 82 77 83 78 84 79 85
REMARK SMILES IDX 58 86 59 87 67 88 60 89 66 90 61 91 62 92 63 93 64 94 65 95
REMARK H PARENT 86 51 56 62
REMARK Flexibility Score: inf
ROOT
ATOM      1  O   UNL     1       0.191   4.105  -9.416  1.00  0.00    -0.374 OA
ENDROOT
BRANCH   1   2
ATOM      2  C   UNL     1      -0.887   4.293  -8.493  1.00  0.00     0.202 C 
BRANCH   2   3
ATOM      3  C   UNL     1      -1.641   3.002  -8.172  1.00  0.00     0.261 C 
BRANCH   3   4
ATOM      4  O   UNL     1      -0.869   2.200  -7.259  1.00  0.00    -0.463 OA
BRANCH   4   5
ATOM      5  C   UNL     1      -0.096   1.237  -7.802  1.00  0.00     0.311 C 
ATOM      6  O   UNL     1      -0.115   0.898  -8.979  1.00  0.00    -0.252 OA
BRANCH   5   7
ATOM      7  C   UNL     1       0.805   0.577  -6.797  1.00  0.00     0.128 C 
ATOM      8  N   UNL     1       0.870  -0.430  -4.692  1.00  0.00    -0.307 N 
ATOM      9  C   UNL     1       2.129   0.273  -4.857  1.00  0.00     0.132 C 
ATOM     10  C   UNL     1       0.026  -0.317  -5.856  1.00  0.00     0.139 C 
ATOM     11  C   UNL     1       1.828   1.350  -5.922  1.00  0.00     0.055 C 
BRANCH   8  12
ATOM     12  C   UNL     1       0.386  -1.018  -3.555  1.00  0.00     0.410 C 
ATOM     13  O   UNL     1      -0.550  -1.798  -3.571  1.00  0.00    -0.224 OA
BRANCH  12  14
ATOM     14  O   UNL     1       1.019  -0.562  -2.446  1.00  0.00    -0.444 OA
BRANCH  14  15
ATOM     15  C   UNL     1       0.535  -0.942  -1.133  1.00  0.00     0.106 C 
ATOM     16  C   UNL     1       1.241   0.007  -0.153  1.00  0.00     0.056 C 
ATOM     17  C   UNL     1       0.965  -2.382  -0.848  1.00  0.00     0.056 C 
ATOM     18  C   UNL     1      -0.979  -0.743  -0.960  1.00  0.00     0.056 C 
ENDBRANCH  14  15
ENDBRANCH  12  14
ENDBRANCH   8  12
BRANCH  11  19
ATOM     19  C   UNL     1       1.633   2.654  -5.159  1.00  0.00    -0.042 A 
ATOM     20  C   UNL     1       0.412   3.182  -4.738  1.00  0.00     0.005 A 
ATOM     21  C   UNL     1       2.810   3.299  -4.712  1.00  0.00     0.005 A 
ATOM     22  C   UNL     1       0.365   4.310  -3.900  1.00  0.00     0.013 A 
ATOM     23  C   UNL     1       2.768   4.394  -3.848  1.00  0.00     0.013 A 
ATOM     24  C   UNL     1       1.542   4.904  -3.419  1.00  0.00     0.056 A 
BRANCH  24  25
ATOM     25  C   UNL     1       1.521   6.033  -2.417  1.00  0.00     0.416 C 
ATOM     26  F   UNL     1       2.292   7.086  -2.813  1.00  0.00    -0.166 F 
ATOM     27  F   UNL     1       0.282   6.538  -2.180  1.00  0.00    -0.166 F 
ATOM     28  F   UNL     1       2.013   5.656  -1.204  1.00  0.00    -0.166 F 
ENDBRANCH  24  25
ENDBRANCH  11  19
ENDBRANCH   5   7
ENDBRANCH   4   5
ENDBRANCH   3   4
ENDBRANCH   2   3
ENDBRANCH   1   2
BRANCH   1  29
ATOM     29  C   UNL     1       1.460   3.827  -8.828  1.00  0.00     0.202 C 
BRANCH  29  30
ATOM     30  C   UNL     1       2.320   5.061  -8.550  1.00  0.00     0.261 C 
BRANCH  30  31
ATOM     31  O   UNL     1       1.732   5.885  -7.533  1.00  0.00    -0.460 OA
BRANCH  31  32
ATOM     32  C   UNL     1       0.950   6.893  -7.997  1.00  0.00     0.338 C 
ATOM     33  O   UNL     1       0.774   7.212  -9.156  1.00  0.00    -0.246 OA
BRANCH  32  34
ATOM     34  C   UNL     1       0.195   7.477  -6.868  1.00  0.00     0.060 A 
ATOM     35  C   UNL     1      -1.145   7.824  -7.071  1.00  0.00     0.016 A 
ATOM     36  C   UNL     1       0.796   7.707  -5.632  1.00  0.00     0.016 A 
ATOM     37  C   UNL     1      -1.869   8.447  -6.051  1.00  0.00     0.010 A 
ATOM     38  C   UNL     1       0.056   8.303  -4.607  1.00  0.00     0.010 A 
ATOM     39  C   UNL     1      -1.269   8.716  -4.811  1.00  0.00    -0.014 A 
BRANCH  39  40
ATOM     40  C   UNL     1      -1.989   9.509  -3.772  1.00  0.00     0.031 A 
ATOM     41  C   UNL     1      -1.451  10.854  -3.336  1.00  0.00     0.074 A 
ATOM     42  C   UNL     1      -3.125   9.043  -3.215  1.00  0.00     0.049 A 
ATOM     43  N   UNL     1      -1.976  11.727  -2.511  1.00  0.00    -0.248 NA
ATOM     44  C   UNL     1      -0.138  11.257  -3.868  1.00  0.00     0.031 C 
ATOM     45  C   UNL     1      -3.724   7.732  -3.474  1.00  0.00     0.029 A 
ATOM     46  N   UNL     1      -3.987   9.628  -2.318  1.00  0.00    -0.354 N 
ATOM     47  C   UNL     1      -1.052  12.764  -2.416  1.00  0.00     0.074 A 
ATOM     48  C   UNL     1       0.096  12.377  -3.202  1.00  0.00     0.031 C 
ATOM     49  C   UNL     1      -4.878   7.633  -2.792  1.00  0.00     0.029 A 
ATOM     50  C   UNL     1      -5.093   8.863  -2.032  1.00  0.00     0.049 A 
ATOM     51  H   UNL     1      -3.828  10.514  -1.919  1.00  0.00     0.167 HD
ATOM     52  C   UNL     1      -1.157  13.951  -1.771  1.00  0.00     0.031 A 
ATOM     53  C   UNL     1      -6.170   9.126  -1.265  1.00  0.00     0.031 A 
ATOM     54  C   UNL     1      -2.308  14.358  -1.011  1.00  0.00     0.049 A 
ATOM     55  C   UNL     1      -6.289  10.468  -0.588  1.00  0.00     0.074 A 
ATOM     56  C   UNL     1      -2.547  15.574  -0.394  1.00  0.00     0.029 A 
ATOM     57  N   UNL     1      -3.415  13.561  -0.766  1.00  0.00    -0.354 N 
ATOM     58  N   UNL     1      -5.454  11.480  -0.605  1.00  0.00    -0.248 NA
ATOM     59  C   UNL     1      -7.514  10.711   0.188  1.00  0.00     0.031 C 
ATOM     60  C   UNL     1      -3.777  15.494   0.269  1.00  0.00     0.029 A 
ATOM     61  C   UNL     1      -4.331  14.250   0.012  1.00  0.00     0.049 A 
ATOM     62  H   UNL     1      -3.533  12.641  -1.095  1.00  0.00     0.167 HD
ATOM     63  C   UNL     1      -6.065  12.487   0.137  1.00  0.00     0.074 A 
ATOM     64  C   UNL     1      -7.349  11.972   0.563  1.00  0.00     0.031 C 
ATOM     65  C   UNL     1      -5.603  13.726   0.440  1.00  0.00     0.031 A 
BRANCH  52  66
ATOM     66  C   UNL     1       0.006  14.907  -1.879  1.00  0.00    -0.014 A 
ATOM     67  C   UNL     1       0.336  15.511  -3.107  1.00  0.00     0.010 A 
ATOM     68  C   UNL     1       0.758  15.233  -0.736  1.00  0.00     0.010 A 
ATOM     69  C   UNL     1       1.427  16.378  -3.203  1.00  0.00     0.020 A 
ATOM     70  C   UNL     1       1.829  16.130  -0.820  1.00  0.00     0.020 A 
ATOM     71  C   UNL     1       2.168  16.681  -2.057  1.00  0.00     0.054 A 
BRANCH  71  72
ATOM     72  S   UNL     1       3.564  17.829  -2.208  1.00  0.00     0.124 S 
ATOM     73  O   UNL     1       4.548  17.015  -2.918  1.00  0.00    -0.237 OA
ATOM     74  O   UNL     1       2.990  18.931  -2.976  1.00  0.00    -0.237 OA
ATOM     75  O   UNL     1       3.903  18.148  -0.824  1.00  0.00    -0.744 OA
ENDBRANCH  71  72
ENDBRANCH  52  66
BRANCH  53  76
ATOM     76  C   UNL     1      -7.259   8.117  -1.134  1.00  0.00    -0.014 A 
ATOM     77  C   UNL     1      -8.513   8.339  -1.733  1.00  0.00     0.010 A 
ATOM     78  C   UNL     1      -7.052   6.932  -0.406  1.00  0.00     0.010 A 
ATOM     79  C   UNL     1      -9.545   7.407  -1.588  1.00  0.00     0.020 A 
ATOM     80  C   UNL     1      -8.072   5.983  -0.283  1.00  0.00     0.020 A 
ATOM     81  C   UNL     1      -9.316   6.233  -0.865  1.00  0.00     0.054 A 
BRANCH  81  82
ATOM     82  S   UNL     1     -10.655   5.014  -0.735  1.00  0.00     0.124 S 
ATOM     83  O   UNL     1     -11.575   5.670   0.189  1.00  0.00    -0.237 OA
ATOM     84  O   UNL     1     -11.115   4.904  -2.117  1.00  0.00    -0.237 OA
ATOM     85  O   UNL     1      -9.984   3.825  -0.213  1.00  0.00    -0.744 OA
ENDBRANCH  81  82
ENDBRANCH  53  76
BRANCH  65  86
ATOM     86  C   UNL     1      -6.503  14.622   1.252  1.00  0.00    -0.014 A 
ATOM     87  C   UNL     1      -6.781  14.350   2.604  1.00  0.00     0.010 A 
ATOM     88  C   UNL     1      -7.063  15.769   0.658  1.00  0.00     0.010 A 
ATOM     89  C   UNL     1      -7.645  15.175   3.329  1.00  0.00     0.020 A 
ATOM     90  C   UNL     1      -7.901  16.615   1.390  1.00  0.00     0.020 A 
ATOM     91  C   UNL     1      -8.205  16.299   2.715  1.00  0.00     0.054 A 
BRANCH  91  92
ATOM     92  S   UNL     1      -9.320  17.356   3.679  1.00  0.00     0.124 S 
ATOM     93  O   UNL     1     -10.528  16.538   3.748  1.00  0.00    -0.237 OA
ATOM     94  O   UNL     1      -8.599  17.520   4.938  1.00  0.00    -0.237 OA
ATOM     95  O   UNL     1      -9.434  18.568   2.870  1.00  0.00    -0.744 OA
ENDBRANCH  91  92
ENDBRANCH  65  86
ENDBRANCH  39  40
ENDBRANCH  32  34
ENDBRANCH  31  32
ENDBRANCH  30  31
ENDBRANCH  29  30
ENDBRANCH   1  29
TORSDOF 22
