REMARK SMILES CC[C@@H](NS(=O)(=O)c1cc(C)ccc1C)C(=O)OCCOCCOC(=O)c1ccc(-c2c3nc(c(-c4ccc(S(=O)(=O)[O-])cc4)c4ccc([nH]4)c(-c4ccc(S(=O)(=O)[O-])cc4)c4nc(c(-c5ccc(S(=O)(=O)[O-])cc5)c5ccc2[nH]5)C=C4)C=C3)cc1
REMARK SMILES IDX 21 1 20 2 19 3 18 4 16 5 17 6 3 7 2 8 1 9 4 10 5 12 6 13
REMARK SMILES IDX 7 14 8 15 9 16 14 17 10 18 13 19 15 20 11 21 12 22 22 23
REMARK SMILES IDX 23 24 24 25 25 26 26 27 27 28 28 29 86 30 29 31 85 32 30 33
REMARK SMILES IDX 31 34 32 35 79 36 33 37 84 38 78 39 80 40 34 41 83 42 77 43
REMARK SMILES IDX 76 44 35 46 65 47 46 48 64 49 47 50 50 51 63 52 81 53 48 54
REMARK SMILES IDX 49 55 62 57 82 58 51 59 36 60 37 61 45 62 38 63 44 64 39 65
REMARK SMILES IDX 40 66 41 67 42 68 43 69 66 70 67 71 75 72 68 73 74 74 69 75
REMARK SMILES IDX 70 76 71 77 72 78 73 79 52 80 53 81 61 82 54 83 60 84 55 85
REMARK SMILES IDX 56 86 57 87 58 88 59 89
REMARK H PARENT 4 11 80 45 50 56
REMARK Flexibility Score: inf
ROOT
ATOM      1  O   UNL     1      -0.299   1.403   4.100  1.00  0.00    -0.374 OA
ENDROOT
BRANCH   1   2
ATOM      2  C   UNL     1      -1.691   1.233   4.326  1.00  0.00     0.202 C 
BRANCH   2   3
ATOM      3  C   UNL     1      -2.459   1.775   3.128  1.00  0.00     0.261 C 
BRANCH   3   4
ATOM      4  O   UNL     1      -1.865   1.356   1.897  1.00  0.00    -0.462 OA
BRANCH   4   5
ATOM      5  C   UNL     1      -0.797   2.114   1.483  1.00  0.00     0.324 C 
ATOM      6  O   UNL     1      -0.332   3.076   2.072  1.00  0.00    -0.250 OA
BRANCH   5   7
ATOM      7  C   UNL     1      -0.370   1.717   0.091  1.00  0.00     0.179 C 
BRANCH   7   8
ATOM      8  C   UNL     1      -0.328   0.179   0.011  1.00  0.00     0.028 C 
ATOM      9  C   UNL     1       0.719  -0.380  -0.943  1.00  0.00     0.006 C 
ENDBRANCH   7   8
BRANCH   7  10
ATOM     10  N   UNL     1      -1.403   2.349  -0.775  1.00  0.00    -0.197 NA
ATOM     11  H   UNL     1      -2.285   2.328  -0.264  1.00  0.00     0.142 HD
BRANCH  10  12
ATOM     12  S   UNL     1      -1.135   3.965  -1.272  1.00  0.00     0.241 S 
ATOM     13  O   UNL     1       0.287   3.987  -1.562  1.00  0.00    -0.207 OA
ATOM     14  O   UNL     1      -2.111   4.153  -2.311  1.00  0.00    -0.207 OA
BRANCH  12  15
ATOM     15  C   UNL     1      -1.512   5.163   0.023  1.00  0.00     0.085 A 
ATOM     16  C   UNL     1      -2.383   4.868   1.082  1.00  0.00     0.025 A 
ATOM     17  C   UNL     1      -0.945   6.452  -0.025  1.00  0.00    -0.031 A 
ATOM     18  C   UNL     1      -2.607   5.802   2.126  1.00  0.00    -0.050 A 
ATOM     19  C   UNL     1      -1.227   7.396   0.981  1.00  0.00     0.005 A 
ATOM     20  C   UNL     1      -0.089   6.971  -1.130  1.00  0.00     0.046 C 
ATOM     21  C   UNL     1      -3.355   5.443   3.377  1.00  0.00     0.044 C 
ATOM     22  C   UNL     1      -2.035   7.072   2.054  1.00  0.00     0.004 A 
ENDBRANCH  12  15
ENDBRANCH  10  12
ENDBRANCH   7  10
ENDBRANCH   5   7
ENDBRANCH   4   5
ENDBRANCH   3   4
ENDBRANCH   2   3
ENDBRANCH   1   2
BRANCH   1  23
ATOM     23  C   UNL     1       0.546   0.386   4.604  1.00  0.00     0.202 C 
BRANCH  23  24
ATOM     24  C   UNL     1       0.669   0.460   6.126  1.00  0.00     0.261 C 
BRANCH  24  25
ATOM     25  O   UNL     1       1.413   1.626   6.522  1.00  0.00    -0.460 OA
BRANCH  25  26
ATOM     26  C   UNL     1       0.722   2.790   6.393  1.00  0.00     0.338 C 
ATOM     27  O   UNL     1      -0.318   3.052   6.976  1.00  0.00    -0.246 OA
BRANCH  26  28
ATOM     28  C   UNL     1       1.329   3.598   5.301  1.00  0.00     0.060 A 
ATOM     29  C   UNL     1       0.564   4.621   4.743  1.00  0.00     0.016 A 
ATOM     30  C   UNL     1       2.549   3.225   4.708  1.00  0.00     0.016 A 
ATOM     31  C   UNL     1       0.981   5.198   3.551  1.00  0.00     0.010 A 
ATOM     32  C   UNL     1       2.955   3.797   3.506  1.00  0.00     0.010 A 
ATOM     33  C   UNL     1       2.149   4.759   2.901  1.00  0.00    -0.014 A 
BRANCH  33  34
ATOM     34  C   UNL     1       2.560   5.500   1.695  1.00  0.00     0.031 A 
ATOM     35  C   UNL     1       2.727   6.955   1.943  1.00  0.00     0.074 A 
ATOM     36  C   UNL     1       2.877   4.962   0.498  1.00  0.00     0.049 A 
ATOM     37  N   UNL     1       2.227   7.962   1.301  1.00  0.00    -0.248 NA
ATOM     38  C   UNL     1       3.491   7.318   3.154  1.00  0.00     0.031 C 
ATOM     39  C   UNL     1       2.966   3.534   0.207  1.00  0.00     0.029 A 
ATOM     40  N   UNL     1       3.232   5.555  -0.696  1.00  0.00    -0.354 N 
ATOM     41  C   UNL     1       2.785   9.078   1.902  1.00  0.00     0.074 A 
ATOM     42  C   UNL     1       3.411   8.643   3.128  1.00  0.00     0.031 C 
ATOM     43  C   UNL     1       3.435   3.360  -1.043  1.00  0.00     0.029 A 
ATOM     44  C   UNL     1       3.688   4.657  -1.657  1.00  0.00     0.049 A 
ATOM     45  H   UNL     1       3.168   6.525  -0.854  1.00  0.00     0.167 HD
ATOM     46  C   UNL     1       3.069  10.197   1.192  1.00  0.00     0.031 A 
ATOM     47  C   UNL     1       4.300   4.910  -2.846  1.00  0.00     0.031 A 
ATOM     48  C   UNL     1       2.241  10.418   0.045  1.00  0.00     0.049 A 
ATOM     49  C   UNL     1       4.071   6.328  -3.239  1.00  0.00     0.074 A 
ATOM     50  C   UNL     1       0.946  10.822  -0.163  1.00  0.00     0.029 A 
ATOM     51  N   UNL     1       2.732   9.980  -1.158  1.00  0.00    -0.354 N 
ATOM     52  N   UNL     1       2.965   6.816  -3.731  1.00  0.00    -0.248 NA
ATOM     53  C   UNL     1       5.065   7.328  -2.864  1.00  0.00     0.031 C 
ATOM     54  C   UNL     1       0.623  10.460  -1.501  1.00  0.00     0.029 A 
ATOM     55  C   UNL     1       1.723   9.823  -2.086  1.00  0.00     0.049 A 
ATOM     56  H   UNL     1       3.684   9.801  -1.337  1.00  0.00     0.167 HD
ATOM     57  C   UNL     1       2.979   8.168  -3.423  1.00  0.00     0.074 A 
ATOM     58  C   UNL     1       4.347   8.443  -3.008  1.00  0.00     0.031 C 
ATOM     59  C   UNL     1       1.839   8.903  -3.237  1.00  0.00     0.031 A 
BRANCH  46  60
ATOM     60  C   UNL     1       4.451  10.773   1.310  1.00  0.00    -0.014 A 
ATOM     61  C   UNL     1       4.704  12.105   0.965  1.00  0.00     0.010 A 
ATOM     62  C   UNL     1       5.563   9.922   1.530  1.00  0.00     0.010 A 
ATOM     63  C   UNL     1       6.023  12.568   0.860  1.00  0.00     0.020 A 
ATOM     64  C   UNL     1       6.871  10.383   1.475  1.00  0.00     0.020 A 
ATOM     65  C   UNL     1       7.094  11.703   1.115  1.00  0.00     0.054 A 
BRANCH  65  66
ATOM     66  S   UNL     1       8.792  12.291   0.918  1.00  0.00     0.124 S 
ATOM     67  O   UNL     1       8.906  12.389  -0.534  1.00  0.00    -0.237 OA
ATOM     68  O   UNL     1       8.768  13.559   1.642  1.00  0.00    -0.237 OA
ATOM     69  O   UNL     1       9.592  11.241   1.543  1.00  0.00    -0.744 OA
ENDBRANCH  65  66
ENDBRANCH  46  60
BRANCH  47  70
ATOM     70  C   UNL     1       5.278   4.021  -3.563  1.00  0.00    -0.014 A 
ATOM     71  C   UNL     1       5.800   4.347  -4.832  1.00  0.00     0.010 A 
ATOM     72  C   UNL     1       5.886   2.932  -2.901  1.00  0.00     0.010 A 
ATOM     73  C   UNL     1       6.910   3.656  -5.370  1.00  0.00     0.020 A 
ATOM     74  C   UNL     1       6.955   2.212  -3.442  1.00  0.00     0.020 A 
ATOM     75  C   UNL     1       7.490   2.601  -4.660  1.00  0.00     0.054 A 
BRANCH  75  76
ATOM     76  S   UNL     1       9.032   1.832  -5.235  1.00  0.00     0.124 S 
ATOM     77  O   UNL     1       8.600   1.105  -6.424  1.00  0.00    -0.237 OA
ATOM     78  O   UNL     1       9.893   2.986  -5.474  1.00  0.00    -0.237 OA
ATOM     79  O   UNL     1       9.437   0.988  -4.110  1.00  0.00    -0.744 OA
ENDBRANCH  75  76
ENDBRANCH  47  70
BRANCH  59  80
ATOM     80  C   UNL     1       0.569   8.561  -4.023  1.00  0.00    -0.014 A 
ATOM     81  C   UNL     1       0.108   7.257  -4.288  1.00  0.00     0.010 A 
ATOM     82  C   UNL     1      -0.277   9.619  -4.423  1.00  0.00     0.010 A 
ATOM     83  C   UNL     1      -1.172   7.013  -4.817  1.00  0.00     0.020 A 
ATOM     84  C   UNL     1      -1.556   9.391  -4.952  1.00  0.00     0.020 A 
ATOM     85  C   UNL     1      -2.007   8.085  -5.125  1.00  0.00     0.054 A 
BRANCH  85  86
ATOM     86  S   UNL     1      -3.673   7.763  -5.772  1.00  0.00     0.124 S 
ATOM     87  O   UNL     1      -3.421   6.845  -6.880  1.00  0.00    -0.237 OA
ATOM     88  O   UNL     1      -4.364   7.191  -4.620  1.00  0.00    -0.237 OA
ATOM     89  O   UNL     1      -4.149   9.087  -6.173  1.00  0.00    -0.744 OA
ENDBRANCH  85  86
ENDBRANCH  59  80
ENDBRANCH  33  34
ENDBRANCH  26  28
ENDBRANCH  25  26
ENDBRANCH  24  25
ENDBRANCH  23  24
ENDBRANCH   1  23
TORSDOF 21
