REMARK SMILES C[C@@H]1CCCCN1S(=O)(=O)c1ccc(CCC(=O)OCCOCCOC(=O)c2ccc(-c3c4nc(c(-c5ccc(S(=O)(=O)[O-])cc5)c5ccc([nH]5)c(-c5ccc(S(=O)(=O)[O-])cc5)c5nc(c(-c6ccc(S(=O)(=O)[O-])cc6)c6ccc3[nH]6)C=C5)C=C4)cc2)cc1
REMARK SMILES IDX 21 1 20 2 19 3 17 4 18 5 16 6 15 7 14 8 11 9 12 10 89 11
REMARK SMILES IDX 13 12 88 13 8 14 9 15 10 16 7 17 1 18 2 19 3 20 4 21 6 22
REMARK SMILES IDX 5 23 22 24 23 25 24 26 25 27 26 28 27 29 28 30 29 31 87 32
REMARK SMILES IDX 30 33 86 34 31 35 32 36 33 37 80 38 34 39 85 40 79 41 81 42
REMARK SMILES IDX 35 43 84 44 78 45 77 46 36 48 66 49 47 50 65 51 48 52 51 53
REMARK SMILES IDX 64 54 82 55 49 56 50 57 63 59 83 60 52 61 37 62 38 63 46 64
REMARK SMILES IDX 39 65 45 66 40 67 41 68 42 69 43 70 44 71 67 72 68 73 76 74
REMARK SMILES IDX 69 75 75 76 70 77 71 78 72 79 73 80 74 81 53 82 54 83 62 84
REMARK SMILES IDX 55 85 61 86 56 87 57 88 58 89 59 90 60 91
REMARK H PARENT 81 47 51 58
REMARK Flexibility Score: inf
ROOT
ATOM      1  C   UNL     1       4.889  -6.000  -5.267  1.00  0.00     0.202 C 
ENDROOT
BRANCH   1   2
ATOM      2  C   UNL     1       6.107  -6.003  -4.334  1.00  0.00     0.261 C 
BRANCH   2   3
ATOM      3  O   UNL     1       6.341  -4.698  -3.761  1.00  0.00    -0.463 OA
BRANCH   3   4
ATOM      4  C   UNL     1       7.379  -3.970  -4.244  1.00  0.00     0.306 C 
ATOM      5  O   UNL     1       8.143  -4.327  -5.131  1.00  0.00    -0.252 OA
BRANCH   4   6
ATOM      6  C   UNL     1       7.474  -2.622  -3.563  1.00  0.00     0.127 C 
BRANCH   6   7
ATOM      7  C   UNL     1       6.410  -1.616  -4.017  1.00  0.00     0.047 C 
BRANCH   7   8
ATOM      8  C   UNL     1       5.183  -1.605  -3.134  1.00  0.00    -0.047 A 
ATOM      9  C   UNL     1       3.041  -1.752  -1.307  1.00  0.00     0.082 A 
ATOM     10  C   UNL     1       3.156  -2.682  -2.340  1.00  0.00     0.022 A 
ATOM     11  C   UNL     1       3.986  -0.732  -1.202  1.00  0.00     0.022 A 
ATOM     12  C   UNL     1       4.201  -2.590  -3.257  1.00  0.00     0.005 A 
ATOM     13  C   UNL     1       5.045  -0.654  -2.116  1.00  0.00     0.005 A 
BRANCH   9  14
ATOM     14  S   UNL     1       1.855  -2.071  -0.012  1.00  0.00     0.243 S 
ATOM     15  O   UNL     1       2.570  -2.031   1.244  1.00  0.00    -0.207 OA
ATOM     16  O   UNL     1       1.156  -3.274  -0.411  1.00  0.00    -0.207 OA
BRANCH  14  17
ATOM     17  N   UNL     1       0.708  -0.801  -0.054  1.00  0.00    -0.195 NA
ATOM     18  C   UNL     1       1.975   0.792   1.483  1.00  0.00     0.026 C 
ATOM     19  C   UNL     1       1.133   0.613   0.220  1.00  0.00     0.070 C 
ATOM     20  C   UNL     1      -0.091   1.550   0.338  1.00  0.00     0.020 C 
ATOM     21  C   UNL     1      -1.295   1.044  -0.434  1.00  0.00     0.003 C 
ATOM     22  C   UNL     1      -0.570  -1.158   0.638  1.00  0.00     0.103 C 
ATOM     23  C   UNL     1      -1.727  -0.320   0.092  1.00  0.00     0.017 C 
ENDBRANCH  14  17
ENDBRANCH   9  14
ENDBRANCH   7   8
ENDBRANCH   6   7
ENDBRANCH   4   6
ENDBRANCH   3   4
ENDBRANCH   2   3
ENDBRANCH   1   2
BRANCH   1  24
ATOM     24  O   UNL     1       5.180  -5.568  -6.599  1.00  0.00    -0.374 OA
BRANCH  24  25
ATOM     25  C   UNL     1       5.176  -4.158  -6.809  1.00  0.00     0.202 C 
BRANCH  25  26
ATOM     26  C   UNL     1       3.835  -3.597  -7.291  1.00  0.00     0.261 C 
BRANCH  26  27
ATOM     27  O   UNL     1       2.835  -3.676  -6.259  1.00  0.00    -0.460 OA
BRANCH  27  28
ATOM     28  C   UNL     1       1.946  -4.691  -6.396  1.00  0.00     0.338 C 
ATOM     29  O   UNL     1       1.872  -5.476  -7.326  1.00  0.00    -0.246 OA
BRANCH  28  30
ATOM     30  C   UNL     1       1.141  -4.827  -5.163  1.00  0.00     0.060 A 
ATOM     31  C   UNL     1       0.913  -6.122  -4.683  1.00  0.00     0.016 A 
ATOM     32  C   UNL     1       0.589  -3.727  -4.502  1.00  0.00     0.016 A 
ATOM     33  C   UNL     1       0.104  -6.324  -3.563  1.00  0.00     0.010 A 
ATOM     34  C   UNL     1      -0.211  -3.933  -3.369  1.00  0.00     0.010 A 
ATOM     35  C   UNL     1      -0.486  -5.234  -2.909  1.00  0.00    -0.014 A 
BRANCH  35  36
ATOM     36  C   UNL     1      -1.499  -5.470  -1.843  1.00  0.00     0.031 A 
ATOM     37  C   UNL     1      -2.954  -5.229  -2.152  1.00  0.00     0.074 A 
ATOM     38  C   UNL     1      -1.149  -5.934  -0.627  1.00  0.00     0.049 A 
ATOM     39  N   UNL     1      -4.003  -5.381  -1.383  1.00  0.00    -0.248 NA
ATOM     40  C   UNL     1      -3.271  -4.755  -3.510  1.00  0.00     0.031 C 
ATOM     41  C   UNL     1       0.215  -6.229  -0.190  1.00  0.00     0.029 A 
ATOM     42  N   UNL     1      -1.921  -6.229   0.473  1.00  0.00    -0.354 N 
ATOM     43  C   UNL     1      -5.098  -5.027  -2.163  1.00  0.00     0.074 A 
ATOM     44  C   UNL     1      -4.584  -4.601  -3.446  1.00  0.00     0.031 C 
ATOM     45  C   UNL     1       0.188  -6.645   1.088  1.00  0.00     0.029 A 
ATOM     46  C   UNL     1      -1.192  -6.638   1.566  1.00  0.00     0.049 A 
ATOM     47  H   UNL     1      -2.902  -6.155   0.477  1.00  0.00     0.167 HD
ATOM     48  C   UNL     1      -6.415  -5.075  -1.853  1.00  0.00     0.031 A 
ATOM     49  C   UNL     1      -1.588  -6.959   2.814  1.00  0.00     0.031 A 
ATOM     50  C   UNL     1      -6.938  -5.502  -0.584  1.00  0.00     0.049 A 
ATOM     51  C   UNL     1      -3.055  -6.939   3.157  1.00  0.00     0.074 A 
ATOM     52  C   UNL     1      -8.261  -5.607  -0.191  1.00  0.00     0.029 A 
ATOM     53  N   UNL     1      -6.165  -5.894   0.497  1.00  0.00    -0.354 N 
ATOM     54  N   UNL     1      -4.079  -6.641   2.393  1.00  0.00    -0.248 NA
ATOM     55  C   UNL     1      -3.422  -7.321   4.530  1.00  0.00     0.031 C 
ATOM     56  C   UNL     1      -8.287  -6.022   1.145  1.00  0.00     0.029 A 
ATOM     57  C   UNL     1      -6.983  -6.222   1.566  1.00  0.00     0.049 A 
ATOM     58  H   UNL     1      -5.182  -5.933   0.505  1.00  0.00     0.167 HD
ATOM     59  C   UNL     1      -5.210  -6.839   3.179  1.00  0.00     0.074 A 
ATOM     60  C   UNL     1      -4.747  -7.283   4.477  1.00  0.00     0.031 C 
ATOM     61  C   UNL     1      -6.515  -6.675   2.850  1.00  0.00     0.031 A 
BRANCH  48  62
ATOM     62  C   UNL     1      -7.387  -4.644  -2.918  1.00  0.00    -0.014 A 
ATOM     63  C   UNL     1      -7.627  -5.450  -4.046  1.00  0.00     0.010 A 
ATOM     64  C   UNL     1      -8.087  -3.433  -2.778  1.00  0.00     0.010 A 
ATOM     65  C   UNL     1      -8.518  -5.031  -5.036  1.00  0.00     0.020 A 
ATOM     66  C   UNL     1      -8.998  -3.022  -3.754  1.00  0.00     0.020 A 
ATOM     67  C   UNL     1      -9.194  -3.816  -4.887  1.00  0.00     0.054 A 
BRANCH  67  68
ATOM     68  S   UNL     1     -10.355  -3.301  -6.181  1.00  0.00     0.124 S 
ATOM     69  O   UNL     1      -9.449  -2.874  -7.244  1.00  0.00    -0.237 OA
ATOM     70  O   UNL     1     -11.104  -4.526  -6.449  1.00  0.00    -0.237 OA
ATOM     71  O   UNL     1     -11.123  -2.230  -5.550  1.00  0.00    -0.744 OA
ENDBRANCH  67  68
ENDBRANCH  48  62
BRANCH  49  72
ATOM     72  C   UNL     1      -0.582  -7.335   3.846  1.00  0.00    -0.014 A 
ATOM     73  C   UNL     1      -0.484  -8.662   4.300  1.00  0.00     0.010 A 
ATOM     74  C   UNL     1       0.265  -6.359   4.401  1.00  0.00     0.010 A 
ATOM     75  C   UNL     1       0.420  -9.000   5.312  1.00  0.00     0.020 A 
ATOM     76  C   UNL     1       1.188  -6.698   5.396  1.00  0.00     0.020 A 
ATOM     77  C   UNL     1       1.248  -8.014   5.856  1.00  0.00     0.054 A 
BRANCH  77  78
ATOM     78  S   UNL     1       2.429  -8.481   7.153  1.00  0.00     0.124 S 
ATOM     79  O   UNL     1       1.557  -8.650   8.311  1.00  0.00    -0.237 OA
ATOM     80  O   UNL     1       3.017  -9.708   6.620  1.00  0.00    -0.237 OA
ATOM     81  O   UNL     1       3.339  -7.340   7.215  1.00  0.00    -0.744 OA
ENDBRANCH  77  78
ENDBRANCH  49  72
BRANCH  61  82
ATOM     82  C   UNL     1      -7.547  -7.022   3.890  1.00  0.00    -0.014 A 
ATOM     83  C   UNL     1      -7.773  -6.193   5.002  1.00  0.00     0.010 A 
ATOM     84  C   UNL     1      -8.347  -8.167   3.714  1.00  0.00     0.010 A 
ATOM     85  C   UNL     1      -8.762  -6.518   5.935  1.00  0.00     0.020 A 
ATOM     86  C   UNL     1      -9.353  -8.481   4.632  1.00  0.00     0.020 A 
ATOM     87  C   UNL     1      -9.546  -7.661   5.744  1.00  0.00     0.054 A 
BRANCH  87  88
ATOM     88  S   UNL     1     -10.858  -8.034   6.941  1.00  0.00     0.124 S 
ATOM     89  O   UNL     1     -10.098  -8.561   8.071  1.00  0.00    -0.237 OA
ATOM     90  O   UNL     1     -11.479  -6.729   7.155  1.00  0.00    -0.237 OA
ATOM     91  O   UNL     1     -11.695  -9.007   6.244  1.00  0.00    -0.744 OA
ENDBRANCH  87  88
ENDBRANCH  61  82
ENDBRANCH  35  36
ENDBRANCH  28  30
ENDBRANCH  27  28
ENDBRANCH  26  27
ENDBRANCH  25  26
ENDBRANCH  24  25
ENDBRANCH   1  24
TORSDOF 21
