REMARK SMILES CCOc1ccc2nc(S[C@@H](C(=O)OCCOCCOC(=O)c3ccc(-c4c5nc(c(-c6ccc(S(=O)(=O)[O-])cc6)c6ccc([nH]6)c(-c6ccc(S(=O)(=O)[O-])cc6)c6nc(c(-c7ccc(S(=O)(=O)[O-])cc7)c7ccc4[nH]7)C=C6)C=C5)cc3)c3ccccc3)[nH]c2c1
REMARK SMILES IDX 16 1 15 2 14 3 12 4 13 5 11 6 10 7 9 8 4 9 5 10 91 11 6 12
REMARK SMILES IDX 90 13 7 14 89 15 8 16 3 18 2 19 1 20 83 21 84 22 88 23 85 24
REMARK SMILES IDX 87 25 86 26 17 27 18 28 19 29 20 30 21 31 22 32 23 33 24 34
REMARK SMILES IDX 82 35 25 36 81 37 26 38 27 39 28 40 75 41 29 42 80 43 74 44
REMARK SMILES IDX 76 45 30 46 79 47 73 48 72 49 31 51 61 52 42 53 60 54 43 55
REMARK SMILES IDX 46 56 59 57 77 58 44 59 45 60 58 62 78 63 47 64 32 65 33 66
REMARK SMILES IDX 41 67 34 68 40 69 35 70 36 71 37 72 38 73 39 74 62 75 63 76
REMARK SMILES IDX 71 77 64 78 70 79 65 80 66 81 67 82 68 83 69 84 48 85 49 86
REMARK SMILES IDX 57 87 50 88 56 89 51 90 52 91 53 92 54 93 55 94
REMARK H PARENT 89 17 76 50 46 61
REMARK Flexibility Score: inf
ROOT
ATOM      1  C   UNL     1       4.652   8.028   4.641  1.00  0.00     0.202 C 
ENDROOT
BRANCH   1   2
ATOM      2  C   UNL     1       6.030   7.868   5.293  1.00  0.00     0.261 C 
BRANCH   2   3
ATOM      3  O   UNL     1       6.581   6.546   5.129  1.00  0.00    -0.462 OA
BRANCH   3   4
ATOM      4  C   UNL     1       7.093   5.967   6.250  1.00  0.00     0.324 C 
ATOM      5  O   UNL     1       7.151   6.544   7.336  1.00  0.00    -0.251 OA
BRANCH   4   6
ATOM      6  C   UNL     1       7.568   4.512   6.081  1.00  0.00     0.194 C 
BRANCH   6   7
ATOM      7  S   UNL     1       7.904   4.035   4.365  1.00  0.00    -0.068 SA
BRANCH   7   8
ATOM      8  C   UNL     1       6.647   3.057   3.701  1.00  0.00     0.167 A 
ATOM      9  C   UNL     1       2.756   1.580   1.965  1.00  0.00     0.121 A 
ATOM     10  C   UNL     1       3.587   1.452   0.851  1.00  0.00     0.049 A 
ATOM     11  C   UNL     1       3.262   1.934   3.226  1.00  0.00     0.074 A 
ATOM     12  C   UNL     1       4.965   1.673   0.959  1.00  0.00     0.034 A 
ATOM     13  C   UNL     1       4.633   2.221   3.288  1.00  0.00     0.070 A 
ATOM     14  C   UNL     1       5.476   2.113   2.187  1.00  0.00     0.090 A 
ATOM     15  N   UNL     1       5.445   2.742   4.276  1.00  0.00    -0.333 N 
ATOM     16  N   UNL     1       6.729   2.569   2.484  1.00  0.00    -0.223 NA
ATOM     17  H   UNL     1       5.203   2.865   5.222  1.00  0.00     0.169 HD
BRANCH   9  18
ATOM     18  O   UNL     1       1.393   1.579   1.805  1.00  0.00    -0.494 OA
BRANCH  18  19
ATOM     19  C   UNL     1       0.827   0.279   1.626  1.00  0.00     0.226 C 
ATOM     20  C   UNL     1       0.762  -0.133   0.164  1.00  0.00     0.049 C 
ENDBRANCH  18  19
ENDBRANCH   9  18
ENDBRANCH   7   8
ENDBRANCH   6   7
BRANCH   6  21
ATOM     21  C   UNL     1       6.887   3.471   6.974  1.00  0.00    -0.023 A 
ATOM     22  C   UNL     1       5.908   3.812   7.925  1.00  0.00     0.005 A 
ATOM     23  C   UNL     1       7.302   2.124   6.927  1.00  0.00     0.005 A 
ATOM     24  C   UNL     1       5.363   2.849   8.780  1.00  0.00     0.000 A 
ATOM     25  C   UNL     1       6.733   1.158   7.759  1.00  0.00     0.000 A 
ATOM     26  C   UNL     1       5.768   1.521   8.690  1.00  0.00     0.000 A 
ENDBRANCH   6  21
ENDBRANCH   4   6
ENDBRANCH   3   4
ENDBRANCH   2   3
ENDBRANCH   1   2
BRANCH   1  27
ATOM     27  O   UNL     1       3.685   7.032   4.976  1.00  0.00    -0.374 OA
BRANCH  27  28
ATOM     28  C   UNL     1       3.844   5.748   4.368  1.00  0.00     0.202 C 
BRANCH  28  29
ATOM     29  C   UNL     1       3.712   5.694   2.844  1.00  0.00     0.261 C 
BRANCH  29  30
ATOM     30  O   UNL     1       4.821   6.328   2.190  1.00  0.00    -0.460 OA
BRANCH  30  31
ATOM     31  C   UNL     1       4.459   7.121   1.158  1.00  0.00     0.338 C 
ATOM     32  O   UNL     1       3.333   7.273   0.699  1.00  0.00    -0.246 OA
BRANCH  31  33
ATOM     33  C   UNL     1       5.588   7.960   0.741  1.00  0.00     0.060 A 
ATOM     34  C   UNL     1       5.423   9.348   0.831  1.00  0.00     0.016 A 
ATOM     35  C   UNL     1       6.722   7.406   0.147  1.00  0.00     0.016 A 
ATOM     36  C   UNL     1       6.364  10.195   0.255  1.00  0.00     0.010 A 
ATOM     37  C   UNL     1       7.662   8.258  -0.437  1.00  0.00     0.010 A 
ATOM     38  C   UNL     1       7.460   9.651  -0.426  1.00  0.00    -0.014 A 
BRANCH  38  39
ATOM     39  C   UNL     1       8.293  10.529  -1.279  1.00  0.00     0.031 A 
ATOM     40  C   UNL     1       8.007  10.578  -2.756  1.00  0.00     0.074 A 
ATOM     41  C   UNL     1       9.267  11.283  -0.740  1.00  0.00     0.049 A 
ATOM     42  N   UNL     1       8.635  11.230  -3.699  1.00  0.00    -0.248 NA
ATOM     43  C   UNL     1       6.862   9.783  -3.234  1.00  0.00     0.031 C 
ATOM     44  C   UNL     1       9.595  11.346   0.685  1.00  0.00     0.029 A 
ATOM     45  N   UNL     1      10.164  12.134  -1.331  1.00  0.00    -0.354 N 
ATOM     46  C   UNL     1       7.973  10.914  -4.880  1.00  0.00     0.074 A 
ATOM     47  C   UNL     1       6.907   9.999  -4.541  1.00  0.00     0.031 C 
ATOM     48  C   UNL     1      10.635  12.180   0.855  1.00  0.00     0.029 A 
ATOM     49  C   UNL     1      11.064  12.682  -0.448  1.00  0.00     0.049 A 
ATOM     50  H   UNL     1      10.164  12.334  -2.295  1.00  0.00     0.167 HD
ATOM     51  C   UNL     1       8.235  11.348  -6.135  1.00  0.00     0.031 A 
ATOM     52  C   UNL     1      12.129  13.476  -0.674  1.00  0.00     0.031 A 
ATOM     53  C   UNL     1       9.304  12.254  -6.460  1.00  0.00     0.049 A 
ATOM     54  C   UNL     1      12.433  13.904  -2.086  1.00  0.00     0.074 A 
ATOM     55  C   UNL     1       9.653  12.766  -7.696  1.00  0.00     0.029 A 
ATOM     56  N   UNL     1      10.198  12.778  -5.539  1.00  0.00    -0.354 N 
ATOM     57  N   UNL     1      11.787  13.612  -3.191  1.00  0.00    -0.248 NA
ATOM     58  C   UNL     1      13.602  14.772  -2.283  1.00  0.00     0.031 C 
ATOM     59  C   UNL     1      10.787  13.566  -7.530  1.00  0.00     0.029 A 
ATOM     60  C   UNL     1      11.111  13.595  -6.181  1.00  0.00     0.049 A 
ATOM     61  H   UNL     1      10.186  12.596  -4.572  1.00  0.00     0.167 HD
ATOM     62  C   UNL     1      12.452  14.287  -4.209  1.00  0.00     0.074 A 
ATOM     63  C   UNL     1      13.547  15.004  -3.589  1.00  0.00     0.031 C 
ATOM     64  C   UNL     1      12.180  14.313  -5.536  1.00  0.00     0.031 A 
BRANCH  51  65
ATOM     65  C   UNL     1       7.374  10.825  -7.253  1.00  0.00    -0.014 A 
ATOM     66  C   UNL     1       6.047  11.259  -7.417  1.00  0.00     0.010 A 
ATOM     67  C   UNL     1       7.916   9.917  -8.182  1.00  0.00     0.010 A 
ATOM     68  C   UNL     1       5.269  10.774  -8.472  1.00  0.00     0.020 A 
ATOM     69  C   UNL     1       7.149   9.448  -9.252  1.00  0.00     0.020 A 
ATOM     70  C   UNL     1       5.825   9.869  -9.382  1.00  0.00     0.054 A 
BRANCH  70  71
ATOM     71  S   UNL     1       4.804   9.281 -10.762  1.00  0.00     0.124 S 
ATOM     72  O   UNL     1       3.892   8.358 -10.091  1.00  0.00    -0.237 OA
ATOM     73  O   UNL     1       4.196  10.512 -11.260  1.00  0.00    -0.237 OA
ATOM     74  O   UNL     1       5.768   8.657 -11.666  1.00  0.00    -0.744 OA
ENDBRANCH  70  71
ENDBRANCH  51  65
BRANCH  52  75
ATOM     75  C   UNL     1      12.999  13.895   0.459  1.00  0.00    -0.014 A 
ATOM     76  C   UNL     1      13.021  15.230   0.896  1.00  0.00     0.010 A 
ATOM     77  C   UNL     1      13.813  12.949   1.110  1.00  0.00     0.010 A 
ATOM     78  C   UNL     1      13.856  15.616   1.951  1.00  0.00     0.020 A 
ATOM     79  C   UNL     1      14.629  13.325   2.180  1.00  0.00     0.020 A 
ATOM     80  C   UNL     1      14.655  14.660   2.586  1.00  0.00     0.054 A 
BRANCH  80  81
ATOM     81  S   UNL     1      15.699  15.173   3.979  1.00  0.00     0.124 S 
ATOM     82  O   UNL     1      16.788  15.869   3.301  1.00  0.00    -0.237 OA
ATOM     83  O   UNL     1      14.796  16.017   4.758  1.00  0.00    -0.237 OA
ATOM     84  O   UNL     1      16.062  13.909   4.616  1.00  0.00    -0.744 OA
ENDBRANCH  80  81
ENDBRANCH  52  75
BRANCH  64  85
ATOM     85  C   UNL     1      13.042  15.184  -6.408  1.00  0.00    -0.014 A 
ATOM     86  C   UNL     1      14.340  14.790  -6.774  1.00  0.00     0.010 A 
ATOM     87  C   UNL     1      12.501  16.365  -6.948  1.00  0.00     0.010 A 
ATOM     88  C   UNL     1      15.088  15.571  -7.658  1.00  0.00     0.020 A 
ATOM     89  C   UNL     1      13.237  17.136  -7.850  1.00  0.00     0.020 A 
ATOM     90  C   UNL     1      14.530  16.737  -8.194  1.00  0.00     0.054 A 
BRANCH  90  91
ATOM     91  S   UNL     1      15.491  17.692  -9.401  1.00  0.00     0.124 S 
ATOM     92  O   UNL     1      16.473  18.357  -8.549  1.00  0.00    -0.237 OA
ATOM     93  O   UNL     1      16.022  16.655 -10.282  1.00  0.00    -0.237 OA
ATOM     94  O   UNL     1      14.499  18.573 -10.014  1.00  0.00    -0.744 OA
ENDBRANCH  90  91
ENDBRANCH  64  85
ENDBRANCH  38  39
ENDBRANCH  31  33
ENDBRANCH  30  31
ENDBRANCH  29  30
ENDBRANCH  28  29
ENDBRANCH  27  28
ENDBRANCH   1  27
TORSDOF 22
