REMARK SMILES CCC[C@H](C)NC(=O)C[NH+]1CC(n2cc(C(=O)OCCOCCOC(=O)c3ccc(-c4c5nc(c(-c6ccc(S(=O)(=O)[O-])cc6)c6ccc([nH]6)c(-c6ccc(S(=O)(=O)[O-])cc6)c6nc(c(-c7ccc(S(=O)(=O)[O-])cc7)c7ccc4[nH]7)C=C6)C=C5)cc3)nn2)C1
REMARK SMILES IDX 19 1 18 2 16 3 17 4 15 5 13 6 14 7 88 8 87 9 12 10 10 11
REMARK SMILES IDX 11 12 89 13 9 15 7 16 6 17 8 19 4 20 5 21 3 22 2 23 1 24
REMARK SMILES IDX 20 25 21 26 22 27 23 28 24 29 25 30 26 31 27 32 28 33 86 34
REMARK SMILES IDX 29 35 85 36 30 37 31 38 32 39 79 40 33 41 84 42 78 43 80 44
REMARK SMILES IDX 34 45 83 46 77 47 76 48 35 50 65 51 46 52 64 53 47 54 50 55
REMARK SMILES IDX 63 56 81 57 48 58 49 59 62 61 82 62 51 63 36 64 37 65 45 66
REMARK SMILES IDX 38 67 44 68 39 69 40 70 41 71 42 72 43 73 66 74 67 75 75 76
REMARK SMILES IDX 68 77 74 78 69 79 70 80 71 81 72 82 73 83 52 84 53 85 61 86
REMARK SMILES IDX 54 87 60 88 55 89 56 90 57 91 58 92 59 93
REMARK H PARENT 10 14 6 18 80 49 50 60
REMARK Flexibility Score: inf
ROOT
ATOM      1  C   UNL     1      11.158   1.815   3.178  1.00  0.00     0.261 C 
ENDROOT
BRANCH   1   2
ATOM      2  O   UNL     1       9.789   1.410   3.036  1.00  0.00    -0.458 OA
BRANCH   2   3
ATOM      3  C   UNL     1       8.980   1.762   4.083  1.00  0.00     0.360 C 
ATOM      4  O   UNL     1       9.371   2.259   5.125  1.00  0.00    -0.244 OA
BRANCH   3   5
ATOM      5  C   UNL     1       7.571   1.566   3.782  1.00  0.00     0.190 A 
ATOM      6  N   UNL     1       5.640   0.940   3.053  1.00  0.00    -0.237 N 
ATOM      7  C   UNL     1       6.974   0.798   2.801  1.00  0.00     0.147 A 
ATOM      8  N   UNL     1       5.415   1.822   4.038  1.00  0.00    -0.066 NA
ATOM      9  N   UNL     1       6.591   2.207   4.502  1.00  0.00    -0.123 NA
BRANCH   6  10
ATOM     10  C   UNL     1       4.609   0.210   2.402  1.00  0.00     0.218 C 
ATOM     11  N   UNL     1       3.062  -1.120   2.754  1.00  0.00    -0.323 N 
ATOM     12  C   UNL     1       3.204   0.326   3.043  1.00  0.00     0.296 C 
ATOM     13  C   UNL     1       4.535  -1.257   2.898  1.00  0.00     0.296 C 
ATOM     14  H   UNL     1       2.571  -1.445   1.921  1.00  0.00     0.348 HD
BRANCH  11  15
ATOM     15  C   UNL     1       2.347  -1.836   3.817  1.00  0.00     0.363 C 
BRANCH  15  16
ATOM     16  C   UNL     1       2.090  -3.260   3.325  1.00  0.00     0.275 C 
ATOM     17  N   UNL     1       1.320  -3.443   2.207  1.00  0.00    -0.349 N 
ATOM     18  H   UNL     1       1.242  -4.372   1.890  1.00  0.00     0.163 HD
ATOM     19  O   UNL     1       2.557  -4.242   3.905  1.00  0.00    -0.268 OA
BRANCH  17  20
ATOM     20  C   UNL     1       0.600  -2.445   1.422  1.00  0.00     0.079 C 
ATOM     21  C   UNL     1       1.071  -2.468  -0.029  1.00  0.00     0.031 C 
BRANCH  20  22
ATOM     22  C   UNL     1      -0.924  -2.579   1.576  1.00  0.00     0.024 C 
BRANCH  22  23
ATOM     23  C   UNL     1      -1.554  -3.918   1.181  1.00  0.00    -0.001 C 
ATOM     24  C   UNL     1      -1.439  -4.998   2.248  1.00  0.00     0.004 C 
ENDBRANCH  22  23
ENDBRANCH  20  22
ENDBRANCH  17  20
ENDBRANCH  15  16
ENDBRANCH  11  15
ENDBRANCH   6  10
ENDBRANCH   3   5
ENDBRANCH   2   3
ENDBRANCH   1   2
BRANCH   1  25
ATOM     25  C   UNL     1      11.505   3.005   2.281  1.00  0.00     0.202 C 
BRANCH  25  26
ATOM     26  O   UNL     1      10.825   4.233   2.535  1.00  0.00    -0.374 OA
BRANCH  26  27
ATOM     27  C   UNL     1       9.471   4.386   2.123  1.00  0.00     0.202 C 
BRANCH  27  28
ATOM     28  C   UNL     1       9.172   4.473   0.633  1.00  0.00     0.261 C 
BRANCH  28  29
ATOM     29  O   UNL     1       9.505   3.281  -0.067  1.00  0.00    -0.460 OA
BRANCH  29  30
ATOM     30  C   UNL     1      10.617   3.395  -0.832  1.00  0.00     0.338 C 
ATOM     31  O   UNL     1      11.514   4.208  -0.703  1.00  0.00    -0.246 OA
BRANCH  30  32
ATOM     32  C   UNL     1      10.514   2.460  -1.958  1.00  0.00     0.060 A 
ATOM     33  C   UNL     1      11.580   2.440  -2.859  1.00  0.00     0.016 A 
ATOM     34  C   UNL     1       9.298   1.817  -2.237  1.00  0.00     0.016 A 
ATOM     35  C   UNL     1      11.360   1.931  -4.120  1.00  0.00     0.010 A 
ATOM     36  C   UNL     1       9.079   1.313  -3.499  1.00  0.00     0.010 A 
ATOM     37  C   UNL     1      10.086   1.448  -4.449  1.00  0.00    -0.014 A 
BRANCH  37  38
ATOM     38  C   UNL     1       9.873   0.958  -5.795  1.00  0.00     0.031 A 
ATOM     39  C   UNL     1      10.634  -0.280  -6.067  1.00  0.00     0.074 A 
ATOM     40  C   UNL     1       9.017   1.520  -6.670  1.00  0.00     0.049 A 
ATOM     41  N   UNL     1      11.680  -0.402  -6.812  1.00  0.00    -0.248 NA
ATOM     42  C   UNL     1      10.321  -1.473  -5.263  1.00  0.00     0.031 C 
ATOM     43  C   UNL     1       8.029   2.577  -6.439  1.00  0.00     0.029 A 
ATOM     44  N   UNL     1       8.795   1.180  -7.966  1.00  0.00    -0.354 N 
ATOM     45  C   UNL     1      12.024  -1.744  -6.752  1.00  0.00     0.074 A 
ATOM     46  C   UNL     1      11.290  -2.305  -5.646  1.00  0.00     0.031 C 
ATOM     47  C   UNL     1       7.167   2.619  -7.484  1.00  0.00     0.029 A 
ATOM     48  C   UNL     1       7.629   1.704  -8.515  1.00  0.00     0.049 A 
ATOM     49  H   UNL     1       9.411   0.608  -8.478  1.00  0.00     0.167 HD
ATOM     50  C   UNL     1      12.673  -2.352  -7.782  1.00  0.00     0.031 A 
ATOM     51  C   UNL     1       7.075   1.365  -9.709  1.00  0.00     0.031 A 
ATOM     52  C   UNL     1      13.278  -1.395  -8.671  1.00  0.00     0.049 A 
ATOM     53  C   UNL     1       8.155   0.758 -10.528  1.00  0.00     0.074 A 
ATOM     54  C   UNL     1      14.232  -0.408  -8.519  1.00  0.00     0.029 A 
ATOM     55  N   UNL     1      12.592  -1.090  -9.823  1.00  0.00    -0.354 N 
ATOM     56  N   UNL     1       9.190   1.428 -10.954  1.00  0.00    -0.248 NA
ATOM     57  C   UNL     1       8.328  -0.685 -10.463  1.00  0.00     0.031 C 
ATOM     58  C   UNL     1      13.759   0.682  -9.306  1.00  0.00     0.029 A 
ATOM     59  C   UNL     1      12.595   0.275  -9.962  1.00  0.00     0.049 A 
ATOM     60  H   UNL     1      12.174  -1.736 -10.438  1.00  0.00     0.167 HD
ATOM     61  C   UNL     1      10.263   0.563 -10.790  1.00  0.00     0.074 A 
ATOM     62  C   UNL     1       9.659  -0.750 -10.562  1.00  0.00     0.031 C 
ATOM     63  C   UNL     1      11.527   1.034 -10.580  1.00  0.00     0.031 A 
BRANCH  50  64
ATOM     64  C   UNL     1      12.388  -3.773  -8.185  1.00  0.00    -0.014 A 
ATOM     65  C   UNL     1      13.160  -4.370  -9.198  1.00  0.00     0.010 A 
ATOM     66  C   UNL     1      11.216  -4.453  -7.786  1.00  0.00     0.010 A 
ATOM     67  C   UNL     1      12.757  -5.568  -9.804  1.00  0.00     0.020 A 
ATOM     68  C   UNL     1      10.829  -5.666  -8.350  1.00  0.00     0.020 A 
ATOM     69  C   UNL     1      11.590  -6.205  -9.376  1.00  0.00     0.054 A 
BRANCH  69  70
ATOM     70  S   UNL     1      11.045  -7.717 -10.203  1.00  0.00     0.124 S 
ATOM     71  O   UNL     1      10.728  -7.230 -11.542  1.00  0.00    -0.237 OA
ATOM     72  O   UNL     1      12.227  -8.567 -10.098  1.00  0.00    -0.237 OA
ATOM     73  O   UNL     1       9.900  -8.149  -9.404  1.00  0.00    -0.744 OA
ENDBRANCH  69  70
ENDBRANCH  50  64
BRANCH  51  74
ATOM     74  C   UNL     1       5.636   1.190 -10.046  1.00  0.00    -0.014 A 
ATOM     75  C   UNL     1       5.213   1.032 -11.381  1.00  0.00     0.010 A 
ATOM     76  C   UNL     1       4.713   0.870  -9.030  1.00  0.00     0.010 A 
ATOM     77  C   UNL     1       3.941   0.511 -11.686  1.00  0.00     0.020 A 
ATOM     78  C   UNL     1       3.443   0.354  -9.326  1.00  0.00     0.020 A 
ATOM     79  C   UNL     1       3.071   0.153 -10.653  1.00  0.00     0.054 A 
BRANCH  79  80
ATOM     80  S   UNL     1       1.507  -0.691 -11.044  1.00  0.00     0.124 S 
ATOM     81  O   UNL     1       0.722   0.376 -11.658  1.00  0.00    -0.237 OA
ATOM     82  O   UNL     1       1.936  -1.758 -11.944  1.00  0.00    -0.237 OA
ATOM     83  O   UNL     1       1.025  -1.142  -9.739  1.00  0.00    -0.744 OA
ENDBRANCH  79  80
ENDBRANCH  51  74
BRANCH  63  84
ATOM     84  C   UNL     1      11.803   2.504 -10.815  1.00  0.00    -0.014 A 
ATOM     85  C   UNL     1      11.197   3.555 -10.097  1.00  0.00     0.010 A 
ATOM     86  C   UNL     1      12.847   2.817 -11.703  1.00  0.00     0.010 A 
ATOM     87  C   UNL     1      11.620   4.884 -10.280  1.00  0.00     0.020 A 
ATOM     88  C   UNL     1      13.284   4.131 -11.874  1.00  0.00     0.020 A 
ATOM     89  C   UNL     1      12.664   5.161 -11.168  1.00  0.00     0.054 A 
BRANCH  89  90
ATOM     90  S   UNL     1      13.248   6.869 -11.372  1.00  0.00     0.124 S 
ATOM     91  O   UNL     1      12.120   7.512 -12.041  1.00  0.00    -0.237 OA
ATOM     92  O   UNL     1      13.490   7.296  -9.995  1.00  0.00    -0.237 OA
ATOM     93  O   UNL     1      14.453   6.730 -12.188  1.00  0.00    -0.744 OA
ENDBRANCH  89  90
ENDBRANCH  63  84
ENDBRANCH  37  38
ENDBRANCH  30  32
ENDBRANCH  29  30
ENDBRANCH  28  29
ENDBRANCH  27  28
ENDBRANCH  26  27
ENDBRANCH  25  26
ENDBRANCH   1  25
TORSDOF 23
