REMARK SMILES O=C(OCCOCCOC(=O)c1ccc(-c2c3nc(c(-c4ccc(S(=O)(=O)[O-])cc4)c4ccc([nH]4)c(-c4ccc(S(=O)(=O)[O-])cc4)c4nc(c(-c5ccc(S(=O)(=O)[O-])cc5)c5ccc2[nH]5)C=C4)C=C3)cc1)C1=Cc2cc(Cl)cc(Cl)c2O[C@@H]1C(F)(F)F
REMARK SMILES IDX 7 1 6 2 5 3 4 4 3 5 2 6 1 7 72 8 73 9 83 10 74 11 82 12
REMARK SMILES IDX 75 13 81 14 76 15 79 16 77 17 78 18 80 19 84 20 85 21 86 22
REMARK SMILES IDX 87 23 8 24 9 25 10 26 11 27 12 28 13 29 71 30 14 31 70 32
REMARK SMILES IDX 15 33 16 34 17 35 64 36 18 37 69 38 63 39 65 40 19 41 68 42
REMARK SMILES IDX 62 43 61 44 20 46 50 47 31 48 49 49 32 50 35 51 48 52 66 53
REMARK SMILES IDX 33 54 34 55 47 57 67 58 36 59 21 60 22 61 30 62 23 63 29 64
REMARK SMILES IDX 24 65 25 66 26 67 27 68 28 69 51 70 52 71 60 72 53 73 59 74
REMARK SMILES IDX 54 75 55 76 56 77 57 78 58 79 37 80 38 81 46 82 39 83 45 84
REMARK SMILES IDX 40 85 41 86 42 87 43 88 44 89
REMARK H PARENT 65 45 35 56
REMARK Flexibility Score: inf
ROOT
ATOM      1  C   UNL     1       2.700   1.302   2.830  1.00  0.00     0.202 C 
ENDROOT
BRANCH   1   2
ATOM      2  O   UNL     1       3.690   0.309   2.529  1.00  0.00    -0.374 OA
BRANCH   2   3
ATOM      3  C   UNL     1       4.262  -0.306   1.203  1.00  0.00     0.202 C 
BRANCH   3   4
ATOM      4  C   UNL     1       3.373  -0.696  -0.750  1.00  0.00     0.261 C 
BRANCH   4   5
ATOM      5  O   UNL     1       2.542  -1.938  -1.158  1.00  0.00    -0.460 OA
BRANCH   5   6
ATOM      6  C   UNL     1       2.805  -3.014  -0.414  1.00  0.00     0.338 C 
ATOM      7  O   UNL     1       2.304  -4.108  -0.415  1.00  0.00    -0.246 OA
BRANCH   6   8
ATOM      8  C   UNL     1       3.628  -2.315   0.541  1.00  0.00     0.087 C 
ATOM      9  C   UNL     1       4.989  -2.069  -0.044  1.00  0.00     0.027 C 
ATOM     10  C   UNL     1       2.351  -0.923   0.982  1.00  0.00     0.316 C 
ATOM     11  C   UNL     1       5.575  -0.414  -0.546  1.00  0.00     0.020 A 
ATOM     12  O   UNL     1       2.943   0.812   0.398  1.00  0.00    -0.474 OA
ATOM     13  C   UNL     1       6.745  -0.306  -1.251  1.00  0.00     0.032 A 
ATOM     14  C   UNL     1       4.541   0.980  -0.456  1.00  0.00     0.146 A 
ATOM     15  C   UNL     1       6.950   0.938  -1.880  1.00  0.00     0.043 A 
ATOM     16  C   UNL     1       4.765   2.083  -1.229  1.00  0.00     0.085 A 
ATOM     17  Cl  UNL     1       8.430   1.124  -2.768  1.00  0.00    -0.084 Cl
ATOM     18  C   UNL     1       6.004   2.045  -1.909  1.00  0.00     0.045 A 
ATOM     19  Cl  UNL     1       3.556   3.217  -1.611  1.00  0.00    -0.080 Cl
BRANCH  10  20
ATOM     20  C   UNL     1       1.827  -1.400   2.388  1.00  0.00     0.430 C 
ATOM     21  F   UNL     1       0.940  -0.579   2.979  1.00  0.00    -0.167 F 
ATOM     22  F   UNL     1       1.144  -2.568   2.185  1.00  0.00    -0.167 F 
ATOM     23  F   UNL     1       2.793  -1.731   3.275  1.00  0.00    -0.167 F 
ENDBRANCH  10  20
ENDBRANCH   6   8
ENDBRANCH   5   6
ENDBRANCH   4   5
ENDBRANCH   3   4
ENDBRANCH   2   3
ENDBRANCH   1   2
BRANCH   1  24
ATOM     24  C   UNL     1       3.055   2.740   3.151  1.00  0.00     0.261 C 
BRANCH  24  25
ATOM     25  O   UNL     1       3.545   3.443   2.030  1.00  0.00    -0.460 OA
BRANCH  25  26
ATOM     26  C   UNL     1       4.867   3.707   2.066  1.00  0.00     0.338 C 
ATOM     27  O   UNL     1       5.706   3.220   2.799  1.00  0.00    -0.246 OA
BRANCH  26  28
ATOM     28  C   UNL     1       5.134   4.684   1.000  1.00  0.00     0.060 A 
ATOM     29  C   UNL     1       6.349   4.604   0.315  1.00  0.00     0.016 A 
ATOM     30  C   UNL     1       4.156   5.623   0.640  1.00  0.00     0.016 A 
ATOM     31  C   UNL     1       6.572   5.436  -0.777  1.00  0.00     0.010 A 
ATOM     32  C   UNL     1       4.377   6.450  -0.449  1.00  0.00     0.010 A 
ATOM     33  C   UNL     1       5.588   6.361  -1.152  1.00  0.00    -0.014 A 
BRANCH  33  34
ATOM     34  C   UNL     1       5.894   7.434  -2.110  1.00  0.00     0.031 A 
ATOM     35  C   UNL     1       6.377   8.726  -1.531  1.00  0.00     0.074 A 
ATOM     36  C   UNL     1       5.655   7.290  -3.423  1.00  0.00     0.049 A 
ATOM     37  N   UNL     1       6.603   9.864  -2.124  1.00  0.00    -0.248 NA
ATOM     38  C   UNL     1       6.614   8.737  -0.075  1.00  0.00     0.031 C 
ATOM     39  C   UNL     1       5.187   6.067  -4.072  1.00  0.00     0.029 A 
ATOM     40  N   UNL     1       5.745   8.203  -4.440  1.00  0.00    -0.354 N 
ATOM     41  C   UNL     1       6.997  10.730  -1.113  1.00  0.00     0.074 A 
ATOM     42  C   UNL     1       6.941  10.000   0.132  1.00  0.00     0.031 C 
ATOM     43  C   UNL     1       5.008   6.314  -5.382  1.00  0.00     0.029 A 
ATOM     44  C   UNL     1       5.312   7.718  -5.650  1.00  0.00     0.049 A 
ATOM     45  H   UNL     1       6.087   9.118  -4.316  1.00  0.00     0.167 HD
ATOM     46  C   UNL     1       7.369  12.024  -1.217  1.00  0.00     0.031 A 
ATOM     47  C   UNL     1       5.151   8.354  -6.828  1.00  0.00     0.031 A 
ATOM     48  C   UNL     1       7.350  12.748  -2.456  1.00  0.00     0.049 A 
ATOM     49  C   UNL     1       5.506   9.816  -6.916  1.00  0.00     0.074 A 
ATOM     50  C   UNL     1       7.711  14.060  -2.691  1.00  0.00     0.029 A 
ATOM     51  N   UNL     1       6.916  12.223  -3.666  1.00  0.00    -0.354 N 
ATOM     52  N   UNL     1       5.938  10.616  -5.968  1.00  0.00    -0.248 NA
ATOM     53  C   UNL     1       5.365  10.459  -8.229  1.00  0.00     0.031 C 
ATOM     54  C   UNL     1       7.425  14.350  -4.028  1.00  0.00     0.029 A 
ATOM     55  C   UNL     1       6.971  13.194  -4.647  1.00  0.00     0.049 A 
ATOM     56  H   UNL     1       6.614  11.296  -3.804  1.00  0.00     0.167 HD
ATOM     57  C   UNL     1       6.157  11.848  -6.578  1.00  0.00     0.074 A 
ATOM     58  C   UNL     1       5.807  11.685  -7.975  1.00  0.00     0.031 C 
ATOM     59  C   UNL     1       6.619  13.003  -6.035  1.00  0.00     0.031 A 
BRANCH  46  60
ATOM     60  C   UNL     1       7.745  12.725   0.059  1.00  0.00    -0.014 A 
ATOM     61  C   UNL     1       8.882  12.343   0.798  1.00  0.00     0.010 A 
ATOM     62  C   UNL     1       6.918  13.748   0.555  1.00  0.00     0.010 A 
ATOM     63  C   UNL     1       9.142  12.920   2.042  1.00  0.00     0.020 A 
ATOM     64  C   UNL     1       7.197  14.355   1.781  1.00  0.00     0.020 A 
ATOM     65  C   UNL     1       8.292  13.917   2.530  1.00  0.00     0.054 A 
BRANCH  65  66
ATOM     66  S   UNL     1       8.637  14.631   4.159  1.00  0.00     0.124 S 
ATOM     67  O   UNL     1       8.283  13.529   5.051  1.00  0.00    -0.237 OA
ATOM     68  O   UNL     1      10.063  14.938   4.076  1.00  0.00    -0.237 OA
ATOM     69  O   UNL     1       7.754  15.792   4.224  1.00  0.00    -0.744 OA
ENDBRANCH  65  66
ENDBRANCH  46  60
BRANCH  47  70
ATOM     70  C   UNL     1       4.628   7.604  -8.003  1.00  0.00    -0.014 A 
ATOM     71  C   UNL     1       5.468   7.283  -9.084  1.00  0.00     0.010 A 
ATOM     72  C   UNL     1       3.293   7.157  -8.022  1.00  0.00     0.010 A 
ATOM     73  C   UNL     1       4.986   6.525 -10.156  1.00  0.00     0.020 A 
ATOM     74  C   UNL     1       2.815   6.376  -9.079  1.00  0.00     0.020 A 
ATOM     75  C   UNL     1       3.666   6.065 -10.141  1.00  0.00     0.054 A 
BRANCH  75  76
ATOM     76  S   UNL     1       3.096   5.000 -11.496  1.00  0.00     0.124 S 
ATOM     77  O   UNL     1       3.062   5.929 -12.622  1.00  0.00    -0.237 OA
ATOM     78  O   UNL     1       4.139   3.979 -11.548  1.00  0.00    -0.237 OA
ATOM     79  O   UNL     1       1.793   4.526 -11.036  1.00  0.00    -0.744 OA
ENDBRANCH  75  76
ENDBRANCH  47  70
BRANCH  59  80
ATOM     80  C   UNL     1       6.835  14.177  -6.953  1.00  0.00    -0.014 A 
ATOM     81  C   UNL     1       5.761  14.908  -7.486  1.00  0.00     0.010 A 
ATOM     82  C   UNL     1       8.151  14.621  -7.186  1.00  0.00     0.010 A 
ATOM     83  C   UNL     1       6.000  16.058  -8.243  1.00  0.00     0.020 A 
ATOM     84  C   UNL     1       8.393  15.787  -7.913  1.00  0.00     0.020 A 
ATOM     85  C   UNL     1       7.314  16.496  -8.444  1.00  0.00     0.054 A 
BRANCH  85  86
ATOM     86  S   UNL     1       7.592  18.038  -9.357  1.00  0.00     0.124 S 
ATOM     87  O   UNL     1       7.235  17.653 -10.719  1.00  0.00    -0.237 OA
ATOM     88  O   UNL     1       6.671  18.965  -8.703  1.00  0.00    -0.237 OA
ATOM     89  O   UNL     1       9.009  18.320  -9.140  1.00  0.00    -0.744 OA
ENDBRANCH  85  86
ENDBRANCH  59  80
ENDBRANCH  33  34
ENDBRANCH  26  28
ENDBRANCH  25  26
ENDBRANCH  24  25
ENDBRANCH   1  24
TORSDOF 18
