REMARK SMILES Cc1c(Cl)ccc2c1C=C(C(=O)OCCOCCOC(=O)c1ccc(-c3c4nc(c(-c5ccc(S(=O)(=O)[O-])cc5)c5ccc([nH]5)c(-c5ccc(S(=O)(=O)[O-])cc5)c5nc(c(-c6ccc(S(=O)(=O)[O-])cc6)c6ccc3[nH]6)C=C5)C=C4)cc1)[C@@H](C(F)(F)F)O2
REMARK SMILES IDX 17 1 16 2 15 3 14 4 13 5 11 6 12 7 10 8 1 9 2 10 3 11 8 12
REMARK SMILES IDX 4 13 5 14 7 15 9 16 6 17 87 18 82 19 83 20 84 21 85 22 86 23
REMARK SMILES IDX 18 24 19 25 20 26 21 27 22 28 23 29 81 30 24 31 80 32 25 33
REMARK SMILES IDX 26 34 27 35 74 36 28 37 79 38 73 39 75 40 29 41 78 42 72 43
REMARK SMILES IDX 71 44 30 46 60 47 41 48 59 49 42 50 45 51 58 52 76 53 43 54
REMARK SMILES IDX 44 55 57 57 77 58 46 59 31 60 32 61 40 62 33 63 39 64 34 65
REMARK SMILES IDX 35 66 36 67 37 68 38 69 61 70 62 71 70 72 63 73 69 74 64 75
REMARK SMILES IDX 65 76 66 77 67 78 68 79 47 80 48 81 56 82 49 83 55 84 50 85
REMARK SMILES IDX 51 86 52 87 53 88 54 89
REMARK H PARENT 75 45 45 56
REMARK Flexibility Score: inf
ROOT
ATOM      1  C   UNL     1       0.545   4.865   2.806  1.00  0.00     0.202 C 
ENDROOT
BRANCH   1   2
ATOM      2  O   UNL     1       1.714   5.167   3.573  1.00  0.00    -0.374 OA
BRANCH   2   3
ATOM      3  C   UNL     1       2.445   6.341   3.226  1.00  0.00     0.202 C 
BRANCH   3   4
ATOM      4  C   UNL     1       3.402   6.224   2.036  1.00  0.00     0.261 C 
BRANCH   4   5
ATOM      5  O   UNL     1       2.743   5.714   0.867  1.00  0.00    -0.460 OA
BRANCH   5   6
ATOM      6  C   UNL     1       3.116   4.464   0.512  1.00  0.00     0.338 C 
ATOM      7  O   UNL     1       4.021   3.801   0.998  1.00  0.00    -0.246 OA
BRANCH   6   8
ATOM      8  C   UNL     1       2.173   3.924  -0.486  1.00  0.00     0.087 C 
ATOM      9  C   UNL     1       1.006  -0.173   0.009  1.00  0.00     0.047 C 
ATOM     10  C   UNL     1       0.606   0.633  -1.203  1.00  0.00    -0.021 A 
ATOM     11  C   UNL     1      -0.105   0.057  -2.273  1.00  0.00     0.044 A 
ATOM     12  C   UNL     1       0.959   2.005  -1.292  1.00  0.00     0.022 A 
ATOM     13  Cl  UNL     1      -0.521  -1.622  -2.316  1.00  0.00    -0.084 Cl
ATOM     14  C   UNL     1      -0.499   0.829  -3.369  1.00  0.00     0.024 A 
ATOM     15  C   UNL     1       0.529   2.774  -2.383  1.00  0.00     0.128 A 
ATOM     16  C   UNL     1       1.810   2.648  -0.299  1.00  0.00     0.027 C 
ATOM     17  C   UNL     1      -0.201   2.188  -3.414  1.00  0.00     0.048 A 
ATOM     18  O   UNL     1       0.761   4.114  -2.521  1.00  0.00    -0.475 OA
ATOM     19  C   UNL     1       1.696   4.774  -1.625  1.00  0.00     0.316 C 
BRANCH  19  20
ATOM     20  C   UNL     1       2.853   5.340  -2.462  1.00  0.00     0.430 C 
ATOM     21  F   UNL     1       2.391   6.063  -3.509  1.00  0.00    -0.167 F 
ATOM     22  F   UNL     1       3.643   6.162  -1.733  1.00  0.00    -0.167 F 
ATOM     23  F   UNL     1       3.639   4.357  -2.960  1.00  0.00    -0.167 F 
ENDBRANCH  19  20
ENDBRANCH   6   8
ENDBRANCH   5   6
ENDBRANCH   4   5
ENDBRANCH   3   4
ENDBRANCH   2   3
ENDBRANCH   1   2
BRANCH   1  24
ATOM     24  C   UNL     1      -0.660   5.799   2.971  1.00  0.00     0.261 C 
BRANCH  24  25
ATOM     25  O   UNL     1      -0.446   7.065   2.318  1.00  0.00    -0.460 OA
BRANCH  25  26
ATOM     26  C   UNL     1      -0.510   8.144   3.133  1.00  0.00     0.338 C 
ATOM     27  O   UNL     1      -0.779   8.156   4.327  1.00  0.00    -0.246 OA
BRANCH  26  28
ATOM     28  C   UNL     1      -0.033   9.339   2.423  1.00  0.00     0.060 A 
ATOM     29  C   UNL     1       1.150   9.944   2.868  1.00  0.00     0.016 A 
ATOM     30  C   UNL     1      -0.806   9.933   1.424  1.00  0.00     0.016 A 
ATOM     31  C   UNL     1       1.544  11.172   2.345  1.00  0.00     0.010 A 
ATOM     32  C   UNL     1      -0.422  11.177   0.916  1.00  0.00     0.010 A 
ATOM     33  C   UNL     1       0.731  11.817   1.404  1.00  0.00    -0.014 A 
BRANCH  33  34
ATOM     34  C   UNL     1       0.985  13.238   1.075  1.00  0.00     0.031 A 
ATOM     35  C   UNL     1       0.278  14.298   1.875  1.00  0.00     0.074 A 
ATOM     36  C   UNL     1       1.844  13.581   0.100  1.00  0.00     0.049 A 
ATOM     37  N   UNL     1       0.304  15.597   1.728  1.00  0.00    -0.248 NA
ATOM     38  C   UNL     1      -0.565  13.835   2.992  1.00  0.00     0.031 C 
ATOM     39  C   UNL     1       2.637  12.646  -0.697  1.00  0.00     0.029 A 
ATOM     40  N   UNL     1       2.191  14.817  -0.383  1.00  0.00    -0.354 N 
ATOM     41  C   UNL     1      -0.516  16.105   2.728  1.00  0.00     0.074 A 
ATOM     42  C   UNL     1      -1.037  14.978   3.469  1.00  0.00     0.031 C 
ATOM     43  C   UNL     1       3.372  13.345  -1.581  1.00  0.00     0.029 A 
ATOM     44  C   UNL     1       3.077  14.769  -1.431  1.00  0.00     0.049 A 
ATOM     45  H   UNL     1       1.838  15.659  -0.014  1.00  0.00     0.167 HD
ATOM     46  C   UNL     1      -0.807  17.396   3.005  1.00  0.00     0.031 A 
ATOM     47  C   UNL     1       3.575  15.759  -2.198  1.00  0.00     0.031 A 
ATOM     48  C   UNL     1      -0.300  18.515   2.260  1.00  0.00     0.049 A 
ATOM     49  C   UNL     1       3.162  17.182  -1.932  1.00  0.00     0.074 A 
ATOM     50  C   UNL     1      -0.543  19.862   2.464  1.00  0.00     0.029 A 
ATOM     51  N   UNL     1       0.546  18.419   1.167  1.00  0.00    -0.354 N 
ATOM     52  N   UNL     1       2.374  17.646  -0.992  1.00  0.00    -0.248 NA
ATOM     53  C   UNL     1       3.698  18.213  -2.833  1.00  0.00     0.031 C 
ATOM     54  C   UNL     1       0.122  20.579   1.466  1.00  0.00     0.029 A 
ATOM     55  C   UNL     1       0.816  19.680   0.670  1.00  0.00     0.049 A 
ATOM     56  H   UNL     1       0.901  17.577   0.799  1.00  0.00     0.167 HD
ATOM     57  C   UNL     1       2.331  19.023  -1.179  1.00  0.00     0.074 A 
ATOM     58  C   UNL     1       3.176  19.319  -2.317  1.00  0.00     0.031 C 
ATOM     59  C   UNL     1       1.654  19.957  -0.468  1.00  0.00     0.031 A 
BRANCH  46  60
ATOM     60  C   UNL     1      -1.738  17.675   4.149  1.00  0.00    -0.014 A 
ATOM     61  C   UNL     1      -1.284  17.616   5.478  1.00  0.00     0.010 A 
ATOM     62  C   UNL     1      -3.060  18.078   3.889  1.00  0.00     0.010 A 
ATOM     63  C   UNL     1      -2.141  17.951   6.530  1.00  0.00     0.020 A 
ATOM     64  C   UNL     1      -3.915  18.428   4.937  1.00  0.00     0.020 A 
ATOM     65  C   UNL     1      -3.449  18.362   6.251  1.00  0.00     0.054 A 
BRANCH  65  66
ATOM     66  S   UNL     1      -4.520  18.831   7.638  1.00  0.00     0.124 S 
ATOM     67  O   UNL     1      -4.588  17.590   8.405  1.00  0.00    -0.237 OA
ATOM     68  O   UNL     1      -3.768  19.916   8.262  1.00  0.00    -0.237 OA
ATOM     69  O   UNL     1      -5.770  19.228   6.994  1.00  0.00    -0.744 OA
ENDBRANCH  65  66
ENDBRANCH  46  60
BRANCH  47  70
ATOM     70  C   UNL     1       4.503  15.429  -3.311  1.00  0.00    -0.014 A 
ATOM     71  C   UNL     1       5.876  15.703  -3.201  1.00  0.00     0.010 A 
ATOM     72  C   UNL     1       4.017  14.807  -4.476  1.00  0.00     0.010 A 
ATOM     73  C   UNL     1       6.750  15.354  -4.235  1.00  0.00     0.020 A 
ATOM     74  C   UNL     1       4.890  14.440  -5.503  1.00  0.00     0.020 A 
ATOM     75  C   UNL     1       6.253  14.714  -5.375  1.00  0.00     0.054 A 
BRANCH  75  76
ATOM     76  S   UNL     1       7.420  14.220  -6.672  1.00  0.00     0.124 S 
ATOM     77  O   UNL     1       7.972  15.503  -7.096  1.00  0.00    -0.237 OA
ATOM     78  O   UNL     1       8.337  13.347  -5.943  1.00  0.00    -0.237 OA
ATOM     79  O   UNL     1       6.576  13.547  -7.657  1.00  0.00    -0.744 OA
ENDBRANCH  75  76
ENDBRANCH  47  70
BRANCH  59  80
ATOM     80  C   UNL     1       1.796  21.396  -0.878  1.00  0.00    -0.014 A 
ATOM     81  C   UNL     1       1.083  21.904  -1.976  1.00  0.00     0.010 A 
ATOM     82  C   UNL     1       2.559  22.273  -0.084  1.00  0.00     0.010 A 
ATOM     83  C   UNL     1       1.131  23.268  -2.275  1.00  0.00     0.020 A 
ATOM     84  C   UNL     1       2.593  23.640  -0.369  1.00  0.00     0.020 A 
ATOM     85  C   UNL     1       1.877  24.128  -1.464  1.00  0.00     0.054 A 
BRANCH  85  86
ATOM     86  S   UNL     1       1.864  25.903  -1.840  1.00  0.00     0.124 S 
ATOM     87  O   UNL     1       2.468  25.940  -3.170  1.00  0.00    -0.237 OA
ATOM     88  O   UNL     1       0.440  26.224  -1.788  1.00  0.00    -0.237 OA
ATOM     89  O   UNL     1       2.673  26.492  -0.775  1.00  0.00    -0.744 OA
ENDBRANCH  85  86
ENDBRANCH  59  80
ENDBRANCH  33  34
ENDBRANCH  26  28
ENDBRANCH  25  26
ENDBRANCH  24  25
ENDBRANCH   1  24
TORSDOF 18
