REMARK SMILES O=C(CNC(=O)N1CC(OCCOCCOC(=O)c2ccc(-c3c4nc(c(-c5ccc(S(=O)(=O)[O-])cc5)c5ccc([nH]5)c(-c5ccc(S(=O)(=O)[O-])cc5)c5nc(c(-c6ccc(S(=O)(=O)[O-])cc6)c6ccc3[nH]6)C=C5)C=C4)cc2)=Nc2ccccc21)N[C@H](C(=O)[O-])c1ccccc1
REMARK SMILES IDX 12 1 11 2 10 3 9 4 7 5 8 6 85 7 80 8 84 9 79 10 81 11 83 12
REMARK SMILES IDX 82 13 5 14 4 15 6 17 3 18 2 19 1 20 86 21 87 23 91 24 92 25
REMARK SMILES IDX 96 26 93 27 95 28 94 29 88 30 89 31 90 32 13 33 14 34 15 35
REMARK SMILES IDX 16 36 17 37 18 38 19 39 20 40 78 41 21 42 77 43 22 44 23 45
REMARK SMILES IDX 24 46 71 47 25 48 76 49 70 50 72 51 26 52 75 53 69 54 68 55
REMARK SMILES IDX 27 57 57 58 38 59 56 60 39 61 42 62 55 63 73 64 40 65 41 66
REMARK SMILES IDX 54 68 74 69 43 70 28 71 29 72 37 73 30 74 36 75 31 76 32 77
REMARK SMILES IDX 33 78 34 79 35 80 58 81 59 82 67 83 60 84 66 85 61 86 62 87
REMARK SMILES IDX 63 88 64 89 65 90 44 91 45 92 53 93 46 94 52 95 47 96 48 97
REMARK SMILES IDX 49 98 50 99 51 100
REMARK H PARENT 4 16 86 22 72 56 42 67
REMARK Flexibility Score: inf
ROOT
ATOM      1  C   UNL     1      -1.675   4.384   2.495  1.00  0.00     0.202 C 
ENDROOT
BRANCH   1   2
ATOM      2  C   UNL     1      -1.781   5.852   2.942  1.00  0.00     0.259 C 
BRANCH   2   3
ATOM      3  O   UNL     1      -1.044   6.741   2.065  1.00  0.00    -0.477 OA
BRANCH   3   4
ATOM      4  C   UNL     1       0.207   7.096   2.441  1.00  0.00     0.209 C 
ATOM      5  N   UNL     1       2.454   7.266   1.442  1.00  0.00    -0.283 N 
ATOM      6  C   UNL     1       1.042   7.643   1.309  1.00  0.00     0.224 C 
ATOM      7  C   UNL     1       2.945   7.180   2.786  1.00  0.00     0.072 A 
ATOM      8  C   UNL     1       2.017   7.036   3.845  1.00  0.00     0.091 A 
ATOM      9  C   UNL     1       4.306   7.239   3.102  1.00  0.00     0.029 A 
ATOM     10  N   UNL     1       0.632   6.925   3.648  1.00  0.00    -0.214 NA
ATOM     11  C   UNL     1       2.470   6.827   5.152  1.00  0.00     0.030 A 
ATOM     12  C   UNL     1       4.747   7.021   4.412  1.00  0.00     0.002 A 
ATOM     13  C   UNL     1       3.830   6.794   5.434  1.00  0.00     0.002 A 
BRANCH   5  14
ATOM     14  C   UNL     1       3.178   7.251   0.275  1.00  0.00     0.322 C 
ATOM     15  N   UNL     1       4.240   6.434   0.103  1.00  0.00    -0.329 N 
ATOM     16  H   UNL     1       4.858   6.721  -0.608  1.00  0.00     0.165 HD
ATOM     17  O   UNL     1       2.844   7.930  -0.701  1.00  0.00    -0.248 OA
BRANCH  15  18
ATOM     18  C   UNL     1       4.636   5.202   0.782  1.00  0.00     0.218 C 
BRANCH  18  19
ATOM     19  C   UNL     1       4.813   4.075  -0.242  1.00  0.00     0.240 C 
ATOM     20  O   UNL     1       5.900   3.540  -0.430  1.00  0.00    -0.273 OA
ATOM     21  N   UNL     1       3.635   3.752  -0.876  1.00  0.00    -0.342 N 
ATOM     22  H   UNL     1       2.926   4.434  -0.927  1.00  0.00     0.164 HD
BRANCH  21  23
ATOM     23  C   UNL     1       3.384   2.421  -1.488  1.00  0.00     0.158 C 
BRANCH  23  24
ATOM     24  C   UNL     1       3.516   2.477  -3.007  1.00  0.00    -0.020 A 
ATOM     25  C   UNL     1       3.689   1.334  -3.800  1.00  0.00     0.006 A 
ATOM     26  C   UNL     1       3.290   3.694  -3.689  1.00  0.00     0.006 A 
ATOM     27  C   UNL     1       3.683   1.405  -5.199  1.00  0.00     0.000 A 
ATOM     28  C   UNL     1       3.279   3.768  -5.085  1.00  0.00     0.000 A 
ATOM     29  C   UNL     1       3.480   2.622  -5.842  1.00  0.00     0.000 A 
ENDBRANCH  23  24
BRANCH  23  30
ATOM     30  C   UNL     1       3.894   1.224  -0.594  1.00  0.00     0.068 C 
ATOM     31  O   UNL     1       4.281   0.163  -1.156  1.00  0.00    -0.548 OA
ATOM     32  O   UNL     1       3.785   1.441   0.662  1.00  0.00    -0.548 OA
ENDBRANCH  23  30
ENDBRANCH  21  23
ENDBRANCH  18  19
ENDBRANCH  15  18
ENDBRANCH   5  14
ENDBRANCH   3   4
ENDBRANCH   2   3
ENDBRANCH   1   2
BRANCH   1  33
ATOM     33  O   UNL     1      -0.636   3.607   3.097  1.00  0.00    -0.374 OA
BRANCH  33  34
ATOM     34  C   UNL     1       0.690   3.808   2.624  1.00  0.00     0.202 C 
BRANCH  34  35
ATOM     35  C   UNL     1       1.113   3.147   1.316  1.00  0.00     0.261 C 
BRANCH  35  36
ATOM     36  O   UNL     1       0.137   3.228   0.277  1.00  0.00    -0.460 OA
BRANCH  36  37
ATOM     37  C   UNL     1      -0.629   2.118   0.218  1.00  0.00     0.338 C 
ATOM     38  O   UNL     1      -0.555   1.115   0.927  1.00  0.00    -0.246 OA
BRANCH  37  39
ATOM     39  C   UNL     1      -1.752   2.321  -0.699  1.00  0.00     0.060 A 
ATOM     40  C   UNL     1      -3.008   1.917  -0.233  1.00  0.00     0.016 A 
ATOM     41  C   UNL     1      -1.589   2.818  -1.996  1.00  0.00     0.016 A 
ATOM     42  C   UNL     1      -4.103   1.945  -1.081  1.00  0.00     0.010 A 
ATOM     43  C   UNL     1      -2.694   2.849  -2.848  1.00  0.00     0.010 A 
ATOM     44  C   UNL     1      -3.942   2.376  -2.403  1.00  0.00    -0.014 A 
BRANCH  44  45
ATOM     45  C   UNL     1      -5.056   2.183  -3.353  1.00  0.00     0.031 A 
ATOM     46  C   UNL     1      -5.018   0.997  -4.274  1.00  0.00     0.074 A 
ATOM     47  C   UNL     1      -6.100   3.029  -3.347  1.00  0.00     0.049 A 
ATOM     48  N   UNL     1      -5.870   0.645  -5.201  1.00  0.00    -0.248 NA
ATOM     49  C   UNL     1      -3.872   0.082  -4.130  1.00  0.00     0.031 C 
ATOM     50  C   UNL     1      -6.254   4.173  -2.446  1.00  0.00     0.029 A 
ATOM     51  N   UNL     1      -7.230   3.056  -4.122  1.00  0.00    -0.354 N 
ATOM     52  C   UNL     1      -5.355  -0.519  -5.760  1.00  0.00     0.074 A 
ATOM     53  C   UNL     1      -4.111  -0.807  -5.083  1.00  0.00     0.031 C 
ATOM     54  C   UNL     1      -7.412   4.795  -2.726  1.00  0.00     0.029 A 
ATOM     55  C   UNL     1      -8.058   4.117  -3.847  1.00  0.00     0.049 A 
ATOM     56  H   UNL     1      -7.429   2.380  -4.809  1.00  0.00     0.167 HD
ATOM     57  C   UNL     1      -5.878  -1.276  -6.753  1.00  0.00     0.031 A 
ATOM     58  C   UNL     1      -9.197   4.508  -4.451  1.00  0.00     0.031 A 
ATOM     59  C   UNL     1      -7.113  -0.966  -7.422  1.00  0.00     0.049 A 
ATOM     60  C   UNL     1      -9.725   3.687  -5.597  1.00  0.00     0.074 A 
ATOM     61  C   UNL     1      -7.737  -1.658  -8.443  1.00  0.00     0.029 A 
ATOM     62  N   UNL     1      -7.909   0.134  -7.134  1.00  0.00    -0.354 N 
ATOM     63  N   UNL     1      -9.233   2.586  -6.116  1.00  0.00    -0.248 NA
ATOM     64  C   UNL     1     -10.962   4.153  -6.238  1.00  0.00     0.031 C 
ATOM     65  C   UNL     1      -8.889  -0.952  -8.804  1.00  0.00     0.029 A 
ATOM     66  C   UNL     1      -9.011   0.149  -7.969  1.00  0.00     0.049 A 
ATOM     67  H   UNL     1      -7.718   0.804  -6.439  1.00  0.00     0.167 HD
ATOM     68  C   UNL     1     -10.116   2.209  -7.120  1.00  0.00     0.074 A 
ATOM     69  C   UNL     1     -11.174   3.200  -7.138  1.00  0.00     0.031 C 
ATOM     70  C   UNL     1     -10.060   1.138  -7.949  1.00  0.00     0.031 A 
BRANCH  57  71
ATOM     71  C   UNL     1      -5.097  -2.484  -7.197  1.00  0.00    -0.014 A 
ATOM     72  C   UNL     1      -5.012  -3.637  -6.395  1.00  0.00     0.010 A 
ATOM     73  C   UNL     1      -4.467  -2.479  -8.455  1.00  0.00     0.010 A 
ATOM     74  C   UNL     1      -4.293  -4.753  -6.834  1.00  0.00     0.020 A 
ATOM     75  C   UNL     1      -3.766  -3.601  -8.907  1.00  0.00     0.020 A 
ATOM     76  C   UNL     1      -3.675  -4.729  -8.088  1.00  0.00     0.054 A 
BRANCH  76  77
ATOM     77  S   UNL     1      -2.796  -6.210  -8.661  1.00  0.00     0.124 S 
ATOM     78  O   UNL     1      -1.577  -6.173  -7.858  1.00  0.00    -0.237 OA
ATOM     79  O   UNL     1      -3.730  -7.285  -8.335  1.00  0.00    -0.237 OA
ATOM     80  O   UNL     1      -2.607  -5.971 -10.090  1.00  0.00    -0.744 OA
ENDBRANCH  76  77
ENDBRANCH  57  71
BRANCH  58  81
ATOM     81  C   UNL     1      -9.893   5.741  -3.995  1.00  0.00    -0.014 A 
ATOM     82  C   UNL     1     -11.127   5.666  -3.326  1.00  0.00     0.010 A 
ATOM     83  C   UNL     1      -9.311   7.005  -4.213  1.00  0.00     0.010 A 
ATOM     84  C   UNL     1     -11.773   6.831  -2.898  1.00  0.00     0.020 A 
ATOM     85  C   UNL     1      -9.941   8.169  -3.765  1.00  0.00     0.020 A 
ATOM     86  C   UNL     1     -11.176   8.076  -3.120  1.00  0.00     0.054 A 
BRANCH  86  87
ATOM     87  S   UNL     1     -12.011   9.570  -2.518  1.00  0.00     0.124 S 
ATOM     88  O   UNL     1     -13.099   9.719  -3.480  1.00  0.00    -0.237 OA
ATOM     89  O   UNL     1     -12.412   9.189  -1.166  1.00  0.00    -0.237 OA
ATOM     90  O   UNL     1     -10.973  10.596  -2.586  1.00  0.00    -0.744 OA
ENDBRANCH  86  87
ENDBRANCH  58  81
BRANCH  70  91
ATOM     91  C   UNL     1     -11.200   0.940  -8.910  1.00  0.00    -0.014 A 
ATOM     92  C   UNL     1     -11.306   1.705 -10.083  1.00  0.00     0.010 A 
ATOM     93  C   UNL     1     -12.111  -0.109  -8.685  1.00  0.00     0.010 A 
ATOM     94  C   UNL     1     -12.311   1.429 -11.014  1.00  0.00     0.020 A 
ATOM     95  C   UNL     1     -13.103  -0.402  -9.623  1.00  0.00     0.020 A 
ATOM     96  C   UNL     1     -13.199   0.373 -10.781  1.00  0.00     0.054 A 
BRANCH  96  97
ATOM     97  S   UNL     1     -14.439  -0.023 -12.045  1.00  0.00     0.124 S 
ATOM     98  O   UNL     1     -15.411   1.053 -11.868  1.00  0.00    -0.237 OA
ATOM     99  O   UNL     1     -13.666   0.028 -13.284  1.00  0.00    -0.237 OA
ATOM    100  O   UNL     1     -14.909  -1.354 -11.668  1.00  0.00    -0.744 OA
ENDBRANCH  96  97
ENDBRANCH  70  91
ENDBRANCH  44  45
ENDBRANCH  37  39
ENDBRANCH  36  37
ENDBRANCH  35  36
ENDBRANCH  34  35
ENDBRANCH  33  34
ENDBRANCH   1  33
TORSDOF 22
