REMARK SMILES Cc1ccc(Nc2c(F)cccc2I)c(CC(=O)OCCOCCOC(=O)c2ccc(-c3c4nc(c(-c5ccc(S(=O)(=O)[O-])cc5)c5ccc([nH]5)c(-c5ccc(S(=O)(=O)[O-])cc5)c5nc(c(-c6ccc(S(=O)(=O)[O-])cc6)c6ccc3[nH]6)C=C5)C=C4)cc2)c1
REMARK SMILES IDX 22 1 21 2 20 3 19 4 17 5 18 6 16 7 15 8 1 9 2 10 3 11 88 12
REMARK SMILES IDX 4 13 5 14 6 15 7 17 8 18 13 19 9 20 10 21 12 22 14 23 11 24
REMARK SMILES IDX 23 25 24 26 25 27 26 28 27 29 28 30 29 31 87 32 30 33 86 34
REMARK SMILES IDX 31 35 32 36 33 37 80 38 34 39 85 40 79 41 81 42 35 43 84 44
REMARK SMILES IDX 78 45 77 46 36 48 66 49 47 50 65 51 48 52 51 53 64 54 82 55
REMARK SMILES IDX 49 56 50 57 63 59 83 60 52 61 37 62 38 63 46 64 39 65 45 66
REMARK SMILES IDX 40 67 41 68 42 69 43 70 44 71 67 72 68 73 76 74 69 75 75 76
REMARK SMILES IDX 70 77 71 78 72 79 73 80 74 81 53 82 54 83 62 84 55 85 61 86
REMARK SMILES IDX 56 87 57 88 58 89 59 90 60 91
REMARK H PARENT 6 16 81 47 51 58
REMARK Flexibility Score: inf
ROOT
ATOM      1  O   UNL     1      -3.099   0.880  -2.889  1.00  0.00    -0.374 OA
ENDROOT
BRANCH   1   2
ATOM      2  C   UNL     1      -1.725   1.004  -3.198  1.00  0.00     0.202 C 
BRANCH   2   3
ATOM      3  C   UNL     1      -1.214   2.175  -2.389  1.00  0.00     0.261 C 
BRANCH   3   4
ATOM      4  O   UNL     1      -1.173   1.913  -0.995  1.00  0.00    -0.463 OA
BRANCH   4   5
ATOM      5  C   UNL     1      -2.079   2.549  -0.185  1.00  0.00     0.310 C 
ATOM      6  O   UNL     1      -2.917   3.367  -0.507  1.00  0.00    -0.252 OA
BRANCH   5   7
ATOM      7  C   UNL     1      -1.876   2.106   1.257  1.00  0.00     0.160 C 
BRANCH   7   8
ATOM      8  C   UNL     1      -1.192   0.750   1.288  1.00  0.00    -0.013 A 
ATOM      9  C   UNL     1       2.328  -0.202   0.132  1.00  0.00     0.044 C 
ATOM     10  C   UNL     1       0.903  -0.318   0.583  1.00  0.00    -0.051 A 
ATOM     11  C   UNL     1       0.206  -1.509   0.433  1.00  0.00     0.005 A 
ATOM     12  C   UNL     1       0.215   0.787   1.077  1.00  0.00     0.009 A 
ATOM     13  C   UNL     1      -1.165  -1.573   0.718  1.00  0.00     0.026 A 
ATOM     14  C   UNL     1      -1.912  -0.452   1.127  1.00  0.00     0.042 A 
BRANCH  14  15
ATOM     15  N   UNL     1      -3.323  -0.521   1.307  1.00  0.00    -0.352 N 
ATOM     16  H   UNL     1      -3.777   0.344   1.432  1.00  0.00     0.167 HD
BRANCH  15  17
ATOM     17  C   UNL     1      -4.169  -1.663   1.330  1.00  0.00     0.088 A 
ATOM     18  C   UNL     1      -3.743  -2.878   1.890  1.00  0.00     0.147 A 
ATOM     19  C   UNL     1      -5.408  -1.695   0.660  1.00  0.00     0.040 A 
ATOM     20  F   UNL     1      -2.678  -2.907   2.707  1.00  0.00    -0.205 F 
ATOM     21  C   UNL     1      -4.389  -4.086   1.637  1.00  0.00     0.041 A 
ATOM     22  C   UNL     1      -6.026  -2.915   0.332  1.00  0.00     0.017 A 
ATOM     23  I   UNL     1      -6.539   0.046   0.319  1.00  0.00    -0.042 I 
ATOM     24  C   UNL     1      -5.495  -4.115   0.799  1.00  0.00     0.004 A 
ENDBRANCH  15  17
ENDBRANCH  14  15
ENDBRANCH   7   8
ENDBRANCH   5   7
ENDBRANCH   4   5
ENDBRANCH   3   4
ENDBRANCH   2   3
ENDBRANCH   1   2
BRANCH   1  25
ATOM     25  C   UNL     1      -3.448  -0.232  -2.106  1.00  0.00     0.202 C 
BRANCH  25  26
ATOM     26  C   UNL     1      -3.904  -1.377  -3.000  1.00  0.00     0.261 C 
BRANCH  26  27
ATOM     27  O   UNL     1      -5.231  -1.175  -3.554  1.00  0.00    -0.460 OA
BRANCH  27  28
ATOM     28  C   UNL     1      -5.323  -0.591  -4.789  1.00  0.00     0.338 C 
ATOM     29  O   UNL     1      -5.638  -1.202  -5.798  1.00  0.00    -0.246 OA
BRANCH  28  30
ATOM     30  C   UNL     1      -5.272   0.891  -4.718  1.00  0.00     0.060 A 
ATOM     31  C   UNL     1      -4.665   1.654  -5.726  1.00  0.00     0.016 A 
ATOM     32  C   UNL     1      -5.708   1.501  -3.546  1.00  0.00     0.016 A 
ATOM     33  C   UNL     1      -4.330   2.994  -5.484  1.00  0.00     0.010 A 
ATOM     34  C   UNL     1      -5.270   2.777  -3.265  1.00  0.00     0.010 A 
ATOM     35  C   UNL     1      -4.562   3.526  -4.220  1.00  0.00    -0.014 A 
BRANCH  35  36
ATOM     36  C   UNL     1      -4.123   4.832  -3.730  1.00  0.00     0.031 A 
ATOM     37  C   UNL     1      -5.166   5.776  -3.272  1.00  0.00     0.074 A 
ATOM     38  C   UNL     1      -2.825   5.056  -3.420  1.00  0.00     0.049 A 
ATOM     39  N   UNL     1      -4.914   6.962  -2.850  1.00  0.00    -0.248 NA
ATOM     40  C   UNL     1      -6.604   5.489  -3.282  1.00  0.00     0.031 C 
ATOM     41  C   UNL     1      -2.269   5.985  -2.432  1.00  0.00     0.029 A 
ATOM     42  N   UNL     1      -1.687   4.492  -3.966  1.00  0.00    -0.354 N 
ATOM     43  C   UNL     1      -6.028   7.412  -2.190  1.00  0.00     0.074 A 
ATOM     44  C   UNL     1      -7.090   6.528  -2.594  1.00  0.00     0.031 C 
ATOM     45  C   UNL     1      -0.941   6.102  -2.622  1.00  0.00     0.029 A 
ATOM     46  C   UNL     1      -0.619   5.375  -3.840  1.00  0.00     0.049 A 
ATOM     47  H   UNL     1      -1.639   3.601  -4.380  1.00  0.00     0.167 HD
ATOM     48  C   UNL     1      -5.861   8.407  -1.278  1.00  0.00     0.031 A 
ATOM     49  C   UNL     1      -0.009   5.871  -4.956  1.00  0.00     0.031 A 
ATOM     50  C   UNL     1      -4.505   8.974  -1.364  1.00  0.00     0.049 A 
ATOM     51  C   UNL     1      -0.358   7.346  -5.105  1.00  0.00     0.074 A 
ATOM     52  C   UNL     1      -3.387   8.964  -0.549  1.00  0.00     0.029 A 
ATOM     53  N   UNL     1      -4.056   9.401  -2.611  1.00  0.00    -0.354 N 
ATOM     54  N   UNL     1      -1.208   7.950  -4.316  1.00  0.00    -0.248 NA
ATOM     55  C   UNL     1       0.176   8.261  -6.107  1.00  0.00     0.031 C 
ATOM     56  C   UNL     1      -2.258   9.345  -1.347  1.00  0.00     0.029 A 
ATOM     57  C   UNL     1      -2.695   9.630  -2.631  1.00  0.00     0.049 A 
ATOM     58  H   UNL     1      -4.644   9.527  -3.391  1.00  0.00     0.167 HD
ATOM     59  C   UNL     1      -1.316   9.267  -4.619  1.00  0.00     0.074 A 
ATOM     60  C   UNL     1      -0.478   9.403  -5.805  1.00  0.00     0.031 C 
ATOM     61  C   UNL     1      -2.074  10.122  -3.864  1.00  0.00     0.031 A 
BRANCH  48  62
ATOM     62  C   UNL     1      -6.865   8.772  -0.207  1.00  0.00    -0.014 A 
ATOM     63  C   UNL     1      -6.573   9.840   0.664  1.00  0.00     0.010 A 
ATOM     64  C   UNL     1      -8.060   8.067   0.056  1.00  0.00     0.010 A 
ATOM     65  C   UNL     1      -7.417  10.181   1.734  1.00  0.00     0.020 A 
ATOM     66  C   UNL     1      -8.928   8.415   1.105  1.00  0.00     0.020 A 
ATOM     67  C   UNL     1      -8.593   9.467   1.947  1.00  0.00     0.054 A 
BRANCH  67  68
ATOM     68  S   UNL     1      -9.662   9.919   3.339  1.00  0.00     0.124 S 
ATOM     69  O   UNL     1      -8.808   9.644   4.491  1.00  0.00    -0.237 OA
ATOM     70  O   UNL     1      -9.939  11.329   3.081  1.00  0.00    -0.237 OA
ATOM     71  O   UNL     1     -10.814   9.029   3.199  1.00  0.00    -0.744 OA
ENDBRANCH  67  68
ENDBRANCH  48  62
BRANCH  49  72
ATOM     72  C   UNL     1       0.130   4.799  -6.006  1.00  0.00    -0.014 A 
ATOM     73  C   UNL     1       1.037   3.751  -5.696  1.00  0.00     0.010 A 
ATOM     74  C   UNL     1      -0.930   4.507  -6.888  1.00  0.00     0.010 A 
ATOM     75  C   UNL     1       0.794   2.429  -6.100  1.00  0.00     0.020 A 
ATOM     76  C   UNL     1      -1.170   3.176  -7.300  1.00  0.00     0.020 A 
ATOM     77  C   UNL     1      -0.332   2.140  -6.869  1.00  0.00     0.054 A 
BRANCH  77  78
ATOM     78  S   UNL     1      -0.788   0.386  -7.119  1.00  0.00     0.124 S 
ATOM     79  O   UNL     1       0.132  -0.023  -8.173  1.00  0.00    -0.237 OA
ATOM     80  O   UNL     1      -0.536  -0.205  -5.806  1.00  0.00    -0.237 OA
ATOM     81  O   UNL     1      -2.194   0.460  -7.500  1.00  0.00    -0.744 OA
ENDBRANCH  77  78
ENDBRANCH  49  72
BRANCH  61  82
ATOM     82  C   UNL     1      -2.333  11.544  -4.266  1.00  0.00    -0.014 A 
ATOM     83  C   UNL     1      -1.375  12.345  -4.895  1.00  0.00     0.010 A 
ATOM     84  C   UNL     1      -3.588  12.132  -3.983  1.00  0.00     0.010 A 
ATOM     85  C   UNL     1      -1.708  13.616  -5.369  1.00  0.00     0.020 A 
ATOM     86  C   UNL     1      -3.919  13.412  -4.412  1.00  0.00     0.020 A 
ATOM     87  C   UNL     1      -2.987  14.129  -5.147  1.00  0.00     0.054 A 
BRANCH  87  88
ATOM     88  S   UNL     1      -3.407  15.755  -5.803  1.00  0.00     0.124 S 
ATOM     89  O   UNL     1      -2.243  16.554  -5.432  1.00  0.00    -0.237 OA
ATOM     90  O   UNL     1      -3.547  15.473  -7.230  1.00  0.00    -0.237 OA
ATOM     91  O   UNL     1      -4.645  16.102  -5.111  1.00  0.00    -0.744 OA
ENDBRANCH  87  88
ENDBRANCH  61  82
ENDBRANCH  35  36
ENDBRANCH  28  30
ENDBRANCH  27  28
ENDBRANCH  26  27
ENDBRANCH  25  26
ENDBRANCH   1  25
TORSDOF 20
