REMARK SMILES C[C@@H](C(=O)OCCOCCOC(=O)c1ccc(-c2c3nc(c(-c4ccc(S(=O)(=O)[O-])cc4)c4ccc([nH]4)c(-c4ccc(S(=O)(=O)[O-])cc4)c4nc(c(-c5ccc(S(=O)(=O)[O-])cc5)c5ccc2[nH]5)C=C4)C=C3)cc1)c1cccn(C(F)F)c1=O
REMARK SMILES IDX 9 1 8 2 7 3 6 4 5 5 3 6 4 7 2 8 1 9 74 10 75 11 82 12 76 13
REMARK SMILES IDX 78 14 83 15 77 16 79 17 80 18 81 19 10 20 11 21 12 22 13 23
REMARK SMILES IDX 14 24 15 25 73 26 16 27 72 28 17 29 18 30 19 31 66 32 20 33
REMARK SMILES IDX 71 34 65 35 67 36 21 37 70 38 64 39 63 40 22 42 52 43 33 44
REMARK SMILES IDX 51 45 34 46 37 47 50 48 68 49 35 50 36 51 49 53 69 54 38 55
REMARK SMILES IDX 23 56 24 57 32 58 25 59 31 60 26 61 27 62 28 63 29 64 30 65
REMARK SMILES IDX 53 66 54 67 62 68 55 69 61 70 56 71 57 72 58 73 59 74 60 75
REMARK SMILES IDX 39 76 40 77 48 78 41 79 47 80 42 81 43 82 44 83 45 84 46 85
REMARK H PARENT 67 41 37 52
REMARK Flexibility Score: inf
ROOT
ATOM      1  C   UNL     1       0.392  -1.961   2.845  1.00  0.00     0.202 C 
ENDROOT
BRANCH   1   2
ATOM      2  O   UNL     1       0.772  -3.322   3.062  1.00  0.00    -0.374 OA
BRANCH   2   3
ATOM      3  C   UNL     1       2.055  -3.734   2.584  1.00  0.00     0.202 C 
BRANCH   3   4
ATOM      4  C   UNL     1       2.178  -3.918   1.068  1.00  0.00     0.261 C 
BRANCH   4   5
ATOM      5  O   UNL     1       1.873  -2.688   0.395  1.00  0.00    -0.463 OA
BRANCH   5   6
ATOM      6  C   UNL     1       1.163  -2.785  -0.760  1.00  0.00     0.313 C 
ATOM      7  O   UNL     1       0.965  -3.835  -1.363  1.00  0.00    -0.252 OA
BRANCH   6   8
ATOM      8  C   UNL     1       0.509  -1.445  -1.150  1.00  0.00     0.132 C 
ATOM      9  C   UNL     1       1.357  -0.273  -0.624  1.00  0.00     0.025 C 
BRANCH   8  10
ATOM     10  C   UNL     1      -0.985  -1.420  -0.796  1.00  0.00     0.032 A 
ATOM     11  C   UNL     1      -1.735  -2.519  -0.564  1.00  0.00     0.012 A 
ATOM     12  C   UNL     1      -1.710  -0.090  -0.759  1.00  0.00     0.259 A 
ATOM     13  C   UNL     1      -3.148  -2.460  -0.293  1.00  0.00     0.019 A 
ATOM     14  N   UNL     1      -3.063  -0.114  -0.456  1.00  0.00    -0.258 N 
ATOM     15  O   UNL     1      -1.115   0.960  -0.989  1.00  0.00    -0.269 OA
ATOM     16  C   UNL     1      -3.767  -1.279  -0.248  1.00  0.00     0.095 A 
BRANCH  14  17
ATOM     17  C   UNL     1      -3.765   1.145  -0.420  1.00  0.00     0.451 C 
ATOM     18  F   UNL     1      -4.635   1.209  -1.465  1.00  0.00    -0.185 F 
ATOM     19  F   UNL     1      -4.529   1.214   0.706  1.00  0.00    -0.185 F 
ENDBRANCH  14  17
ENDBRANCH   8  10
ENDBRANCH   6   8
ENDBRANCH   5   6
ENDBRANCH   4   5
ENDBRANCH   3   4
ENDBRANCH   2   3
ENDBRANCH   1   2
BRANCH   1  20
ATOM     20  C   UNL     1       1.093  -0.892   3.695  1.00  0.00     0.261 C 
BRANCH  20  21
ATOM     21  O   UNL     1       2.502  -0.792   3.421  1.00  0.00    -0.460 OA
BRANCH  21  22
ATOM     22  C   UNL     1       3.305  -1.110   4.465  1.00  0.00     0.338 C 
ATOM     23  O   UNL     1       2.951  -1.408   5.601  1.00  0.00    -0.246 OA
BRANCH  22  24
ATOM     24  C   UNL     1       4.706  -1.234   4.027  1.00  0.00     0.060 A 
ATOM     25  C   UNL     1       5.363  -2.440   4.301  1.00  0.00     0.016 A 
ATOM     26  C   UNL     1       5.398  -0.165   3.453  1.00  0.00     0.016 A 
ATOM     27  C   UNL     1       6.727  -2.567   4.046  1.00  0.00     0.010 A 
ATOM     28  C   UNL     1       6.771  -0.292   3.206  1.00  0.00     0.010 A 
ATOM     29  C   UNL     1       7.449  -1.481   3.534  1.00  0.00    -0.014 A 
BRANCH  29  30
ATOM     30  C   UNL     1       8.931  -1.552   3.481  1.00  0.00     0.031 A 
ATOM     31  C   UNL     1       9.736  -0.907   4.577  1.00  0.00     0.074 A 
ATOM     32  C   UNL     1       9.553  -2.219   2.492  1.00  0.00     0.049 A 
ATOM     33  N   UNL     1      11.034  -0.847   4.725  1.00  0.00    -0.248 NA
ATOM     34  C   UNL     1       8.976  -0.244   5.650  1.00  0.00     0.031 C 
ATOM     35  C   UNL     1       8.886  -2.923   1.397  1.00  0.00     0.029 A 
ATOM     36  N   UNL     1      10.891  -2.411   2.252  1.00  0.00    -0.354 N 
ATOM     37  C   UNL     1      11.249  -0.140   5.903  1.00  0.00     0.074 A 
ATOM     38  C   UNL     1       9.948   0.235   6.413  1.00  0.00     0.031 C 
ATOM     39  C   UNL     1       9.820  -3.465   0.596  1.00  0.00     0.029 A 
ATOM     40  C   UNL     1      11.147  -3.122   1.104  1.00  0.00     0.049 A 
ATOM     41  H   UNL     1      11.599  -2.072   2.845  1.00  0.00     0.167 HD
ATOM     42  C   UNL     1      12.422   0.165   6.509  1.00  0.00     0.031 A 
ATOM     43  C   UNL     1      12.318  -3.444   0.518  1.00  0.00     0.031 A 
ATOM     44  C   UNL     1      13.716  -0.192   5.992  1.00  0.00     0.049 A 
ATOM     45  C   UNL     1      13.611  -3.031   1.171  1.00  0.00     0.074 A 
ATOM     46  C   UNL     1      14.962   0.069   6.536  1.00  0.00     0.029 A 
ATOM     47  N   UNL     1      13.934  -0.878   4.807  1.00  0.00    -0.354 N 
ATOM     48  N   UNL     1      13.796  -2.379   2.294  1.00  0.00    -0.248 NA
ATOM     49  C   UNL     1      14.854  -3.407   0.481  1.00  0.00     0.031 C 
ATOM     50  C   UNL     1      15.935  -0.415   5.654  1.00  0.00     0.029 A 
ATOM     51  C   UNL     1      15.293  -1.029   4.590  1.00  0.00     0.049 A 
ATOM     52  H   UNL     1      13.226  -1.210   4.209  1.00  0.00     0.167 HD
ATOM     53  C   UNL     1      15.175  -2.287   2.457  1.00  0.00     0.074 A 
ATOM     54  C   UNL     1      15.775  -2.962   1.325  1.00  0.00     0.031 C 
ATOM     55  C   UNL     1      15.879  -1.699   3.456  1.00  0.00     0.031 A 
BRANCH  42  56
ATOM     56  C   UNL     1      12.354   0.955   7.789  1.00  0.00    -0.014 A 
ATOM     57  C   UNL     1      11.896   0.369   8.983  1.00  0.00     0.010 A 
ATOM     58  C   UNL     1      12.778   2.296   7.803  1.00  0.00     0.010 A 
ATOM     59  C   UNL     1      11.825   1.121  10.159  1.00  0.00     0.020 A 
ATOM     60  C   UNL     1      12.733   3.045   8.983  1.00  0.00     0.020 A 
ATOM     61  C   UNL     1      12.239   2.457  10.149  1.00  0.00     0.054 A 
BRANCH  61  62
ATOM     62  S   UNL     1      12.146   3.409  11.691  1.00  0.00     0.124 S 
ATOM     63  O   UNL     1      10.709   3.641  11.814  1.00  0.00    -0.237 OA
ATOM     64  O   UNL     1      12.720   2.491  12.671  1.00  0.00    -0.237 OA
ATOM     65  O   UNL     1      12.946   4.599  11.412  1.00  0.00    -0.744 OA
ENDBRANCH  61  62
ENDBRANCH  42  56
BRANCH  43  66
ATOM     66  C   UNL     1      12.319  -4.181  -0.775  1.00  0.00    -0.014 A 
ATOM     67  C   UNL     1      12.742  -5.520  -0.842  1.00  0.00     0.010 A 
ATOM     68  C   UNL     1      11.881  -3.542  -1.950  1.00  0.00     0.010 A 
ATOM     69  C   UNL     1      12.739  -6.202  -2.062  1.00  0.00     0.020 A 
ATOM     70  C   UNL     1      11.852  -4.229  -3.166  1.00  0.00     0.020 A 
ATOM     71  C   UNL     1      12.290  -5.553  -3.216  1.00  0.00     0.054 A 
BRANCH  71  72
ATOM     72  S   UNL     1      12.234  -6.477  -4.777  1.00  0.00     0.124 S 
ATOM     73  O   UNL     1      13.644  -6.535  -5.147  1.00  0.00    -0.237 OA
ATOM     74  O   UNL     1      11.633  -7.745  -4.372  1.00  0.00    -0.237 OA
ATOM     75  O   UNL     1      11.393  -5.645  -5.635  1.00  0.00    -0.744 OA
ENDBRANCH  71  72
ENDBRANCH  43  66
BRANCH  55  76
ATOM     76  C   UNL     1      17.381  -1.783   3.391  1.00  0.00    -0.014 A 
ATOM     77  C   UNL     1      18.116  -1.018   2.468  1.00  0.00     0.010 A 
ATOM     78  C   UNL     1      18.071  -2.597   4.309  1.00  0.00     0.010 A 
ATOM     79  C   UNL     1      19.512  -1.089   2.443  1.00  0.00     0.020 A 
ATOM     80  C   UNL     1      19.467  -2.651   4.304  1.00  0.00     0.020 A 
ATOM     81  C   UNL     1      20.179  -1.907   3.362  1.00  0.00     0.054 A 
BRANCH  81  82
ATOM     82  S   UNL     1      21.992  -1.949   3.339  1.00  0.00     0.124 S 
ATOM     83  O   UNL     1      22.263  -2.757   2.154  1.00  0.00    -0.237 OA
ATOM     84  O   UNL     1      22.346  -0.535   3.230  1.00  0.00    -0.237 OA
ATOM     85  O   UNL     1      22.340  -2.575   4.613  1.00  0.00    -0.744 OA
ENDBRANCH  81  82
ENDBRANCH  55  76
ENDBRANCH  29  30
ENDBRANCH  22  24
ENDBRANCH  21  22
ENDBRANCH  20  21
ENDBRANCH   1  20
TORSDOF 19
