REMARK SMILES Cc1nsc(NC(=O)CC[C@H](C)CC[NH3+])c1C(=O)OCCOCCOC(=O)c1ccc(-c2c3nc(c(-c4ccc(S(=O)(=O)[O-])cc4)c4ccc([nH]4)c(-c4ccc(S(=O)(=O)[O-])cc4)c4nc(c(-c5ccc(S(=O)(=O)[O-])cc5)c5ccc2[nH]5)C=C4)C=C3)cc1
REMARK SMILES IDX 20 1 19 2 17 3 18 4 16 5 1 6 2 7 3 8 4 9 5 10 6 11 7 12 8 14
REMARK SMILES IDX 9 15 10 16 11 17 12 18 13 19 14 20 15 21 21 25 22 26 23 27
REMARK SMILES IDX 24 28 25 29 26 30 27 31 28 32 29 33 87 34 30 35 86 36 31 37
REMARK SMILES IDX 32 38 33 39 80 40 34 41 85 42 79 43 81 44 35 45 84 46 78 47
REMARK SMILES IDX 77 48 36 50 66 51 47 52 65 53 48 54 51 55 64 56 82 57 49 58
REMARK SMILES IDX 50 59 63 61 83 62 52 63 37 64 38 65 46 66 39 67 45 68 40 69
REMARK SMILES IDX 41 70 42 71 43 72 44 73 67 74 68 75 76 76 69 77 75 78 70 79
REMARK SMILES IDX 71 80 72 81 73 82 74 83 53 84 54 85 62 86 55 87 61 88 56 89
REMARK SMILES IDX 57 90 58 91 59 92 60 93
REMARK H PARENT 6 13 15 22 15 23 15 24 81 49 51 60
REMARK Flexibility Score: inf
ROOT
ATOM      1  C   UNL     1      -6.913  -3.286   8.111  1.00  0.00     0.261 C 
ENDROOT
BRANCH   1   2
ATOM      2  O   UNL     1      -6.367  -2.021   7.689  1.00  0.00    -0.460 OA
BRANCH   2   3
ATOM      3  C   UNL     1      -5.030  -1.800   7.918  1.00  0.00     0.343 C 
ATOM      4  O   UNL     1      -4.367  -2.323   8.768  1.00  0.00    -0.246 OA
BRANCH   3   5
ATOM      5  C   UNL     1      -4.483  -1.063   6.781  1.00  0.00     0.117 A 
ATOM      6  C   UNL     1      -6.524   0.494   6.136  1.00  0.00     0.069 C 
ATOM      7  C   UNL     1      -5.223  -0.186   5.897  1.00  0.00     0.068 A 
ATOM      8  N   UNL     1      -4.730  -0.094   4.667  1.00  0.00    -0.195 NA
ATOM      9  S   UNL     1      -3.441  -1.103   4.559  1.00  0.00    -0.017 S 
ATOM     10  C   UNL     1      -3.226  -1.311   6.234  1.00  0.00     0.130 A 
BRANCH  10  11
ATOM     11  N   UNL     1      -2.128  -2.017   6.671  1.00  0.00    -0.316 N 
ATOM     12  C   UNL     1      -0.882  -2.095   6.093  1.00  0.00     0.225 C 
ATOM     13  H   UNL     1      -2.249  -2.530   7.503  1.00  0.00     0.170 HD
ATOM     14  O   UNL     1      -0.251  -3.150   6.226  1.00  0.00    -0.275 OA
BRANCH  12  15
ATOM     15  C   UNL     1      -0.171  -0.855   5.508  1.00  0.00     0.101 C 
BRANCH  15  16
ATOM     16  C   UNL     1      -0.329  -0.509   4.016  1.00  0.00     0.013 C 
BRANCH  16  17
ATOM     17  C   UNL     1      -1.045   0.833   3.581  1.00  0.00    -0.008 C 
ATOM     18  C   UNL     1      -1.708   1.635   4.712  1.00  0.00     0.008 C 
BRANCH  17  19
ATOM     19  C   UNL     1      -1.845   0.615   2.244  1.00  0.00     0.064 C 
BRANCH  19  20
ATOM     20  C   UNL     1      -3.190   1.298   1.943  1.00  0.00     0.259 C 
BRANCH  20  21
ATOM     21  N   UNL     1      -3.195   2.754   1.969  1.00  0.00    -0.358 N 
ATOM     22  H   UNL     1      -2.975   3.078   2.911  1.00  0.00     0.344 HD
ATOM     23  H   UNL     1      -4.117   3.096   1.699  1.00  0.00     0.344 HD
ATOM     24  H   UNL     1      -2.496   3.108   1.316  1.00  0.00     0.344 HD
ENDBRANCH  20  21
ENDBRANCH  19  20
ENDBRANCH  17  19
ENDBRANCH  16  17
ENDBRANCH  15  16
ENDBRANCH  12  15
ENDBRANCH  10  11
ENDBRANCH   3   5
ENDBRANCH   2   3
ENDBRANCH   1   2
BRANCH   1  25
ATOM     25  C   UNL     1      -7.039  -4.244   6.914  1.00  0.00     0.202 C 
BRANCH  25  26
ATOM     26  O   UNL     1      -5.805  -4.873   6.551  1.00  0.00    -0.374 OA
BRANCH  26  27
ATOM     27  C   UNL     1      -5.038  -4.195   5.561  1.00  0.00     0.202 C 
BRANCH  27  28
ATOM     28  C   UNL     1      -5.353  -4.520   4.111  1.00  0.00     0.261 C 
BRANCH  28  29
ATOM     29  O   UNL     1      -6.472  -3.753   3.669  1.00  0.00    -0.460 OA
BRANCH  29  30
ATOM     30  C   UNL     1      -7.651  -4.407   3.651  1.00  0.00     0.338 C 
ATOM     31  O   UNL     1      -7.915  -5.460   4.203  1.00  0.00    -0.246 OA
BRANCH  30  32
ATOM     32  C   UNL     1      -8.539  -3.709   2.709  1.00  0.00     0.060 A 
ATOM     33  C   UNL     1      -9.674  -4.406   2.296  1.00  0.00     0.016 A 
ATOM     34  C   UNL     1      -8.164  -2.492   2.111  1.00  0.00     0.016 A 
ATOM     35  C   UNL     1     -10.349  -3.961   1.179  1.00  0.00     0.010 A 
ATOM     36  C   UNL     1      -8.842  -2.050   0.992  1.00  0.00     0.010 A 
ATOM     37  C   UNL     1      -9.889  -2.822   0.502  1.00  0.00    -0.014 A 
BRANCH  37  38
ATOM     38  C   UNL     1     -10.633  -2.406  -0.670  1.00  0.00     0.031 A 
ATOM     39  C   UNL     1     -12.001  -1.946  -0.351  1.00  0.00     0.074 A 
ATOM     40  C   UNL     1     -10.141  -2.400  -1.921  1.00  0.00     0.049 A 
ATOM     41  N   UNL     1     -13.101  -2.592  -0.540  1.00  0.00    -0.248 NA
ATOM     42  C   UNL     1     -12.144  -0.715   0.438  1.00  0.00     0.031 C 
ATOM     43  C   UNL     1      -8.755  -2.591  -2.353  1.00  0.00     0.029 A 
ATOM     44  N   UNL     1     -10.797  -2.136  -3.083  1.00  0.00    -0.354 N 
ATOM     45  C   UNL     1     -14.108  -1.748  -0.094  1.00  0.00     0.074 A 
ATOM     46  C   UNL     1     -13.459  -0.706   0.662  1.00  0.00     0.031 C 
ATOM     47  C   UNL     1      -8.641  -2.225  -3.652  1.00  0.00     0.029 A 
ATOM     48  C   UNL     1      -9.965  -1.928  -4.174  1.00  0.00     0.049 A 
ATOM     49  H   UNL     1     -11.779  -2.096  -3.145  1.00  0.00     0.167 HD
ATOM     50  C   UNL     1     -15.367  -1.823  -0.604  1.00  0.00     0.031 A 
ATOM     51  C   UNL     1     -10.346  -1.509  -5.405  1.00  0.00     0.031 A 
ATOM     52  C   UNL     1     -15.572  -3.043  -1.341  1.00  0.00     0.049 A 
ATOM     53  C   UNL     1     -11.782  -1.838  -5.558  1.00  0.00     0.074 A 
ATOM     54  C   UNL     1     -15.605  -4.386  -1.033  1.00  0.00     0.029 A 
ATOM     55  N   UNL     1     -15.403  -2.951  -2.702  1.00  0.00    -0.354 N 
ATOM     56  N   UNL     1     -12.231  -3.058  -5.630  1.00  0.00    -0.248 NA
ATOM     57  C   UNL     1     -12.783  -0.826  -5.257  1.00  0.00     0.031 C 
ATOM     58  C   UNL     1     -15.081  -5.051  -2.180  1.00  0.00     0.029 A 
ATOM     59  C   UNL     1     -14.792  -4.091  -3.154  1.00  0.00     0.049 A 
ATOM     60  H   UNL     1     -15.677  -2.189  -3.262  1.00  0.00     0.167 HD
ATOM     61  C   UNL     1     -13.448  -3.028  -4.968  1.00  0.00     0.074 A 
ATOM     62  C   UNL     1     -13.800  -1.614  -4.896  1.00  0.00     0.031 C 
ATOM     63  C   UNL     1     -13.906  -4.128  -4.302  1.00  0.00     0.031 A 
BRANCH  50  64
ATOM     64  C   UNL     1     -16.231  -0.606  -0.829  1.00  0.00    -0.014 A 
ATOM     65  C   UNL     1     -17.532  -0.783  -1.342  1.00  0.00     0.010 A 
ATOM     66  C   UNL     1     -15.713   0.706  -0.838  1.00  0.00     0.010 A 
ATOM     67  C   UNL     1     -18.244   0.289  -1.898  1.00  0.00     0.020 A 
ATOM     68  C   UNL     1     -16.430   1.787  -1.348  1.00  0.00     0.020 A 
ATOM     69  C   UNL     1     -17.679   1.565  -1.909  1.00  0.00     0.054 A 
BRANCH  69  70
ATOM     70  S   UNL     1     -18.554   2.920  -2.726  1.00  0.00     0.124 S 
ATOM     71  O   UNL     1     -18.520   2.498  -4.122  1.00  0.00    -0.237 OA
ATOM     72  O   UNL     1     -19.862   2.876  -2.079  1.00  0.00    -0.237 OA
ATOM     73  O   UNL     1     -17.744   4.092  -2.403  1.00  0.00    -0.744 OA
ENDBRANCH  69  70
ENDBRANCH  50  64
BRANCH  51  74
ATOM     74  C   UNL     1      -9.633  -0.619  -6.350  1.00  0.00    -0.014 A 
ATOM     75  C   UNL     1     -10.056  -0.504  -7.688  1.00  0.00     0.010 A 
ATOM     76  C   UNL     1      -8.736   0.349  -5.857  1.00  0.00     0.010 A 
ATOM     77  C   UNL     1      -9.660   0.586  -8.479  1.00  0.00     0.020 A 
ATOM     78  C   UNL     1      -8.333   1.436  -6.642  1.00  0.00     0.020 A 
ATOM     79  C   UNL     1      -8.821   1.565  -7.941  1.00  0.00     0.054 A 
BRANCH  79  80
ATOM     80  S   UNL     1      -8.483   3.073  -8.898  1.00  0.00     0.124 S 
ATOM     81  O   UNL     1      -7.608   2.580  -9.957  1.00  0.00    -0.237 OA
ATOM     82  O   UNL     1      -9.818   3.486  -9.323  1.00  0.00    -0.237 OA
ATOM     83  O   UNL     1      -7.845   3.961  -7.928  1.00  0.00    -0.744 OA
ENDBRANCH  79  80
ENDBRANCH  51  74
BRANCH  63  84
ATOM     84  C   UNL     1     -13.292  -5.464  -4.647  1.00  0.00    -0.014 A 
ATOM     85  C   UNL     1     -11.934  -5.784  -4.456  1.00  0.00     0.010 A 
ATOM     86  C   UNL     1     -14.163  -6.475  -5.090  1.00  0.00     0.010 A 
ATOM     87  C   UNL     1     -11.457  -7.075  -4.733  1.00  0.00     0.020 A 
ATOM     88  C   UNL     1     -13.699  -7.766  -5.347  1.00  0.00     0.020 A 
ATOM     89  C   UNL     1     -12.346  -8.058  -5.178  1.00  0.00     0.054 A 
BRANCH  89  90
ATOM     90  S   UNL     1     -11.736  -9.738  -5.497  1.00  0.00     0.124 S 
ATOM     91  O   UNL     1     -10.917  -9.557  -6.693  1.00  0.00    -0.237 OA
ATOM     92  O   UNL     1     -11.003 -10.055  -4.274  1.00  0.00    -0.237 OA
ATOM     93  O   UNL     1     -12.957 -10.519  -5.697  1.00  0.00    -0.744 OA
ENDBRANCH  89  90
ENDBRANCH  63  84
ENDBRANCH  37  38
ENDBRANCH  30  32
ENDBRANCH  29  30
ENDBRANCH  28  29
ENDBRANCH  27  28
ENDBRANCH  26  27
ENDBRANCH  25  26
ENDBRANCH   1  25
TORSDOF 24
