REMARK SMILES COc1cc2c(CC(=O)OCCOCCOC(=O)c3ccc(-c4c5nc(c(-c6ccc(S(=O)(=O)[O-])cc6)c6ccc([nH]6)c(-c6ccc(S(=O)(=O)[O-])cc6)c6nc(c(-c7ccc(S(=O)(=O)[O-])cc7)c7ccc4[nH]7)C=C6)C=C5)cc3)c(C)n(C(=O)c3ccc(Cl)cc3)c2cc1Cl
REMARK SMILES IDX 13 1 12 2 11 3 10 4 8 5 9 6 7 7 6 8 3 9 4 10 93 11 5 12
REMARK SMILES IDX 92 13 94 14 91 15 79 16 81 17 80 18 2 19 1 20 82 21 83 22
REMARK SMILES IDX 84 23 85 24 90 25 86 26 89 27 87 28 88 29 14 30 15 31 16 32
REMARK SMILES IDX 17 33 18 34 19 35 20 36 78 37 21 38 77 39 22 40 23 41 24 42
REMARK SMILES IDX 71 43 25 44 76 45 70 46 72 47 26 48 75 49 69 50 68 51 27 53
REMARK SMILES IDX 57 54 38 55 56 56 39 57 42 58 55 59 73 60 40 61 41 62 54 64
REMARK SMILES IDX 74 65 43 66 28 67 29 68 37 69 30 70 36 71 31 72 32 73 33 74
REMARK SMILES IDX 34 75 35 76 58 77 59 78 67 79 60 80 66 81 61 82 62 83 63 84
REMARK SMILES IDX 64 85 65 86 44 87 45 88 53 89 46 90 52 91 47 92 48 93 49 94
REMARK SMILES IDX 50 95 51 96
REMARK H PARENT 72 52 42 63
REMARK Flexibility Score: inf
ROOT
ATOM      1  O   UNL     1      -2.418   0.579   4.612  1.00  0.00    -0.374 OA
ENDROOT
BRANCH   1   2
ATOM      2  C   UNL     1      -2.335   0.441   6.024  1.00  0.00     0.202 C 
BRANCH   2   3
ATOM      3  C   UNL     1      -2.590  -0.923   6.683  1.00  0.00     0.261 C 
BRANCH   3   4
ATOM      4  O   UNL     1      -1.886  -2.020   6.072  1.00  0.00    -0.463 OA
BRANCH   4   5
ATOM      5  C   UNL     1      -2.675  -2.857   5.349  1.00  0.00     0.310 C 
ATOM      6  O   UNL     1      -3.890  -2.720   5.215  1.00  0.00    -0.252 OA
BRANCH   5   7
ATOM      7  C   UNL     1      -1.966  -4.027   4.710  1.00  0.00     0.160 C 
BRANCH   7   8
ATOM      8  C   UNL     1      -0.473  -3.969   4.496  1.00  0.00    -0.008 A 
ATOM      9  C   UNL     1       0.663  -1.957   1.411  1.00  0.00     0.138 A 
ATOM     10  C   UNL     1      -0.232  -2.572   2.306  1.00  0.00     0.058 A 
ATOM     11  C   UNL     1       2.014  -2.249   1.540  1.00  0.00     0.085 A 
ATOM     12  C   UNL     1       0.204  -3.344   3.410  1.00  0.00     0.008 A 
ATOM     13  C   UNL     1       2.458  -3.103   2.566  1.00  0.00     0.051 A 
ATOM     14  Cl  UNL     1       3.271  -1.671   0.499  1.00  0.00    -0.080 Cl
ATOM     15  C   UNL     1       1.567  -3.614   3.537  1.00  0.00     0.058 A 
ATOM     16  C   UNL     1       0.492  -4.625   5.256  1.00  0.00     0.028 A 
ATOM     17  N   UNL     1       1.753  -4.441   4.664  1.00  0.00    -0.280 N 
ATOM     18  C   UNL     1       0.218  -5.424   6.496  1.00  0.00     0.065 C 
BRANCH   9  19
ATOM     19  O   UNL     1       0.013  -1.129   0.538  1.00  0.00    -0.495 OA
ATOM     20  C   UNL     1       0.743  -0.230  -0.281  1.00  0.00     0.278 C 
ENDBRANCH   9  19
BRANCH  17  21
ATOM     21  C   UNL     1       2.990  -5.023   5.082  1.00  0.00     0.262 C 
ATOM     22  O   UNL     1       2.997  -5.868   5.974  1.00  0.00    -0.268 OA
BRANCH  21  23
ATOM     23  C   UNL     1       4.303  -4.758   4.473  1.00  0.00     0.040 A 
ATOM     24  C   UNL     1       4.944  -3.529   4.665  1.00  0.00     0.015 A 
ATOM     25  C   UNL     1       4.873  -5.748   3.664  1.00  0.00     0.015 A 
ATOM     26  C   UNL     1       6.126  -3.262   3.968  1.00  0.00     0.021 A 
ATOM     27  C   UNL     1       6.059  -5.478   2.979  1.00  0.00     0.021 A 
ATOM     28  C   UNL     1       6.669  -4.230   3.120  1.00  0.00     0.041 A 
ATOM     29  Cl  UNL     1       8.092  -3.876   2.219  1.00  0.00    -0.084 Cl
ENDBRANCH  21  23
ENDBRANCH  17  21
ENDBRANCH   7   8
ENDBRANCH   5   7
ENDBRANCH   4   5
ENDBRANCH   3   4
ENDBRANCH   2   3
ENDBRANCH   1   2
BRANCH   1  30
ATOM     30  C   UNL     1      -1.361   0.005   3.853  1.00  0.00     0.202 C 
BRANCH  30  31
ATOM     31  C   UNL     1       0.048   0.603   3.996  1.00  0.00     0.261 C 
BRANCH  31  32
ATOM     32  O   UNL     1       0.612   0.297   5.276  1.00  0.00    -0.460 OA
BRANCH  32  33
ATOM     33  C   UNL     1       1.432   1.273   5.759  1.00  0.00     0.338 C 
ATOM     34  O   UNL     1       2.143   2.021   5.128  1.00  0.00    -0.246 OA
BRANCH  33  35
ATOM     35  C   UNL     1       0.926   1.511   7.123  1.00  0.00     0.060 A 
ATOM     36  C   UNL     1       0.830   0.454   8.033  1.00  0.00     0.016 A 
ATOM     37  C   UNL     1       0.209   2.704   7.301  1.00  0.00     0.016 A 
ATOM     38  C   UNL     1      -0.067   0.564   9.086  1.00  0.00     0.010 A 
ATOM     39  C   UNL     1      -0.716   2.791   8.332  1.00  0.00     0.010 A 
ATOM     40  C   UNL     1      -0.877   1.706   9.200  1.00  0.00    -0.014 A 
BRANCH  40  41
ATOM     41  C   UNL     1      -1.742   1.813  10.373  1.00  0.00     0.031 A 
ATOM     42  C   UNL     1      -0.989   2.115  11.618  1.00  0.00     0.074 A 
ATOM     43  C   UNL     1      -3.089   1.822  10.370  1.00  0.00     0.049 A 
ATOM     44  N   UNL     1      -0.909   1.416  12.701  1.00  0.00    -0.248 NA
ATOM     45  C   UNL     1      -0.106   3.292  11.585  1.00  0.00     0.031 C 
ATOM     46  C   UNL     1      -3.984   1.888   9.219  1.00  0.00     0.029 A 
ATOM     47  N   UNL     1      -3.947   1.911  11.428  1.00  0.00    -0.354 N 
ATOM     48  C   UNL     1      -0.089   2.148  13.555  1.00  0.00     0.074 A 
ATOM     49  C   UNL     1       0.510   3.187  12.758  1.00  0.00     0.031 C 
ATOM     50  C   UNL     1      -5.222   2.237   9.628  1.00  0.00     0.029 A 
ATOM     51  C   UNL     1      -5.229   2.316  11.077  1.00  0.00     0.049 A 
ATOM     52  H   UNL     1      -3.683   1.706  12.354  1.00  0.00     0.167 HD
ATOM     53  C   UNL     1      -0.103   1.991  14.906  1.00  0.00     0.031 A 
ATOM     54  C   UNL     1      -6.186   2.802  11.907  1.00  0.00     0.031 A 
ATOM     55  C   UNL     1      -0.739   0.767  15.305  1.00  0.00     0.049 A 
ATOM     56  C   UNL     1      -5.835   2.390  13.287  1.00  0.00     0.074 A 
ATOM     57  C   UNL     1      -0.489  -0.572  15.085  1.00  0.00     0.029 A 
ATOM     58  N   UNL     1      -2.029   0.844  15.772  1.00  0.00    -0.354 N 
ATOM     59  N   UNL     1      -5.849   1.157  13.707  1.00  0.00    -0.248 NA
ATOM     60  C   UNL     1      -5.078   3.322  14.110  1.00  0.00     0.031 C 
ATOM     61  C   UNL     1      -1.772  -1.180  14.997  1.00  0.00     0.029 A 
ATOM     62  C   UNL     1      -2.733  -0.186  15.204  1.00  0.00     0.049 A 
ATOM     63  H   UNL     1      -2.383   1.515  16.400  1.00  0.00     0.167 HD
ATOM     64  C   UNL     1      -4.785   1.071  14.593  1.00  0.00     0.074 A 
ATOM     65  C   UNL     1      -4.419   2.454  14.881  1.00  0.00     0.031 C 
ATOM     66  C   UNL     1      -4.123  -0.106  14.797  1.00  0.00     0.031 A 
BRANCH  53  67
ATOM     67  C   UNL     1       0.176   3.118  15.867  1.00  0.00    -0.014 A 
ATOM     68  C   UNL     1       0.161   4.475  15.483  1.00  0.00     0.010 A 
ATOM     69  C   UNL     1       0.221   2.850  17.249  1.00  0.00     0.010 A 
ATOM     70  C   UNL     1       0.213   5.514  16.410  1.00  0.00     0.020 A 
ATOM     71  C   UNL     1       0.217   3.886  18.195  1.00  0.00     0.020 A 
ATOM     72  C   UNL     1       0.219   5.213  17.765  1.00  0.00     0.054 A 
BRANCH  72  73
ATOM     73  S   UNL     1       0.122   6.588  18.934  1.00  0.00     0.124 S 
ATOM     74  O   UNL     1       1.452   7.179  18.811  1.00  0.00    -0.237 OA
ATOM     75  O   UNL     1      -0.974   7.384  18.389  1.00  0.00    -0.237 OA
ATOM     76  O   UNL     1      -0.159   5.933  20.208  1.00  0.00    -0.744 OA
ENDBRANCH  72  73
ENDBRANCH  53  67
BRANCH  54  77
ATOM     77  C   UNL     1      -7.093   3.948  11.629  1.00  0.00    -0.014 A 
ATOM     78  C   UNL     1      -6.729   4.924  10.677  1.00  0.00     0.010 A 
ATOM     79  C   UNL     1      -8.157   4.249  12.500  1.00  0.00     0.010 A 
ATOM     80  C   UNL     1      -7.341   6.179  10.646  1.00  0.00     0.020 A 
ATOM     81  C   UNL     1      -8.772   5.513  12.481  1.00  0.00     0.020 A 
ATOM     82  C   UNL     1      -8.331   6.482  11.578  1.00  0.00     0.054 A 
BRANCH  82  83
ATOM     83  S   UNL     1      -8.941   8.189  11.646  1.00  0.00     0.124 S 
ATOM     84  O   UNL     1      -7.757   8.915  12.099  1.00  0.00    -0.237 OA
ATOM     85  O   UNL     1      -9.335   8.439  10.262  1.00  0.00    -0.237 OA
ATOM     86  O   UNL     1     -10.041   8.127  12.604  1.00  0.00    -0.744 OA
ENDBRANCH  82  83
ENDBRANCH  54  77
BRANCH  66  87
ATOM     87  C   UNL     1      -4.736  -1.398  14.300  1.00  0.00    -0.014 A 
ATOM     88  C   UNL     1      -4.807  -2.472  15.208  1.00  0.00     0.010 A 
ATOM     89  C   UNL     1      -5.033  -1.645  12.945  1.00  0.00     0.010 A 
ATOM     90  C   UNL     1      -5.115  -3.762  14.774  1.00  0.00     0.020 A 
ATOM     91  C   UNL     1      -5.370  -2.936  12.507  1.00  0.00     0.020 A 
ATOM     92  C   UNL     1      -5.378  -3.991  13.422  1.00  0.00     0.054 A 
BRANCH  92  93
ATOM     93  S   UNL     1      -5.690  -5.696  12.887  1.00  0.00     0.124 S 
ATOM     94  O   UNL     1      -4.365  -6.302  13.000  1.00  0.00    -0.237 OA
ATOM     95  O   UNL     1      -6.673  -6.166  13.861  1.00  0.00    -0.237 OA
ATOM     96  O   UNL     1      -6.192  -5.554  11.523  1.00  0.00    -0.744 OA
ENDBRANCH  92  93
ENDBRANCH  66  87
ENDBRANCH  40  41
ENDBRANCH  33  35
ENDBRANCH  32  33
ENDBRANCH  31  32
ENDBRANCH  30  31
ENDBRANCH   1  30
TORSDOF 21
