REMARK SMILES COc1cc2c(cc1OC)[C@H](C(=O)OCCOCCOC(=O)c1ccc(-c3c4nc(c(-c5ccc(S(=O)(=O)[O-])cc5)c5ccc([nH]5)c(-c5ccc(S(=O)(=O)[O-])cc5)c5nc(c(-c6ccc(S(=O)(=O)[O-])cc6)c6ccc3[nH]6)C=C5)C=C4)cc1)[C@H](c1cccc(Cl)c1)N(C)C2=O
REMARK SMILES IDX 18 1 17 2 16 3 15 4 14 5 12 6 13 7 11 8 3 9 4 10 8 11 5 12
REMARK SMILES IDX 7 13 6 14 93 15 91 16 94 17 83 18 92 19 2 20 1 21 9 22 10 23
REMARK SMILES IDX 84 24 85 25 90 26 86 27 88 28 87 29 89 30 19 31 20 32 21 33
REMARK SMILES IDX 22 34 23 35 24 36 82 37 25 38 81 39 26 40 27 41 28 42 75 43
REMARK SMILES IDX 29 44 80 45 74 46 76 47 30 48 79 49 73 50 72 51 31 53 61 54
REMARK SMILES IDX 42 55 60 56 43 57 46 58 59 59 77 60 44 61 45 62 58 64 78 65
REMARK SMILES IDX 47 66 32 67 33 68 41 69 34 70 40 71 35 72 36 73 37 74 38 75
REMARK SMILES IDX 39 76 62 77 63 78 71 79 64 80 70 81 65 82 66 83 67 84 68 85
REMARK SMILES IDX 69 86 48 87 49 88 57 89 50 90 56 91 51 92 52 93 53 94 54 95
REMARK SMILES IDX 55 96
REMARK H PARENT 76 52 46 63
REMARK Flexibility Score: inf
ROOT
ATOM      1  C   UNL     1       1.607  -9.340   3.667  1.00  0.00     0.202 C 
ENDROOT
BRANCH   1   2
ATOM      2  O   UNL     1       0.734  -9.090   4.768  1.00  0.00    -0.374 OA
BRANCH   2   3
ATOM      3  C   UNL     1      -0.653  -8.898   4.510  1.00  0.00     0.202 C 
BRANCH   3   4
ATOM      4  C   UNL     1      -1.075  -7.606   3.801  1.00  0.00     0.261 C 
BRANCH   4   5
ATOM      5  O   UNL     1      -0.134  -7.175   2.811  1.00  0.00    -0.463 OA
BRANCH   5   6
ATOM      6  C   UNL     1       0.586  -6.067   3.152  1.00  0.00     0.316 C 
ATOM      7  O   UNL     1       0.407  -5.420   4.176  1.00  0.00    -0.251 OA
BRANCH   6   8
ATOM      8  C   UNL     1       1.580  -5.702   2.054  1.00  0.00     0.157 C 
ATOM      9  C   UNL     1       0.887  -1.618   0.872  1.00  0.00     0.161 A 
ATOM     10  C   UNL     1       2.158  -2.197   0.708  1.00  0.00     0.064 A 
ATOM     11  C   UNL     1      -0.194  -2.412   1.266  1.00  0.00     0.161 A 
ATOM     12  C   UNL     1       2.366  -3.549   1.006  1.00  0.00     0.048 A 
ATOM     13  C   UNL     1       0.030  -3.759   1.550  1.00  0.00     0.056 A 
ATOM     14  C   UNL     1       1.317  -4.311   1.521  1.00  0.00    -0.015 A 
ATOM     15  C   UNL     1       3.706  -4.168   0.786  1.00  0.00     0.254 C 
ATOM     16  N   UNL     1       3.960  -5.372   1.445  1.00  0.00    -0.333 N 
ATOM     17  O   UNL     1       4.525  -3.609   0.063  1.00  0.00    -0.269 OA
ATOM     18  C   UNL     1       3.062  -5.849   2.519  1.00  0.00     0.134 C 
ATOM     19  C   UNL     1       5.257  -6.007   1.277  1.00  0.00     0.147 C 
BRANCH   9  20
ATOM     20  O   UNL     1       0.732  -0.264   0.751  1.00  0.00    -0.493 OA
ATOM     21  C   UNL     1       1.130   0.236  -0.521  1.00  0.00     0.278 C 
ENDBRANCH   9  20
BRANCH  11  22
ATOM     22  O   UNL     1      -1.506  -2.076   1.437  1.00  0.00    -0.493 OA
ATOM     23  C   UNL     1      -1.878  -0.711   1.407  1.00  0.00     0.278 C 
ENDBRANCH  11  22
BRANCH  18  24
ATOM     24  C   UNL     1       3.431  -5.247   3.883  1.00  0.00    -0.023 A 
ATOM     25  C   UNL     1       3.087  -5.936   5.062  1.00  0.00     0.006 A 
ATOM     26  C   UNL     1       4.079  -4.007   4.027  1.00  0.00     0.026 A 
ATOM     27  C   UNL     1       3.285  -5.367   6.323  1.00  0.00     0.002 A 
ATOM     28  C   UNL     1       4.301  -3.453   5.290  1.00  0.00     0.041 A 
ATOM     29  C   UNL     1       3.886  -4.118   6.438  1.00  0.00     0.020 A 
ATOM     30  Cl  UNL     1       5.088  -1.928   5.425  1.00  0.00    -0.084 Cl
ENDBRANCH  18  24
ENDBRANCH   6   8
ENDBRANCH   5   6
ENDBRANCH   4   5
ENDBRANCH   3   4
ENDBRANCH   2   3
ENDBRANCH   1   2
BRANCH   1  31
ATOM     31  C   UNL     1       1.324 -10.522   2.737  1.00  0.00     0.261 C 
BRANCH  31  32
ATOM     32  O   UNL     1       0.139 -10.328   1.946  1.00  0.00    -0.460 OA
BRANCH  32  33
ATOM     33  C   UNL     1      -0.810 -11.280   2.112  1.00  0.00     0.338 C 
ATOM     34  O   UNL     1      -0.751 -12.257   2.846  1.00  0.00    -0.246 OA
BRANCH  33  35
ATOM     35  C   UNL     1      -2.043 -10.902   1.409  1.00  0.00     0.060 A 
ATOM     36  C   UNL     1      -3.215 -10.763   2.164  1.00  0.00     0.016 A 
ATOM     37  C   UNL     1      -2.074 -10.823   0.016  1.00  0.00     0.016 A 
ATOM     38  C   UNL     1      -4.439 -10.598   1.522  1.00  0.00     0.010 A 
ATOM     39  C   UNL     1      -3.305 -10.670  -0.626  1.00  0.00     0.010 A 
ATOM     40  C   UNL     1      -4.494 -10.598   0.123  1.00  0.00    -0.014 A 
BRANCH  40  41
ATOM     41  C   UNL     1      -5.801 -10.698  -0.565  1.00  0.00     0.031 A 
ATOM     42  C   UNL     1      -6.271 -12.049  -1.029  1.00  0.00     0.074 A 
ATOM     43  C   UNL     1      -6.553  -9.604  -0.774  1.00  0.00     0.049 A 
ATOM     44  N   UNL     1      -7.329 -12.361  -1.730  1.00  0.00    -0.248 NA
ATOM     45  C   UNL     1      -5.434 -13.202  -0.653  1.00  0.00     0.031 C 
ATOM     46  C   UNL     1      -6.224  -8.252  -0.322  1.00  0.00     0.029 A 
ATOM     47  N   UNL     1      -7.745  -9.458  -1.437  1.00  0.00    -0.354 N 
ATOM     48  C   UNL     1      -7.278 -13.741  -1.895  1.00  0.00     0.074 A 
ATOM     49  C   UNL     1      -6.077 -14.204  -1.235  1.00  0.00     0.031 C 
ATOM     50  C   UNL     1      -7.185  -7.409  -0.737  1.00  0.00     0.029 A 
ATOM     51  C   UNL     1      -8.173  -8.155  -1.515  1.00  0.00     0.049 A 
ATOM     52  H   UNL     1      -8.245 -10.215  -1.819  1.00  0.00     0.167 HD
ATOM     53  C   UNL     1      -8.152 -14.548  -2.541  1.00  0.00     0.031 A 
ATOM     54  C   UNL     1      -9.225  -7.622  -2.168  1.00  0.00     0.031 A 
ATOM     55  C   UNL     1      -9.336 -14.077  -3.208  1.00  0.00     0.049 A 
ATOM     56  C   UNL     1     -10.145  -8.529  -2.942  1.00  0.00     0.074 A 
ATOM     57  C   UNL     1     -10.290 -14.812  -3.889  1.00  0.00     0.029 A 
ATOM     58  N   UNL     1      -9.723 -12.748  -3.282  1.00  0.00    -0.354 N 
ATOM     59  N   UNL     1     -10.089  -9.833  -3.083  1.00  0.00    -0.248 NA
ATOM     60  C   UNL     1     -11.271  -7.895  -3.642  1.00  0.00     0.031 C 
ATOM     61  C   UNL     1     -11.230 -13.920  -4.417  1.00  0.00     0.029 A 
ATOM     62  C   UNL     1     -10.891 -12.637  -4.016  1.00  0.00     0.049 A 
ATOM     63  H   UNL     1      -9.239 -11.994  -2.874  1.00  0.00     0.167 HD
ATOM     64  C   UNL     1     -11.189 -10.177  -3.862  1.00  0.00     0.074 A 
ATOM     65  C   UNL     1     -11.894  -8.947  -4.158  1.00  0.00     0.031 C 
ATOM     66  C   UNL     1     -11.583 -11.402  -4.289  1.00  0.00     0.031 A 
BRANCH  53  67
ATOM     67  C   UNL     1      -7.835 -16.018  -2.591  1.00  0.00    -0.014 A 
ATOM     68  C   UNL     1      -7.960 -16.830  -1.449  1.00  0.00     0.010 A 
ATOM     69  C   UNL     1      -7.429 -16.601  -3.805  1.00  0.00     0.010 A 
ATOM     70  C   UNL     1      -7.647 -18.191  -1.513  1.00  0.00     0.020 A 
ATOM     71  C   UNL     1      -7.140 -17.966  -3.879  1.00  0.00     0.020 A 
ATOM     72  C   UNL     1      -7.233 -18.749  -2.727  1.00  0.00     0.054 A 
BRANCH  72  73
ATOM     73  S   UNL     1      -6.845 -20.520  -2.786  1.00  0.00     0.124 S 
ATOM     74  O   UNL     1      -5.556 -20.568  -2.100  1.00  0.00    -0.237 OA
ATOM     75  O   UNL     1      -7.964 -21.119  -2.062  1.00  0.00    -0.237 OA
ATOM     76  O   UNL     1      -6.801 -20.818  -4.215  1.00  0.00    -0.744 OA
ENDBRANCH  72  73
ENDBRANCH  53  67
BRANCH  54  77
ATOM     77  C   UNL     1      -9.448  -6.152  -2.137  1.00  0.00    -0.014 A 
ATOM     78  C   UNL     1     -10.526  -5.605  -1.421  1.00  0.00     0.010 A 
ATOM     79  C   UNL     1      -8.570  -5.288  -2.818  1.00  0.00     0.010 A 
ATOM     80  C   UNL     1     -10.730  -4.222  -1.397  1.00  0.00     0.020 A 
ATOM     81  C   UNL     1      -8.756  -3.904  -2.775  1.00  0.00     0.020 A 
ATOM     82  C   UNL     1      -9.842  -3.380  -2.073  1.00  0.00     0.054 A 
BRANCH  82  83
ATOM     83  S   UNL     1     -10.093  -1.585  -1.982  1.00  0.00     0.124 S 
ATOM     84  O   UNL     1     -11.227  -1.392  -2.881  1.00  0.00    -0.237 OA
ATOM     85  O   UNL     1     -10.367  -1.375  -0.562  1.00  0.00    -0.237 OA
ATOM     86  O   UNL     1      -8.821  -1.038  -2.450  1.00  0.00    -0.744 OA
ENDBRANCH  82  83
ENDBRANCH  54  77
BRANCH  66  87
ATOM     87  C   UNL     1     -12.858 -11.488  -5.083  1.00  0.00    -0.014 A 
ATOM     88  C   UNL     1     -12.909 -11.085  -6.428  1.00  0.00     0.010 A 
ATOM     89  C   UNL     1     -13.999 -12.063  -4.492  1.00  0.00     0.010 A 
ATOM     90  C   UNL     1     -14.086 -11.242  -7.165  1.00  0.00     0.020 A 
ATOM     91  C   UNL     1     -15.169 -12.242  -5.233  1.00  0.00     0.020 A 
ATOM     92  C   UNL     1     -15.208 -11.822  -6.564  1.00  0.00     0.054 A 
BRANCH  92  93
ATOM     93  S   UNL     1     -16.702 -12.078  -7.561  1.00  0.00     0.124 S 
ATOM     94  O   UNL     1     -17.242 -10.724  -7.652  1.00  0.00    -0.237 OA
ATOM     95  O   UNL     1     -16.168 -12.627  -8.805  1.00  0.00    -0.237 OA
ATOM     96  O   UNL     1     -17.494 -13.013  -6.764  1.00  0.00    -0.744 OA
ENDBRANCH  92  93
ENDBRANCH  66  87
ENDBRANCH  40  41
ENDBRANCH  33  35
ENDBRANCH  32  33
ENDBRANCH  31  32
ENDBRANCH   1  31
TORSDOF 20
