REMARK SMILES Nc1oc2ccc(F)cc2c(=O)c1[C@@H]1[NH2+][C@H](C(=O)OCCOCCOC(=O)c2ccc(-c3c4nc(c(-c5ccc(S(=O)(=O)[O-])cc5)c5ccc([nH]5)c(-c5ccc(S(=O)(=O)[O-])cc5)c5nc(c(-c6ccc(S(=O)(=O)[O-])cc6)c6ccc3[nH]6)C=C5)C=C4)cc2)CS1
REMARK SMILES IDX 23 1 22 2 21 3 20 4 19 5 17 6 18 7 16 8 14 9 15 10 89 11
REMARK SMILES IDX 88 14 13 15 2 16 3 17 4 18 11 19 5 20 10 21 12 22 6 23 9 24
REMARK SMILES IDX 7 25 8 26 1 27 24 30 25 31 26 32 27 33 28 34 29 35 87 36
REMARK SMILES IDX 30 37 86 38 31 39 32 40 33 41 80 42 34 43 85 44 79 45 81 46
REMARK SMILES IDX 35 47 84 48 78 49 77 50 36 52 66 53 47 54 65 55 48 56 51 57
REMARK SMILES IDX 64 58 82 59 49 60 50 61 63 63 83 64 52 65 37 66 38 67 46 68
REMARK SMILES IDX 39 69 45 70 40 71 41 72 42 73 43 74 44 75 67 76 68 77 76 78
REMARK SMILES IDX 69 79 75 80 70 81 71 82 72 83 73 84 74 85 53 86 54 87 62 88
REMARK SMILES IDX 55 89 61 90 56 91 57 92 58 93 59 94 60 95
REMARK H PARENT 15 12 15 13 1 28 1 29 81 51 51 62
REMARK Flexibility Score: inf
ROOT
ATOM      1  C   UNL     1      -1.148  -3.563  -1.217  1.00  0.00     0.202 C 
ENDROOT
BRANCH   1   2
ATOM      2  O   UNL     1      -1.501  -3.789   0.147  1.00  0.00    -0.374 OA
BRANCH   2   3
ATOM      3  C   UNL     1      -1.424  -2.679   1.044  1.00  0.00     0.202 C 
BRANCH   3   4
ATOM      4  C   UNL     1      -0.022  -2.194   1.414  1.00  0.00     0.261 C 
BRANCH   4   5
ATOM      5  O   UNL     1       0.675  -1.746   0.246  1.00  0.00    -0.459 OA
BRANCH   5   6
ATOM      6  C   UNL     1       1.939  -2.208   0.088  1.00  0.00     0.365 C 
ATOM      7  O   UNL     1       2.558  -2.852   0.931  1.00  0.00    -0.245 OA
BRANCH   6   8
ATOM      8  C   UNL     1       2.537  -1.915  -1.292  1.00  0.00     0.304 C 
ATOM      9  C   UNL     1       1.984   0.135  -2.478  1.00  0.00     0.283 C 
ATOM     10  N   UNL     1       1.613  -1.264  -2.253  1.00  0.00    -0.319 N 
ATOM     11  S   UNL     1       3.713   0.382  -2.011  1.00  0.00    -0.087 SA
ATOM     12  H   UNL     1       1.649  -1.765  -3.141  1.00  0.00     0.348 HD
ATOM     13  H   UNL     1       0.670  -1.290  -1.864  1.00  0.00     0.348 HD
ATOM     14  C   UNL     1       3.857  -1.177  -1.123  1.00  0.00     0.153 C 
BRANCH   9  15
ATOM     15  C   UNL     1       1.042   1.149  -1.879  1.00  0.00     0.128 A 
ATOM     16  C   UNL     1       0.953   1.569  -0.597  1.00  0.00     0.205 A 
ATOM     17  O   UNL     1       0.059   2.535  -0.165  1.00  0.00    -0.440 OA
ATOM     18  C   UNL     1      -0.558   3.325  -1.091  1.00  0.00     0.140 A 
ATOM     19  C   UNL     1       0.134   1.800  -2.874  1.00  0.00     0.205 A 
ATOM     20  C   UNL     1      -1.192   4.479  -0.631  1.00  0.00     0.051 A 
ATOM     21  C   UNL     1      -0.594   2.997  -2.437  1.00  0.00     0.068 A 
ATOM     22  O   UNL     1       0.025   1.404  -4.030  1.00  0.00    -0.288 OA
ATOM     23  C   UNL     1      -1.895   5.288  -1.522  1.00  0.00     0.043 A 
ATOM     24  C   UNL     1      -1.291   3.803  -3.341  1.00  0.00     0.055 A 
ATOM     25  C   UNL     1      -1.940   4.941  -2.869  1.00  0.00     0.124 A 
ATOM     26  F   UNL     1      -2.626   5.707  -3.725  1.00  0.00    -0.207 F 
BRANCH  16  27
ATOM     27  N   UNL     1       1.737   1.133   0.433  1.00  0.00    -0.369 N 
ATOM     28  H   UNL     1       1.604   1.493   1.339  1.00  0.00     0.159 HD
ATOM     29  H   UNL     1       2.435   0.458   0.268  1.00  0.00     0.159 HD
ENDBRANCH  16  27
ENDBRANCH   9  15
ENDBRANCH   6   8
ENDBRANCH   5   6
ENDBRANCH   4   5
ENDBRANCH   3   4
ENDBRANCH   2   3
ENDBRANCH   1   2
BRANCH   1  30
ATOM     30  C   UNL     1      -2.133  -2.777  -2.096  1.00  0.00     0.261 C 
BRANCH  30  31
ATOM     31  O   UNL     1      -2.434  -1.457  -1.620  1.00  0.00    -0.460 OA
BRANCH  31  32
ATOM     32  C   UNL     1      -3.647  -1.319  -1.034  1.00  0.00     0.338 C 
ATOM     33  O   UNL     1      -4.491  -2.192  -0.858  1.00  0.00    -0.246 OA
BRANCH  32  34
ATOM     34  C   UNL     1      -3.771   0.038  -0.476  1.00  0.00     0.060 A 
ATOM     35  C   UNL     1      -3.696   1.147  -1.310  1.00  0.00     0.016 A 
ATOM     36  C   UNL     1      -4.037   0.199   0.891  1.00  0.00     0.016 A 
ATOM     37  C   UNL     1      -3.895   2.416  -0.764  1.00  0.00     0.010 A 
ATOM     38  C   UNL     1      -4.229   1.477   1.432  1.00  0.00     0.010 A 
ATOM     39  C   UNL     1      -4.162   2.607   0.610  1.00  0.00    -0.014 A 
BRANCH  39  40
ATOM     40  C   UNL     1      -4.474   3.980   1.111  1.00  0.00     0.031 A 
ATOM     41  C   UNL     1      -3.590   4.712   2.088  1.00  0.00     0.074 A 
ATOM     42  C   UNL     1      -5.552   4.615   0.605  1.00  0.00     0.049 A 
ATOM     43  N   UNL     1      -3.618   5.981   2.416  1.00  0.00    -0.248 NA
ATOM     44  C   UNL     1      -2.530   3.948   2.765  1.00  0.00     0.031 C 
ATOM     45  C   UNL     1      -6.506   4.016  -0.330  1.00  0.00     0.029 A 
ATOM     46  N   UNL     1      -6.005   5.903   0.761  1.00  0.00    -0.354 N 
ATOM     47  C   UNL     1      -2.569   6.177   3.308  1.00  0.00     0.074 A 
ATOM     48  C   UNL     1      -1.944   4.886   3.503  1.00  0.00     0.031 C 
ATOM     49  C   UNL     1      -7.376   4.952  -0.729  1.00  0.00     0.029 A 
ATOM     50  C   UNL     1      -7.092   6.202  -0.029  1.00  0.00     0.049 A 
ATOM     51  H   UNL     1      -5.592   6.549   1.378  1.00  0.00     0.167 HD
ATOM     52  C   UNL     1      -2.156   7.327   3.894  1.00  0.00     0.031 A 
ATOM     53  C   UNL     1      -7.792   7.344  -0.189  1.00  0.00     0.031 A 
ATOM     54  C   UNL     1      -2.814   8.604   3.747  1.00  0.00     0.049 A 
ATOM     55  C   UNL     1      -7.373   8.579   0.553  1.00  0.00     0.074 A 
ATOM     56  C   UNL     1      -2.443   9.822   4.294  1.00  0.00     0.029 A 
ATOM     57  N   UNL     1      -3.982   8.831   3.036  1.00  0.00    -0.354 N 
ATOM     58  N   UNL     1      -6.326   8.757   1.321  1.00  0.00    -0.248 NA
ATOM     59  C   UNL     1      -8.227   9.766   0.410  1.00  0.00     0.031 C 
ATOM     60  C   UNL     1      -3.434  10.760   3.994  1.00  0.00     0.029 A 
ATOM     61  C   UNL     1      -4.377  10.153   3.182  1.00  0.00     0.049 A 
ATOM     62  H   UNL     1      -4.461   8.154   2.505  1.00  0.00     0.167 HD
ATOM     63  C   UNL     1      -6.395  10.076   1.755  1.00  0.00     0.074 A 
ATOM     64  C   UNL     1      -7.568  10.660   1.136  1.00  0.00     0.031 C 
ATOM     65  C   UNL     1      -5.562  10.735   2.597  1.00  0.00     0.031 A 
BRANCH  52  66
ATOM     66  C   UNL     1      -0.921   7.295   4.762  1.00  0.00    -0.014 A 
ATOM     67  C   UNL     1      -1.024   7.547   6.144  1.00  0.00     0.010 A 
ATOM     68  C   UNL     1       0.357   7.192   4.183  1.00  0.00     0.010 A 
ATOM     69  C   UNL     1       0.122   7.735   6.921  1.00  0.00     0.020 A 
ATOM     70  C   UNL     1       1.507   7.356   4.962  1.00  0.00     0.020 A 
ATOM     71  C   UNL     1       1.382   7.651   6.322  1.00  0.00     0.054 A 
BRANCH  71  72
ATOM     72  S   UNL     1       2.856   7.949   7.338  1.00  0.00     0.124 S 
ATOM     73  O   UNL     1       2.796   9.390   7.556  1.00  0.00    -0.237 OA
ATOM     74  O   UNL     1       2.603   7.119   8.514  1.00  0.00    -0.237 OA
ATOM     75  O   UNL     1       3.954   7.489   6.489  1.00  0.00    -0.744 OA
ENDBRANCH  71  72
ENDBRANCH  52  66
BRANCH  53  76
ATOM     76  C   UNL     1      -8.956   7.347  -1.120  1.00  0.00    -0.014 A 
ATOM     77  C   UNL     1     -10.082   6.547  -0.843  1.00  0.00     0.010 A 
ATOM     78  C   UNL     1      -8.905   8.057  -2.332  1.00  0.00     0.010 A 
ATOM     79  C   UNL     1     -11.092   6.390  -1.793  1.00  0.00     0.020 A 
ATOM     80  C   UNL     1      -9.935   7.932  -3.270  1.00  0.00     0.020 A 
ATOM     81  C   UNL     1     -11.002   7.069  -3.009  1.00  0.00     0.054 A 
BRANCH  81  82
ATOM     82  S   UNL     1     -12.287   6.786  -4.257  1.00  0.00     0.124 S 
ATOM     83  O   UNL     1     -11.925   5.465  -4.764  1.00  0.00    -0.237 OA
ATOM     84  O   UNL     1     -13.516   6.842  -3.469  1.00  0.00    -0.237 OA
ATOM     85  O   UNL     1     -12.102   7.889  -5.196  1.00  0.00    -0.744 OA
ENDBRANCH  81  82
ENDBRANCH  53  76
BRANCH  65  86
ATOM     86  C   UNL     1      -5.891  12.164   2.953  1.00  0.00    -0.014 A 
ATOM     87  C   UNL     1      -5.028  13.207   2.567  1.00  0.00     0.010 A 
ATOM     88  C   UNL     1      -6.996  12.463   3.771  1.00  0.00     0.010 A 
ATOM     89  C   UNL     1      -5.240  14.512   3.022  1.00  0.00     0.020 A 
ATOM     90  C   UNL     1      -7.231  13.774   4.200  1.00  0.00     0.020 A 
ATOM     91  C   UNL     1      -6.335  14.785   3.844  1.00  0.00     0.054 A 
BRANCH  91  92
ATOM     92  S   UNL     1      -6.576  16.478   4.449  1.00  0.00     0.124 S 
ATOM     93  O   UNL     1      -5.539  16.590   5.471  1.00  0.00    -0.237 OA
ATOM     94  O   UNL     1      -6.365  17.282   3.247  1.00  0.00    -0.237 OA
ATOM     95  O   UNL     1      -7.949  16.472   4.951  1.00  0.00    -0.744 OA
ENDBRANCH  91  92
ENDBRANCH  65  86
ENDBRANCH  39  40
ENDBRANCH  32  34
ENDBRANCH  31  32
ENDBRANCH  30  31
ENDBRANCH   1  30
TORSDOF 19
