REMARK SMILES COc1ccc(CNC(=O)[C@H]2CC(C)=C(C)C[C@@H]2C(=O)OCCOCCOC(=O)c2ccc(-c3c4nc(c(-c5ccc(S(=O)(=O)[O-])cc5)c5ccc([nH]5)c(-c5ccc(S(=O)(=O)[O-])cc5)c5nc(c(-c6ccc(S(=O)(=O)[O-])cc6)c6ccc3[nH]6)C=C5)C=C4)cc2)cc1OC
REMARK SMILES IDX 23 1 22 2 21 3 19 4 20 5 18 6 11 7 12 8 13 9 17 10 14 11
REMARK SMILES IDX 15 12 16 13 9 14 8 15 10 17 7 18 6 19 3 20 4 21 91 22 5 23
REMARK SMILES IDX 90 24 2 25 1 26 92 27 93 28 24 29 25 30 26 31 27 32 28 33
REMARK SMILES IDX 29 34 30 35 31 36 89 37 32 38 88 39 33 40 34 41 35 42 82 43
REMARK SMILES IDX 36 44 87 45 81 46 83 47 37 48 86 49 80 50 79 51 38 53 68 54
REMARK SMILES IDX 49 55 67 56 50 57 53 58 66 59 84 60 51 61 52 62 65 64 85 65
REMARK SMILES IDX 54 66 39 67 40 68 48 69 41 70 47 71 42 72 43 73 44 74 45 75
REMARK SMILES IDX 46 76 69 77 70 78 78 79 71 80 77 81 72 82 73 83 74 84 75 85
REMARK SMILES IDX 76 86 55 87 56 88 64 89 57 90 63 91 58 92 59 93 60 94 61 95
REMARK SMILES IDX 62 96
REMARK H PARENT 8 16 83 52 53 63
REMARK Flexibility Score: inf
ROOT
ATOM      1  C   UNL     1      -3.700  -5.931   9.498  1.00  0.00     0.202 C 
ENDROOT
BRANCH   1   2
ATOM      2  C   UNL     1      -2.582  -4.910   9.736  1.00  0.00     0.261 C 
BRANCH   2   3
ATOM      3  O   UNL     1      -1.482  -5.134   8.830  1.00  0.00    -0.463 OA
BRANCH   3   4
ATOM      4  C   UNL     1      -0.320  -5.603   9.356  1.00  0.00     0.310 C 
ATOM      5  O   UNL     1      -0.148  -5.865  10.542  1.00  0.00    -0.252 OA
BRANCH   4   6
ATOM      6  C   UNL     1       0.735  -5.923   8.291  1.00  0.00     0.116 C 
ATOM      7  C   UNL     1       0.558  -5.122   6.975  1.00  0.00     0.097 C 
ATOM      8  C   UNL     1       1.051  -5.886   5.762  1.00  0.00     0.045 C 
ATOM      9  C   UNL     1       0.659  -7.330   5.673  1.00  0.00    -0.074 C 
ATOM     10  C   UNL     1       0.862  -7.459   8.151  1.00  0.00     0.046 C 
ATOM     11  C   UNL     1       0.522  -7.850   4.265  1.00  0.00     0.039 C 
ATOM     12  C   UNL     1       0.610  -8.073   6.793  1.00  0.00    -0.073 C 
ATOM     13  C   UNL     1       0.443  -9.569   6.762  1.00  0.00     0.039 C 
BRANCH   7  14
ATOM     14  C   UNL     1       1.194  -3.744   7.210  1.00  0.00     0.224 C 
ATOM     15  N   UNL     1       1.966  -3.059   6.342  1.00  0.00    -0.352 N 
ATOM     16  H   UNL     1       2.182  -2.159   6.675  1.00  0.00     0.163 HD
ATOM     17  O   UNL     1       0.973  -3.161   8.280  1.00  0.00    -0.275 OA
BRANCH  15  18
ATOM     18  C   UNL     1       2.559  -3.311   5.044  1.00  0.00     0.151 C 
BRANCH  18  19
ATOM     19  C   UNL     1       2.076  -2.364   3.982  1.00  0.00    -0.025 A 
ATOM     20  C   UNL     1       1.313  -0.576   1.955  1.00  0.00     0.160 A 
ATOM     21  C   UNL     1       0.377  -1.021   2.899  1.00  0.00     0.051 A 
ATOM     22  C   UNL     1       2.629  -1.049   1.996  1.00  0.00     0.161 A 
ATOM     23  C   UNL     1       0.751  -1.925   3.898  1.00  0.00     0.009 A 
ATOM     24  C   UNL     1       2.989  -1.946   3.005  1.00  0.00     0.056 A 
BRANCH  20  25
ATOM     25  O   UNL     1       0.959   0.426   1.095  1.00  0.00    -0.493 OA
ATOM     26  C   UNL     1       0.019   0.004   0.110  1.00  0.00     0.278 C 
ENDBRANCH  20  25
BRANCH  22  27
ATOM     27  O   UNL     1       3.680  -0.734   1.180  1.00  0.00    -0.493 OA
ATOM     28  C   UNL     1       3.392  -0.102  -0.056  1.00  0.00     0.278 C 
ENDBRANCH  22  27
ENDBRANCH  18  19
ENDBRANCH  15  18
ENDBRANCH   7  14
ENDBRANCH   4   6
ENDBRANCH   3   4
ENDBRANCH   2   3
ENDBRANCH   1   2
BRANCH   1  29
ATOM     29  O   UNL     1      -3.432  -7.245  10.000  1.00  0.00    -0.374 OA
BRANCH  29  30
ATOM     30  C   UNL     1      -2.570  -8.044   9.193  1.00  0.00     0.202 C 
BRANCH  30  31
ATOM     31  C   UNL     1      -3.282  -8.971   8.208  1.00  0.00     0.261 C 
BRANCH  31  32
ATOM     32  O   UNL     1      -3.909  -8.205   7.166  1.00  0.00    -0.460 OA
BRANCH  32  33
ATOM     33  C   UNL     1      -5.235  -8.016   7.339  1.00  0.00     0.338 C 
ATOM     34  O   UNL     1      -5.948  -8.526   8.196  1.00  0.00    -0.246 OA
BRANCH  33  35
ATOM     35  C   UNL     1      -5.718  -6.959   6.433  1.00  0.00     0.060 A 
ATOM     36  C   UNL     1      -6.592  -6.008   6.974  1.00  0.00     0.016 A 
ATOM     37  C   UNL     1      -5.382  -6.926   5.077  1.00  0.00     0.016 A 
ATOM     38  C   UNL     1      -7.194  -5.066   6.146  1.00  0.00     0.010 A 
ATOM     39  C   UNL     1      -5.989  -5.979   4.246  1.00  0.00     0.010 A 
ATOM     40  C   UNL     1      -6.931  -5.077   4.771  1.00  0.00    -0.014 A 
BRANCH  40  41
ATOM     41  C   UNL     1      -7.766  -4.249   3.869  1.00  0.00     0.031 A 
ATOM     42  C   UNL     1      -8.887  -4.907   3.109  1.00  0.00     0.074 A 
ATOM     43  C   UNL     1      -7.556  -2.925   3.763  1.00  0.00     0.049 A 
ATOM     44  N   UNL     1      -9.733  -4.381   2.263  1.00  0.00    -0.248 NA
ATOM     45  C   UNL     1      -9.078  -6.350   3.333  1.00  0.00     0.031 C 
ATOM     46  C   UNL     1      -6.531  -2.170   4.485  1.00  0.00     0.029 A 
ATOM     47  N   UNL     1      -8.197  -1.980   3.003  1.00  0.00    -0.354 N 
ATOM     48  C   UNL     1     -10.547  -5.427   1.842  1.00  0.00     0.074 A 
ATOM     49  C   UNL     1     -10.077  -6.623   2.506  1.00  0.00     0.031 C 
ATOM     50  C   UNL     1      -6.612  -0.877   4.130  1.00  0.00     0.029 A 
ATOM     51  C   UNL     1      -7.667  -0.718   3.131  1.00  0.00     0.049 A 
ATOM     52  H   UNL     1      -8.964  -2.185   2.422  1.00  0.00     0.167 HD
ATOM     53  C   UNL     1     -11.593  -5.393   0.984  1.00  0.00     0.031 A 
ATOM     54  C   UNL     1      -7.985   0.428   2.499  1.00  0.00     0.031 A 
ATOM     55  C   UNL     1     -12.053  -4.199   0.326  1.00  0.00     0.049 A 
ATOM     56  C   UNL     1      -9.111   0.427   1.498  1.00  0.00     0.074 A 
ATOM     57  C   UNL     1     -13.123  -4.053  -0.540  1.00  0.00     0.029 A 
ATOM     58  N   UNL     1     -11.467  -2.949   0.454  1.00  0.00    -0.354 N 
ATOM     59  N   UNL     1      -9.891  -0.564   1.136  1.00  0.00    -0.248 NA
ATOM     60  C   UNL     1      -9.403   1.701   0.825  1.00  0.00     0.031 C 
ATOM     61  C   UNL     1     -13.144  -2.728  -0.986  1.00  0.00     0.029 A 
ATOM     62  C   UNL     1     -12.130  -2.033  -0.346  1.00  0.00     0.049 A 
ATOM     63  H   UNL     1     -10.695  -2.743   1.028  1.00  0.00     0.167 HD
ATOM     64  C   UNL     1     -10.785  -0.025   0.215  1.00  0.00     0.074 A 
ATOM     65  C   UNL     1     -10.457   1.379   0.086  1.00  0.00     0.031 C 
ATOM     66  C   UNL     1     -11.789  -0.637  -0.462  1.00  0.00     0.031 A 
BRANCH  53  67
ATOM     67  C   UNL     1     -12.288  -6.693   0.673  1.00  0.00    -0.014 A 
ATOM     68  C   UNL     1     -13.098  -7.339   1.624  1.00  0.00     0.010 A 
ATOM     69  C   UNL     1     -12.164  -7.252  -0.613  1.00  0.00     0.010 A 
ATOM     70  C   UNL     1     -13.743  -8.538   1.305  1.00  0.00     0.020 A 
ATOM     71  C   UNL     1     -12.829  -8.436  -0.944  1.00  0.00     0.020 A 
ATOM     72  C   UNL     1     -13.603  -9.079   0.023  1.00  0.00     0.054 A 
BRANCH  72  73
ATOM     73  S   UNL     1     -14.474 -10.621  -0.372  1.00  0.00     0.124 S 
ATOM     74  O   UNL     1     -13.707 -11.604   0.389  1.00  0.00    -0.237 OA
ATOM     75  O   UNL     1     -15.824 -10.360   0.119  1.00  0.00    -0.237 OA
ATOM     76  O   UNL     1     -14.352 -10.726  -1.824  1.00  0.00    -0.744 OA
ENDBRANCH  72  73
ENDBRANCH  53  67
BRANCH  54  77
ATOM     77  C   UNL     1      -7.208   1.669   2.772  1.00  0.00    -0.014 A 
ATOM     78  C   UNL     1      -7.801   2.763   3.426  1.00  0.00     0.010 A 
ATOM     79  C   UNL     1      -5.864   1.762   2.366  1.00  0.00     0.010 A 
ATOM     80  C   UNL     1      -7.072   3.935   3.648  1.00  0.00     0.020 A 
ATOM     81  C   UNL     1      -5.122   2.920   2.613  1.00  0.00     0.020 A 
ATOM     82  C   UNL     1      -5.736   4.005   3.240  1.00  0.00     0.054 A 
BRANCH  82  83
ATOM     83  S   UNL     1      -4.799   5.523   3.569  1.00  0.00     0.124 S 
ATOM     84  O   UNL     1      -5.373   6.449   2.598  1.00  0.00    -0.237 OA
ATOM     85  O   UNL     1      -5.117   5.793   4.968  1.00  0.00    -0.237 OA
ATOM     86  O   UNL     1      -3.414   5.129   3.316  1.00  0.00    -0.744 OA
ENDBRANCH  82  83
ENDBRANCH  54  77
BRANCH  66  87
ATOM     87  C   UNL     1     -12.630   0.212  -1.378  1.00  0.00    -0.014 A 
ATOM     88  C   UNL     1     -12.122   0.696  -2.597  1.00  0.00     0.010 A 
ATOM     89  C   UNL     1     -13.970   0.477  -1.040  1.00  0.00     0.010 A 
ATOM     90  C   UNL     1     -12.931   1.455  -3.446  1.00  0.00     0.020 A 
ATOM     91  C   UNL     1     -14.790   1.210  -1.901  1.00  0.00     0.020 A 
ATOM     92  C   UNL     1     -14.261   1.707  -3.094  1.00  0.00     0.054 A 
BRANCH  92  93
ATOM     93  S   UNL     1     -15.302   2.654  -4.236  1.00  0.00     0.124 S 
ATOM     94  O   UNL     1     -14.780   4.008  -4.072  1.00  0.00    -0.237 OA
ATOM     95  O   UNL     1     -15.021   2.024  -5.524  1.00  0.00    -0.237 OA
ATOM     96  O   UNL     1     -16.656   2.443  -3.728  1.00  0.00    -0.744 OA
ENDBRANCH  92  93
ENDBRANCH  66  87
ENDBRANCH  40  41
ENDBRANCH  33  35
ENDBRANCH  32  33
ENDBRANCH  31  32
ENDBRANCH  30  31
ENDBRANCH  29  30
ENDBRANCH   1  29
TORSDOF 22
