REMARK SMILES N#Cc1ccc(/C=C/C(=O)N[C@H]2C=C[C@H](C(=O)OCCOCCOC(=O)c3ccc(-c4c5nc(c(-c6ccc(S(=O)(=O)[O-])cc6)c6ccc([nH]6)c(-c6ccc(S(=O)(=O)[O-])cc6)c6nc(c(-c7ccc(S(=O)(=O)[O-])cc7)c7ccc4[nH]7)C=C6)C=C5)cc3)C2)cc1
REMARK SMILES IDX 20 1 19 2 18 3 16 4 17 5 15 6 12 7 13 8 87 9 14 10 11 11
REMARK SMILES IDX 9 12 10 13 8 15 7 16 6 17 3 18 4 19 89 20 5 21 88 22 2 23
REMARK SMILES IDX 1 24 21 25 22 26 23 27 24 28 25 29 26 30 27 31 28 32 86 33
REMARK SMILES IDX 29 34 85 35 30 36 31 37 32 38 79 39 33 40 84 41 78 42 80 43
REMARK SMILES IDX 34 44 83 45 77 46 76 47 35 49 65 50 46 51 64 52 47 53 50 54
REMARK SMILES IDX 63 55 81 56 48 57 49 58 62 60 82 61 51 62 36 63 37 64 45 65
REMARK SMILES IDX 38 66 44 67 39 68 40 69 41 70 42 71 43 72 66 73 67 74 75 75
REMARK SMILES IDX 68 76 74 77 69 78 70 79 71 80 72 81 73 82 52 83 53 84 61 85
REMARK SMILES IDX 54 86 60 87 55 88 56 89 57 90 58 91 59 92
REMARK H PARENT 11 14 80 48 50 59
REMARK Flexibility Score: inf
ROOT
ATOM      1  C   UNL     1       1.021  -3.924   2.291  1.00  0.00     0.202 C 
ENDROOT
BRANCH   1   2
ATOM      2  C   UNL     1       1.984  -4.606   1.309  1.00  0.00     0.261 C 
BRANCH   2   3
ATOM      3  O   UNL     1       3.356  -4.517   1.732  1.00  0.00    -0.463 OA
BRANCH   3   4
ATOM      4  C   UNL     1       4.213  -3.944   0.840  1.00  0.00     0.312 C 
ATOM      5  O   UNL     1       3.923  -3.645  -0.313  1.00  0.00    -0.252 OA
BRANCH   4   6
ATOM      6  C   UNL     1       5.524  -3.544   1.526  1.00  0.00     0.124 C 
ATOM      7  C   UNL     1       6.178  -1.615   0.239  1.00  0.00     0.106 C 
ATOM      8  C   UNL     1       7.166  -2.716   0.040  1.00  0.00    -0.006 C 
ATOM      9  C   UNL     1       5.600  -2.014   1.597  1.00  0.00     0.048 C 
ATOM     10  C   UNL     1       6.752  -3.817   0.695  1.00  0.00    -0.014 C 
BRANCH   7  11
ATOM     11  N   UNL     1       6.713  -0.287   0.238  1.00  0.00    -0.346 N 
ATOM     12  C   UNL     1       6.058   0.910   0.197  1.00  0.00     0.244 C 
ATOM     13  O   UNL     1       6.733   1.942   0.245  1.00  0.00    -0.270 OA
ATOM     14  H   UNL     1       7.696  -0.229   0.273  1.00  0.00     0.164 HD
BRANCH  12  15
ATOM     15  C   UNL     1       4.561   1.066   0.161  1.00  0.00     0.072 C 
ATOM     16  C   UNL     1       3.608   0.163  -0.118  1.00  0.00     0.014 C 
BRANCH  16  17
ATOM     17  C   UNL     1       2.138   0.292  -0.101  1.00  0.00    -0.025 A 
ATOM     18  C   UNL     1      -0.686   0.287  -0.064  1.00  0.00     0.052 A 
ATOM     19  C   UNL     1       0.027   1.488   0.034  1.00  0.00     0.020 A 
ATOM     20  C   UNL     1       0.008  -0.912  -0.195  1.00  0.00     0.020 A 
ATOM     21  C   UNL     1       1.433   1.491   0.018  1.00  0.00     0.009 A 
ATOM     22  C   UNL     1       1.403  -0.902  -0.221  1.00  0.00     0.009 A 
BRANCH  18  23
ATOM     23  C   UNL     1      -2.121   0.278  -0.034  1.00  0.00     0.099 C 
ATOM     24  N   UNL     1      -3.279   0.269  -0.021  1.00  0.00    -0.192 NA
ENDBRANCH  18  23
ENDBRANCH  16  17
ENDBRANCH  12  15
ENDBRANCH   7  11
ENDBRANCH   4   6
ENDBRANCH   3   4
ENDBRANCH   2   3
ENDBRANCH   1   2
BRANCH   1  25
ATOM     25  O   UNL     1       1.241  -2.564   2.654  1.00  0.00    -0.374 OA
BRANCH  25  26
ATOM     26  C   UNL     1       2.424  -2.235   3.370  1.00  0.00     0.202 C 
BRANCH  26  27
ATOM     27  C   UNL     1       2.619  -2.703   4.818  1.00  0.00     0.261 C 
BRANCH  27  28
ATOM     28  O   UNL     1       2.464  -4.115   5.001  1.00  0.00    -0.460 OA
BRANCH  28  29
ATOM     29  C   UNL     1       1.275  -4.467   5.554  1.00  0.00     0.338 C 
ATOM     30  O   UNL     1       0.376  -3.721   5.901  1.00  0.00    -0.246 OA
BRANCH  29  31
ATOM     31  C   UNL     1       1.121  -5.930   5.503  1.00  0.00     0.060 A 
ATOM     32  C   UNL     1       0.029  -6.450   4.795  1.00  0.00     0.016 A 
ATOM     33  C   UNL     1       1.988  -6.770   6.200  1.00  0.00     0.016 A 
ATOM     34  C   UNL     1      -0.225  -7.817   4.814  1.00  0.00     0.010 A 
ATOM     35  C   UNL     1       1.724  -8.141   6.228  1.00  0.00     0.010 A 
ATOM     36  C   UNL     1       0.598  -8.665   5.565  1.00  0.00    -0.014 A 
BRANCH  36  37
ATOM     37  C   UNL     1       0.205 -10.078   5.769  1.00  0.00     0.031 A 
ATOM     38  C   UNL     1      -0.372 -10.493   7.094  1.00  0.00     0.074 A 
ATOM     39  C   UNL     1       0.349 -10.975   4.778  1.00  0.00     0.049 A 
ATOM     40  N   UNL     1      -0.750 -11.678   7.498  1.00  0.00    -0.248 NA
ATOM     41  C   UNL     1      -0.537  -9.431   8.099  1.00  0.00     0.031 C 
ATOM     42  C   UNL     1       0.842 -10.677   3.434  1.00  0.00     0.029 A 
ATOM     43  N   UNL     1       0.089 -12.320   4.753  1.00  0.00    -0.354 N 
ATOM     44  C   UNL     1      -1.175 -11.510   8.811  1.00  0.00     0.074 A 
ATOM     45  C   UNL     1      -0.974 -10.117   9.144  1.00  0.00     0.031 C 
ATOM     46  C   UNL     1       0.837 -11.809   2.710  1.00  0.00     0.029 A 
ATOM     47  C   UNL     1       0.388 -12.915   3.552  1.00  0.00     0.049 A 
ATOM     48  H   UNL     1      -0.277 -12.813   5.523  1.00  0.00     0.167 HD
ATOM     49  C   UNL     1      -1.686 -12.434   9.661  1.00  0.00     0.031 A 
ATOM     50  C   UNL     1       0.321 -14.208   3.179  1.00  0.00     0.031 A 
ATOM     51  C   UNL     1      -1.858 -13.824   9.324  1.00  0.00     0.049 A 
ATOM     52  C   UNL     1      -0.162 -15.233   4.170  1.00  0.00     0.074 A 
ATOM     53  C   UNL     1      -2.389 -14.838  10.101  1.00  0.00     0.029 A 
ATOM     54  N   UNL     1      -1.484 -14.400   8.118  1.00  0.00    -0.354 N 
ATOM     55  N   UNL     1      -0.590 -15.059   5.398  1.00  0.00    -0.248 NA
ATOM     56  C   UNL     1      -0.177 -16.631   3.718  1.00  0.00     0.031 C 
ATOM     57  C   UNL     1      -2.257 -16.040   9.398  1.00  0.00     0.029 A 
ATOM     58  C   UNL     1      -1.730 -15.763   8.146  1.00  0.00     0.049 A 
ATOM     59  H   UNL     1      -1.101 -13.911   7.354  1.00  0.00     0.167 HD
ATOM     60  C   UNL     1      -0.961 -16.320   5.853  1.00  0.00     0.074 A 
ATOM     61  C   UNL     1      -0.715 -17.244   4.764  1.00  0.00     0.031 C 
ATOM     62  C   UNL     1      -1.470 -16.677   7.059  1.00  0.00     0.031 A 
BRANCH  49  63
ATOM     63  C   UNL     1      -2.030 -11.975  11.058  1.00  0.00    -0.014 A 
ATOM     64  C   UNL     1      -3.059 -11.046  11.302  1.00  0.00     0.010 A 
ATOM     65  C   UNL     1      -1.301 -12.482  12.150  1.00  0.00     0.010 A 
ATOM     66  C   UNL     1      -3.301 -10.579  12.597  1.00  0.00     0.020 A 
ATOM     67  C   UNL     1      -1.567 -12.049  13.451  1.00  0.00     0.020 A 
ATOM     68  C   UNL     1      -2.547 -11.079  13.663  1.00  0.00     0.054 A 
BRANCH  68  69
ATOM     69  S   UNL     1      -2.863 -10.436  15.329  1.00  0.00     0.124 S 
ATOM     70  O   UNL     1      -2.351  -9.072  15.227  1.00  0.00    -0.237 OA
ATOM     71  O   UNL     1      -4.314 -10.555  15.447  1.00  0.00    -0.237 OA
ATOM     72  O   UNL     1      -2.095 -11.325  16.197  1.00  0.00    -0.744 OA
ENDBRANCH  68  69
ENDBRANCH  49  63
BRANCH  50  73
ATOM     73  C   UNL     1       0.702 -14.597   1.795  1.00  0.00    -0.014 A 
ATOM     74  C   UNL     1      -0.279 -15.043   0.891  1.00  0.00     0.010 A 
ATOM     75  C   UNL     1       2.036 -14.494   1.361  1.00  0.00     0.010 A 
ATOM     76  C   UNL     1       0.068 -15.378  -0.420  1.00  0.00     0.020 A 
ATOM     77  C   UNL     1       2.381 -14.798   0.041  1.00  0.00     0.020 A 
ATOM     78  C   UNL     1       1.393 -15.241  -0.840  1.00  0.00     0.054 A 
BRANCH  78  79
ATOM     79  S   UNL     1       1.797 -15.601  -2.571  1.00  0.00     0.124 S 
ATOM     80  O   UNL     1       1.603 -17.045  -2.637  1.00  0.00    -0.237 OA
ATOM     81  O   UNL     1       0.816 -14.794  -3.293  1.00  0.00    -0.237 OA
ATOM     82  O   UNL     1       3.181 -15.148  -2.702  1.00  0.00    -0.744 OA
ENDBRANCH  78  79
ENDBRANCH  50  73
BRANCH  62  83
ATOM     83  C   UNL     1      -1.835 -18.128   7.260  1.00  0.00    -0.014 A 
ATOM     84  C   UNL     1      -0.855 -19.133   7.335  1.00  0.00     0.010 A 
ATOM     85  C   UNL     1      -3.188 -18.481   7.429  1.00  0.00     0.010 A 
ATOM     86  C   UNL     1      -1.222 -20.467   7.540  1.00  0.00     0.020 A 
ATOM     87  C   UNL     1      -3.556 -19.806   7.673  1.00  0.00     0.020 A 
ATOM     88  C   UNL     1      -2.571 -20.794   7.712  1.00  0.00     0.054 A 
BRANCH  88  89
ATOM     89  S   UNL     1      -3.015 -22.524   8.025  1.00  0.00     0.124 S 
ATOM     90  O   UNL     1      -2.733 -23.149   6.736  1.00  0.00    -0.237 OA
ATOM     91  O   UNL     1      -2.112 -22.892   9.113  1.00  0.00    -0.237 OA
ATOM     92  O   UNL     1      -4.428 -22.460   8.390  1.00  0.00    -0.744 OA
ENDBRANCH  88  89
ENDBRANCH  62  83
ENDBRANCH  36  37
ENDBRANCH  29  31
ENDBRANCH  28  29
ENDBRANCH  27  28
ENDBRANCH  26  27
ENDBRANCH  25  26
ENDBRANCH   1  25
TORSDOF 21
