REMARK SMILES COc1ccc(-c2nc3cc(N4C[C@@H](C(=O)OCCOCCOC(=O)c5ccc(-c6c7nc(c(-c8ccc(S(=O)(=O)[O-])cc8)c8ccc([nH]8)c(-c8ccc(S(=O)(=O)[O-])cc8)c8nc(c(-c9ccc(S(=O)(=O)[O-])cc9)c9ccc6[nH]9)C=C8)C=C7)cc5)CC4=O)ccc3o2)cc1
REMARK SMILES IDX 20 1 19 2 18 3 17 4 15 5 16 6 14 7 12 8 13 9 87 10 86 11
REMARK SMILES IDX 88 12 11 13 7 14 8 15 92 16 9 17 91 18 10 19 90 20 89 21
REMARK SMILES IDX 6 22 3 23 4 24 94 25 5 26 93 27 2 28 1 29 21 30 22 31 23 32
REMARK SMILES IDX 24 33 25 34 26 35 27 36 85 37 28 38 84 39 29 40 30 41 31 42
REMARK SMILES IDX 78 43 32 44 83 45 77 46 79 47 33 48 82 49 76 50 75 51 34 53
REMARK SMILES IDX 64 54 45 55 63 56 46 57 49 58 62 59 80 60 47 61 48 62 61 64
REMARK SMILES IDX 81 65 50 66 35 67 36 68 44 69 37 70 43 71 38 72 39 73 40 74
REMARK SMILES IDX 41 75 42 76 65 77 66 78 74 79 67 80 73 81 68 82 69 83 70 84
REMARK SMILES IDX 71 85 72 86 51 87 52 88 60 89 53 90 59 91 54 92 55 93 56 94
REMARK SMILES IDX 57 95 58 96
REMARK H PARENT 79 52 49 63
REMARK Flexibility Score: inf
ROOT
ATOM      1  O   UNL     1      12.650  11.856  -0.816  1.00  0.00    -0.374 OA
ENDROOT
BRANCH   1   2
ATOM      2  C   UNL     1      11.947  13.007  -1.282  1.00  0.00     0.202 C 
BRANCH   2   3
ATOM      3  C   UNL     1      10.523  12.782  -1.790  1.00  0.00     0.261 C 
BRANCH   3   4
ATOM      4  O   UNL     1       9.684  12.262  -0.750  1.00  0.00    -0.463 OA
BRANCH   4   5
ATOM      5  C   UNL     1       9.304  10.974  -0.910  1.00  0.00     0.311 C 
ATOM      6  O   UNL     1       9.509  10.286  -1.903  1.00  0.00    -0.252 OA
BRANCH   5   7
ATOM      7  C   UNL     1       8.558  10.440   0.272  1.00  0.00     0.128 C 
ATOM      8  N   UNL     1       6.445  10.277   1.156  1.00  0.00    -0.311 N 
ATOM      9  C   UNL     1       7.106  10.453  -0.108  1.00  0.00     0.141 C 
ATOM     10  C   UNL     1       7.215  10.793   2.199  1.00  0.00     0.227 C 
ATOM     11  C   UNL     1       8.558  11.188   1.604  1.00  0.00     0.117 C 
ATOM     12  O   UNL     1       6.939  10.862   3.386  1.00  0.00    -0.274 OA
BRANCH   8  13
ATOM     13  C   UNL     1       5.231   9.582   1.268  1.00  0.00     0.046 A 
ATOM     14  C   UNL     1       2.363   6.298   0.433  1.00  0.00     0.227 A 
ATOM     15  N   UNL     1       3.534   6.590  -0.089  1.00  0.00    -0.209 NA
ATOM     16  O   UNL     1       1.876   7.211   1.338  1.00  0.00    -0.436 OA
ATOM     17  C   UNL     1       3.876   7.739   0.542  1.00  0.00     0.112 A 
ATOM     18  C   UNL     1       2.891   8.133   1.428  1.00  0.00     0.155 A 
ATOM     19  C   UNL     1       5.049   8.471   0.436  1.00  0.00     0.058 A 
ATOM     20  C   UNL     1       3.008   9.240   2.262  1.00  0.00     0.051 A 
ATOM     21  C   UNL     1       4.231   9.942   2.185  1.00  0.00     0.030 A 
BRANCH  14  22
ATOM     22  C   UNL     1       1.682   5.029   0.284  1.00  0.00     0.037 A 
ATOM     23  C   UNL     1       0.576   2.495  -0.197  1.00  0.00     0.118 A 
ATOM     24  C   UNL     1      -0.216   3.648  -0.273  1.00  0.00     0.047 A 
ATOM     25  C   UNL     1       1.926   2.611   0.120  1.00  0.00     0.047 A 
ATOM     26  C   UNL     1       0.328   4.914  -0.020  1.00  0.00     0.017 A 
ATOM     27  C   UNL     1       2.473   3.870   0.352  1.00  0.00     0.017 A 
BRANCH  23  28
ATOM     28  O   UNL     1      -0.065   1.320  -0.479  1.00  0.00    -0.497 OA
ATOM     29  C   UNL     1       0.628   0.131  -0.114  1.00  0.00     0.278 C 
ENDBRANCH  23  28
ENDBRANCH  14  22
ENDBRANCH   8  13
ENDBRANCH   5   7
ENDBRANCH   4   5
ENDBRANCH   3   4
ENDBRANCH   2   3
ENDBRANCH   1   2
BRANCH   1  30
ATOM     30  C   UNL     1      12.323  11.334   0.472  1.00  0.00     0.202 C 
BRANCH  30  31
ATOM     31  C   UNL     1      12.740  12.151   1.700  1.00  0.00     0.261 C 
BRANCH  31  32
ATOM     32  O   UNL     1      12.018  13.392   1.808  1.00  0.00    -0.460 OA
BRANCH  32  33
ATOM     33  C   UNL     1      12.783  14.501   1.664  1.00  0.00     0.338 C 
ATOM     34  O   UNL     1      13.997  14.540   1.497  1.00  0.00    -0.246 OA
BRANCH  33  35
ATOM     35  C   UNL     1      11.937  15.699   1.537  1.00  0.00     0.060 A 
ATOM     36  C   UNL     1      12.136  16.514   0.414  1.00  0.00     0.016 A 
ATOM     37  C   UNL     1      11.037  16.075   2.536  1.00  0.00     0.016 A 
ATOM     38  C   UNL     1      11.475  17.735   0.312  1.00  0.00     0.010 A 
ATOM     39  C   UNL     1      10.381  17.307   2.435  1.00  0.00     0.010 A 
ATOM     40  C   UNL     1      10.626  18.158   1.342  1.00  0.00    -0.014 A 
BRANCH  40  41
ATOM     41  C   UNL     1      10.113  19.549   1.337  1.00  0.00     0.031 A 
ATOM     42  C   UNL     1      10.806  20.588   2.177  1.00  0.00     0.074 A 
ATOM     43  C   UNL     1       9.065  19.892   0.567  1.00  0.00     0.049 A 
ATOM     44  N   UNL     1      10.521  21.856   2.325  1.00  0.00    -0.248 NA
ATOM     45  C   UNL     1      11.975  20.137   2.951  1.00  0.00     0.031 C 
ATOM     46  C   UNL     1       8.338  18.987  -0.323  1.00  0.00     0.029 A 
ATOM     47  N   UNL     1       8.431  21.099   0.413  1.00  0.00    -0.354 N 
ATOM     48  C   UNL     1      11.468  22.354   3.214  1.00  0.00     0.074 A 
ATOM     49  C   UNL     1      12.319  21.246   3.591  1.00  0.00     0.031 C 
ATOM     50  C   UNL     1       7.350  19.671  -0.926  1.00  0.00     0.029 A 
ATOM     51  C   UNL     1       7.356  21.051  -0.442  1.00  0.00     0.049 A 
ATOM     52  H   UNL     1       8.718  21.921   0.871  1.00  0.00     0.167 HD
ATOM     53  C   UNL     1      11.617  23.620   3.673  1.00  0.00     0.031 A 
ATOM     54  C   UNL     1       6.467  22.005  -0.783  1.00  0.00     0.031 A 
ATOM     55  C   UNL     1      10.762  24.717   3.308  1.00  0.00     0.049 A 
ATOM     56  C   UNL     1       6.612  23.389  -0.209  1.00  0.00     0.074 A 
ATOM     57  C   UNL     1      10.841  26.040   3.708  1.00  0.00     0.029 A 
ATOM     58  N   UNL     1       9.663  24.619   2.468  1.00  0.00    -0.354 N 
ATOM     59  N   UNL     1       7.528  23.849   0.610  1.00  0.00    -0.248 NA
ATOM     60  C   UNL     1       5.609  24.384  -0.612  1.00  0.00     0.031 C 
ATOM     61  C   UNL     1       9.759  26.730   3.150  1.00  0.00     0.029 A 
ATOM     62  C   UNL     1       9.040  25.850   2.357  1.00  0.00     0.049 A 
ATOM     63  H   UNL     1       9.370  23.795   2.016  1.00  0.00     0.167 HD
ATOM     64  C   UNL     1       7.226  25.194   0.799  1.00  0.00     0.074 A 
ATOM     65  C   UNL     1       6.049  25.475   0.002  1.00  0.00     0.031 C 
ATOM     66  C   UNL     1       7.868  26.115   1.561  1.00  0.00     0.031 A 
BRANCH  53  67
ATOM     67  C   UNL     1      12.731  23.874   4.653  1.00  0.00    -0.014 A 
ATOM     68  C   UNL     1      14.078  23.872   4.246  1.00  0.00     0.010 A 
ATOM     69  C   UNL     1      12.424  24.145   5.999  1.00  0.00     0.010 A 
ATOM     70  C   UNL     1      15.098  24.094   5.175  1.00  0.00     0.020 A 
ATOM     71  C   UNL     1      13.439  24.394   6.926  1.00  0.00     0.020 A 
ATOM     72  C   UNL     1      14.772  24.348   6.511  1.00  0.00     0.054 A 
BRANCH  72  73
ATOM     73  S   UNL     1      16.114  24.643   7.696  1.00  0.00     0.124 S 
ATOM     74  O   UNL     1      16.658  23.299   7.873  1.00  0.00    -0.237 OA
ATOM     75  O   UNL     1      16.976  25.579   6.979  1.00  0.00    -0.237 OA
ATOM     76  O   UNL     1      15.432  25.197   8.862  1.00  0.00    -0.744 OA
ENDBRANCH  72  73
ENDBRANCH  53  67
BRANCH  54  77
ATOM     77  C   UNL     1       5.348  21.674  -1.706  1.00  0.00    -0.014 A 
ATOM     78  C   UNL     1       5.324  22.180  -3.017  1.00  0.00     0.010 A 
ATOM     79  C   UNL     1       4.306  20.831  -1.278  1.00  0.00     0.010 A 
ATOM     80  C   UNL     1       4.274  21.855  -3.881  1.00  0.00     0.020 A 
ATOM     81  C   UNL     1       3.268  20.484  -2.146  1.00  0.00     0.020 A 
ATOM     82  C   UNL     1       3.255  21.005  -3.441  1.00  0.00     0.054 A 
BRANCH  82  83
ATOM     83  S   UNL     1       1.938  20.541  -4.601  1.00  0.00     0.124 S 
ATOM     84  O   UNL     1       1.139  21.760  -4.656  1.00  0.00    -0.237 OA
ATOM     85  O   UNL     1       2.686  20.217  -5.813  1.00  0.00    -0.237 OA
ATOM     86  O   UNL     1       1.299  19.399  -3.950  1.00  0.00    -0.744 OA
ENDBRANCH  82  83
ENDBRANCH  54  77
BRANCH  66  87
ATOM     87  C   UNL     1       7.336  27.523   1.547  1.00  0.00    -0.014 A 
ATOM     88  C   UNL     1       6.144  27.861   2.212  1.00  0.00     0.010 A 
ATOM     89  C   UNL     1       8.076  28.536   0.909  1.00  0.00     0.010 A 
ATOM     90  C   UNL     1       5.688  29.183   2.215  1.00  0.00     0.020 A 
ATOM     91  C   UNL     1       7.637  29.862   0.932  1.00  0.00     0.020 A 
ATOM     92  C   UNL     1       6.437  30.175   1.574  1.00  0.00     0.054 A 
BRANCH  92  93
ATOM     93  S   UNL     1       5.849  31.890   1.632  1.00  0.00     0.124 S 
ATOM     94  O   UNL     1       4.742  31.864   0.679  1.00  0.00    -0.237 OA
ATOM     95  O   UNL     1       5.469  32.053   3.033  1.00  0.00    -0.237 OA
ATOM     96  O   UNL     1       7.012  32.669   1.214  1.00  0.00    -0.744 OA
ENDBRANCH  92  93
ENDBRANCH  66  87
ENDBRANCH  40  41
ENDBRANCH  33  35
ENDBRANCH  32  33
ENDBRANCH  31  32
ENDBRANCH  30  31
ENDBRANCH   1  30
TORSDOF 20
