REMARK SMILES O=C(Cn1nc(-c2ccco2)ccc1=O)OCCOCCOC(=O)c1ccc(-c2c3nc(c(-c4ccc(S(=O)(=O)[O-])cc4)c4ccc([nH]4)c(-c4ccc(S(=O)(=O)[O-])cc4)c4nc(c(-c5ccc(S(=O)(=O)[O-])cc5)c5ccc2[nH]5)C=C4)C=C3)cc1
REMARK SMILES IDX 20 1 19 2 18 3 17 4 16 5 2 6 1 7 3 8 4 9 5 10 14 11 6 12
REMARK SMILES IDX 13 13 15 14 12 15 7 16 8 17 11 18 9 19 10 20 21 21 22 22
REMARK SMILES IDX 23 23 24 24 25 25 26 26 84 27 27 28 83 29 28 30 29 31 30 32
REMARK SMILES IDX 77 33 31 34 82 35 76 36 78 37 32 38 81 39 75 40 74 41 33 43
REMARK SMILES IDX 63 44 44 45 62 46 45 47 48 48 61 49 79 50 46 51 47 52 60 54
REMARK SMILES IDX 80 55 49 56 34 57 35 58 43 59 36 60 42 61 37 62 38 63 39 64
REMARK SMILES IDX 40 65 41 66 64 67 65 68 73 69 66 70 72 71 67 72 68 73 69 74
REMARK SMILES IDX 70 75 71 76 50 77 51 78 59 79 52 80 58 81 53 82 54 83 55 84
REMARK SMILES IDX 56 85 57 86
REMARK H PARENT 78 42 48 53
REMARK Flexibility Score: inf
ROOT
ATOM      1  C   UNL     1       2.758  -1.917  -1.517  1.00  0.00     0.202 C 
ENDROOT
BRANCH   1   2
ATOM      2  O   UNL     1       3.982  -1.281  -1.132  1.00  0.00    -0.374 OA
BRANCH   2   3
ATOM      3  C   UNL     1       4.343  -1.447   0.239  1.00  0.00     0.202 C 
BRANCH   3   4
ATOM      4  C   UNL     1       4.080  -0.226   1.118  1.00  0.00     0.261 C 
BRANCH   4   5
ATOM      5  O   UNL     1       2.715   0.216   1.081  1.00  0.00    -0.462 OA
BRANCH   5   6
ATOM      6  C   UNL     1       2.159   0.846   0.021  1.00  0.00     0.328 C 
ATOM      7  O   UNL     1       0.945   0.727  -0.167  1.00  0.00    -0.250 OA
BRANCH   6   8
ATOM      8  C   UNL     1       3.021   1.590  -0.989  1.00  0.00     0.270 C 
BRANCH   8   9
ATOM      9  N   UNL     1       3.948   2.583  -0.461  1.00  0.00    -0.218 N 
ATOM     10  N   UNL     1       3.359   3.766  -0.085  1.00  0.00    -0.166 NA
ATOM     11  C   UNL     1       5.322   2.415  -0.583  1.00  0.00     0.267 A 
ATOM     12  C   UNL     1       4.131   4.769   0.194  1.00  0.00     0.126 A 
ATOM     13  C   UNL     1       6.155   3.520  -0.067  1.00  0.00     0.076 A 
ATOM     14  O   UNL     1       5.880   1.428  -1.051  1.00  0.00    -0.268 OA
ATOM     15  C   UNL     1       5.601   4.679   0.289  1.00  0.00     0.040 A 
BRANCH  12  16
ATOM     16  C   UNL     1       3.500   6.050   0.358  1.00  0.00     0.154 A 
ATOM     17  C   UNL     1       2.262   6.399   0.862  1.00  0.00     0.052 A 
ATOM     18  O   UNL     1       4.098   7.149  -0.196  1.00  0.00    -0.463 OA
ATOM     19  C   UNL     1       2.077   7.768   0.564  1.00  0.00     0.043 A 
ATOM     20  C   UNL     1       3.212   8.172  -0.099  1.00  0.00     0.196 A 
ENDBRANCH  12  16
ENDBRANCH   8   9
ENDBRANCH   6   8
ENDBRANCH   5   6
ENDBRANCH   4   5
ENDBRANCH   3   4
ENDBRANCH   2   3
ENDBRANCH   1   2
BRANCH   1  21
ATOM     21  C   UNL     1       2.945  -3.361  -1.988  1.00  0.00     0.261 C 
BRANCH  21  22
ATOM     22  O   UNL     1       3.354  -4.182  -0.886  1.00  0.00    -0.460 OA
BRANCH  22  23
ATOM     23  C   UNL     1       4.684  -4.431  -0.807  1.00  0.00     0.338 C 
ATOM     24  O   UNL     1       5.518  -4.249  -1.679  1.00  0.00    -0.246 OA
BRANCH  23  25
ATOM     25  C   UNL     1       5.019  -4.760   0.599  1.00  0.00     0.060 A 
ATOM     26  C   UNL     1       4.100  -5.380   1.451  1.00  0.00     0.016 A 
ATOM     27  C   UNL     1       6.278  -4.374   1.083  1.00  0.00     0.016 A 
ATOM     28  C   UNL     1       4.461  -5.655   2.770  1.00  0.00     0.010 A 
ATOM     29  C   UNL     1       6.643  -4.660   2.398  1.00  0.00     0.010 A 
ATOM     30  C   UNL     1       5.749  -5.337   3.237  1.00  0.00    -0.014 A 
BRANCH  30  31
ATOM     31  C   UNL     1       6.227  -5.949   4.499  1.00  0.00     0.031 A 
ATOM     32  C   UNL     1       6.371  -5.178   5.771  1.00  0.00     0.074 A 
ATOM     33  C   UNL     1       6.529  -7.261   4.455  1.00  0.00     0.049 A 
ATOM     34  N   UNL     1       6.636  -5.632   6.968  1.00  0.00    -0.248 NA
ATOM     35  C   UNL     1       6.208  -3.719   5.698  1.00  0.00     0.031 C 
ATOM     36  C   UNL     1       6.469  -8.087   3.246  1.00  0.00     0.029 A 
ATOM     37  N   UNL     1       6.914  -8.134   5.438  1.00  0.00    -0.354 N 
ATOM     38  C   UNL     1       6.639  -4.524   7.804  1.00  0.00     0.074 A 
ATOM     39  C   UNL     1       6.408  -3.366   6.964  1.00  0.00     0.031 C 
ATOM     40  C   UNL     1       6.752  -9.356   3.568  1.00  0.00     0.029 A 
ATOM     41  C   UNL     1       7.043  -9.429   4.996  1.00  0.00     0.049 A 
ATOM     42  H   UNL     1       7.081  -7.861   6.369  1.00  0.00     0.167 HD
ATOM     43  C   UNL     1       6.797  -4.490   9.150  1.00  0.00     0.031 A 
ATOM     44  C   UNL     1       7.340 -10.560   5.662  1.00  0.00     0.031 A 
ATOM     45  C   UNL     1       7.066  -5.656   9.959  1.00  0.00     0.049 A 
ATOM     46  C   UNL     1       7.526 -10.495   7.148  1.00  0.00     0.074 A 
ATOM     47  C   UNL     1       7.219  -5.729  11.333  1.00  0.00     0.029 A 
ATOM     48  N   UNL     1       7.231  -6.947   9.474  1.00  0.00    -0.354 N 
ATOM     49  N   UNL     1       7.444  -9.450   7.938  1.00  0.00    -0.248 NA
ATOM     50  C   UNL     1       7.822 -11.755   7.837  1.00  0.00     0.031 C 
ATOM     51  C   UNL     1       7.544  -7.046  11.670  1.00  0.00     0.029 A 
ATOM     52  C   UNL     1       7.516  -7.815  10.517  1.00  0.00     0.049 A 
ATOM     53  H   UNL     1       7.157  -7.207   8.528  1.00  0.00     0.167 HD
ATOM     54  C   UNL     1       7.677  -9.927   9.221  1.00  0.00     0.074 A 
ATOM     55  C   UNL     1       7.866 -11.360   9.104  1.00  0.00     0.031 C 
ATOM     56  C   UNL     1       7.736  -9.237  10.387  1.00  0.00     0.031 A 
BRANCH  43  57
ATOM     57  C   UNL     1       6.660  -3.161   9.851  1.00  0.00    -0.014 A 
ATOM     58  C   UNL     1       7.755  -2.598  10.532  1.00  0.00     0.010 A 
ATOM     59  C   UNL     1       5.406  -2.528   9.943  1.00  0.00     0.010 A 
ATOM     60  C   UNL     1       7.595  -1.448  11.311  1.00  0.00     0.020 A 
ATOM     61  C   UNL     1       5.247  -1.362  10.697  1.00  0.00     0.020 A 
ATOM     62  C   UNL     1       6.339  -0.841  11.396  1.00  0.00     0.054 A 
BRANCH  62  63
ATOM     63  S   UNL     1       6.144   0.638  12.429  1.00  0.00     0.124 S 
ATOM     64  O   UNL     1       6.186   0.081  13.777  1.00  0.00    -0.237 OA
ATOM     65  O   UNL     1       7.297   1.449  12.044  1.00  0.00    -0.237 OA
ATOM     66  O   UNL     1       4.851   1.177  12.015  1.00  0.00    -0.744 OA
ENDBRANCH  62  63
ENDBRANCH  43  57
BRANCH  44  67
ATOM     67  C   UNL     1       7.398 -11.840   4.904  1.00  0.00    -0.014 A 
ATOM     68  C   UNL     1       8.405 -12.047   3.942  1.00  0.00     0.010 A 
ATOM     69  C   UNL     1       6.375 -12.794   5.041  1.00  0.00     0.010 A 
ATOM     70  C   UNL     1       8.350 -13.147   3.084  1.00  0.00     0.020 A 
ATOM     71  C   UNL     1       6.336 -13.915   4.206  1.00  0.00     0.020 A 
ATOM     72  C   UNL     1       7.305 -14.065   3.211  1.00  0.00     0.054 A 
BRANCH  72  73
ATOM     73  S   UNL     1       7.210 -15.442   2.034  1.00  0.00     0.124 S 
ATOM     74  O   UNL     1       6.732 -14.771   0.827  1.00  0.00    -0.237 OA
ATOM     75  O   UNL     1       8.590 -15.916   1.986  1.00  0.00    -0.237 OA
ATOM     76  O   UNL     1       6.259 -16.360   2.657  1.00  0.00    -0.744 OA
ENDBRANCH  72  73
ENDBRANCH  44  67
BRANCH  56  77
ATOM     77  C   UNL     1       8.053 -10.013  11.641  1.00  0.00    -0.014 A 
ATOM     78  C   UNL     1       7.092 -10.128  12.662  1.00  0.00     0.010 A 
ATOM     79  C   UNL     1       9.335 -10.555  11.847  1.00  0.00     0.010 A 
ATOM     80  C   UNL     1       7.412 -10.746  13.874  1.00  0.00     0.020 A 
ATOM     81  C   UNL     1       9.649 -11.204  13.044  1.00  0.00     0.020 A 
ATOM     82  C   UNL     1       8.692 -11.276  14.059  1.00  0.00     0.054 A 
BRANCH  82  83
ATOM     83  S   UNL     1       9.092 -12.072  15.638  1.00  0.00     0.124 S 
ATOM     84  O   UNL     1       9.289 -10.925  16.520  1.00  0.00    -0.237 OA
ATOM     85  O   UNL     1       7.901 -12.875  15.905  1.00  0.00    -0.237 OA
ATOM     86  O   UNL     1      10.297 -12.843  15.338  1.00  0.00    -0.744 OA
ENDBRANCH  82  83
ENDBRANCH  56  77
ENDBRANCH  30  31
ENDBRANCH  23  25
ENDBRANCH  22  23
ENDBRANCH  21  22
ENDBRANCH   1  21
TORSDOF 19
