REMARK SMILES Cc1cc(C(=O)OCCOCCOC(=O)c2ccc(-c3c4nc(c(-c5ccc(S(=O)(=O)[O-])cc5)c5ccc([nH]5)c(-c5ccc(S(=O)(=O)[O-])cc5)c5nc(c(-c6ccc(S(=O)(=O)[O-])cc6)c6ccc3[nH]6)C=C5)C=C4)cc2)ccc1NC(=O)N1C[C@@H](C)[C@H](C)C1
REMARK SMILES IDX 11 1 10 2 9 3 8 4 7 5 5 6 6 7 4 8 1 9 2 10 3 11 78 12 77 13
REMARK SMILES IDX 76 14 79 15 80 16 81 18 82 19 83 20 88 21 84 22 86 23 85 24
REMARK SMILES IDX 87 25 12 26 13 27 14 28 15 29 16 30 17 31 75 32 18 33 74 34
REMARK SMILES IDX 19 35 20 36 21 37 68 38 22 39 73 40 67 41 69 42 23 43 72 44
REMARK SMILES IDX 66 45 65 46 24 48 54 49 35 50 53 51 36 52 39 53 52 54 70 55
REMARK SMILES IDX 37 56 38 57 51 59 71 60 40 61 25 62 26 63 34 64 27 65 33 66
REMARK SMILES IDX 28 67 29 68 30 69 31 70 32 71 55 72 56 73 64 74 57 75 63 76
REMARK SMILES IDX 58 77 59 78 60 79 61 80 62 81 41 82 42 83 50 84 43 85 49 86
REMARK SMILES IDX 44 87 45 88 46 89 47 90 48 91
REMARK H PARENT 79 17 69 47 39 58
REMARK Flexibility Score: inf
ROOT
ATOM      1  C   UNL     1      -1.057  -3.456  -3.392  1.00  0.00     0.202 C 
ENDROOT
BRANCH   1   2
ATOM      2  O   UNL     1      -1.842  -3.232  -2.244  1.00  0.00    -0.374 OA
BRANCH   2   3
ATOM      3  C   UNL     1      -3.001  -2.434  -2.435  1.00  0.00     0.202 C 
BRANCH   3   4
ATOM      4  C   UNL     1      -3.615  -2.246  -1.080  1.00  0.00     0.261 C 
BRANCH   4   5
ATOM      5  O   UNL     1      -2.766  -1.585  -0.110  1.00  0.00    -0.460 OA
BRANCH   5   6
ATOM      6  C   UNL     1      -1.464  -1.941   0.035  1.00  0.00     0.338 C 
ATOM      7  O   UNL     1      -1.005  -2.981   0.456  1.00  0.00    -0.246 OA
BRANCH   6   8
ATOM      8  C   UNL     1      -0.669  -0.735  -0.249  1.00  0.00     0.060 A 
ATOM      9  C   UNL     1       2.822   0.583   0.303  1.00  0.00     0.046 C 
ATOM     10  C   UNL     1       1.344   0.585   0.043  1.00  0.00    -0.027 A 
ATOM     11  C   UNL     1       0.662  -0.641   0.158  1.00  0.00     0.021 A 
ATOM     12  C   UNL     1       0.613   1.707  -0.385  1.00  0.00     0.045 A 
ATOM     13  C   UNL     1      -0.600   1.514  -1.042  1.00  0.00     0.027 A 
ATOM     14  C   UNL     1      -1.260   0.316  -0.941  1.00  0.00     0.018 A 
BRANCH  12  15
ATOM     15  N   UNL     1       1.039   3.023  -0.127  1.00  0.00    -0.308 N 
ATOM     16  C   UNL     1       0.294   4.175  -0.187  1.00  0.00     0.321 C 
ATOM     17  H   UNL     1       1.984   3.130   0.126  1.00  0.00     0.171 HD
ATOM     18  O   UNL     1       0.860   5.238  -0.444  1.00  0.00    -0.248 OA
ATOM     19  N   UNL     1      -1.063   4.105   0.030  1.00  0.00    -0.324 N 
ATOM     20  C   UNL     1      -1.989   4.941  -0.705  1.00  0.00     0.125 C 
ATOM     21  C   UNL     1      -1.714   3.482   1.186  1.00  0.00     0.125 C 
ATOM     22  C   UNL     1      -3.160   5.172   0.241  1.00  0.00     0.010 C 
ATOM     23  C   UNL     1      -3.196   3.883   1.085  1.00  0.00     0.010 C 
ATOM     24  C   UNL     1      -4.461   5.446  -0.499  1.00  0.00     0.010 C 
ATOM     25  C   UNL     1      -3.866   4.086   2.442  1.00  0.00     0.010 C 
ENDBRANCH  12  15
ENDBRANCH   6   8
ENDBRANCH   5   6
ENDBRANCH   4   5
ENDBRANCH   3   4
ENDBRANCH   2   3
ENDBRANCH   1   2
BRANCH   1  26
ATOM     26  C   UNL     1      -1.822  -4.210  -4.482  1.00  0.00     0.261 C 
BRANCH  26  27
ATOM     27  O   UNL     1      -2.070  -5.575  -4.082  1.00  0.00    -0.460 OA
BRANCH  27  28
ATOM     28  C   UNL     1      -3.344  -5.862  -3.675  1.00  0.00     0.338 C 
ATOM     29  O   UNL     1      -4.267  -6.065  -4.443  1.00  0.00    -0.246 OA
BRANCH  28  30
ATOM     30  C   UNL     1      -3.413  -5.960  -2.188  1.00  0.00     0.060 A 
ATOM     31  C   UNL     1      -4.631  -5.842  -1.492  1.00  0.00     0.016 A 
ATOM     32  C   UNL     1      -2.220  -6.002  -1.476  1.00  0.00     0.016 A 
ATOM     33  C   UNL     1      -4.638  -5.636  -0.097  1.00  0.00     0.010 A 
ATOM     34  C   UNL     1      -2.228  -5.705  -0.131  1.00  0.00     0.010 A 
ATOM     35  C   UNL     1      -3.425  -5.501   0.575  1.00  0.00    -0.014 A 
BRANCH  35  36
ATOM     36  C   UNL     1      -3.212  -5.080   1.968  1.00  0.00     0.031 A 
ATOM     37  C   UNL     1      -2.449  -5.985   2.859  1.00  0.00     0.074 A 
ATOM     38  C   UNL     1      -3.354  -3.778   2.321  1.00  0.00     0.049 A 
ATOM     39  N   UNL     1      -2.211  -5.733   4.096  1.00  0.00    -0.248 NA
ATOM     40  C   UNL     1      -1.909  -7.283   2.446  1.00  0.00     0.031 C 
ATOM     41  C   UNL     1      -2.613  -3.014   3.329  1.00  0.00     0.029 A 
ATOM     42  N   UNL     1      -4.207  -2.819   1.783  1.00  0.00    -0.354 N 
ATOM     43  C   UNL     1      -1.226  -6.591   4.518  1.00  0.00     0.074 A 
ATOM     44  C   UNL     1      -1.167  -7.616   3.508  1.00  0.00     0.031 C 
ATOM     45  C   UNL     1      -3.189  -1.810   3.505  1.00  0.00     0.029 A 
ATOM     46  C   UNL     1      -4.405  -1.787   2.708  1.00  0.00     0.049 A 
ATOM     47  H   UNL     1      -4.611  -2.861   0.886  1.00  0.00     0.167 HD
ATOM     48  C   UNL     1      -0.496  -6.240   5.612  1.00  0.00     0.031 A 
ATOM     49  C   UNL     1      -5.666  -1.481   3.118  1.00  0.00     0.031 A 
ATOM     50  C   UNL     1      -1.063  -5.043   6.253  1.00  0.00     0.049 A 
ATOM     51  C   UNL     1      -5.777  -1.928   4.549  1.00  0.00     0.074 A 
ATOM     52  C   UNL     1      -0.653  -3.725   6.348  1.00  0.00     0.029 A 
ATOM     53  N   UNL     1      -2.407  -5.061   6.632  1.00  0.00    -0.354 N 
ATOM     54  N   UNL     1      -4.973  -2.824   5.057  1.00  0.00    -0.248 NA
ATOM     55  C   UNL     1      -6.658  -1.338   5.550  1.00  0.00     0.031 C 
ATOM     56  C   UNL     1      -1.803  -2.938   6.665  1.00  0.00     0.029 A 
ATOM     57  C   UNL     1      -2.898  -3.780   6.808  1.00  0.00     0.049 A 
ATOM     58  H   UNL     1      -2.938  -5.880   6.757  1.00  0.00     0.167 HD
ATOM     59  C   UNL     1      -5.107  -2.845   6.404  1.00  0.00     0.074 A 
ATOM     60  C   UNL     1      -6.223  -1.950   6.668  1.00  0.00     0.031 C 
ATOM     61  C   UNL     1      -4.286  -3.568   7.215  1.00  0.00     0.031 A 
BRANCH  48  62
ATOM     62  C   UNL     1       0.826  -6.864   6.011  1.00  0.00    -0.014 A 
ATOM     63  C   UNL     1       1.493  -6.392   7.160  1.00  0.00     0.010 A 
ATOM     64  C   UNL     1       1.501  -7.861   5.276  1.00  0.00     0.010 A 
ATOM     65  C   UNL     1       2.748  -6.891   7.554  1.00  0.00     0.020 A 
ATOM     66  C   UNL     1       2.741  -8.388   5.671  1.00  0.00     0.020 A 
ATOM     67  C   UNL     1       3.362  -7.894   6.809  1.00  0.00     0.054 A 
BRANCH  67  68
ATOM     68  S   UNL     1       4.973  -8.537   7.334  1.00  0.00     0.124 S 
ATOM     69  O   UNL     1       5.834  -7.363   7.210  1.00  0.00    -0.237 OA
ATOM     70  O   UNL     1       4.707  -8.983   8.698  1.00  0.00    -0.237 OA
ATOM     71  O   UNL     1       5.250  -9.608   6.378  1.00  0.00    -0.744 OA
ENDBRANCH  67  68
ENDBRANCH  48  62
BRANCH  49  72
ATOM     72  C   UNL     1      -6.661  -1.547   1.992  1.00  0.00    -0.014 A 
ATOM     73  C   UNL     1      -6.638  -0.467   1.073  1.00  0.00     0.010 A 
ATOM     74  C   UNL     1      -7.167  -2.780   1.536  1.00  0.00     0.010 A 
ATOM     75  C   UNL     1      -6.943  -0.654  -0.286  1.00  0.00     0.020 A 
ATOM     76  C   UNL     1      -7.453  -2.976   0.168  1.00  0.00     0.020 A 
ATOM     77  C   UNL     1      -7.288  -1.926  -0.742  1.00  0.00     0.054 A 
BRANCH  77  78
ATOM     78  S   UNL     1      -7.200  -2.263  -2.542  1.00  0.00     0.124 S 
ATOM     79  O   UNL     1      -8.501  -1.808  -3.013  1.00  0.00    -0.237 OA
ATOM     80  O   UNL     1      -6.059  -1.452  -2.972  1.00  0.00    -0.237 OA
ATOM     81  O   UNL     1      -6.965  -3.702  -2.599  1.00  0.00    -0.744 OA
ENDBRANCH  77  78
ENDBRANCH  49  72
BRANCH  61  82
ATOM     82  C   UNL     1      -4.764  -4.102   8.527  1.00  0.00    -0.014 A 
ATOM     83  C   UNL     1      -6.131  -4.247   8.819  1.00  0.00     0.010 A 
ATOM     84  C   UNL     1      -3.836  -4.654   9.434  1.00  0.00     0.010 A 
ATOM     85  C   UNL     1      -6.554  -4.816  10.016  1.00  0.00     0.020 A 
ATOM     86  C   UNL     1      -4.251  -5.285  10.604  1.00  0.00     0.020 A 
ATOM     87  C   UNL     1      -5.609  -5.320  10.906  1.00  0.00     0.054 A 
BRANCH  87  88
ATOM     88  S   UNL     1      -6.178  -6.042  12.457  1.00  0.00     0.124 S 
ATOM     89  O   UNL     1      -6.386  -4.850  13.275  1.00  0.00    -0.237 OA
ATOM     90  O   UNL     1      -7.393  -6.749  12.059  1.00  0.00    -0.237 OA
ATOM     91  O   UNL     1      -5.069  -6.900  12.865  1.00  0.00    -0.744 OA
ENDBRANCH  87  88
ENDBRANCH  61  82
ENDBRANCH  35  36
ENDBRANCH  28  30
ENDBRANCH  27  28
ENDBRANCH  26  27
ENDBRANCH   1  26
TORSDOF 18
