REMARK SMILES CC(=O)Oc1ccccc1SCCCCCC(=O)OCCOCCOC(=O)c1ccc(-c2c3nc(c(-c4ccc(S(=O)(=O)[O-])cc4)c4ccc([nH]4)c(-c4ccc(S(=O)(=O)[O-])cc4)c4nc(c(-c5ccc(S(=O)(=O)[O-])cc5)c5ccc2[nH]5)C=C4)C=C3)cc1
REMARK SMILES IDX 20 1 19 2 17 3 18 4 16 5 15 6 14 7 13 8 12 9 11 10 10 11
REMARK SMILES IDX 5 12 6 13 7 14 9 15 8 16 4 17 2 18 1 19 3 20 21 21 22 22
REMARK SMILES IDX 23 23 24 24 25 25 26 26 27 27 28 28 29 29 87 30 30 31 86 32
REMARK SMILES IDX 31 33 32 34 33 35 80 36 34 37 85 38 79 39 81 40 35 41 84 42
REMARK SMILES IDX 78 43 77 44 36 46 66 47 47 48 65 49 48 50 51 51 64 52 82 53
REMARK SMILES IDX 49 54 50 55 63 57 83 58 52 59 37 60 38 61 46 62 39 63 45 64
REMARK SMILES IDX 40 65 41 66 42 67 43 68 44 69 67 70 68 71 76 72 69 73 75 74
REMARK SMILES IDX 70 75 71 76 72 77 73 78 74 79 53 80 54 81 62 82 55 83 61 84
REMARK SMILES IDX 56 85 57 86 58 87 59 88 60 89
REMARK H PARENT 81 45 51 56
REMARK Flexibility Score: inf
ROOT
ATOM      1  C   UNL     1       5.372   1.085  -2.091  1.00  0.00     0.261 C 
ENDROOT
BRANCH   1   2
ATOM      2  O   UNL     1       4.038   0.773  -1.663  1.00  0.00    -0.463 OA
BRANCH   2   3
ATOM      3  C   UNL     1       3.918  -0.013  -0.569  1.00  0.00     0.305 C 
ATOM      4  O   UNL     1       4.775  -0.776  -0.143  1.00  0.00    -0.252 OA
BRANCH   3   5
ATOM      5  C   UNL     1       2.596   0.255   0.117  1.00  0.00     0.123 C 
BRANCH   5   6
ATOM      6  C   UNL     1       2.273   1.762   0.190  1.00  0.00     0.012 C 
BRANCH   6   7
ATOM      7  C   UNL     1       1.298   2.447  -0.799  1.00  0.00     0.001 C 
BRANCH   7   8
ATOM      8  C   UNL     1      -0.000   1.859  -1.385  1.00  0.00     0.011 C 
BRANCH   8   9
ATOM      9  C   UNL     1      -1.394   1.710  -0.716  1.00  0.00     0.075 C 
BRANCH   9  10
ATOM     10  S   UNL     1      -2.464   2.967   0.124  1.00  0.00    -0.122 SA
BRANCH  10  11
ATOM     11  C   UNL     1      -1.624   3.617   1.553  1.00  0.00     0.050 A 
ATOM     12  C   UNL     1      -1.087   2.926   2.651  1.00  0.00     0.144 A 
ATOM     13  C   UNL     1      -0.296   3.602   3.599  1.00  0.00     0.048 A 
ATOM     14  C   UNL     1      -0.144   4.989   3.528  1.00  0.00     0.004 A 
ATOM     15  C   UNL     1      -1.584   5.023   1.599  1.00  0.00     0.019 A 
ATOM     16  C   UNL     1      -0.852   5.707   2.572  1.00  0.00     0.001 A 
BRANCH  12  17
ATOM     17  O   UNL     1      -1.410   1.581   2.932  1.00  0.00    -0.426 OA
BRANCH  17  18
ATOM     18  C   UNL     1      -0.639   0.747   2.184  1.00  0.00     0.308 C 
ATOM     19  C   UNL     1      -0.897  -0.703   2.323  1.00  0.00     0.139 C 
ATOM     20  O   UNL     1       0.232   1.116   1.416  1.00  0.00    -0.252 OA
ENDBRANCH  17  18
ENDBRANCH  12  17
ENDBRANCH  10  11
ENDBRANCH   9  10
ENDBRANCH   8   9
ENDBRANCH   7   8
ENDBRANCH   6   7
ENDBRANCH   5   6
ENDBRANCH   3   5
ENDBRANCH   2   3
ENDBRANCH   1   2
BRANCH   1  21
ATOM     21  C   UNL     1       5.747   2.471  -1.554  1.00  0.00     0.202 C 
BRANCH  21  22
ATOM     22  O   UNL     1       6.428   2.504  -0.299  1.00  0.00    -0.374 OA
BRANCH  22  23
ATOM     23  C   UNL     1       5.644   2.661   0.882  1.00  0.00     0.202 C 
BRANCH  23  24
ATOM     24  C   UNL     1       5.029   4.054   1.158  1.00  0.00     0.261 C 
BRANCH  24  25
ATOM     25  O   UNL     1       4.213   4.577   0.093  1.00  0.00    -0.460 OA
BRANCH  25  26
ATOM     26  C   UNL     1       4.821   5.500  -0.694  1.00  0.00     0.338 C 
ATOM     27  O   UNL     1       5.934   5.975  -0.536  1.00  0.00    -0.246 OA
BRANCH  26  28
ATOM     28  C   UNL     1       4.032   5.727  -1.923  1.00  0.00     0.060 A 
ATOM     29  C   UNL     1       4.664   5.464  -3.146  1.00  0.00     0.016 A 
ATOM     30  C   UNL     1       2.739   6.252  -1.898  1.00  0.00     0.016 A 
ATOM     31  C   UNL     1       4.019   5.746  -4.348  1.00  0.00     0.010 A 
ATOM     32  C   UNL     1       2.099   6.553  -3.110  1.00  0.00     0.010 A 
ATOM     33  C   UNL     1       2.744   6.324  -4.340  1.00  0.00    -0.014 A 
BRANCH  33  34
ATOM     34  C   UNL     1       2.140   6.781  -5.618  1.00  0.00     0.031 A 
ATOM     35  C   UNL     1       2.180   8.242  -5.975  1.00  0.00     0.074 A 
ATOM     36  C   UNL     1       1.589   5.896  -6.469  1.00  0.00     0.049 A 
ATOM     37  N   UNL     1       1.679   8.852  -7.018  1.00  0.00    -0.248 NA
ATOM     38  C   UNL     1       2.878   9.131  -5.034  1.00  0.00     0.031 C 
ATOM     39  C   UNL     1       1.538   4.449  -6.265  1.00  0.00     0.029 A 
ATOM     40  N   UNL     1       0.960   6.088  -7.675  1.00  0.00    -0.354 N 
ATOM     41  C   UNL     1       1.985  10.199  -6.853  1.00  0.00     0.074 A 
ATOM     42  C   UNL     1       2.699  10.317  -5.599  1.00  0.00     0.031 C 
ATOM     43  C   UNL     1       0.895   3.885  -7.301  1.00  0.00     0.029 A 
ATOM     44  C   UNL     1       0.452   4.933  -8.220  1.00  0.00     0.049 A 
ATOM     45  H   UNL     1       0.880   6.969  -8.107  1.00  0.00     0.167 HD
ATOM     46  C   UNL     1       1.696  11.241  -7.669  1.00  0.00     0.031 A 
ATOM     47  C   UNL     1      -0.314   4.743  -9.313  1.00  0.00     0.031 A 
ATOM     48  C   UNL     1       0.970  11.119  -8.908  1.00  0.00     0.049 A 
ATOM     49  C   UNL     1      -0.700   5.927 -10.161  1.00  0.00     0.074 A 
ATOM     50  C   UNL     1       0.650  12.112  -9.817  1.00  0.00     0.029 A 
ATOM     51  N   UNL     1       0.437   9.938  -9.403  1.00  0.00    -0.354 N 
ATOM     52  N   UNL     1      -0.372   7.189 -10.011  1.00  0.00    -0.248 NA
ATOM     53  C   UNL     1      -1.555   5.662 -11.326  1.00  0.00     0.031 C 
ATOM     54  C   UNL     1      -0.140  11.546 -10.822  1.00  0.00     0.029 A 
ATOM     55  C   UNL     1      -0.249  10.186 -10.581  1.00  0.00     0.049 A 
ATOM     56  H   UNL     1       0.531   9.055  -8.979  1.00  0.00     0.167 HD
ATOM     57  C   UNL     1      -0.966   7.864 -11.073  1.00  0.00     0.074 A 
ATOM     58  C   UNL     1      -1.657   6.869 -11.867  1.00  0.00     0.031 C 
ATOM     59  C   UNL     1      -0.940   9.189 -11.362  1.00  0.00     0.031 A 
BRANCH  46  60
ATOM     60  C   UNL     1       2.116  12.618  -7.222  1.00  0.00    -0.014 A 
ATOM     61  C   UNL     1       3.469  13.001  -7.189  1.00  0.00     0.010 A 
ATOM     62  C   UNL     1       1.132  13.559  -6.865  1.00  0.00     0.010 A 
ATOM     63  C   UNL     1       3.831  14.284  -6.764  1.00  0.00     0.020 A 
ATOM     64  C   UNL     1       1.488  14.851  -6.470  1.00  0.00     0.020 A 
ATOM     65  C   UNL     1       2.837  15.200  -6.404  1.00  0.00     0.054 A 
BRANCH  65  66
ATOM     66  S   UNL     1       3.336  16.859  -5.868  1.00  0.00     0.124 S 
ATOM     67  O   UNL     1       3.932  16.587  -4.562  1.00  0.00    -0.237 OA
ATOM     68  O   UNL     1       4.271  17.265  -6.913  1.00  0.00    -0.237 OA
ATOM     69  O   UNL     1       2.080  17.606  -5.834  1.00  0.00    -0.744 OA
ENDBRANCH  65  66
ENDBRANCH  46  60
BRANCH  47  70
ATOM     70  C   UNL     1      -0.807   3.375  -9.637  1.00  0.00    -0.014 A 
ATOM     71  C   UNL     1      -0.346   2.688 -10.773  1.00  0.00     0.010 A 
ATOM     72  C   UNL     1      -1.738   2.744  -8.789  1.00  0.00     0.010 A 
ATOM     73  C   UNL     1      -0.809   1.399 -11.057  1.00  0.00     0.020 A 
ATOM     74  C   UNL     1      -2.179   1.445  -9.052  1.00  0.00     0.020 A 
ATOM     75  C   UNL     1      -1.717   0.783 -10.190  1.00  0.00     0.054 A 
BRANCH  75  76
ATOM     76  S   UNL     1      -2.248  -0.916 -10.540  1.00  0.00     0.124 S 
ATOM     77  O   UNL     1      -3.112  -0.732 -11.701  1.00  0.00    -0.237 OA
ATOM     78  O   UNL     1      -0.979  -1.595 -10.794  1.00  0.00    -0.237 OA
ATOM     79  O   UNL     1      -2.927  -1.323  -9.311  1.00  0.00    -0.744 OA
ENDBRANCH  75  76
ENDBRANCH  47  70
BRANCH  59  80
ATOM     80  C   UNL     1      -1.662   9.651 -12.602  1.00  0.00    -0.014 A 
ATOM     81  C   UNL     1      -3.067   9.681 -12.661  1.00  0.00     0.010 A 
ATOM     82  C   UNL     1      -0.922  10.139 -13.696  1.00  0.00     0.010 A 
ATOM     83  C   UNL     1      -3.717  10.172 -13.797  1.00  0.00     0.020 A 
ATOM     84  C   UNL     1      -1.569  10.658 -14.821  1.00  0.00     0.020 A 
ATOM     85  C   UNL     1      -2.964  10.663 -14.868  1.00  0.00     0.054 A 
BRANCH  85  86
ATOM     86  S   UNL     1      -3.834  11.357 -16.301  1.00  0.00     0.124 S 
ATOM     87  O   UNL     1      -4.405  10.162 -16.918  1.00  0.00    -0.237 OA
ATOM     88  O   UNL     1      -4.796  12.265 -15.681  1.00  0.00    -0.237 OA
ATOM     89  O   UNL     1      -2.776  12.008 -17.069  1.00  0.00    -0.744 OA
ENDBRANCH  85  86
ENDBRANCH  59  80
ENDBRANCH  33  34
ENDBRANCH  26  28
ENDBRANCH  25  26
ENDBRANCH  24  25
ENDBRANCH  23  24
ENDBRANCH  22  23
ENDBRANCH  21  22
ENDBRANCH   1  21
TORSDOF 25
