REMARK SMILES O=C(OCCOCCOC(=O)[C@@H]1C=C[C@H](NC(=O)C2CCOCC2)C1)c1ccc(-c2c3nc(c(-c4ccc(S(=O)(=O)[O-])cc4)c4ccc([nH]4)c(-c4ccc(S(=O)(=O)[O-])cc4)c4nc(c(-c5ccc(S(=O)(=O)[O-])cc5)c5ccc2[nH]5)C=C4)C=C3)cc1
REMARK SMILES IDX 5 1 4 2 3 3 2 4 1 5 26 6 27 7 85 8 28 9 84 10 29 11 30 12
REMARK SMILES IDX 31 13 78 14 32 15 83 16 77 17 79 18 33 19 82 20 76 21 75 22
REMARK SMILES IDX 34 24 64 25 45 26 63 27 46 28 49 29 62 30 80 31 47 32 48 33
REMARK SMILES IDX 61 35 81 36 50 37 35 38 36 39 44 40 37 41 43 42 38 43 39 44
REMARK SMILES IDX 40 45 41 46 42 47 65 48 66 49 74 50 67 51 73 52 68 53 69 54
REMARK SMILES IDX 70 55 71 56 72 57 51 58 52 59 60 60 53 61 59 62 54 63 55 64
REMARK SMILES IDX 56 65 57 66 58 67 6 68 7 69 8 70 9 71 10 72 11 73 12 74
REMARK SMILES IDX 13 75 25 76 14 77 15 78 16 79 17 80 18 82 19 83 20 84 24 85
REMARK SMILES IDX 21 86 23 87 22 88
REMARK H PARENT 79 23 49 34 16 81
REMARK Flexibility Score: inf
ROOT
ATOM      1  C   UNL     1       3.496  -1.287  -5.864  1.00  0.00     0.202 C 
ENDROOT
BRANCH   1   2
ATOM      2  C   UNL     1       2.766  -2.413  -6.605  1.00  0.00     0.261 C 
BRANCH   2   3
ATOM      3  O   UNL     1       3.541  -2.850  -7.734  1.00  0.00    -0.460 OA
BRANCH   3   4
ATOM      4  C   UNL     1       3.459  -2.430  -9.018  1.00  0.00     0.338 C 
ATOM      5  O   UNL     1       4.270  -2.854  -9.839  1.00  0.00    -0.246 OA
BRANCH   4   6
ATOM      6  C   UNL     1       2.406  -1.490  -9.494  1.00  0.00     0.060 A 
ATOM      7  C   UNL     1       1.805  -0.516  -8.700  1.00  0.00     0.016 A 
ATOM      8  C   UNL     1       2.038  -1.555 -10.847  1.00  0.00     0.016 A 
ATOM      9  C   UNL     1       0.821   0.313  -9.182  1.00  0.00     0.010 A 
ATOM     10  C   UNL     1       1.066  -0.692 -11.363  1.00  0.00     0.010 A 
ATOM     11  C   UNL     1       0.441   0.225 -10.512  1.00  0.00    -0.014 A 
BRANCH  11  12
ATOM     12  C   UNL     1      -0.743   1.009 -10.876  1.00  0.00     0.031 A 
ATOM     13  C   UNL     1      -2.053   0.289 -10.938  1.00  0.00     0.074 A 
ATOM     14  C   UNL     1      -0.651   2.351 -10.876  1.00  0.00     0.049 A 
ATOM     15  N   UNL     1      -3.243   0.767 -11.163  1.00  0.00    -0.248 NA
ATOM     16  C   UNL     1      -2.023  -1.164 -10.683  1.00  0.00     0.031 C 
ATOM     17  C   UNL     1       0.579   3.112 -10.619  1.00  0.00     0.029 A 
ATOM     18  N   UNL     1      -1.610   3.312 -11.021  1.00  0.00    -0.354 N 
ATOM     19  C   UNL     1      -4.095  -0.330 -11.125  1.00  0.00     0.074 A 
ATOM     20  C   UNL     1      -3.294  -1.496 -10.841  1.00  0.00     0.031 C 
ATOM     21  C   UNL     1       0.285   4.421 -10.579  1.00  0.00     0.029 A 
ATOM     22  C   UNL     1      -1.128   4.592 -10.889  1.00  0.00     0.049 A 
ATOM     23  H   UNL     1      -2.556   3.107 -11.202  1.00  0.00     0.167 HD
ATOM     24  C   UNL     1      -5.430  -0.347 -11.334  1.00  0.00     0.031 A 
ATOM     25  C   UNL     1      -1.766   5.767 -11.036  1.00  0.00     0.031 A 
ATOM     26  C   UNL     1      -6.182   0.843 -11.619  1.00  0.00     0.049 A 
ATOM     27  C   UNL     1      -3.230   5.712 -11.376  1.00  0.00     0.074 A 
ATOM     28  C   UNL     1      -7.519   0.967 -11.942  1.00  0.00     0.029 A 
ATOM     29  N   UNL     1      -5.644   2.125 -11.610  1.00  0.00    -0.354 N 
ATOM     30  N   UNL     1      -4.016   4.661 -11.457  1.00  0.00    -0.248 NA
ATOM     31  C   UNL     1      -3.892   6.988 -11.660  1.00  0.00     0.031 C 
ATOM     32  C   UNL     1      -7.776   2.322 -12.180  1.00  0.00     0.029 A 
ATOM     33  C   UNL     1      -6.617   3.048 -11.938  1.00  0.00     0.049 A 
ATOM     34  H   UNL     1      -4.707   2.342 -11.400  1.00  0.00     0.167 HD
ATOM     35  C   UNL     1      -5.272   5.150 -11.783  1.00  0.00     0.074 A 
ATOM     36  C   UNL     1      -5.142   6.595 -11.863  1.00  0.00     0.031 C 
ATOM     37  C   UNL     1      -6.430   4.477 -11.999  1.00  0.00     0.031 A 
BRANCH  24  38
ATOM     38  C   UNL     1      -6.099  -1.693 -11.376  1.00  0.00    -0.014 A 
ATOM     39  C   UNL     1      -6.293  -2.470 -10.219  1.00  0.00     0.010 A 
ATOM     40  C   UNL     1      -6.498  -2.212 -12.622  1.00  0.00     0.010 A 
ATOM     41  C   UNL     1      -6.834  -3.757 -10.315  1.00  0.00     0.020 A 
ATOM     42  C   UNL     1      -7.062  -3.486 -12.719  1.00  0.00     0.020 A 
ATOM     43  C   UNL     1      -7.208  -4.259 -11.566  1.00  0.00     0.054 A 
BRANCH  43  44
ATOM     44  S   UNL     1      -7.902  -5.932 -11.667  1.00  0.00     0.124 S 
ATOM     45  O   UNL     1      -6.722  -6.762 -11.434  1.00  0.00    -0.237 OA
ATOM     46  O   UNL     1      -8.892  -5.934 -10.593  1.00  0.00    -0.237 OA
ATOM     47  O   UNL     1      -8.452  -5.999 -13.018  1.00  0.00    -0.744 OA
ENDBRANCH  43  44
ENDBRANCH  24  38
BRANCH  25  48
ATOM     48  C   UNL     1      -1.021   7.053 -10.938  1.00  0.00    -0.014 A 
ATOM     49  C   UNL     1      -1.319   7.999  -9.942  1.00  0.00     0.010 A 
ATOM     50  C   UNL     1       0.006   7.342 -11.859  1.00  0.00     0.010 A 
ATOM     51  C   UNL     1      -0.622   9.212  -9.882  1.00  0.00     0.020 A 
ATOM     52  C   UNL     1       0.727   8.537 -11.783  1.00  0.00     0.020 A 
ATOM     53  C   UNL     1       0.397   9.473 -10.804  1.00  0.00     0.054 A 
BRANCH  53  54
ATOM     54  S   UNL     1       1.305  11.040 -10.694  1.00  0.00     0.124 S 
ATOM     55  O   UNL     1       0.314  11.999 -11.171  1.00  0.00    -0.237 OA
ATOM     56  O   UNL     1       1.629  11.119  -9.272  1.00  0.00    -0.237 OA
ATOM     57  O   UNL     1       2.452  10.834 -11.576  1.00  0.00    -0.744 OA
ENDBRANCH  53  54
ENDBRANCH  25  48
BRANCH  37  58
ATOM     58  C   UNL     1      -7.646   5.309 -12.288  1.00  0.00    -0.014 A 
ATOM     59  C   UNL     1      -7.811   5.958 -13.523  1.00  0.00     0.010 A 
ATOM     60  C   UNL     1      -8.659   5.394 -11.316  1.00  0.00     0.010 A 
ATOM     61  C   UNL     1      -8.957   6.716 -13.766  1.00  0.00     0.020 A 
ATOM     62  C   UNL     1      -9.820   6.123 -11.569  1.00  0.00     0.020 A 
ATOM     63  C   UNL     1      -9.953   6.794 -12.786  1.00  0.00     0.054 A 
BRANCH  63  64
ATOM     64  S   UNL     1     -11.449   7.754 -13.138  1.00  0.00     0.124 S 
ATOM     65  O   UNL     1     -10.965   9.125 -13.006  1.00  0.00    -0.237 OA
ATOM     66  O   UNL     1     -11.788   7.333 -14.495  1.00  0.00    -0.237 OA
ATOM     67  O   UNL     1     -12.388   7.321 -12.106  1.00  0.00    -0.744 OA
ENDBRANCH  63  64
ENDBRANCH  37  58
ENDBRANCH  11  12
ENDBRANCH   4   6
ENDBRANCH   3   4
ENDBRANCH   2   3
ENDBRANCH   1   2
BRANCH   1  68
ATOM     68  O   UNL     1       3.810  -0.128  -6.633  1.00  0.00    -0.374 OA
BRANCH  68  69
ATOM     69  C   UNL     1       5.087  -0.135  -7.271  1.00  0.00     0.202 C 
BRANCH  69  70
ATOM     70  C   UNL     1       6.089   0.692  -6.473  1.00  0.00     0.261 C 
BRANCH  70  71
ATOM     71  O   UNL     1       6.380   0.038  -5.223  1.00  0.00    -0.463 OA
BRANCH  71  72
ATOM     72  C   UNL     1       5.635   0.412  -4.146  1.00  0.00     0.312 C 
ATOM     73  O   UNL     1       4.770   1.282  -4.146  1.00  0.00    -0.252 OA
BRANCH  72  74
ATOM     74  C   UNL     1       5.956  -0.421  -2.909  1.00  0.00     0.124 C 
ATOM     75  C   UNL     1       7.319  -1.042  -2.939  1.00  0.00    -0.014 C 
ATOM     76  C   UNL     1       5.027  -1.635  -2.725  1.00  0.00     0.048 C 
ATOM     77  C   UNL     1       7.269  -2.376  -2.995  1.00  0.00    -0.006 C 
ATOM     78  C   UNL     1       5.873  -2.898  -2.976  1.00  0.00     0.106 C 
BRANCH  78  79
ATOM     79  N   UNL     1       5.635  -3.544  -4.250  1.00  0.00    -0.350 N 
ATOM     80  C   UNL     1       5.144  -4.791  -4.517  1.00  0.00     0.223 C 
ATOM     81  H   UNL     1       5.860  -3.004  -5.042  1.00  0.00     0.164 HD
ATOM     82  O   UNL     1       5.016  -5.139  -5.689  1.00  0.00    -0.275 OA
BRANCH  80  83
ATOM     83  C   UNL     1       4.814  -5.714  -3.358  1.00  0.00     0.083 C 
ATOM     84  C   UNL     1       6.103  -6.343  -2.818  1.00  0.00     0.042 C 
ATOM     85  C   UNL     1       3.849  -6.837  -3.758  1.00  0.00     0.042 C 
ATOM     86  C   UNL     1       5.776  -7.293  -1.677  1.00  0.00     0.161 C 
ATOM     87  C   UNL     1       3.624  -7.764  -2.570  1.00  0.00     0.161 C 
ATOM     88  O   UNL     1       4.862  -8.302  -2.099  1.00  0.00    -0.381 OA
ENDBRANCH  80  83
ENDBRANCH  78  79
ENDBRANCH  72  74
ENDBRANCH  71  72
ENDBRANCH  70  71
ENDBRANCH  69  70
ENDBRANCH  68  69
ENDBRANCH   1  68
TORSDOF 19
