REMARK SMILES CC(C)Cc1ccc(-c2cc(Cl)cc3c2O[C@@H](C(F)(F)F)C(C(=O)OCCOCCOC(=O)c2ccc(-c4c5nc(c(-c6ccc(S(=O)(=O)[O-])cc6)c6ccc([nH]6)c(-c6ccc(S(=O)(=O)[O-])cc6)c6nc(c(-c7ccc(S(=O)(=O)[O-])cc7)c7ccc4[nH]7)C=C6)C=C5)cc2)=C3)cc1
REMARK SMILES IDX 28 1 27 2 26 3 25 4 23 5 24 6 22 7 9 8 10 9 15 10 11 11
REMARK SMILES IDX 14 12 16 13 12 14 13 15 94 16 17 17 8 18 5 19 6 20 96 21
REMARK SMILES IDX 7 22 95 23 4 24 2 25 1 26 3 27 18 28 19 29 20 30 21 31 29 32
REMARK SMILES IDX 30 33 31 34 32 35 33 36 34 37 35 38 93 39 36 40 92 41 37 42
REMARK SMILES IDX 38 43 39 44 86 45 40 46 91 47 85 48 87 49 41 50 90 51 84 52
REMARK SMILES IDX 83 53 42 55 72 56 53 57 71 58 54 59 57 60 70 61 88 62 55 63
REMARK SMILES IDX 56 64 69 66 89 67 58 68 43 69 44 70 52 71 45 72 51 73 46 74
REMARK SMILES IDX 47 75 48 76 49 77 50 78 73 79 74 80 82 81 75 82 81 83 76 84
REMARK SMILES IDX 77 85 78 86 79 87 80 88 59 89 60 90 68 91 61 92 67 93 62 94
REMARK SMILES IDX 63 95 64 96 65 97 66 98
REMARK H PARENT 87 54 57 65
REMARK Flexibility Score: inf
ROOT
ATOM      1  O   UNL     1      -4.102   1.583   9.809  1.00  0.00    -0.374 OA
ENDROOT
BRANCH   1   2
ATOM      2  C   UNL     1      -4.561   0.922  10.982  1.00  0.00     0.202 C 
BRANCH   2   3
ATOM      3  C   UNL     1      -4.291  -0.584  11.134  1.00  0.00     0.261 C 
BRANCH   3   4
ATOM      4  O   UNL     1      -3.217  -1.054  10.306  1.00  0.00    -0.460 OA
BRANCH   4   5
ATOM      5  C   UNL     1      -3.394  -2.266   9.747  1.00  0.00     0.338 C 
ATOM      6  O   UNL     1      -4.316  -3.031   9.992  1.00  0.00    -0.246 OA
BRANCH   5   7
ATOM      7  C   UNL     1      -2.441  -2.527   8.641  1.00  0.00     0.087 C 
ATOM      8  C   UNL     1      -2.133   0.491   5.802  1.00  0.00     0.026 A 
ATOM      9  C   UNL     1      -3.353   1.199   5.891  1.00  0.00     0.033 A 
ATOM     10  C   UNL     1      -2.051  -0.664   6.611  1.00  0.00     0.135 A 
ATOM     11  C   UNL     1      -4.492   0.602   6.428  1.00  0.00     0.042 A 
ATOM     12  C   UNL     1      -3.230  -1.369   6.903  1.00  0.00     0.019 A 
ATOM     13  O   UNL     1      -0.963  -0.832   7.488  1.00  0.00    -0.475 OA
ATOM     14  Cl  UNL     1      -5.973   1.472   6.466  1.00  0.00    -0.084 Cl
ATOM     15  C   UNL     1      -4.458  -0.723   6.838  1.00  0.00     0.032 A 
ATOM     16  C   UNL     1      -3.118  -2.718   7.496  1.00  0.00     0.027 C 
ATOM     17  C   UNL     1      -1.046  -1.967   8.454  1.00  0.00     0.316 C 
BRANCH   8  18
ATOM     18  C   UNL     1      -1.484   0.617   4.442  1.00  0.00    -0.015 A 
ATOM     19  C   UNL     1      -1.055   0.902   1.607  1.00  0.00    -0.048 A 
ATOM     20  C   UNL     1      -1.059   2.016   2.452  1.00  0.00     0.004 A 
ATOM     21  C   UNL     1      -1.215  -0.359   2.192  1.00  0.00     0.004 A 
ATOM     22  C   UNL     1      -1.260   1.874   3.841  1.00  0.00     0.009 A 
ATOM     23  C   UNL     1      -1.416  -0.498   3.580  1.00  0.00     0.009 A 
BRANCH  19  24
ATOM     24  C   UNL     1      -0.879   1.059   0.107  1.00  0.00     0.038 C 
BRANCH  24  25
ATOM     25  C   UNL     1       0.596   1.175  -0.327  1.00  0.00    -0.013 C 
ATOM     26  C   UNL     1       1.360  -0.130  -0.092  1.00  0.00     0.008 C 
ATOM     27  C   UNL     1       0.711   1.564  -1.806  1.00  0.00     0.008 C 
ENDBRANCH  24  25
ENDBRANCH  19  24
ENDBRANCH   8  18
BRANCH  17  28
ATOM     28  C   UNL     1      -0.209  -1.846   9.749  1.00  0.00     0.430 C 
ATOM     29  F   UNL     1       0.083  -3.096  10.206  1.00  0.00    -0.167 F 
ATOM     30  F   UNL     1       0.979  -1.239   9.522  1.00  0.00    -0.167 F 
ATOM     31  F   UNL     1      -0.804  -1.191  10.761  1.00  0.00    -0.167 F 
ENDBRANCH  17  28
ENDBRANCH   5   7
ENDBRANCH   4   5
ENDBRANCH   3   4
ENDBRANCH   2   3
ENDBRANCH   1   2
BRANCH   1  32
ATOM     32  C   UNL     1      -2.696   1.681   9.597  1.00  0.00     0.202 C 
BRANCH  32  33
ATOM     33  C   UNL     1      -1.856   2.528  10.557  1.00  0.00     0.261 C 
BRANCH  33  34
ATOM     34  O   UNL     1      -1.918   2.091  11.922  1.00  0.00    -0.460 OA
BRANCH  34  35
ATOM     35  C   UNL     1      -2.521   2.964  12.763  1.00  0.00     0.338 C 
ATOM     36  O   UNL     1      -3.007   4.053  12.478  1.00  0.00    -0.246 OA
BRANCH  35  37
ATOM     37  C   UNL     1      -2.673   2.362  14.094  1.00  0.00     0.060 A 
ATOM     38  C   UNL     1      -3.969   2.221  14.605  1.00  0.00     0.016 A 
ATOM     39  C   UNL     1      -1.558   2.043  14.870  1.00  0.00     0.016 A 
ATOM     40  C   UNL     1      -4.154   1.801  15.919  1.00  0.00     0.010 A 
ATOM     41  C   UNL     1      -1.746   1.628  16.191  1.00  0.00     0.010 A 
ATOM     42  C   UNL     1      -3.042   1.541  16.731  1.00  0.00    -0.014 A 
BRANCH  42  43
ATOM     43  C   UNL     1      -3.238   1.312  18.182  1.00  0.00     0.031 A 
ATOM     44  C   UNL     1      -2.956   2.434  19.144  1.00  0.00     0.074 A 
ATOM     45  C   UNL     1      -3.691   0.128  18.629  1.00  0.00     0.049 A 
ATOM     46  N   UNL     1      -3.044   2.447  20.449  1.00  0.00    -0.248 NA
ATOM     47  C   UNL     1      -2.513   3.710  18.558  1.00  0.00     0.031 C 
ATOM     48  C   UNL     1      -4.034  -1.018  17.786  1.00  0.00     0.029 A 
ATOM     49  N   UNL     1      -3.938  -0.308  19.906  1.00  0.00    -0.354 N 
ATOM     50  C   UNL     1      -2.656   3.723  20.841  1.00  0.00     0.074 A 
ATOM     51  C   UNL     1      -2.303   4.446  19.640  1.00  0.00     0.031 C 
ATOM     52  C   UNL     1      -4.443  -2.029  18.571  1.00  0.00     0.029 A 
ATOM     53  C   UNL     1      -4.356  -1.615  19.969  1.00  0.00     0.049 A 
ATOM     54  H   UNL     1      -3.826   0.262  20.701  1.00  0.00     0.167 HD
ATOM     55  C   UNL     1      -2.603   4.245  22.090  1.00  0.00     0.031 A 
ATOM     56  C   UNL     1      -4.619  -2.396  21.036  1.00  0.00     0.031 A 
ATOM     57  C   UNL     1      -2.944   3.511  23.282  1.00  0.00     0.049 A 
ATOM     58  C   UNL     1      -4.493  -1.812  22.419  1.00  0.00     0.074 A 
ATOM     59  C   UNL     1      -2.946   3.953  24.593  1.00  0.00     0.029 A 
ATOM     60  N   UNL     1      -3.335   2.180  23.308  1.00  0.00    -0.354 N 
ATOM     61  N   UNL     1      -4.155  -0.594  22.773  1.00  0.00    -0.248 NA
ATOM     62  C   UNL     1      -4.796  -2.705  23.545  1.00  0.00     0.031 C 
ATOM     63  C   UNL     1      -3.272   2.871  25.417  1.00  0.00     0.029 A 
ATOM     64  C   UNL     1      -3.549   1.775  24.615  1.00  0.00     0.049 A 
ATOM     65  H   UNL     1      -3.444   1.608  22.514  1.00  0.00     0.167 HD
ATOM     66  C   UNL     1      -4.234  -0.567  24.162  1.00  0.00     0.074 A 
ATOM     67  C   UNL     1      -4.668  -1.885  24.579  1.00  0.00     0.031 C 
ATOM     68  C   UNL     1      -3.974   0.456  25.015  1.00  0.00     0.031 A 
BRANCH  55  69
ATOM     69  C   UNL     1      -2.119   5.665  22.234  1.00  0.00    -0.014 A 
ATOM     70  C   UNL     1      -2.888   6.753  21.782  1.00  0.00     0.010 A 
ATOM     71  C   UNL     1      -0.887   5.917  22.864  1.00  0.00     0.010 A 
ATOM     72  C   UNL     1      -2.414   8.062  21.919  1.00  0.00     0.020 A 
ATOM     73  C   UNL     1      -0.424   7.225  23.032  1.00  0.00     0.020 A 
ATOM     74  C   UNL     1      -1.183   8.289  22.543  1.00  0.00     0.054 A 
BRANCH  74  75
ATOM     75  S   UNL     1      -0.603   9.998  22.726  1.00  0.00     0.124 S 
ATOM     76  O   UNL     1      -0.267  10.351  21.349  1.00  0.00    -0.237 OA
ATOM     77  O   UNL     1      -1.773  10.675  23.280  1.00  0.00    -0.237 OA
ATOM     78  O   UNL     1       0.535   9.883  23.635  1.00  0.00    -0.744 OA
ENDBRANCH  74  75
ENDBRANCH  55  69
BRANCH  56  79
ATOM     79  C   UNL     1      -5.009  -3.818  20.835  1.00  0.00    -0.014 A 
ATOM     80  C   UNL     1      -6.307  -4.261  21.143  1.00  0.00     0.010 A 
ATOM     81  C   UNL     1      -4.077  -4.740  20.323  1.00  0.00     0.010 A 
ATOM     82  C   UNL     1      -6.660  -5.602  20.957  1.00  0.00     0.020 A 
ATOM     83  C   UNL     1      -4.435  -6.074  20.107  1.00  0.00     0.020 A 
ATOM     84  C   UNL     1      -5.723  -6.498  20.436  1.00  0.00     0.054 A 
BRANCH  84  85
ATOM     85  S   UNL     1      -6.221  -8.220  20.154  1.00  0.00     0.124 S 
ATOM     86  O   UNL     1      -6.318  -8.735  21.516  1.00  0.00    -0.237 OA
ATOM     87  O   UNL     1      -7.488  -8.068  19.443  1.00  0.00    -0.237 OA
ATOM     88  O   UNL     1      -5.127  -8.767  19.354  1.00  0.00    -0.744 OA
ENDBRANCH  84  85
ENDBRANCH  56  79
BRANCH  68  89
ATOM     89  C   UNL     1      -4.191   0.205  26.485  1.00  0.00    -0.014 A 
ATOM     90  C   UNL     1      -3.343  -0.645  27.218  1.00  0.00     0.010 A 
ATOM     91  C   UNL     1      -5.237   0.868  27.153  1.00  0.00     0.010 A 
ATOM     92  C   UNL     1      -3.564  -0.859  28.582  1.00  0.00     0.020 A 
ATOM     93  C   UNL     1      -5.441   0.683  28.523  1.00  0.00     0.020 A 
ATOM     94  C   UNL     1      -4.613  -0.195  29.225  1.00  0.00     0.054 A 
BRANCH  94  95
ATOM     95  S   UNL     1      -4.861  -0.467  31.001  1.00  0.00     0.124 S 
ATOM     96  O   UNL     1      -5.397  -1.826  31.028  1.00  0.00    -0.237 OA
ATOM     97  O   UNL     1      -3.512  -0.312  31.540  1.00  0.00    -0.237 OA
ATOM     98  O   UNL     1      -5.804   0.581  31.385  1.00  0.00    -0.744 OA
ENDBRANCH  94  95
ENDBRANCH  68  89
ENDBRANCH  42  43
ENDBRANCH  35  37
ENDBRANCH  34  35
ENDBRANCH  33  34
ENDBRANCH  32  33
ENDBRANCH   1  32
TORSDOF 21
