REMARK SMILES Cc1ccc(C(=O)Nc2cccc(F)c2C(=O)OCCOCCOC(=O)c2ccc(-c3c4nc(c(-c5ccc(S(=O)(=O)[O-])cc5)c5ccc([nH]5)c(-c5ccc(S(=O)(=O)[O-])cc5)c5nc(c(-c6ccc(S(=O)(=O)[O-])cc6)c6ccc3[nH]6)C=C5)C=C4)cc2)c(F)c1
REMARK SMILES IDX 22 1 21 2 20 3 19 4 18 5 16 6 17 7 15 8 9 9 10 10 11 11
REMARK SMILES IDX 13 12 12 13 14 14 8 15 6 16 7 17 5 19 1 20 2 21 3 22 89 23
REMARK SMILES IDX 4 24 87 25 88 26 23 27 24 28 25 29 26 30 27 31 28 32 86 33
REMARK SMILES IDX 29 34 85 35 30 36 31 37 32 38 79 39 33 40 84 41 78 42 80 43
REMARK SMILES IDX 34 44 83 45 77 46 76 47 35 49 65 50 46 51 64 52 47 53 50 54
REMARK SMILES IDX 63 55 81 56 48 57 49 58 62 60 82 61 51 62 36 63 37 64 45 65
REMARK SMILES IDX 38 66 44 67 39 68 40 69 41 70 42 71 43 72 66 73 67 74 75 75
REMARK SMILES IDX 68 76 74 77 69 78 70 79 71 80 72 81 73 82 52 83 53 84 61 85
REMARK SMILES IDX 54 86 60 87 55 88 56 89 57 90 58 91 59 92
REMARK H PARENT 8 18 80 48 50 59
REMARK Flexibility Score: inf
ROOT
ATOM      1  C   UNL     1      -3.716  -6.730  -0.211  1.00  0.00     0.202 C 
ENDROOT
BRANCH   1   2
ATOM      2  O   UNL     1      -4.502  -6.676  -1.401  1.00  0.00    -0.374 OA
BRANCH   2   3
ATOM      3  C   UNL     1      -3.963  -7.278  -2.581  1.00  0.00     0.202 C 
BRANCH   3   4
ATOM      4  C   UNL     1      -2.876  -6.484  -3.308  1.00  0.00     0.261 C 
BRANCH   4   5
ATOM      5  O   UNL     1      -1.718  -6.357  -2.469  1.00  0.00    -0.460 OA
BRANCH   5   6
ATOM      6  C   UNL     1      -1.291  -5.092  -2.269  1.00  0.00     0.343 C 
ATOM      7  O   UNL     1      -1.673  -4.085  -2.848  1.00  0.00    -0.246 OA
BRANCH   6   8
ATOM      8  C   UNL     1      -0.468  -5.041  -1.052  1.00  0.00     0.119 A 
ATOM      9  C   UNL     1      -0.753  -4.087  -0.056  1.00  0.00     0.059 A 
ATOM     10  C   UNL     1       0.084  -3.989   1.063  1.00  0.00     0.027 A 
ATOM     11  C   UNL     1       1.212  -4.808   1.170  1.00  0.00     0.005 A 
ATOM     12  C   UNL     1       0.661  -5.847  -0.938  1.00  0.00     0.139 A 
ATOM     13  C   UNL     1       1.503  -5.732   0.165  1.00  0.00     0.040 A 
ATOM     14  F   UNL     1       0.986  -6.715  -1.905  1.00  0.00    -0.206 F 
BRANCH   9  15
ATOM     15  N   UNL     1      -1.876  -3.247  -0.186  1.00  0.00    -0.321 N 
ATOM     16  C   UNL     1      -1.990  -1.880  -0.026  1.00  0.00     0.258 C 
ATOM     17  O   UNL     1      -3.121  -1.397   0.019  1.00  0.00    -0.269 OA
ATOM     18  H   UNL     1      -2.712  -3.707  -0.429  1.00  0.00     0.170 HD
BRANCH  16  19
ATOM     19  C   UNL     1      -0.798  -0.985  -0.049  1.00  0.00     0.075 A 
ATOM     20  C   UNL     1       2.618   1.667  -0.005  1.00  0.00     0.044 C 
ATOM     21  C   UNL     1       1.429   0.756  -0.032  1.00  0.00    -0.048 A 
ATOM     22  C   UNL     1       1.522  -0.503  -0.625  1.00  0.00     0.004 A 
ATOM     23  C   UNL     1       0.193   1.174   0.471  1.00  0.00     0.043 A 
ATOM     24  C   UNL     1       0.409  -1.345  -0.666  1.00  0.00     0.017 A 
ATOM     25  C   UNL     1      -0.901   0.305   0.475  1.00  0.00     0.136 A 
ATOM     26  F   UNL     1      -2.047   0.759   1.002  1.00  0.00    -0.206 F 
ENDBRANCH  16  19
ENDBRANCH   9  15
ENDBRANCH   6   8
ENDBRANCH   5   6
ENDBRANCH   4   5
ENDBRANCH   3   4
ENDBRANCH   2   3
ENDBRANCH   1   2
BRANCH   1  27
ATOM     27  C   UNL     1      -3.647  -8.070   0.533  1.00  0.00     0.261 C 
BRANCH  27  28
ATOM     28  O   UNL     1      -3.003  -9.099  -0.235  1.00  0.00    -0.460 OA
BRANCH  28  29
ATOM     29  C   UNL     1      -3.822 -10.093  -0.659  1.00  0.00     0.338 C 
ATOM     30  O   UNL     1      -5.009 -10.233  -0.401  1.00  0.00    -0.246 OA
BRANCH  29  31
ATOM     31  C   UNL     1      -3.122 -10.914  -1.662  1.00  0.00     0.060 A 
ATOM     32  C   UNL     1      -3.697 -11.021  -2.936  1.00  0.00     0.016 A 
ATOM     33  C   UNL     1      -1.945 -11.597  -1.353  1.00  0.00     0.016 A 
ATOM     34  C   UNL     1      -3.099 -11.823  -3.906  1.00  0.00     0.010 A 
ATOM     35  C   UNL     1      -1.357 -12.414  -2.322  1.00  0.00     0.010 A 
ATOM     36  C   UNL     1      -1.938 -12.542  -3.597  1.00  0.00    -0.014 A 
BRANCH  36  37
ATOM     37  C   UNL     1      -1.363 -13.488  -4.582  1.00  0.00     0.031 A 
ATOM     38  C   UNL     1      -1.642 -14.956  -4.447  1.00  0.00     0.074 A 
ATOM     39  C   UNL     1      -0.575 -13.034  -5.572  1.00  0.00     0.049 A 
ATOM     40  N   UNL     1      -1.170 -15.954  -5.148  1.00  0.00    -0.248 NA
ATOM     41  C   UNL     1      -2.571 -15.353  -3.377  1.00  0.00     0.031 C 
ATOM     42  C   UNL     1      -0.257 -11.628  -5.819  1.00  0.00     0.029 A 
ATOM     43  N   UNL     1       0.122 -13.714  -6.539  1.00  0.00    -0.354 N 
ATOM     44  C   UNL     1      -1.729 -17.100  -4.596  1.00  0.00     0.074 A 
ATOM     45  C   UNL     1      -2.563 -16.674  -3.493  1.00  0.00     0.031 C 
ATOM     46  C   UNL     1       0.598 -11.551  -6.853  1.00  0.00     0.029 A 
ATOM     47  C   UNL     1       0.915 -12.902  -7.314  1.00  0.00     0.049 A 
ATOM     48  H   UNL     1       0.059 -14.688  -6.666  1.00  0.00     0.167 HD
ATOM     49  C   UNL     1      -1.555 -18.390  -4.973  1.00  0.00     0.031 A 
ATOM     50  C   UNL     1       1.826 -13.212  -8.257  1.00  0.00     0.031 A 
ATOM     51  C   UNL     1      -0.706 -18.805  -6.058  1.00  0.00     0.049 A 
ATOM     52  C   UNL     1       2.060 -14.655  -8.611  1.00  0.00     0.074 A 
ATOM     53  C   UNL     1      -0.502 -20.082  -6.550  1.00  0.00     0.029 A 
ATOM     54  N   UNL     1       0.100 -17.956  -6.803  1.00  0.00    -0.354 N 
ATOM     55  N   UNL     1       1.480 -15.726  -8.122  1.00  0.00    -0.248 NA
ATOM     56  C   UNL     1       3.071 -14.933  -9.640  1.00  0.00     0.031 C 
ATOM     57  C   UNL     1       0.480 -20.014  -7.545  1.00  0.00     0.029 A 
ATOM     58  C   UNL     1       0.842 -18.687  -7.715  1.00  0.00     0.049 A 
ATOM     59  H   UNL     1       0.139 -16.978  -6.697  1.00  0.00     0.167 HD
ATOM     60  C   UNL     1       2.051 -16.805  -8.788  1.00  0.00     0.074 A 
ATOM     61  C   UNL     1       3.007 -16.256  -9.729  1.00  0.00     0.031 C 
ATOM     62  C   UNL     1       1.808 -18.130  -8.631  1.00  0.00     0.031 A 
BRANCH  49  63
ATOM     63  C   UNL     1      -2.256 -19.448  -4.163  1.00  0.00    -0.014 A 
ATOM     64  C   UNL     1      -3.651 -19.616  -4.222  1.00  0.00     0.010 A 
ATOM     65  C   UNL     1      -1.499 -20.302  -3.341  1.00  0.00     0.010 A 
ATOM     66  C   UNL     1      -4.280 -20.586  -3.436  1.00  0.00     0.020 A 
ATOM     67  C   UNL     1      -2.121 -21.290  -2.573  1.00  0.00     0.020 A 
ATOM     68  C   UNL     1      -3.511 -21.412  -2.610  1.00  0.00     0.054 A 
BRANCH  68  69
ATOM     69  S   UNL     1      -4.352 -22.659  -1.596  1.00  0.00     0.124 S 
ATOM     70  O   UNL     1      -4.975 -21.835  -0.563  1.00  0.00    -0.237 OA
ATOM     71  O   UNL     1      -5.274 -23.276  -2.546  1.00  0.00    -0.237 OA
ATOM     72  O   UNL     1      -3.267 -23.521  -1.135  1.00  0.00    -0.744 OA
ENDBRANCH  68  69
ENDBRANCH  49  63
BRANCH  50  73
ATOM     73  C   UNL     1       2.618 -12.123  -8.890  1.00  0.00    -0.014 A 
ATOM     74  C   UNL     1       2.384 -11.740 -10.221  1.00  0.00     0.010 A 
ATOM     75  C   UNL     1       3.581 -11.427  -8.135  1.00  0.00     0.010 A 
ATOM     76  C   UNL     1       3.094 -10.674 -10.783  1.00  0.00     0.020 A 
ATOM     77  C   UNL     1       4.274 -10.346  -8.686  1.00  0.00     0.020 A 
ATOM     78  C   UNL     1       4.027  -9.978 -10.009  1.00  0.00     0.054 A 
BRANCH  78  79
ATOM     79  S   UNL     1       4.866  -8.539 -10.729  1.00  0.00     0.124 S 
ATOM     80  O   UNL     1       5.810  -9.165 -11.649  1.00  0.00    -0.237 OA
ATOM     81  O   UNL     1       3.763  -7.811 -11.352  1.00  0.00    -0.237 OA
ATOM     82  O   UNL     1       5.463  -7.876  -9.572  1.00  0.00    -0.744 OA
ENDBRANCH  78  79
ENDBRANCH  50  73
BRANCH  62  83
ATOM     83  C   UNL     1       2.592 -19.087  -9.489  1.00  0.00    -0.014 A 
ATOM     84  C   UNL     1       3.950 -19.341  -9.231  1.00  0.00     0.010 A 
ATOM     85  C   UNL     1       1.945 -19.797 -10.518  1.00  0.00     0.010 A 
ATOM     86  C   UNL     1       4.653 -20.274  -9.998  1.00  0.00     0.020 A 
ATOM     87  C   UNL     1       2.638 -20.750 -11.269  1.00  0.00     0.020 A 
ATOM     88  C   UNL     1       3.991 -20.976 -11.010  1.00  0.00     0.054 A 
BRANCH  88  89
ATOM     89  S   UNL     1       4.911 -22.227 -11.950  1.00  0.00     0.124 S 
ATOM     90  O   UNL     1       5.773 -21.402 -12.791  1.00  0.00    -0.237 OA
ATOM     91  O   UNL     1       5.591 -22.980 -10.899  1.00  0.00    -0.237 OA
ATOM     92  O   UNL     1       3.868 -22.963 -12.660  1.00  0.00    -0.744 OA
ENDBRANCH  88  89
ENDBRANCH  62  83
ENDBRANCH  36  37
ENDBRANCH  29  31
ENDBRANCH  28  29
ENDBRANCH  27  28
ENDBRANCH   1  27
TORSDOF 19
