REMARK SMILES C[C@H](C(=O)OCCOCCOC(=O)c1ccc(-c2c3nc(c(-c4ccc(S(=O)(=O)[O-])cc4)c4ccc([nH]4)c(-c4ccc(S(=O)(=O)[O-])cc4)c4nc(c(-c5ccc(S(=O)(=O)[O-])cc5)c5ccc2[nH]5)C=C4)C=C3)cc1)c1ccc2c(c1)[nH]c1ccc(Cl)cc12
REMARK SMILES IDX 9 1 8 2 7 3 6 4 5 5 3 6 4 7 2 8 1 9 74 10 75 11 79 12 76 13
REMARK SMILES IDX 78 14 77 15 80 16 87 17 81 18 86 20 82 21 84 22 83 23 85 24
REMARK SMILES IDX 10 25 11 26 12 27 13 28 14 29 15 30 73 31 16 32 72 33 17 34
REMARK SMILES IDX 18 35 19 36 66 37 20 38 71 39 65 40 67 41 21 42 70 43 64 44
REMARK SMILES IDX 63 45 22 47 52 48 33 49 51 50 34 51 37 52 50 53 68 54 35 55
REMARK SMILES IDX 36 56 49 58 69 59 38 60 23 61 24 62 32 63 25 64 31 65 26 66
REMARK SMILES IDX 27 67 28 68 29 69 30 70 53 71 54 72 62 73 55 74 61 75 56 76
REMARK SMILES IDX 57 77 58 78 59 79 60 80 39 81 40 82 48 83 41 84 47 85 42 86
REMARK SMILES IDX 43 87 44 88 45 89 46 90
REMARK H PARENT 80 19 67 46 37 57
REMARK Flexibility Score: inf
ROOT
ATOM      1  C   UNL     1       2.159   0.001   2.071  1.00  0.00     0.202 C 
ENDROOT
BRANCH   1   2
ATOM      2  O   UNL     1       2.855   1.157   1.609  1.00  0.00    -0.374 OA
BRANCH   2   3
ATOM      3  C   UNL     1       2.046   2.210   1.078  1.00  0.00     0.202 C 
BRANCH   3   4
ATOM      4  C   UNL     1       1.491   1.995  -0.336  1.00  0.00     0.261 C 
BRANCH   4   5
ATOM      5  O   UNL     1       0.627   0.839  -0.398  1.00  0.00    -0.463 OA
BRANCH   5   6
ATOM      6  C   UNL     1       0.933  -0.068  -1.361  1.00  0.00     0.313 C 
ATOM      7  O   UNL     1       1.780   0.116  -2.232  1.00  0.00    -0.252 OA
BRANCH   6   8
ATOM      8  C   UNL     1       0.284  -1.430  -1.178  1.00  0.00     0.126 C 
ATOM      9  C   UNL     1       1.201  -2.271  -0.265  1.00  0.00     0.025 C 
BRANCH   8  10
ATOM     10  C   UNL     1      -1.193  -1.569  -0.808  1.00  0.00    -0.032 A 
ATOM     11  C   UNL     1      -2.150  -0.555  -0.941  1.00  0.00     0.005 A 
ATOM     12  C   UNL     1      -1.639  -2.849  -0.418  1.00  0.00     0.031 A 
ATOM     13  C   UNL     1      -3.526  -0.801  -0.709  1.00  0.00     0.011 A 
ATOM     14  C   UNL     1      -2.987  -3.060  -0.134  1.00  0.00     0.047 A 
ATOM     15  C   UNL     1      -3.960  -2.084  -0.303  1.00  0.00     0.007 A 
ATOM     16  N   UNL     1      -3.603  -4.190   0.335  1.00  0.00    -0.355 N 
ATOM     17  C   UNL     1      -5.224  -2.708  -0.012  1.00  0.00     0.009 A 
ATOM     18  C   UNL     1      -4.952  -3.994   0.463  1.00  0.00     0.047 A 
ATOM     19  H   UNL     1      -3.138  -5.030   0.552  1.00  0.00     0.167 HD
ATOM     20  C   UNL     1      -6.576  -2.309  -0.092  1.00  0.00     0.031 A 
ATOM     21  C   UNL     1      -5.931  -4.866   0.949  1.00  0.00     0.028 A 
ATOM     22  C   UNL     1      -7.573  -3.195   0.340  1.00  0.00     0.041 A 
ATOM     23  C   UNL     1      -7.257  -4.440   0.881  1.00  0.00     0.022 A 
ATOM     24  Cl  UNL     1      -9.231  -2.749   0.193  1.00  0.00    -0.084 Cl
ENDBRANCH   8  10
ENDBRANCH   6   8
ENDBRANCH   5   6
ENDBRANCH   4   5
ENDBRANCH   3   4
ENDBRANCH   2   3
ENDBRANCH   1   2
BRANCH   1  25
ATOM     25  C   UNL     1       1.581   0.043   3.488  1.00  0.00     0.261 C 
BRANCH  25  26
ATOM     26  O   UNL     1       0.581   1.062   3.626  1.00  0.00    -0.460 OA
BRANCH  26  27
ATOM     27  C   UNL     1       1.009   2.179   4.256  1.00  0.00     0.338 C 
ATOM     28  O   UNL     1       2.099   2.353   4.787  1.00  0.00    -0.246 OA
BRANCH  27  29
ATOM     29  C   UNL     1       0.037   3.268   4.057  1.00  0.00     0.060 A 
ATOM     30  C   UNL     1       0.541   4.509   3.646  1.00  0.00     0.016 A 
ATOM     31  C   UNL     1      -1.327   3.099   4.306  1.00  0.00     0.016 A 
ATOM     32  C   UNL     1      -0.307   5.606   3.549  1.00  0.00     0.010 A 
ATOM     33  C   UNL     1      -2.177   4.204   4.212  1.00  0.00     0.010 A 
ATOM     34  C   UNL     1      -1.662   5.469   3.876  1.00  0.00    -0.014 A 
BRANCH  34  35
ATOM     35  C   UNL     1      -2.500   6.682   4.019  1.00  0.00     0.031 A 
ATOM     36  C   UNL     1      -2.788   7.205   5.400  1.00  0.00     0.074 A 
ATOM     37  C   UNL     1      -2.964   7.327   2.934  1.00  0.00     0.049 A 
ATOM     38  N   UNL     1      -3.509   8.234   5.761  1.00  0.00    -0.248 NA
ATOM     39  C   UNL     1      -2.184   6.468   6.522  1.00  0.00     0.031 C 
ATOM     40  C   UNL     1      -2.712   6.936   1.547  1.00  0.00     0.029 A 
ATOM     41  N   UNL     1      -3.748   8.448   2.832  1.00  0.00    -0.354 N 
ATOM     42  C   UNL     1      -3.453   8.264   7.150  1.00  0.00     0.074 A 
ATOM     43  C   UNL     1      -2.656   7.131   7.567  1.00  0.00     0.031 C 
ATOM     44  C   UNL     1      -3.337   7.803   0.731  1.00  0.00     0.029 A 
ATOM     45  C   UNL     1      -4.060   8.784   1.537  1.00  0.00     0.049 A 
ATOM     46  H   UNL     1      -4.057   8.962   3.613  1.00  0.00     0.167 HD
ATOM     47  C   UNL     1      -4.008   9.160   8.001  1.00  0.00     0.031 A 
ATOM     48  C   UNL     1      -4.857   9.760   1.059  1.00  0.00     0.031 A 
ATOM     49  C   UNL     1      -4.812  10.275   7.577  1.00  0.00     0.049 A 
ATOM     50  C   UNL     1      -5.524  10.701   2.026  1.00  0.00     0.074 A 
ATOM     51  C   UNL     1      -5.415  11.247   8.356  1.00  0.00     0.029 A 
ATOM     52  N   UNL     1      -5.134  10.562   6.258  1.00  0.00    -0.354 N 
ATOM     53  N   UNL     1      -5.444  10.731   3.336  1.00  0.00    -0.248 NA
ATOM     54  C   UNL     1      -6.380  11.748   1.451  1.00  0.00     0.031 C 
ATOM     55  C   UNL     1      -6.150  12.086   7.513  1.00  0.00     0.029 A 
ATOM     56  C   UNL     1      -5.949  11.680   6.203  1.00  0.00     0.049 A 
ATOM     57  H   UNL     1      -4.828  10.047   5.477  1.00  0.00     0.167 HD
ATOM     58  C   UNL     1      -6.217  11.816   3.739  1.00  0.00     0.074 A 
ATOM     59  C   UNL     1      -6.742  12.423   2.533  1.00  0.00     0.031 C 
ATOM     60  C   UNL     1      -6.467  12.270   4.993  1.00  0.00     0.031 A 
BRANCH  47  61
ATOM     61  C   UNL     1      -3.790   8.946   9.477  1.00  0.00    -0.014 A 
ATOM     62  C   UNL     1      -2.525   9.131  10.064  1.00  0.00     0.010 A 
ATOM     63  C   UNL     1      -4.876   8.582  10.295  1.00  0.00     0.010 A 
ATOM     64  C   UNL     1      -2.342   8.915  11.433  1.00  0.00     0.020 A 
ATOM     65  C   UNL     1      -4.703   8.396  11.669  1.00  0.00     0.020 A 
ATOM     66  C   UNL     1      -3.432   8.547  12.227  1.00  0.00     0.054 A 
BRANCH  66  67
ATOM     67  S   UNL     1      -3.168   8.291  14.003  1.00  0.00     0.124 S 
ATOM     68  O   UNL     1      -2.410   7.042  14.019  1.00  0.00    -0.237 OA
ATOM     69  O   UNL     1      -2.419   9.484  14.390  1.00  0.00    -0.237 OA
ATOM     70  O   UNL     1      -4.521   8.205  14.547  1.00  0.00    -0.744 OA
ENDBRANCH  66  67
ENDBRANCH  47  61
BRANCH  48  71
ATOM     71  C   UNL     1      -5.081   9.878  -0.408  1.00  0.00    -0.014 A 
ATOM     72  C   UNL     1      -4.569  10.969  -1.131  1.00  0.00     0.010 A 
ATOM     73  C   UNL     1      -5.804   8.883  -1.094  1.00  0.00     0.010 A 
ATOM     74  C   UNL     1      -4.785  11.069  -2.510  1.00  0.00     0.020 A 
ATOM     75  C   UNL     1      -5.996   8.964  -2.475  1.00  0.00     0.020 A 
ATOM     76  C   UNL     1      -5.493  10.062  -3.174  1.00  0.00     0.054 A 
BRANCH  76  77
ATOM     77  S   UNL     1      -5.709  10.184  -4.971  1.00  0.00     0.124 S 
ATOM     78  O   UNL     1      -6.681  11.266  -5.088  1.00  0.00    -0.237 OA
ATOM     79  O   UNL     1      -4.357  10.494  -5.429  1.00  0.00    -0.237 OA
ATOM     80  O   UNL     1      -6.197   8.859  -5.347  1.00  0.00    -0.744 OA
ENDBRANCH  76  77
ENDBRANCH  48  71
BRANCH  60  81
ATOM     81  C   UNL     1      -7.318  13.505   5.128  1.00  0.00    -0.014 A 
ATOM     82  C   UNL     1      -8.700  13.476   4.867  1.00  0.00     0.010 A 
ATOM     83  C   UNL     1      -6.733  14.702   5.581  1.00  0.00     0.010 A 
ATOM     84  C   UNL     1      -9.473  14.629   5.024  1.00  0.00     0.020 A 
ATOM     85  C   UNL     1      -7.508  15.849   5.769  1.00  0.00     0.020 A 
ATOM     86  C   UNL     1      -8.872  15.809   5.475  1.00  0.00     0.054 A 
BRANCH  86  87
ATOM     87  S   UNL     1      -9.906  17.280   5.713  1.00  0.00     0.124 S 
ATOM     88  O   UNL     1     -10.186  17.680   4.336  1.00  0.00    -0.237 OA
ATOM     89  O   UNL     1     -11.046  16.753   6.458  1.00  0.00    -0.237 OA
ATOM     90  O   UNL     1      -9.046  18.192   6.463  1.00  0.00    -0.744 OA
ENDBRANCH  86  87
ENDBRANCH  60  81
ENDBRANCH  34  35
ENDBRANCH  27  29
ENDBRANCH  26  27
ENDBRANCH  25  26
ENDBRANCH   1  25
TORSDOF 18
