REMARK SMILES CS(=O)(=O)c1ccc(C2=NN(c3ccc(C(=O)OCCOCCOC(=O)c4ccc(-c5c6nc(c(-c7ccc(S(=O)(=O)[O-])cc7)c7ccc([nH]7)c(-c7ccc(S(=O)(=O)[O-])cc7)c7nc(c(-c8ccc(S(=O)(=O)[O-])cc8)c8ccc5[nH]8)C=C7)C=C6)cc4)cc3)[C@H](c3ccc(F)cc3)C2)cc1
REMARK SMILES IDX 21 1 20 2 19 3 18 4 16 5 17 6 15 7 12 8 13 9 88 10 14 11
REMARK SMILES IDX 87 12 11 13 9 14 10 15 97 16 89 17 8 18 5 19 6 20 99 21 7 22
REMARK SMILES IDX 98 23 2 24 1 25 3 26 4 27 90 28 91 29 96 30 92 31 95 32
REMARK SMILES IDX 93 33 94 34 22 35 23 36 24 37 25 38 26 39 27 40 28 41 86 42
REMARK SMILES IDX 29 43 85 44 30 45 31 46 32 47 79 48 33 49 84 50 78 51 80 52
REMARK SMILES IDX 34 53 83 54 77 55 76 56 35 58 65 59 46 60 64 61 47 62 50 63
REMARK SMILES IDX 63 64 81 65 48 66 49 67 62 69 82 70 51 71 36 72 37 73 45 74
REMARK SMILES IDX 38 75 44 76 39 77 40 78 41 79 42 80 43 81 66 82 67 83 75 84
REMARK SMILES IDX 68 85 74 86 69 87 70 88 71 89 72 90 73 91 52 92 53 93 61 94
REMARK SMILES IDX 54 95 60 96 55 97 56 98 57 99 58 100 59 101
REMARK H PARENT 80 57 50 68
REMARK Flexibility Score: inf
ROOT
ATOM      1  O   UNL     1       0.137 -14.435  -5.978  1.00  0.00    -0.374 OA
ENDROOT
BRANCH   1   2
ATOM      2  C   UNL     1       0.476 -15.540  -5.137  1.00  0.00     0.202 C 
BRANCH   2   3
ATOM      3  C   UNL     1       1.838 -15.456  -4.444  1.00  0.00     0.261 C 
BRANCH   3   4
ATOM      4  O   UNL     1       1.845 -14.395  -3.474  1.00  0.00    -0.460 OA
BRANCH   4   5
ATOM      5  C   UNL     1       2.654 -13.349  -3.756  1.00  0.00     0.338 C 
ATOM      6  O   UNL     1       3.484 -13.289  -4.653  1.00  0.00    -0.246 OA
BRANCH   5   7
ATOM      7  C   UNL     1       2.340 -12.194  -2.878  1.00  0.00     0.060 A 
ATOM      8  C   UNL     1       2.027  -9.969  -1.195  1.00  0.00     0.060 A 
ATOM      9  C   UNL     1       2.640  -9.826  -2.444  1.00  0.00     0.029 A 
ATOM     10  C   UNL     1       1.460 -11.206  -0.856  1.00  0.00     0.029 A 
ATOM     11  C   UNL     1       2.805 -10.933  -3.277  1.00  0.00     0.018 A 
ATOM     12  C   UNL     1       1.619 -12.319  -1.686  1.00  0.00     0.018 A 
BRANCH   8  13
ATOM     13  N   UNL     1       2.144  -8.973  -0.217  1.00  0.00    -0.257 N 
ATOM     14  C   UNL     1       2.256  -6.886   0.218  1.00  0.00     0.071 C 
ATOM     15  N   UNL     1       1.535  -7.769  -0.401  1.00  0.00    -0.176 NA
ATOM     16  C   UNL     1       3.558  -7.383   0.783  1.00  0.00     0.091 C 
ATOM     17  C   UNL     1       3.438  -8.880   0.482  1.00  0.00     0.144 C 
BRANCH  14  18
ATOM     18  C   UNL     1       1.838  -5.480   0.386  1.00  0.00    -0.002 A 
ATOM     19  C   UNL     1       0.984  -2.870   0.866  1.00  0.00     0.067 A 
ATOM     20  C   UNL     1       0.045  -3.904   0.809  1.00  0.00     0.021 A 
ATOM     21  C   UNL     1       2.346  -3.130   0.676  1.00  0.00     0.021 A 
ATOM     22  C   UNL     1       0.475  -5.208   0.559  1.00  0.00     0.011 A 
ATOM     23  C   UNL     1       2.773  -4.440   0.435  1.00  0.00     0.011 A 
BRANCH  19  24
ATOM     24  S   UNL     1       0.452  -1.216   1.244  1.00  0.00     0.175 S 
ATOM     25  C   UNL     1       0.955  -0.256  -0.158  1.00  0.00     0.163 C 
ATOM     26  O   UNL     1       1.235  -0.781   2.392  1.00  0.00    -0.224 OA
ATOM     27  O   UNL     1      -0.992  -1.208   1.281  1.00  0.00    -0.224 OA
ENDBRANCH  19  24
ENDBRANCH  14  18
BRANCH  17  28
ATOM     28  C   UNL     1       3.487  -9.857   1.649  1.00  0.00    -0.023 A 
ATOM     29  C   UNL     1       3.117  -9.523   2.961  1.00  0.00     0.009 A 
ATOM     30  C   UNL     1       3.849 -11.197   1.384  1.00  0.00     0.009 A 
ATOM     31  C   UNL     1       3.114 -10.493   3.969  1.00  0.00     0.039 A 
ATOM     32  C   UNL     1       3.808 -12.172   2.381  1.00  0.00     0.039 A 
ATOM     33  C   UNL     1       3.445 -11.808   3.667  1.00  0.00     0.123 A 
ATOM     34  F   UNL     1       3.404 -12.737   4.631  1.00  0.00    -0.207 F 
ENDBRANCH  17  28
ENDBRANCH   8  13
ENDBRANCH   5   7
ENDBRANCH   4   5
ENDBRANCH   3   4
ENDBRANCH   2   3
ENDBRANCH   1   2
BRANCH   1  35
ATOM     35  C   UNL     1      -0.349 -13.254  -5.340  1.00  0.00     0.202 C 
BRANCH  35  36
ATOM     36  C   UNL     1      -1.825 -13.252  -4.930  1.00  0.00     0.261 C 
BRANCH  36  37
ATOM     37  O   UNL     1      -2.115 -14.246  -3.933  1.00  0.00    -0.460 OA
BRANCH  37  38
ATOM     38  C   UNL     1      -2.798 -15.317  -4.403  1.00  0.00     0.338 C 
ATOM     39  O   UNL     1      -3.238 -15.467  -5.533  1.00  0.00    -0.246 OA
BRANCH  38  40
ATOM     40  C   UNL     1      -2.822 -16.403  -3.404  1.00  0.00     0.060 A 
ATOM     41  C   UNL     1      -2.544 -17.694  -3.868  1.00  0.00     0.016 A 
ATOM     42  C   UNL     1      -3.207 -16.194  -2.076  1.00  0.00     0.016 A 
ATOM     43  C   UNL     1      -2.740 -18.791  -3.035  1.00  0.00     0.010 A 
ATOM     44  C   UNL     1      -3.405 -17.300  -1.240  1.00  0.00     0.010 A 
ATOM     45  C   UNL     1      -3.229 -18.605  -1.736  1.00  0.00    -0.014 A 
BRANCH  45  46
ATOM     46  C   UNL     1      -3.749 -19.784  -1.001  1.00  0.00     0.031 A 
ATOM     47  C   UNL     1      -5.233 -20.052  -1.024  1.00  0.00     0.074 A 
ATOM     48  C   UNL     1      -2.915 -20.652  -0.401  1.00  0.00     0.049 A 
ATOM     49  N   UNL     1      -5.901 -21.059  -0.523  1.00  0.00    -0.248 NA
ATOM     50  C   UNL     1      -6.073 -19.055  -1.709  1.00  0.00     0.031 C 
ATOM     51  C   UNL     1      -1.459 -20.527  -0.346  1.00  0.00     0.029 A 
ATOM     52  N   UNL     1      -3.179 -21.823   0.264  1.00  0.00    -0.354 N 
ATOM     53  C   UNL     1      -7.236 -20.817  -0.831  1.00  0.00     0.074 A 
ATOM     54  C   UNL     1      -7.287 -19.552  -1.529  1.00  0.00     0.031 C 
ATOM     55  C   UNL     1      -0.957 -21.586   0.314  1.00  0.00     0.029 A 
ATOM     56  C   UNL     1      -2.055 -22.452   0.741  1.00  0.00     0.049 A 
ATOM     57  H   UNL     1      -4.089 -22.179   0.388  1.00  0.00     0.167 HD
ATOM     58  C   UNL     1      -8.321 -21.583  -0.569  1.00  0.00     0.031 A 
ATOM     59  C   UNL     1      -1.926 -23.596   1.442  1.00  0.00     0.031 A 
ATOM     60  C   UNL     1      -8.274 -22.837   0.132  1.00  0.00     0.049 A 
ATOM     61  C   UNL     1      -3.153 -24.408   1.764  1.00  0.00     0.074 A 
ATOM     62  C   UNL     1      -9.319 -23.688   0.447  1.00  0.00     0.029 A 
ATOM     63  N   UNL     1      -7.118 -23.421   0.627  1.00  0.00    -0.354 N 
ATOM     64  N   UNL     1      -4.405 -24.173   1.449  1.00  0.00    -0.248 NA
ATOM     65  C   UNL     1      -2.946 -25.652   2.520  1.00  0.00     0.031 C 
ATOM     66  C   UNL     1      -8.800 -24.767   1.172  1.00  0.00     0.029 A 
ATOM     67  C   UNL     1      -7.425 -24.615   1.258  1.00  0.00     0.049 A 
ATOM     68  H   UNL     1      -6.213 -23.043   0.543  1.00  0.00     0.167 HD
ATOM     69  C   UNL     1      -5.129 -25.257   1.937  1.00  0.00     0.074 A 
ATOM     70  C   UNL     1      -4.174 -26.151   2.560  1.00  0.00     0.031 C 
ATOM     71  C   UNL     1      -6.462 -25.496   1.868  1.00  0.00     0.031 A 
BRANCH  58  72
ATOM     72  C   UNL     1      -9.659 -21.063  -1.024  1.00  0.00    -0.014 A 
ATOM     73  C   UNL     1     -10.010 -21.047  -2.386  1.00  0.00     0.010 A 
ATOM     74  C   UNL     1     -10.588 -20.604  -0.072  1.00  0.00     0.010 A 
ATOM     75  C   UNL     1     -11.248 -20.543  -2.792  1.00  0.00     0.020 A 
ATOM     76  C   UNL     1     -11.838 -20.123  -0.472  1.00  0.00     0.020 A 
ATOM     77  C   UNL     1     -12.153 -20.079  -1.832  1.00  0.00     0.054 A 
BRANCH  77  78
ATOM     78  S   UNL     1     -13.760 -19.443  -2.382  1.00  0.00     0.124 S 
ATOM     79  O   UNL     1     -13.394 -18.143  -2.939  1.00  0.00    -0.237 OA
ATOM     80  O   UNL     1     -14.187 -20.445  -3.355  1.00  0.00    -0.237 OA
ATOM     81  O   UNL     1     -14.552 -19.394  -1.155  1.00  0.00    -0.744 OA
ENDBRANCH  77  78
ENDBRANCH  58  72
BRANCH  59  82
ATOM     82  C   UNL     1      -0.578 -24.049   1.883  1.00  0.00    -0.014 A 
ATOM     83  C   UNL     1       0.027 -25.179   1.305  1.00  0.00     0.010 A 
ATOM     84  C   UNL     1       0.105 -23.349   2.893  1.00  0.00     0.010 A 
ATOM     85  C   UNL     1       1.283 -25.611   1.744  1.00  0.00     0.020 A 
ATOM     86  C   UNL     1       1.371 -23.762   3.316  1.00  0.00     0.020 A 
ATOM     87  C   UNL     1       1.947 -24.900   2.747  1.00  0.00     0.054 A 
BRANCH  87  88
ATOM     88  S   UNL     1       3.596 -25.449   3.268  1.00  0.00     0.124 S 
ATOM     89  O   UNL     1       3.283 -26.621   4.079  1.00  0.00    -0.237 OA
ATOM     90  O   UNL     1       4.258 -25.718   1.994  1.00  0.00    -0.237 OA
ATOM     91  O   UNL     1       4.121 -24.299   4.002  1.00  0.00    -0.744 OA
ENDBRANCH  87  88
ENDBRANCH  59  82
BRANCH  71  92
ATOM     92  C   UNL     1      -6.965 -26.798   2.435  1.00  0.00    -0.014 A 
ATOM     93  C   UNL     1      -7.022 -27.022   3.821  1.00  0.00     0.010 A 
ATOM     94  C   UNL     1      -7.429 -27.796   1.559  1.00  0.00     0.010 A 
ATOM     95  C   UNL     1      -7.495 -28.239   4.320  1.00  0.00     0.020 A 
ATOM     96  C   UNL     1      -7.928 -29.003   2.054  1.00  0.00     0.020 A 
ATOM     97  C   UNL     1      -7.941 -29.224   3.433  1.00  0.00     0.054 A 
BRANCH  97  98
ATOM     98  S   UNL     1      -8.575 -30.787   4.102  1.00  0.00     0.124 S 
ATOM     99  O   UNL     1      -7.344 -31.475   4.481  1.00  0.00    -0.237 OA
ATOM    100  O   UNL     1      -9.416 -30.345   5.212  1.00  0.00    -0.237 OA
ATOM    101  O   UNL     1      -9.298 -31.377   2.978  1.00  0.00    -0.744 OA
ENDBRANCH  97  98
ENDBRANCH  71  92
ENDBRANCH  45  46
ENDBRANCH  38  40
ENDBRANCH  37  38
ENDBRANCH  36  37
ENDBRANCH  35  36
ENDBRANCH   1  35
TORSDOF 21
