REMARK SMILES C=CCN1C(=O)/C(=C/c2ccc(-c3ccc(Cl)c(C(=O)OCCOCCOC(=O)c4ccc(-c5c6nc(c(-c7ccc(S(=O)(=O)[O-])cc7)c7ccc([nH]7)c(-c7ccc(S(=O)(=O)[O-])cc7)c7nc(c(-c8ccc(S(=O)(=O)[O-])cc8)c8ccc5[nH]8)C=C7)C=C6)cc4)c3)o2)C(=O)NC1=S
REMARK SMILES IDX 23 1 22 2 21 3 19 4 20 5 18 6 13 7 14 8 90 9 15 10 16 11
REMARK SMILES IDX 17 12 12 13 9 14 10 15 91 16 11 17 8 18 4 19 5 20 95 21 6 22
REMARK SMILES IDX 7 23 94 24 96 25 92 26 93 28 3 29 2 30 1 31 24 32 25 33
REMARK SMILES IDX 26 34 27 35 28 36 29 37 30 38 31 39 89 40 32 41 88 42 33 43
REMARK SMILES IDX 34 44 35 45 82 46 36 47 87 48 81 49 83 50 37 51 86 52 80 53
REMARK SMILES IDX 79 54 38 56 68 57 49 58 67 59 50 60 53 61 66 62 84 63 51 64
REMARK SMILES IDX 52 65 65 67 85 68 54 69 39 70 40 71 48 72 41 73 47 74 42 75
REMARK SMILES IDX 43 76 44 77 45 78 46 79 69 80 70 81 78 82 71 83 77 84 72 85
REMARK SMILES IDX 73 86 74 87 75 88 76 89 55 90 56 91 64 92 57 93 63 94 58 95
REMARK SMILES IDX 59 96 60 97 61 98 62 99
REMARK H PARENT 94 27 83 55 53 66
REMARK Flexibility Score: inf
ROOT
ATOM      1  C   UNL     1     -11.272   5.833  -2.226  1.00  0.00     0.202 C 
ENDROOT
BRANCH   1   2
ATOM      2  C   UNL     1     -11.604   6.117  -0.760  1.00  0.00     0.261 C 
BRANCH   2   3
ATOM      3  O   UNL     1     -10.716   7.119  -0.241  1.00  0.00    -0.460 OA
BRANCH   3   4
ATOM      4  C   UNL     1     -10.045   6.800   0.885  1.00  0.00     0.339 C 
ATOM      5  O   UNL     1     -10.194   5.790   1.560  1.00  0.00    -0.246 OA
BRANCH   4   6
ATOM      6  C   UNL     1      -8.927   7.742   1.114  1.00  0.00     0.079 A 
ATOM      7  C   UNL     1      -6.620   7.954   1.887  1.00  0.00     0.018 A 
ATOM      8  C   UNL     1      -6.695   9.335   1.695  1.00  0.00     0.013 A 
ATOM      9  C   UNL     1      -7.728   7.162   1.571  1.00  0.00     0.029 A 
ATOM     10  C   UNL     1      -7.874   9.918   1.219  1.00  0.00     0.022 A 
ATOM     11  C   UNL     1      -8.999   9.129   0.943  1.00  0.00     0.055 A 
ATOM     12  Cl  UNL     1     -10.435   9.962   0.471  1.00  0.00    -0.083 Cl
BRANCH   7  13
ATOM     13  C   UNL     1      -5.455   7.358   2.507  1.00  0.00     0.134 A 
ATOM     14  C   UNL     1      -3.661   6.056   2.494  1.00  0.00     0.128 A 
ATOM     15  C   UNL     1      -3.799   6.575   3.774  1.00  0.00     0.051 A 
ATOM     16  O   UNL     1      -4.688   6.558   1.723  1.00  0.00    -0.457 OA
ATOM     17  C   UNL     1      -4.941   7.409   3.780  1.00  0.00     0.051 A 
BRANCH  14  18
ATOM     18  C   UNL     1      -2.662   5.215   1.946  1.00  0.00     0.066 C 
ATOM     19  N   UNL     1      -1.747   1.828   1.187  1.00  0.00    -0.281 N 
ATOM     20  C   UNL     1      -1.540   3.199   1.351  1.00  0.00     0.266 C 
ATOM     21  C   UNL     1      -2.585   1.082   2.008  1.00  0.00     0.183 C 
ATOM     22  O   UNL     1      -0.630   3.818   0.799  1.00  0.00    -0.268 OA
ATOM     23  C   UNL     1      -2.518   3.905   2.216  1.00  0.00     0.109 C 
ATOM     24  N   UNL     1      -3.283   1.775   2.965  1.00  0.00    -0.298 N 
ATOM     25  S   UNL     1      -2.836  -0.576   1.965  1.00  0.00    -0.040 S 
ATOM     26  C   UNL     1      -3.317   3.126   3.177  1.00  0.00     0.263 C 
ATOM     27  H   UNL     1      -3.828   1.231   3.577  1.00  0.00     0.172 HD
ATOM     28  O   UNL     1      -3.949   3.597   4.113  1.00  0.00    -0.269 OA
BRANCH  19  29
ATOM     29  C   UNL     1      -1.049   1.236   0.038  1.00  0.00     0.155 C 
BRANCH  29  30
ATOM     30  C   UNL     1       0.395   0.967   0.351  1.00  0.00    -0.013 C 
ATOM     31  C   UNL     1       1.000  -0.219   0.202  1.00  0.00     0.006 C 
ENDBRANCH  29  30
ENDBRANCH  19  29
ENDBRANCH  14  18
ENDBRANCH   7  13
ENDBRANCH   4   6
ENDBRANCH   3   4
ENDBRANCH   2   3
ENDBRANCH   1   2
BRANCH   1  32
ATOM     32  O   UNL     1     -10.001   5.222  -2.463  1.00  0.00    -0.374 OA
BRANCH  32  33
ATOM     33  C   UNL     1      -8.850   6.065  -2.402  1.00  0.00     0.202 C 
BRANCH  33  34
ATOM     34  C   UNL     1      -8.568   6.930  -3.637  1.00  0.00     0.261 C 
BRANCH  34  35
ATOM     35  O   UNL     1      -9.575   7.932  -3.853  1.00  0.00    -0.460 OA
BRANCH  35  36
ATOM     36  C   UNL     1     -10.405   7.685  -4.896  1.00  0.00     0.338 C 
ATOM     37  O   UNL     1     -10.345   6.744  -5.676  1.00  0.00    -0.246 OA
BRANCH  36  38
ATOM     38  C   UNL     1     -11.534   8.633  -4.884  1.00  0.00     0.060 A 
ATOM     39  C   UNL     1     -12.827   8.104  -4.986  1.00  0.00     0.016 A 
ATOM     40  C   UNL     1     -11.333  10.014  -4.854  1.00  0.00     0.016 A 
ATOM     41  C   UNL     1     -13.923   8.954  -5.114  1.00  0.00     0.010 A 
ATOM     42  C   UNL     1     -12.433  10.867  -4.990  1.00  0.00     0.010 A 
ATOM     43  C   UNL     1     -13.727  10.341  -5.159  1.00  0.00    -0.014 A 
BRANCH  43  44
ATOM     44  C   UNL     1     -14.848  11.231  -5.545  1.00  0.00     0.031 A 
ATOM     45  C   UNL     1     -14.930  11.722  -6.965  1.00  0.00     0.074 A 
ATOM     46  C   UNL     1     -15.792  11.581  -4.655  1.00  0.00     0.049 A 
ATOM     47  N   UNL     1     -15.800  12.528  -7.516  1.00  0.00    -0.248 NA
ATOM     48  C   UNL     1     -13.889  11.236  -7.886  1.00  0.00     0.031 C 
ATOM     49  C   UNL     1     -15.858  11.123  -3.268  1.00  0.00     0.029 A 
ATOM     50  N   UNL     1     -16.881  12.405  -4.792  1.00  0.00    -0.354 N 
ATOM     51  C   UNL     1     -15.407  12.655  -8.844  1.00  0.00     0.074 A 
ATOM     52  C   UNL     1     -14.203  11.869  -9.005  1.00  0.00     0.031 C 
ATOM     53  C   UNL     1     -16.938  11.670  -2.682  1.00  0.00     0.029 A 
ATOM     54  C   UNL     1     -17.614  12.544  -3.639  1.00  0.00     0.049 A 
ATOM     55  H   UNL     1     -17.115  12.853  -5.637  1.00  0.00     0.167 HD
ATOM     56  C   UNL     1     -15.997  13.359  -9.841  1.00  0.00     0.031 A 
ATOM     57  C   UNL     1     -18.699  13.301  -3.382  1.00  0.00     0.031 A 
ATOM     58  C   UNL     1     -17.178  14.162  -9.671  1.00  0.00     0.049 A 
ATOM     59  C   UNL     1     -19.282  14.154  -4.477  1.00  0.00     0.074 A 
ATOM     60  C   UNL     1     -17.853  14.915 -10.615  1.00  0.00     0.029 A 
ATOM     61  N   UNL     1     -17.854  14.327  -8.470  1.00  0.00    -0.354 N 
ATOM     62  N   UNL     1     -18.904  14.262  -5.729  1.00  0.00    -0.248 NA
ATOM     63  C   UNL     1     -20.440  14.987  -4.123  1.00  0.00     0.031 C 
ATOM     64  C   UNL     1     -18.906  15.578  -9.973  1.00  0.00     0.029 A 
ATOM     65  C   UNL     1     -18.924  15.189  -8.643  1.00  0.00     0.049 A 
ATOM     66  H   UNL     1     -17.610  13.893  -7.621  1.00  0.00     0.167 HD
ATOM     67  C   UNL     1     -19.800  15.147  -6.321  1.00  0.00     0.074 A 
ATOM     68  C   UNL     1     -20.737  15.544  -5.290  1.00  0.00     0.031 C 
ATOM     69  C   UNL     1     -19.847  15.581  -7.606  1.00  0.00     0.031 A 
BRANCH  56  70
ATOM     70  C   UNL     1     -15.327  13.322 -11.190  1.00  0.00    -0.014 A 
ATOM     71  C   UNL     1     -15.313  12.150 -11.969  1.00  0.00     0.010 A 
ATOM     72  C   UNL     1     -14.680  14.473 -11.676  1.00  0.00     0.010 A 
ATOM     73  C   UNL     1     -14.606  12.109 -13.173  1.00  0.00     0.020 A 
ATOM     74  C   UNL     1     -13.996  14.444 -12.895  1.00  0.00     0.020 A 
ATOM     75  C   UNL     1     -13.940  13.253 -13.622  1.00  0.00     0.054 A 
BRANCH  75  76
ATOM     76  S   UNL     1     -12.996  13.165 -15.168  1.00  0.00     0.124 S 
ATOM     77  O   UNL     1     -11.813  12.414 -14.755  1.00  0.00    -0.237 OA
ATOM     78  O   UNL     1     -13.908  12.457 -16.063  1.00  0.00    -0.237 OA
ATOM     79  O   UNL     1     -12.757  14.565 -15.509  1.00  0.00    -0.744 OA
ENDBRANCH  75  76
ENDBRANCH  56  70
BRANCH  57  80
ATOM     80  C   UNL     1     -19.311  13.273  -2.026  1.00  0.00    -0.014 A 
ATOM     81  C   UNL     1     -20.548  12.639  -1.819  1.00  0.00     0.010 A 
ATOM     82  C   UNL     1     -18.643  13.847  -0.928  1.00  0.00     0.010 A 
ATOM     83  C   UNL     1     -21.106  12.577  -0.539  1.00  0.00     0.020 A 
ATOM     84  C   UNL     1     -19.187  13.767   0.357  1.00  0.00     0.020 A 
ATOM     85  C   UNL     1     -20.418  13.134   0.542  1.00  0.00     0.054 A 
BRANCH  85  86
ATOM     86  S   UNL     1     -21.124  12.967   2.206  1.00  0.00     0.124 S 
ATOM     87  O   UNL     1     -22.249  13.894   2.154  1.00  0.00    -0.237 OA
ATOM     88  O   UNL     1     -21.473  11.549   2.257  1.00  0.00    -0.237 OA
ATOM     89  O   UNL     1     -20.026  13.362   3.085  1.00  0.00    -0.744 OA
ENDBRANCH  85  86
ENDBRANCH  57  80
BRANCH  69  90
ATOM     90  C   UNL     1     -20.974  16.505  -7.988  1.00  0.00    -0.014 A 
ATOM     91  C   UNL     1     -20.991  17.849  -7.576  1.00  0.00     0.010 A 
ATOM     92  C   UNL     1     -21.998  16.034  -8.831  1.00  0.00     0.010 A 
ATOM     93  C   UNL     1     -22.027  18.698  -7.980  1.00  0.00     0.020 A 
ATOM     94  C   UNL     1     -23.019  16.885  -9.258  1.00  0.00     0.020 A 
ATOM     95  C   UNL     1     -23.034  18.211  -8.820  1.00  0.00     0.054 A 
BRANCH  95  96
ATOM     96  S   UNL     1     -24.336  19.346  -9.375  1.00  0.00     0.124 S 
ATOM     97  O   UNL     1     -25.147  19.491  -8.169  1.00  0.00    -0.237 OA
ATOM     98  O   UNL     1     -23.581  20.532  -9.771  1.00  0.00    -0.237 OA
ATOM     99  O   UNL     1     -24.977  18.627 -10.474  1.00  0.00    -0.744 OA
ENDBRANCH  95  96
ENDBRANCH  69  90
ENDBRANCH  43  44
ENDBRANCH  36  38
ENDBRANCH  35  36
ENDBRANCH  34  35
ENDBRANCH  33  34
ENDBRANCH  32  33
ENDBRANCH   1  32
TORSDOF 21
