REMARK SMILES CCN(CCO)C(=O)N[C@H]1CCCCC[C@H]1C(=O)OCCOCCOC(=O)c1ccc(-c2c3nc(c(-c4ccc(S(=O)(=O)[O-])cc4)c4ccc([nH]4)c(-c4ccc(S(=O)(=O)[O-])cc4)c4nc(c(-c5ccc(S(=O)(=O)[O-])cc5)c5ccc2[nH]5)C=C4)C=C3)cc1
REMARK SMILES IDX 20 1 19 2 17 3 18 4 16 5 10 6 9 7 7 8 8 9 3 11 2 12 1 13
REMARK SMILES IDX 4 14 5 15 6 16 11 18 15 20 14 21 13 22 12 23 21 25 22 26
REMARK SMILES IDX 23 27 24 28 25 29 26 30 27 31 28 32 29 33 87 34 30 35 86 36
REMARK SMILES IDX 31 37 32 38 33 39 80 40 34 41 85 42 79 43 81 44 35 45 84 46
REMARK SMILES IDX 78 47 77 48 36 50 66 51 47 52 65 53 48 54 51 55 64 56 82 57
REMARK SMILES IDX 49 58 50 59 63 61 83 62 52 63 37 64 38 65 46 66 39 67 45 68
REMARK SMILES IDX 40 69 41 70 42 71 43 72 44 73 67 74 68 75 76 76 69 77 75 78
REMARK SMILES IDX 70 79 71 80 72 81 73 82 74 83 53 84 54 85 62 86 55 87 61 88
REMARK SMILES IDX 56 89 57 90 58 91 59 92 60 93
REMARK H PARENT 9 10 6 17 81 49 51 60
REMARK Flexibility Score: 90.00
ROOT
ATOM      1  C   UNL     1      -1.437   2.970   7.084  1.00  0.00     0.261 C 
ENDROOT
BRANCH   1   2
ATOM      2  O   UNL     1      -0.176   2.955   6.383  1.00  0.00    -0.463 OA
BRANCH   2   3
ATOM      3  C   UNL     1       0.477   1.769   6.362  1.00  0.00     0.311 C 
ATOM      4  O   UNL     1      -0.026   0.695   6.678  1.00  0.00    -0.252 OA
BRANCH   3   5
ATOM      5  C   UNL     1       1.967   1.888   6.046  1.00  0.00     0.121 C 
BRANCH   5   6
ATOM      6  C   UNL     1       2.491   2.958   5.024  1.00  0.00     0.098 C 
BRANCH   6   7
ATOM      7  N   UNL     1       1.546   3.147   3.895  1.00  0.00    -0.334 N 
ATOM      8  C   UNL     1       1.343   3.704   2.696  1.00  0.00     0.317 C 
ATOM      9  O   UNL     1       0.375   3.216   2.098  1.00  0.00    -0.249 OA
ATOM     10  H   UNL     1       0.723   2.658   4.126  1.00  0.00     0.165 HD
BRANCH   8  11
ATOM     11  N   UNL     1       2.038   4.730   2.141  1.00  0.00    -0.323 N 
BRANCH  11  12
ATOM     12  C   UNL     1       1.423   5.418   0.991  1.00  0.00     0.118 C 
ATOM     13  C   UNL     1       1.518   4.674  -0.330  1.00  0.00     0.027 C 
ENDBRANCH  11  12
BRANCH  11  14
ATOM     14  C   UNL     1       3.299   5.310   2.588  1.00  0.00     0.149 C 
BRANCH  14  15
ATOM     15  C   UNL     1       3.081   6.657   3.308  1.00  0.00     0.177 C 
BRANCH  15  16
ATOM     16  O   UNL     1       1.949   6.637   4.174  1.00  0.00    -0.395 OA
ATOM     17  H   UNL     1       1.148   6.465   3.655  1.00  0.00     0.210 HD
ENDBRANCH  15  16
ENDBRANCH  14  15
ENDBRANCH  11  14
ENDBRANCH   8  11
ENDBRANCH   6   7
BRANCH   6  18
ATOM     18  C   UNL     1       3.108   4.175   5.721  1.00  0.00     0.026 CG0
ATOM     19  G   UNL     1       2.284   4.866   6.791  1.00  0.00     0.000 G0
ENDBRANCH   6  18
ENDBRANCH   5   6
BRANCH   5  20
ATOM     20  C   UNL     1       2.714   1.847   7.399  1.00  0.00     0.017 C 
BRANCH  20  21
ATOM     21  C   UNL     1       2.266   2.874   8.450  1.00  0.00     0.001 C 
BRANCH  21  22
ATOM     22  C   UNL     1       2.599   4.337   8.183  1.00  0.00     0.000 C 
BRANCH  22  23
ATOM     23  C   UNL     1       2.284   4.866   6.791  1.00  0.00     0.002 CG0
ATOM     24  G   UNL     1       3.108   4.175   5.721  1.00  0.00     0.000 G0
ENDBRANCH  22  23
ENDBRANCH  21  22
ENDBRANCH  20  21
ENDBRANCH   5  20
ENDBRANCH   3   5
ENDBRANCH   2   3
ENDBRANCH   1   2
BRANCH   1  25
ATOM     25  C   UNL     1      -2.650   3.092   6.163  1.00  0.00     0.202 C 
BRANCH  25  26
ATOM     26  O   UNL     1      -2.912   1.954   5.347  1.00  0.00    -0.374 OA
BRANCH  26  27
ATOM     27  C   UNL     1      -2.147   1.843   4.145  1.00  0.00     0.202 C 
BRANCH  27  28
ATOM     28  C   UNL     1      -2.578   2.785   3.018  1.00  0.00     0.261 C 
BRANCH  28  29
ATOM     29  O   UNL     1      -2.175   4.141   3.299  1.00  0.00    -0.460 OA
BRANCH  29  30
ATOM     30  C   UNL     1      -3.172   5.049   3.278  1.00  0.00     0.338 C 
ATOM     31  O   UNL     1      -4.342   4.855   2.969  1.00  0.00    -0.246 OA
BRANCH  30  32
ATOM     32  C   UNL     1      -2.717   6.328   3.853  1.00  0.00     0.060 A 
ATOM     33  C   UNL     1      -3.491   6.883   4.877  1.00  0.00     0.016 A 
ATOM     34  C   UNL     1      -1.633   7.034   3.327  1.00  0.00     0.016 A 
ATOM     35  C   UNL     1      -3.239   8.181   5.314  1.00  0.00     0.010 A 
ATOM     36  C   UNL     1      -1.372   8.335   3.776  1.00  0.00     0.010 A 
ATOM     37  C   UNL     1      -2.213   8.936   4.728  1.00  0.00    -0.014 A 
BRANCH  37  38
ATOM     38  C   UNL     1      -2.155  10.397   4.994  1.00  0.00     0.031 A 
ATOM     39  C   UNL     1      -2.695  11.353   3.959  1.00  0.00     0.074 A 
ATOM     40  C   UNL     1      -1.708  10.867   6.173  1.00  0.00     0.049 A 
ATOM     41  N   UNL     1      -2.812  12.656   4.017  1.00  0.00    -0.248 NA
ATOM     42  C   UNL     1      -3.165  10.765   2.693  1.00  0.00     0.031 C 
ATOM     43  C   UNL     1      -1.184  10.049   7.266  1.00  0.00     0.029 A 
ATOM     44  N   UNL     1      -1.638  12.152   6.650  1.00  0.00    -0.354 N 
ATOM     45  C   UNL     1      -3.364  13.041   2.800  1.00  0.00     0.074 A 
ATOM     46  C   UNL     1      -3.523  11.841   2.008  1.00  0.00     0.031 C 
ATOM     47  C   UNL     1      -0.859  10.852   8.293  1.00  0.00     0.029 A 
ATOM     48  C   UNL     1      -1.129  12.241   7.924  1.00  0.00     0.049 A 
ATOM     49  H   UNL     1      -1.925  12.937   6.130  1.00  0.00     0.167 HD
ATOM     50  C   UNL     1      -3.722  14.279   2.381  1.00  0.00     0.031 A 
ATOM     51  C   UNL     1      -0.904  13.317   8.703  1.00  0.00     0.031 A 
ATOM     52  C   UNL     1      -3.570  15.475   3.165  1.00  0.00     0.049 A 
ATOM     53  C   UNL     1      -1.269  14.689   8.199  1.00  0.00     0.074 A 
ATOM     54  C   UNL     1      -3.925  16.771   2.834  1.00  0.00     0.029 A 
ATOM     55  N   UNL     1      -3.017  15.523   4.435  1.00  0.00    -0.354 N 
ATOM     56  N   UNL     1      -1.821  15.029   7.059  1.00  0.00    -0.248 NA
ATOM     57  C   UNL     1      -0.992  15.821   9.095  1.00  0.00     0.031 C 
ATOM     58  C   UNL     1      -3.543  17.611   3.886  1.00  0.00     0.029 A 
ATOM     59  C   UNL     1      -3.000  16.830   4.893  1.00  0.00     0.049 A 
ATOM     60  H   UNL     1      -2.686  14.744   4.937  1.00  0.00     0.167 HD
ATOM     61  C   UNL     1      -1.981  16.410   7.112  1.00  0.00     0.074 A 
ATOM     62  C   UNL     1      -1.480  16.840   8.401  1.00  0.00     0.031 C 
ATOM     63  C   UNL     1      -2.499  17.246   6.178  1.00  0.00     0.031 A 
BRANCH  50  64
ATOM     64  C   UNL     1      -4.300  14.405   0.996  1.00  0.00    -0.014 A 
ATOM     65  C   UNL     1      -5.600  13.954   0.707  1.00  0.00     0.010 A 
ATOM     66  C   UNL     1      -3.547  15.021  -0.019  1.00  0.00     0.010 A 
ATOM     67  C   UNL     1      -6.124  14.086  -0.582  1.00  0.00     0.020 A 
ATOM     68  C   UNL     1      -4.076  15.177  -1.303  1.00  0.00     0.020 A 
ATOM     69  C   UNL     1      -5.357  14.694  -1.581  1.00  0.00     0.054 A 
BRANCH  69  70
ATOM     70  S   UNL     1      -6.068  14.875  -3.239  1.00  0.00     0.124 S 
ATOM     71  O   UNL     1      -5.995  13.508  -3.749  1.00  0.00    -0.237 OA
ATOM     72  O   UNL     1      -7.414  15.370  -2.960  1.00  0.00    -0.237 OA
ATOM     73  O   UNL     1      -5.180  15.832  -3.895  1.00  0.00    -0.744 OA
ENDBRANCH  69  70
ENDBRANCH  50  64
BRANCH  51  74
ATOM     74  C   UNL     1      -0.293  13.143  10.049  1.00  0.00    -0.014 A 
ATOM     75  C   UNL     1      -1.049  13.353  11.216  1.00  0.00     0.010 A 
ATOM     76  C   UNL     1       1.057  12.765  10.166  1.00  0.00     0.010 A 
ATOM     77  C   UNL     1      -0.459  13.207  12.476  1.00  0.00     0.020 A 
ATOM     78  C   UNL     1       1.642  12.594  11.423  1.00  0.00     0.020 A 
ATOM     79  C   UNL     1       0.883  12.828  12.571  1.00  0.00     0.054 A 
BRANCH  79  80
ATOM     80  S   UNL     1       1.617  12.595  14.214  1.00  0.00     0.124 S 
ATOM     81  O   UNL     1       1.820  13.972  14.653  1.00  0.00    -0.237 OA
ATOM     82  O   UNL     1       0.579  11.851  14.923  1.00  0.00    -0.237 OA
ATOM     83  O   UNL     1       2.836  11.838  13.938  1.00  0.00    -0.744 OA
ENDBRANCH  79  80
ENDBRANCH  51  74
BRANCH  63  84
ATOM     84  C   UNL     1      -2.584  18.709   6.524  1.00  0.00    -0.014 A 
ATOM     85  C   UNL     1      -1.435  19.518   6.555  1.00  0.00     0.010 A 
ATOM     86  C   UNL     1      -3.841  19.293   6.764  1.00  0.00     0.010 A 
ATOM     87  C   UNL     1      -1.538  20.880   6.852  1.00  0.00     0.020 A 
ATOM     88  C   UNL     1      -3.951  20.659   7.037  1.00  0.00     0.020 A 
ATOM     89  C   UNL     1      -2.796  21.441   7.094  1.00  0.00     0.054 A 
BRANCH  89  90
ATOM     90  S   UNL     1      -2.910  23.219   7.438  1.00  0.00     0.124 S 
ATOM     91  O   UNL     1      -2.437  23.293   8.817  1.00  0.00    -0.237 OA
ATOM     92  O   UNL     1      -2.019  23.799   6.436  1.00  0.00    -0.237 OA
ATOM     93  O   UNL     1      -4.328  23.518   7.248  1.00  0.00    -0.744 OA
ENDBRANCH  89  90
ENDBRANCH  63  84
ENDBRANCH  37  38
ENDBRANCH  30  32
ENDBRANCH  29  30
ENDBRANCH  28  29
ENDBRANCH  27  28
ENDBRANCH  26  27
ENDBRANCH  25  26
ENDBRANCH   1  25
TORSDOF 23
