REMARK SMILES COc1ccc2[nH]c(C(=O)c3cc(C)ccn3)c(CC(=O)OCCOCCOC(=O)c3ccc(-c4c5nc(c(-c6ccc(S(=O)(=O)[O-])cc6)c6ccc([nH]6)c(-c6ccc(S(=O)(=O)[O-])cc6)c6nc(c(-c7ccc(S(=O)(=O)[O-])cc7)c7ccc4[nH]7)C=C6)C=C5)cc3)c2c1
REMARK SMILES IDX 25 1 24 2 23 3 22 4 20 5 21 6 19 7 18 8 3 9 4 10 92 11 5 12
REMARK SMILES IDX 91 13 6 14 7 15 8 16 2 18 1 19 9 20 10 21 11 22 12 23 17 24
REMARK SMILES IDX 13 25 16 26 14 27 15 28 26 29 27 30 28 31 29 32 30 33 31 34
REMARK SMILES IDX 32 35 90 36 33 37 89 38 34 39 35 40 36 41 83 42 37 43 88 44
REMARK SMILES IDX 82 45 84 46 38 47 87 48 81 49 80 50 39 52 69 53 50 54 68 55
REMARK SMILES IDX 51 56 54 57 67 58 85 59 52 60 53 61 66 63 86 64 55 65 40 66
REMARK SMILES IDX 41 67 49 68 42 69 48 70 43 71 44 72 45 73 46 74 47 75 70 76
REMARK SMILES IDX 71 77 79 78 72 79 78 80 73 81 74 82 75 83 76 84 77 85 56 86
REMARK SMILES IDX 57 87 65 88 58 89 64 90 59 91 60 92 61 93 62 94 63 95
REMARK H PARENT 7 17 84 51 54 62
REMARK Flexibility Score: inf
ROOT
ATOM      1  O   UNL     1      -3.943   8.559  -3.178  1.00  0.00    -0.374 OA
ENDROOT
BRANCH   1   2
ATOM      2  C   UNL     1      -4.072   7.886  -1.927  1.00  0.00     0.202 C 
BRANCH   2   3
ATOM      3  C   UNL     1      -4.010   6.349  -1.929  1.00  0.00     0.261 C 
BRANCH   3   4
ATOM      4  O   UNL     1      -2.858   5.797  -2.603  1.00  0.00    -0.463 OA
BRANCH   4   5
ATOM      5  C   UNL     1      -3.132   4.833  -3.526  1.00  0.00     0.310 C 
ATOM      6  O   UNL     1      -4.259   4.382  -3.731  1.00  0.00    -0.252 OA
BRANCH   5   7
ATOM      7  C   UNL     1      -1.966   4.396  -4.391  1.00  0.00     0.161 C 
BRANCH   7   8
ATOM      8  C   UNL     1      -0.565   4.659  -3.909  1.00  0.00     0.000 A 
ATOM      9  C   UNL     1       0.808   1.931  -1.585  1.00  0.00     0.119 A 
ATOM     10  C   UNL     1       2.078   2.488  -1.444  1.00  0.00     0.048 A 
ATOM     11  C   UNL     1      -0.164   2.590  -2.349  1.00  0.00     0.057 A 
ATOM     12  C   UNL     1       2.403   3.708  -2.054  1.00  0.00     0.030 A 
ATOM     13  C   UNL     1       0.147   3.803  -3.000  1.00  0.00     0.008 A 
ATOM     14  C   UNL     1       1.422   4.330  -2.837  1.00  0.00     0.046 A 
ATOM     15  N   UNL     1       1.473   5.487  -3.577  1.00  0.00    -0.352 N 
ATOM     16  C   UNL     1       0.352   5.613  -4.375  1.00  0.00     0.093 A 
ATOM     17  H   UNL     1       2.211   6.138  -3.544  1.00  0.00     0.167 HD
BRANCH   9  18
ATOM     18  O   UNL     1       0.412   0.720  -1.083  1.00  0.00    -0.497 OA
ATOM     19  C   UNL     1       1.123   0.242   0.053  1.00  0.00     0.278 C 
ENDBRANCH   9  18
BRANCH  16  20
ATOM     20  C   UNL     1       0.213   6.565  -5.479  1.00  0.00     0.227 C 
ATOM     21  O   UNL     1      -0.731   6.552  -6.268  1.00  0.00    -0.285 OA
BRANCH  20  22
ATOM     22  C   UNL     1       1.240   7.635  -5.668  1.00  0.00     0.113 A 
ATOM     23  C   UNL     1       2.507   7.352  -6.158  1.00  0.00     0.036 A 
ATOM     24  N   UNL     1       0.837   8.884  -5.325  1.00  0.00    -0.253 NA
ATOM     25  C   UNL     1       3.417   8.411  -6.273  1.00  0.00    -0.047 A 
ATOM     26  C   UNL     1       1.732   9.882  -5.420  1.00  0.00     0.112 A 
ATOM     27  C   UNL     1       4.798   8.209  -6.818  1.00  0.00     0.044 C 
ATOM     28  C   UNL     1       3.021   9.695  -5.880  1.00  0.00     0.023 A 
ENDBRANCH  20  22
ENDBRANCH  16  20
ENDBRANCH   7   8
ENDBRANCH   5   7
ENDBRANCH   4   5
ENDBRANCH   3   4
ENDBRANCH   2   3
ENDBRANCH   1   2
BRANCH   1  29
ATOM     29  C   UNL     1      -2.722   8.383  -3.888  1.00  0.00     0.202 C 
BRANCH  29  30
ATOM     30  C   UNL     1      -1.443   8.901  -3.228  1.00  0.00     0.261 C 
BRANCH  30  31
ATOM     31  O   UNL     1      -1.301   8.595  -1.843  1.00  0.00    -0.460 OA
BRANCH  31  32
ATOM     32  C   UNL     1      -0.889   9.630  -1.083  1.00  0.00     0.338 C 
ATOM     33  O   UNL     1      -0.577  10.757  -1.435  1.00  0.00    -0.246 OA
BRANCH  32  34
ATOM     34  C   UNL     1      -0.932   9.211   0.317  1.00  0.00     0.060 A 
ATOM     35  C   UNL     1      -1.978   9.679   1.116  1.00  0.00     0.016 A 
ATOM     36  C   UNL     1       0.106   8.441   0.845  1.00  0.00     0.016 A 
ATOM     37  C   UNL     1      -1.956   9.418   2.481  1.00  0.00     0.010 A 
ATOM     38  C   UNL     1       0.121   8.177   2.213  1.00  0.00     0.010 A 
ATOM     39  C   UNL     1      -0.887   8.699   3.039  1.00  0.00    -0.014 A 
BRANCH  39  40
ATOM     40  C   UNL     1      -0.764   8.617   4.509  1.00  0.00     0.031 A 
ATOM     41  C   UNL     1       0.169   9.560   5.215  1.00  0.00     0.074 A 
ATOM     42  C   UNL     1      -1.513   7.738   5.197  1.00  0.00     0.049 A 
ATOM     43  N   UNL     1       0.401   9.689   6.495  1.00  0.00    -0.248 NA
ATOM     44  C   UNL     1       0.945  10.480   4.366  1.00  0.00     0.031 C 
ATOM     45  C   UNL     1      -2.466   6.797   4.606  1.00  0.00     0.029 A 
ATOM     46  N   UNL     1      -1.596   7.500   6.544  1.00  0.00    -0.354 N 
ATOM     47  C   UNL     1       1.345  10.703   6.606  1.00  0.00     0.074 A 
ATOM     48  C   UNL     1       1.671  11.131   5.264  1.00  0.00     0.031 C 
ATOM     49  C   UNL     1      -3.045   6.088   5.589  1.00  0.00     0.029 A 
ATOM     50  C   UNL     1      -2.486   6.507   6.872  1.00  0.00     0.049 A 
ATOM     51  H   UNL     1      -1.067   7.994   7.212  1.00  0.00     0.167 HD
ATOM     52  C   UNL     1       1.883  11.235   7.729  1.00  0.00     0.031 A 
ATOM     53  C   UNL     1      -2.807   5.992   8.074  1.00  0.00     0.031 A 
ATOM     54  C   UNL     1       1.561  10.787   9.057  1.00  0.00     0.049 A 
ATOM     55  C   UNL     1      -2.157   6.565   9.305  1.00  0.00     0.074 A 
ATOM     56  C   UNL     1       2.039  11.259  10.266  1.00  0.00     0.029 A 
ATOM     57  N   UNL     1       0.680   9.755   9.348  1.00  0.00    -0.354 N 
ATOM     58  N   UNL     1      -1.288   7.545   9.396  1.00  0.00    -0.248 NA
ATOM     59  C   UNL     1      -2.538   5.972  10.593  1.00  0.00     0.031 C 
ATOM     60  C   UNL     1       1.484  10.478  11.287  1.00  0.00     0.029 A 
ATOM     61  C   UNL     1       0.618   9.558  10.716  1.00  0.00     0.049 A 
ATOM     62  H   UNL     1       0.173   9.240   8.680  1.00  0.00     0.167 HD
ATOM     63  C   UNL     1      -1.034   7.701  10.754  1.00  0.00     0.074 A 
ATOM     64  C   UNL     1      -1.853   6.724  11.445  1.00  0.00     0.031 C 
ATOM     65  C   UNL     1      -0.202   8.573  11.376  1.00  0.00     0.031 A 
BRANCH  52  66
ATOM     66  C   UNL     1       2.896  12.336   7.560  1.00  0.00    -0.014 A 
ATOM     67  C   UNL     1       2.511  13.622   7.136  1.00  0.00     0.010 A 
ATOM     68  C   UNL     1       4.250  12.089   7.848  1.00  0.00     0.010 A 
ATOM     69  C   UNL     1       3.468  14.627   6.965  1.00  0.00     0.020 A 
ATOM     70  C   UNL     1       5.206  13.098   7.702  1.00  0.00     0.020 A 
ATOM     71  C   UNL     1       4.811  14.357   7.244  1.00  0.00     0.054 A 
BRANCH  71  72
ATOM     72  S   UNL     1       6.032  15.681   7.024  1.00  0.00     0.124 S 
ATOM     73  O   UNL     1       6.136  15.755   5.569  1.00  0.00    -0.237 OA
ATOM     74  O   UNL     1       5.386  16.823   7.665  1.00  0.00    -0.237 OA
ATOM     75  O   UNL     1       7.219  15.175   7.708  1.00  0.00    -0.744 OA
ENDBRANCH  71  72
ENDBRANCH  52  66
BRANCH  53  76
ATOM     76  C   UNL     1      -3.786   4.876   8.165  1.00  0.00    -0.014 A 
ATOM     77  C   UNL     1      -5.065   5.083   8.709  1.00  0.00     0.010 A 
ATOM     78  C   UNL     1      -3.447   3.599   7.681  1.00  0.00     0.010 A 
ATOM     79  C   UNL     1      -5.982   4.029   8.781  1.00  0.00     0.020 A 
ATOM     80  C   UNL     1      -4.369   2.550   7.728  1.00  0.00     0.020 A 
ATOM     81  C   UNL     1      -5.628   2.769   8.288  1.00  0.00     0.054 A 
BRANCH  81  82
ATOM     82  S   UNL     1      -6.852   1.430   8.341  1.00  0.00     0.124 S 
ATOM     83  O   UNL     1      -6.849   1.073   9.756  1.00  0.00    -0.237 OA
ATOM     84  O   UNL     1      -8.062   2.088   7.856  1.00  0.00    -0.237 OA
ATOM     85  O   UNL     1      -6.295   0.424   7.440  1.00  0.00    -0.744 OA
ENDBRANCH  81  82
ENDBRANCH  53  76
BRANCH  65  86
ATOM     86  C   UNL     1      -0.155   8.525  12.879  1.00  0.00    -0.014 A 
ATOM     87  C   UNL     1       0.497   7.478  13.552  1.00  0.00     0.010 A 
ATOM     88  C   UNL     1      -0.724   9.574  13.624  1.00  0.00     0.010 A 
ATOM     89  C   UNL     1       0.553   7.465  14.947  1.00  0.00     0.020 A 
ATOM     90  C   UNL     1      -0.647   9.578  15.018  1.00  0.00     0.020 A 
ATOM     91  C   UNL     1      -0.020   8.514  15.672  1.00  0.00     0.054 A 
BRANCH  91  92
ATOM     92  S   UNL     1       0.104   8.498  17.481  1.00  0.00     0.124 S 
ATOM     93  O   UNL     1      -0.886   7.487  17.843  1.00  0.00    -0.237 OA
ATOM     94  O   UNL     1       1.498   8.121  17.704  1.00  0.00    -0.237 OA
ATOM     95  O   UNL     1      -0.233   9.867  17.863  1.00  0.00    -0.744 OA
ENDBRANCH  91  92
ENDBRANCH  65  86
ENDBRANCH  39  40
ENDBRANCH  32  34
ENDBRANCH  31  32
ENDBRANCH  30  31
ENDBRANCH  29  30
ENDBRANCH   1  29
TORSDOF 21
