REMARK SMILES O=C(COc1cccc(/C=C2\SC(=O)N(c3cccc(Cl)c3)C2=O)c1)OCCOCCOC(=O)c1ccc(-c2c3nc(c(-c4ccc(S(=O)(=O)[O-])cc4)c4ccc([nH]4)c(-c4ccc(S(=O)(=O)[O-])cc4)c4nc(c(-c5ccc(S(=O)(=O)[O-])cc5)c5ccc2[nH]5)C=C4)C=C3)cc1
REMARK SMILES IDX 28 1 27 2 26 3 2 4 1 5 3 6 4 7 5 8 6 9 25 10 7 11 9 12 8 13
REMARK SMILES IDX 10 14 11 15 12 16 23 17 13 18 15 19 24 20 14 21 16 22 17 23
REMARK SMILES IDX 22 24 18 25 20 26 19 27 21 28 29 29 30 30 31 31 32 32 33 33
REMARK SMILES IDX 34 34 35 35 36 36 94 37 37 38 93 39 38 40 39 41 40 42 87 43
REMARK SMILES IDX 41 44 92 45 86 46 88 47 42 48 91 49 85 50 84 51 43 53 73 54
REMARK SMILES IDX 54 55 72 56 55 57 58 58 71 59 89 60 56 61 57 62 70 64 90 65
REMARK SMILES IDX 59 66 44 67 45 68 53 69 46 70 52 71 47 72 48 73 49 74 50 75
REMARK SMILES IDX 51 76 74 77 75 78 83 79 76 80 82 81 77 82 78 83 79 84 80 85
REMARK SMILES IDX 81 86 60 87 61 88 69 89 62 90 68 91 63 92 64 93 65 94 66 95
REMARK SMILES IDX 67 96
REMARK H PARENT 88 52 58 63
REMARK Flexibility Score: inf
ROOT
ATOM      1  C   UNL     1       4.932   0.497   0.959  1.00  0.00     0.202 C 
ENDROOT
BRANCH   1   2
ATOM      2  C   UNL     1       4.321   0.347  -0.430  1.00  0.00     0.261 C 
BRANCH   2   3
ATOM      3  O   UNL     1       2.887   0.421  -0.408  1.00  0.00    -0.461 OA
BRANCH   3   4
ATOM      4  C   UNL     1       2.083  -0.656  -0.239  1.00  0.00     0.344 C 
ATOM      5  O   UNL     1       0.871  -0.493  -0.087  1.00  0.00    -0.248 OA
BRANCH   4   6
ATOM      6  C   UNL     1       2.695  -2.060  -0.234  1.00  0.00     0.351 C 
BRANCH   6   7
ATOM      7  O   UNL     1       3.650  -2.475  -1.199  1.00  0.00    -0.482 OA
BRANCH   7   8
ATOM      8  C   UNL     1       3.167  -2.557  -2.473  1.00  0.00     0.120 A 
ATOM      9  C   UNL     1       3.520  -3.674  -3.217  1.00  0.00     0.046 A 
ATOM     10  C   UNL     1       2.400  -1.562  -3.064  1.00  0.00     0.054 A 
ATOM     11  C   UNL     1       3.025  -3.825  -4.515  1.00  0.00     0.004 A 
ATOM     12  C   UNL     1       1.901  -1.690  -4.361  1.00  0.00    -0.021 A 
ATOM     13  C   UNL     1       2.196  -2.846  -5.079  1.00  0.00     0.008 A 
BRANCH  12  14
ATOM     14  C   UNL     1       1.014  -0.628  -4.850  1.00  0.00     0.029 C 
ATOM     15  C   UNL     1       1.328   0.676  -4.909  1.00  0.00     0.083 C 
ATOM     16  S   UNL     1       2.868   1.403  -4.675  1.00  0.00    -0.022 SA
ATOM     17  C   UNL     1       0.302   1.720  -5.183  1.00  0.00     0.272 C 
ATOM     18  C   UNL     1       2.251   3.022  -4.964  1.00  0.00     0.298 C 
ATOM     19  N   UNL     1       0.901   2.967  -5.241  1.00  0.00    -0.236 N 
ATOM     20  O   UNL     1      -0.880   1.441  -5.346  1.00  0.00    -0.268 OA
ATOM     21  O   UNL     1       2.967   4.000  -4.842  1.00  0.00    -0.260 OA
BRANCH  19  22
ATOM     22  C   UNL     1       0.165   4.131  -5.583  1.00  0.00     0.054 A 
ATOM     23  C   UNL     1      -1.108   4.365  -5.041  1.00  0.00     0.027 A 
ATOM     24  C   UNL     1       0.679   5.032  -6.526  1.00  0.00     0.047 A 
ATOM     25  C   UNL     1      -1.857   5.477  -5.434  1.00  0.00     0.004 A 
ATOM     26  C   UNL     1      -0.101   6.104  -6.957  1.00  0.00     0.043 A 
ATOM     27  C   UNL     1      -1.359   6.337  -6.409  1.00  0.00     0.020 A 
ATOM     28  Cl  UNL     1       0.458   7.115  -8.226  1.00  0.00    -0.084 Cl
ENDBRANCH  19  22
ENDBRANCH  12  14
ENDBRANCH   7   8
ENDBRANCH   6   7
ENDBRANCH   4   6
ENDBRANCH   3   4
ENDBRANCH   2   3
ENDBRANCH   1   2
BRANCH   1  29
ATOM     29  O   UNL     1       4.457  -0.382   1.975  1.00  0.00    -0.374 OA
BRANCH  29  30
ATOM     30  C   UNL     1       3.243  -0.036   2.649  1.00  0.00     0.202 C 
BRANCH  30  31
ATOM     31  C   UNL     1       3.262   1.096   3.679  1.00  0.00     0.261 C 
BRANCH  31  32
ATOM     32  O   UNL     1       3.528   2.371   3.084  1.00  0.00    -0.460 OA
BRANCH  32  33
ATOM     33  C   UNL     1       4.804   2.800   3.231  1.00  0.00     0.338 C 
ATOM     34  O   UNL     1       5.704   2.240   3.834  1.00  0.00    -0.246 OA
BRANCH  33  35
ATOM     35  C   UNL     1       5.022   3.967   2.357  1.00  0.00     0.060 A 
ATOM     36  C   UNL     1       6.175   3.980   1.558  1.00  0.00     0.016 A 
ATOM     37  C   UNL     1       4.140   5.047   2.365  1.00  0.00     0.016 A 
ATOM     38  C   UNL     1       6.496   5.117   0.825  1.00  0.00     0.010 A 
ATOM     39  C   UNL     1       4.466   6.188   1.638  1.00  0.00     0.010 A 
ATOM     40  C   UNL     1       5.672   6.243   0.915  1.00  0.00    -0.014 A 
BRANCH  40  41
ATOM     41  C   UNL     1       6.167   7.558   0.459  1.00  0.00     0.031 A 
ATOM     42  C   UNL     1       6.698   8.507   1.497  1.00  0.00     0.074 A 
ATOM     43  C   UNL     1       6.118   7.902  -0.838  1.00  0.00     0.049 A 
ATOM     44  N   UNL     1       7.057   9.756   1.374  1.00  0.00    -0.248 NA
ATOM     45  C   UNL     1       6.823   7.975   2.866  1.00  0.00     0.031 C 
ATOM     46  C   UNL     1       5.671   7.036  -1.928  1.00  0.00     0.029 A 
ATOM     47  N   UNL     1       6.430   9.087  -1.450  1.00  0.00    -0.354 N 
ATOM     48  C   UNL     1       7.421  10.168   2.651  1.00  0.00     0.074 A 
ATOM     49  C   UNL     1       7.216   9.046   3.538  1.00  0.00     0.031 C 
ATOM     50  C   UNL     1       5.719   7.728  -3.078  1.00  0.00     0.029 A 
ATOM     51  C   UNL     1       6.155   9.094  -2.795  1.00  0.00     0.049 A 
ATOM     52  H   UNL     1       6.813   9.857  -0.972  1.00  0.00     0.167 HD
ATOM     53  C   UNL     1       7.883  11.377   3.046  1.00  0.00     0.031 A 
ATOM     54  C   UNL     1       6.218  10.103  -3.685  1.00  0.00     0.031 A 
ATOM     55  C   UNL     1       8.066  12.486   2.148  1.00  0.00     0.049 A 
ATOM     56  C   UNL     1       6.674  11.460  -3.214  1.00  0.00     0.074 A 
ATOM     57  C   UNL     1       8.543  13.752   2.429  1.00  0.00     0.029 A 
ATOM     58  N   UNL     1       7.769  12.458   0.792  1.00  0.00    -0.354 N 
ATOM     59  N   UNL     1       7.030  11.840  -2.009  1.00  0.00    -0.248 NA
ATOM     60  C   UNL     1       6.745  12.524  -4.225  1.00  0.00     0.031 C 
ATOM     61  C   UNL     1       8.475  14.511   1.256  1.00  0.00     0.029 A 
ATOM     62  C   UNL     1       8.029  13.694   0.227  1.00  0.00     0.049 A 
ATOM     63  H   UNL     1       7.425  11.675   0.304  1.00  0.00     0.167 HD
ATOM     64  C   UNL     1       7.404  13.175  -2.124  1.00  0.00     0.074 A 
ATOM     65  C   UNL     1       7.234  13.534  -3.518  1.00  0.00     0.031 C 
ATOM     66  C   UNL     1       7.856  14.025  -1.167  1.00  0.00     0.031 A 
BRANCH  53  67
ATOM     67  C   UNL     1       8.170  11.569   4.513  1.00  0.00    -0.014 A 
ATOM     68  C   UNL     1       9.228  10.897   5.151  1.00  0.00     0.010 A 
ATOM     69  C   UNL     1       7.369  12.448   5.265  1.00  0.00     0.010 A 
ATOM     70  C   UNL     1       9.448  11.060   6.522  1.00  0.00     0.020 A 
ATOM     71  C   UNL     1       7.606  12.641   6.629  1.00  0.00     0.020 A 
ATOM     72  C   UNL     1       8.632  11.929   7.253  1.00  0.00     0.054 A 
BRANCH  72  73
ATOM     73  S   UNL     1       8.945  12.129   9.028  1.00  0.00     0.124 S 
ATOM     74  O   UNL     1       8.494  10.845   9.560  1.00  0.00    -0.237 OA
ATOM     75  O   UNL     1      10.387  12.356   9.075  1.00  0.00    -0.237 OA
ATOM     76  O   UNL     1       8.124  13.278   9.400  1.00  0.00    -0.744 OA
ENDBRANCH  72  73
ENDBRANCH  53  67
BRANCH  54  77
ATOM     77  C   UNL     1       5.843   9.859  -5.105  1.00  0.00    -0.014 A 
ATOM     78  C   UNL     1       6.826   9.869  -6.109  1.00  0.00     0.010 A 
ATOM     79  C   UNL     1       4.509   9.581  -5.458  1.00  0.00     0.010 A 
ATOM     80  C   UNL     1       6.481   9.617  -7.439  1.00  0.00     0.020 A 
ATOM     81  C   UNL     1       4.165   9.298  -6.784  1.00  0.00     0.020 A 
ATOM     82  C   UNL     1       5.154   9.326  -7.768  1.00  0.00     0.054 A 
BRANCH  82  83
ATOM     83  S   UNL     1       4.757   8.947  -9.497  1.00  0.00     0.124 S 
ATOM     84  O   UNL     1       4.949  10.241 -10.145  1.00  0.00    -0.237 OA
ATOM     85  O   UNL     1       5.745   7.922  -9.827  1.00  0.00    -0.237 OA
ATOM     86  O   UNL     1       3.377   8.475  -9.440  1.00  0.00    -0.744 OA
ENDBRANCH  82  83
ENDBRANCH  54  77
BRANCH  66  87
ATOM     87  C   UNL     1       8.256  15.412  -1.598  1.00  0.00    -0.014 A 
ATOM     88  C   UNL     1       7.300  16.372  -1.971  1.00  0.00     0.010 A 
ATOM     89  C   UNL     1       9.614  15.780  -1.549  1.00  0.00     0.010 A 
ATOM     90  C   UNL     1       7.699  17.668  -2.312  1.00  0.00     0.020 A 
ATOM     91  C   UNL     1      10.013  17.082  -1.857  1.00  0.00     0.020 A 
ATOM     92  C   UNL     1       9.053  18.015  -2.248  1.00  0.00     0.054 A 
BRANCH  92  93
ATOM     93  S   UNL     1       9.536  19.720  -2.637  1.00  0.00     0.124 S 
ATOM     94  O   UNL     1       9.342  19.768  -4.084  1.00  0.00    -0.237 OA
ATOM     95  O   UNL     1       8.591  20.507  -1.849  1.00  0.00    -0.237 OA
ATOM     96  O   UNL     1      10.926  19.797  -2.193  1.00  0.00    -0.744 OA
ENDBRANCH  92  93
ENDBRANCH  66  87
ENDBRANCH  40  41
ENDBRANCH  33  35
ENDBRANCH  32  33
ENDBRANCH  31  32
ENDBRANCH  30  31
ENDBRANCH  29  30
ENDBRANCH   1  29
TORSDOF 21
