REMARK SMILES COc1ccc(NC(=O)c2nn(C)cc2C(=O)OCCOCCOC(=O)c2ccc(-c3c4nc(c(-c5ccc(S(=O)(=O)[O-])cc5)c5ccc([nH]5)c(-c5ccc(S(=O)(=O)[O-])cc5)c5nc(c(-c6ccc(S(=O)(=O)[O-])cc6)c6ccc3[nH]6)C=C5)C=C4)cc2)c(C)c1
REMARK SMILES IDX 21 1 20 2 19 3 18 4 16 5 17 6 15 7 10 8 11 9 12 10 14 11
REMARK SMILES IDX 13 12 8 13 7 14 9 16 6 17 3 18 4 19 89 20 5 21 87 22 88 23
REMARK SMILES IDX 2 24 1 25 22 26 23 27 24 28 25 29 26 30 27 31 28 32 86 33
REMARK SMILES IDX 29 34 85 35 30 36 31 37 32 38 79 39 33 40 84 41 78 42 80 43
REMARK SMILES IDX 34 44 83 45 77 46 76 47 35 49 65 50 46 51 64 52 47 53 50 54
REMARK SMILES IDX 63 55 81 56 48 57 49 58 62 60 82 61 51 62 36 63 37 64 45 65
REMARK SMILES IDX 38 66 44 67 39 68 40 69 41 70 42 71 43 72 66 73 67 74 75 75
REMARK SMILES IDX 68 76 74 77 69 78 70 79 71 80 72 81 73 82 52 83 53 84 61 85
REMARK SMILES IDX 54 86 60 87 55 88 56 89 57 90 58 91 59 92
REMARK H PARENT 7 15 80 48 50 59
REMARK Flexibility Score: inf
ROOT
ATOM      1  O   UNL     1       1.948   3.079   1.893  1.00  0.00    -0.374 OA
ENDROOT
BRANCH   1   2
ATOM      2  C   UNL     1       2.605   2.160   1.048  1.00  0.00     0.202 C 
BRANCH   2   3
ATOM      3  C   UNL     1       4.089   2.290   1.260  1.00  0.00     0.261 C 
BRANCH   3   4
ATOM      4  O   UNL     1       4.617   1.803   2.519  1.00  0.00    -0.460 OA
BRANCH   4   5
ATOM      5  C   UNL     1       4.123   1.925   3.783  1.00  0.00     0.342 C 
ATOM      6  O   UNL     1       3.209   2.616   4.168  1.00  0.00    -0.246 OA
BRANCH   5   7
ATOM      7  C   UNL     1       4.818   0.974   4.632  1.00  0.00     0.111 A 
ATOM      8  C   UNL     1       4.450   0.407   5.888  1.00  0.00     0.165 A 
ATOM      9  N   UNL     1       5.308  -0.584   6.230  1.00  0.00    -0.167 NA
ATOM     10  N   UNL     1       6.198  -0.614   5.228  1.00  0.00    -0.274 N 
ATOM     11  C   UNL     1       6.001   0.344   4.295  1.00  0.00     0.125 A 
ATOM     12  C   UNL     1       7.148  -1.694   5.131  1.00  0.00     0.173 C 
BRANCH   8  13
ATOM     13  C   UNL     1       3.304   0.723   6.748  1.00  0.00     0.277 C 
ATOM     14  N   UNL     1       1.999   0.556   6.324  1.00  0.00    -0.320 N 
ATOM     15  H   UNL     1       1.342   0.955   6.938  1.00  0.00     0.170 HD
ATOM     16  O   UNL     1       3.463   1.151   7.895  1.00  0.00    -0.267 OA
BRANCH  14  17
ATOM     17  C   UNL     1       1.403  -0.060   5.206  1.00  0.00     0.044 A 
ATOM     18  C   UNL     1       0.252  -1.048   2.823  1.00  0.00     0.119 A 
ATOM     19  C   UNL     1       1.562  -1.368   3.147  1.00  0.00     0.048 A 
ATOM     20  C   UNL     1      -0.527  -0.352   3.747  1.00  0.00     0.052 A 
ATOM     21  C   UNL     1       2.117  -0.901   4.343  1.00  0.00     0.030 A 
ATOM     22  C   UNL     1       0.035   0.173   4.933  1.00  0.00    -0.024 A 
ATOM     23  C   UNL     1      -0.846   1.102   5.732  1.00  0.00     0.047 C 
BRANCH  18  24
ATOM     24  O   UNL     1      -0.343  -1.359   1.633  1.00  0.00    -0.497 OA
ATOM     25  C   UNL     1       0.486  -1.171   0.481  1.00  0.00     0.278 C 
ENDBRANCH  18  24
ENDBRANCH  14  17
ENDBRANCH   8  13
ENDBRANCH   5   7
ENDBRANCH   4   5
ENDBRANCH   3   4
ENDBRANCH   2   3
ENDBRANCH   1   2
BRANCH   1  26
ATOM     26  C   UNL     1       0.789   2.562   2.502  1.00  0.00     0.202 C 
BRANCH  26  27
ATOM     27  C   UNL     1      -0.419   2.439   1.582  1.00  0.00     0.261 C 
BRANCH  27  28
ATOM     28  O   UNL     1      -0.823   3.456   0.611  1.00  0.00    -0.460 OA
BRANCH  28  29
ATOM     29  C   UNL     1      -0.362   4.667   0.215  1.00  0.00     0.338 C 
ATOM     30  O   UNL     1      -0.773   5.204  -0.807  1.00  0.00    -0.246 OA
BRANCH  29  31
ATOM     31  C   UNL     1       0.553   5.394   1.097  1.00  0.00     0.060 A 
ATOM     32  C   UNL     1       1.772   5.897   0.618  1.00  0.00     0.016 A 
ATOM     33  C   UNL     1       0.235   5.443   2.444  1.00  0.00     0.016 A 
ATOM     34  C   UNL     1       2.756   6.302   1.529  1.00  0.00     0.010 A 
ATOM     35  C   UNL     1       1.263   5.692   3.328  1.00  0.00     0.010 A 
ATOM     36  C   UNL     1       2.525   6.133   2.895  1.00  0.00    -0.014 A 
BRANCH  36  37
ATOM     37  C   UNL     1       3.530   6.273   3.956  1.00  0.00     0.031 A 
ATOM     38  C   UNL     1       3.250   7.122   5.134  1.00  0.00     0.074 A 
ATOM     39  C   UNL     1       4.641   5.503   3.984  1.00  0.00     0.049 A 
ATOM     40  N   UNL     1       4.172   7.578   5.911  1.00  0.00    -0.248 NA
ATOM     41  C   UNL     1       1.921   7.590   5.519  1.00  0.00     0.031 C 
ATOM     42  C   UNL     1       5.469   5.142   5.131  1.00  0.00     0.029 A 
ATOM     43  N   UNL     1       5.244   4.843   2.926  1.00  0.00    -0.354 N 
ATOM     44  C   UNL     1       3.558   8.036   7.051  1.00  0.00     0.074 A 
ATOM     45  C   UNL     1       2.171   8.167   6.693  1.00  0.00     0.031 C 
ATOM     46  C   UNL     1       6.552   4.467   4.709  1.00  0.00     0.029 A 
ATOM     47  C   UNL     1       6.556   4.476   3.253  1.00  0.00     0.049 A 
ATOM     48  H   UNL     1       4.809   4.656   2.062  1.00  0.00     0.167 HD
ATOM     49  C   UNL     1       4.274   8.092   8.209  1.00  0.00     0.031 A 
ATOM     50  C   UNL     1       7.610   4.866   2.475  1.00  0.00     0.031 A 
ATOM     51  C   UNL     1       5.687   7.741   7.984  1.00  0.00     0.049 A 
ATOM     52  C   UNL     1       8.393   5.965   3.164  1.00  0.00     0.074 A 
ATOM     53  C   UNL     1       6.468   6.660   8.358  1.00  0.00     0.029 A 
ATOM     54  N   UNL     1       6.420   8.426   7.011  1.00  0.00    -0.354 N 
ATOM     55  N   UNL     1       7.947   6.563   4.234  1.00  0.00    -0.248 NA
ATOM     56  C   UNL     1       9.703   6.474   2.767  1.00  0.00     0.031 C 
ATOM     57  C   UNL     1       7.638   6.660   7.546  1.00  0.00     0.029 A 
ATOM     58  C   UNL     1       7.594   7.762   6.707  1.00  0.00     0.049 A 
ATOM     59  H   UNL     1       6.136   9.272   6.595  1.00  0.00     0.167 HD
ATOM     60  C   UNL     1       8.818   7.516   4.649  1.00  0.00     0.074 A 
ATOM     61  C   UNL     1       9.911   7.430   3.696  1.00  0.00     0.031 C 
ATOM     62  C   UNL     1       8.536   8.304   5.725  1.00  0.00     0.031 A 
BRANCH  49  63
ATOM     63  C   UNL     1       3.647   8.233   9.586  1.00  0.00    -0.014 A 
ATOM     64  C   UNL     1       4.434   8.053  10.741  1.00  0.00     0.010 A 
ATOM     65  C   UNL     1       2.283   8.502   9.825  1.00  0.00     0.010 A 
ATOM     66  C   UNL     1       3.890   8.121  12.039  1.00  0.00     0.020 A 
ATOM     67  C   UNL     1       1.723   8.570  11.107  1.00  0.00     0.020 A 
ATOM     68  C   UNL     1       2.533   8.383  12.213  1.00  0.00     0.054 A 
BRANCH  68  69
ATOM     69  S   UNL     1       1.837   8.508  13.878  1.00  0.00     0.124 S 
ATOM     70  O   UNL     1       2.120   7.191  14.440  1.00  0.00    -0.237 OA
ATOM     71  O   UNL     1       2.595   9.617  14.451  1.00  0.00    -0.237 OA
ATOM     72  O   UNL     1       0.420   8.785  13.644  1.00  0.00    -0.744 OA
ENDBRANCH  68  69
ENDBRANCH  49  63
BRANCH  50  73
ATOM     73  C   UNL     1       7.390   4.673   1.006  1.00  0.00    -0.014 A 
ATOM     74  C   UNL     1       7.586   3.370   0.489  1.00  0.00     0.010 A 
ATOM     75  C   UNL     1       6.583   5.558   0.269  1.00  0.00     0.010 A 
ATOM     76  C   UNL     1       6.872   2.916  -0.632  1.00  0.00     0.020 A 
ATOM     77  C   UNL     1       5.844   5.099  -0.839  1.00  0.00     0.020 A 
ATOM     78  C   UNL     1       5.954   3.766  -1.252  1.00  0.00     0.054 A 
BRANCH  78  79
ATOM     79  S   UNL     1       4.665   3.045  -2.341  1.00  0.00     0.124 S 
ATOM     80  O   UNL     1       5.295   3.094  -3.654  1.00  0.00    -0.237 OA
ATOM     81  O   UNL     1       4.472   1.703  -1.791  1.00  0.00    -0.237 OA
ATOM     82  O   UNL     1       3.528   3.938  -2.135  1.00  0.00    -0.744 OA
ENDBRANCH  78  79
ENDBRANCH  50  73
BRANCH  62  83
ATOM     83  C   UNL     1       9.182   9.636   5.982  1.00  0.00    -0.014 A 
ATOM     84  C   UNL     1       9.829  10.383   4.985  1.00  0.00     0.010 A 
ATOM     85  C   UNL     1       9.006  10.253   7.242  1.00  0.00     0.010 A 
ATOM     86  C   UNL     1      10.352  11.651   5.256  1.00  0.00     0.020 A 
ATOM     87  C   UNL     1       9.473  11.540   7.506  1.00  0.00     0.020 A 
ATOM     88  C   UNL     1      10.180  12.216   6.519  1.00  0.00     0.054 A 
BRANCH  88  89
ATOM     89  S   UNL     1      10.860  13.856   6.853  1.00  0.00     0.124 S 
ATOM     90  O   UNL     1      12.252  13.540   7.163  1.00  0.00    -0.237 OA
ATOM     91  O   UNL     1      10.643  14.562   5.593  1.00  0.00    -0.237 OA
ATOM     92  O   UNL     1      10.060  14.339   7.976  1.00  0.00    -0.744 OA
ENDBRANCH  88  89
ENDBRANCH  62  83
ENDBRANCH  36  37
ENDBRANCH  29  31
ENDBRANCH  28  29
ENDBRANCH  27  28
ENDBRANCH  26  27
ENDBRANCH   1  26
TORSDOF 20
