REMARK SMILES NS(=O)(=O)c1ccc(-n2nc(C(F)(F)F)cc2-c2ccc(C(=O)OCCOCCOC(=O)c3ccc(-c4c5nc(c(-c6ccc(S(=O)(=O)[O-])cc6)c6ccc([nH]6)c(-c6ccc(S(=O)(=O)[O-])cc6)c6nc(c(-c7ccc(S(=O)(=O)[O-])cc7)c7ccc4[nH]7)C=C6)C=C5)cc3)cc2)cc1
REMARK SMILES IDX 26 1 25 2 24 3 22 4 23 5 21 6 18 7 19 8 94 9 20 10 93 11
REMARK SMILES IDX 17 12 9 13 10 14 11 15 16 16 8 17 5 18 6 19 96 20 7 21 95 22
REMARK SMILES IDX 2 23 3 24 4 25 1 26 12 29 13 30 14 31 15 32 27 33 28 34
REMARK SMILES IDX 29 35 30 36 31 37 32 38 33 39 34 40 92 41 35 42 91 43 36 44
REMARK SMILES IDX 37 45 38 46 85 47 39 48 90 49 84 50 86 51 40 52 89 53 83 54
REMARK SMILES IDX 82 55 41 57 71 58 52 59 70 60 53 61 56 62 69 63 87 64 54 65
REMARK SMILES IDX 55 66 68 68 88 69 57 70 42 71 43 72 51 73 44 74 50 75 45 76
REMARK SMILES IDX 46 77 47 78 48 79 49 80 72 81 73 82 81 83 74 84 80 85 75 86
REMARK SMILES IDX 76 87 77 88 78 89 79 90 58 91 59 92 67 93 60 94 66 95 61 96
REMARK SMILES IDX 62 97 63 98 64 99 65 100
REMARK H PARENT 1 27 1 28 86 56 56 67
REMARK Flexibility Score: inf
ROOT
ATOM      1  C   UNL     1      -6.704  -4.668  -3.790  1.00  0.00     0.202 C 
ENDROOT
BRANCH   1   2
ATOM      2  C   UNL     1      -6.069  -5.763  -4.647  1.00  0.00     0.261 C 
BRANCH   2   3
ATOM      3  O   UNL     1      -4.840  -6.256  -4.093  1.00  0.00    -0.460 OA
BRANCH   3   4
ATOM      4  C   UNL     1      -3.734  -5.870  -4.771  1.00  0.00     0.338 C 
ATOM      5  O   UNL     1      -3.694  -5.217  -5.802  1.00  0.00    -0.246 OA
BRANCH   4   6
ATOM      6  C   UNL     1      -2.513  -6.208  -4.011  1.00  0.00     0.060 A 
ATOM      7  C   UNL     1      -0.047  -6.834  -2.850  1.00  0.00     0.000 A 
ATOM      8  C   UNL     1      -0.233  -5.604  -3.498  1.00  0.00     0.011 A 
ATOM      9  C   UNL     1      -1.127  -7.721  -2.736  1.00  0.00     0.011 A 
ATOM     10  C   UNL     1      -1.459  -5.292  -4.074  1.00  0.00     0.016 A 
ATOM     11  C   UNL     1      -2.366  -7.405  -3.306  1.00  0.00     0.016 A 
BRANCH   7  12
ATOM     12  C   UNL     1       1.294  -7.221  -2.413  1.00  0.00     0.075 A 
ATOM     13  N   UNL     1       2.177  -6.423  -1.696  1.00  0.00    -0.233 N 
ATOM     14  N   UNL     1       3.458  -6.859  -1.808  1.00  0.00    -0.163 NA
ATOM     15  C   UNL     1       3.359  -8.073  -2.388  1.00  0.00     0.167 A 
ATOM     16  C   UNL     1       2.028  -8.324  -2.800  1.00  0.00     0.064 A 
BRANCH  13  17
ATOM     17  C   UNL     1       1.868  -5.238  -0.982  1.00  0.00     0.065 A 
ATOM     18  C   UNL     1       1.132  -2.845   0.228  1.00  0.00     0.082 A 
ATOM     19  C   UNL     1       0.327  -3.976   0.393  1.00  0.00     0.024 A 
ATOM     20  C   UNL     1       2.315  -2.909  -0.517  1.00  0.00     0.024 A 
ATOM     21  C   UNL     1       0.691  -5.173  -0.221  1.00  0.00     0.030 A 
ATOM     22  C   UNL     1       2.702  -4.119  -1.101  1.00  0.00     0.030 A 
BRANCH  18  23
ATOM     23  S   UNL     1       0.590  -1.327   0.952  1.00  0.00     0.238 S 
ATOM     24  O   UNL     1       1.247  -1.166   2.231  1.00  0.00    -0.207 OA
ATOM     25  O   UNL     1      -0.835  -1.214   0.773  1.00  0.00    -0.207 OA
BRANCH  23  26
ATOM     26  N   UNL     1       1.240  -0.134  -0.044  1.00  0.00    -0.225 NA
ATOM     27  H   UNL     1       0.972   0.785   0.307  1.00  0.00     0.137 HD
ATOM     28  H   UNL     1       0.885  -0.253  -0.993  1.00  0.00     0.137 HD
ENDBRANCH  23  26
ENDBRANCH  18  23
ENDBRANCH  13  17
BRANCH  15  29
ATOM     29  C   UNL     1       4.532  -8.990  -2.609  1.00  0.00     0.435 C 
ATOM     30  F   UNL     1       5.641  -8.344  -3.057  1.00  0.00    -0.164 F 
ATOM     31  F   UNL     1       4.884  -9.657  -1.479  1.00  0.00    -0.164 F 
ATOM     32  F   UNL     1       4.248  -9.946  -3.541  1.00  0.00    -0.164 F 
ENDBRANCH  15  29
ENDBRANCH   7  12
ENDBRANCH   4   6
ENDBRANCH   3   4
ENDBRANCH   2   3
ENDBRANCH   1   2
BRANCH   1  33
ATOM     33  O   UNL     1      -5.980  -3.453  -3.603  1.00  0.00    -0.374 OA
BRANCH  33  34
ATOM     34  C   UNL     1      -4.820  -3.439  -2.777  1.00  0.00     0.202 C 
BRANCH  34  35
ATOM     35  C   UNL     1      -4.984  -3.638  -1.278  1.00  0.00     0.261 C 
BRANCH  35  36
ATOM     36  O   UNL     1      -5.598  -4.875  -0.956  1.00  0.00    -0.460 OA
BRANCH  36  37
ATOM     37  C   UNL     1      -6.897  -4.749  -0.595  1.00  0.00     0.338 C 
ATOM     38  O   UNL     1      -7.654  -3.835  -0.875  1.00  0.00    -0.246 OA
BRANCH  37  39
ATOM     39  C   UNL     1      -7.218  -5.811   0.359  1.00  0.00     0.060 A 
ATOM     40  C   UNL     1      -8.499  -5.778   0.913  1.00  0.00     0.016 A 
ATOM     41  C   UNL     1      -6.183  -6.581   0.908  1.00  0.00     0.016 A 
ATOM     42  C   UNL     1      -8.682  -6.345   2.152  1.00  0.00     0.010 A 
ATOM     43  C   UNL     1      -6.359  -7.119   2.156  1.00  0.00     0.010 A 
ATOM     44  C   UNL     1      -7.582  -6.924   2.793  1.00  0.00    -0.014 A 
BRANCH  44  45
ATOM     45  C   UNL     1      -7.782  -7.508   4.099  1.00  0.00     0.031 A 
ATOM     46  C   UNL     1      -8.505  -8.792   3.987  1.00  0.00     0.074 A 
ATOM     47  C   UNL     1      -7.249  -6.992   5.222  1.00  0.00     0.049 A 
ATOM     48  N   UNL     1      -9.762  -8.999   4.206  1.00  0.00    -0.248 NA
ATOM     49  C   UNL     1      -7.831  -9.895   3.275  1.00  0.00     0.031 C 
ATOM     50  C   UNL     1      -6.308  -5.874   5.338  1.00  0.00     0.029 A 
ATOM     51  N   UNL     1      -7.349  -7.435   6.503  1.00  0.00    -0.354 N 
ATOM     52  C   UNL     1      -9.937 -10.354   3.963  1.00  0.00     0.074 A 
ATOM     53  C   UNL     1      -8.846 -10.745   3.110  1.00  0.00     0.031 C 
ATOM     54  C   UNL     1      -5.743  -5.894   6.568  1.00  0.00     0.029 A 
ATOM     55  C   UNL     1      -6.370  -6.940   7.360  1.00  0.00     0.049 A 
ATOM     56  H   UNL     1      -8.055  -8.054   6.799  1.00  0.00     0.167 HD
ATOM     57  C   UNL     1     -10.671 -11.109   4.827  1.00  0.00     0.031 A 
ATOM     58  C   UNL     1      -6.060  -7.414   8.597  1.00  0.00     0.031 A 
ATOM     59  C   UNL     1     -11.517 -10.276   5.654  1.00  0.00     0.049 A 
ATOM     60  C   UNL     1      -7.227  -8.205   9.061  1.00  0.00     0.074 A 
ATOM     61  C   UNL     1     -12.483  -9.316   5.424  1.00  0.00     0.029 A 
ATOM     62  N   UNL     1     -11.100 -10.099   6.952  1.00  0.00    -0.354 N 
ATOM     63  N   UNL     1      -8.388  -7.676   9.329  1.00  0.00    -0.248 NA
ATOM     64  C   UNL     1      -7.245  -9.632   8.779  1.00  0.00     0.031 C 
ATOM     65  C   UNL     1     -12.311  -8.352   6.462  1.00  0.00     0.029 A 
ATOM     66  C   UNL     1     -11.306  -8.800   7.321  1.00  0.00     0.049 A 
ATOM     67  H   UNL     1     -10.713 -10.799   7.526  1.00  0.00     0.167 HD
ATOM     68  C   UNL     1      -9.312  -8.569   8.805  1.00  0.00     0.074 A 
ATOM     69  C   UNL     1      -8.556  -9.803   8.585  1.00  0.00     0.031 C 
ATOM     70  C   UNL     1     -10.514  -8.125   8.329  1.00  0.00     0.031 A 
BRANCH  57  71
ATOM     71  C   UNL     1     -10.199 -12.476   5.303  1.00  0.00    -0.014 A 
ATOM     72  C   UNL     1     -10.959 -13.129   6.294  1.00  0.00     0.010 A 
ATOM     73  C   UNL     1      -8.904 -12.987   5.065  1.00  0.00     0.010 A 
ATOM     74  C   UNL     1     -10.403 -14.139   7.089  1.00  0.00     0.020 A 
ATOM     75  C   UNL     1      -8.355 -14.022   5.820  1.00  0.00     0.020 A 
ATOM     76  C   UNL     1      -9.096 -14.564   6.856  1.00  0.00     0.054 A 
BRANCH  76  77
ATOM     77  S   UNL     1      -8.350 -15.793   7.947  1.00  0.00     0.124 S 
ATOM     78  O   UNL     1      -8.275 -15.062   9.207  1.00  0.00    -0.237 OA
ATOM     79  O   UNL     1      -9.326 -16.878   7.893  1.00  0.00    -0.237 OA
ATOM     80  O   UNL     1      -7.068 -16.081   7.307  1.00  0.00    -0.744 OA
ENDBRANCH  76  77
ENDBRANCH  57  71
BRANCH  58  81
ATOM     81  C   UNL     1      -4.724  -7.516   9.248  1.00  0.00    -0.014 A 
ATOM     82  C   UNL     1      -4.600  -7.915  10.596  1.00  0.00     0.010 A 
ATOM     83  C   UNL     1      -3.552  -7.507   8.467  1.00  0.00     0.010 A 
ATOM     84  C   UNL     1      -3.368  -8.356  11.116  1.00  0.00     0.020 A 
ATOM     85  C   UNL     1      -2.320  -7.936   8.980  1.00  0.00     0.020 A 
ATOM     86  C   UNL     1      -2.239  -8.385  10.296  1.00  0.00     0.054 A 
BRANCH  86  87
ATOM     87  S   UNL     1      -0.695  -9.129  10.908  1.00  0.00     0.124 S 
ATOM     88  O   UNL     1      -0.239  -8.145  11.885  1.00  0.00    -0.237 OA
ATOM     89  O   UNL     1      -1.148 -10.403  11.458  1.00  0.00    -0.237 OA
ATOM     90  O   UNL     1       0.134  -9.238   9.707  1.00  0.00    -0.744 OA
ENDBRANCH  86  87
ENDBRANCH  58  81
BRANCH  70  91
ATOM     91  C   UNL     1     -10.984  -6.751   8.742  1.00  0.00    -0.014 A 
ATOM     92  C   UNL     1     -10.310  -5.549   8.450  1.00  0.00     0.010 A 
ATOM     93  C   UNL     1     -12.242  -6.680   9.366  1.00  0.00     0.010 A 
ATOM     94  C   UNL     1     -10.869  -4.312   8.812  1.00  0.00     0.020 A 
ATOM     95  C   UNL     1     -12.811  -5.455   9.709  1.00  0.00     0.020 A 
ATOM     96  C   UNL     1     -12.116  -4.276   9.444  1.00  0.00     0.054 A 
BRANCH  96  97
ATOM     97  S   UNL     1     -12.846  -2.680   9.905  1.00  0.00     0.124 S 
ATOM     98  O   UNL     1     -11.946  -2.209  10.954  1.00  0.00    -0.237 OA
ATOM     99  O   UNL     1     -12.801  -1.929   8.652  1.00  0.00    -0.237 OA
ATOM    100  O   UNL     1     -14.192  -3.030  10.358  1.00  0.00    -0.744 OA
ENDBRANCH  96  97
ENDBRANCH  70  91
ENDBRANCH  44  45
ENDBRANCH  37  39
ENDBRANCH  36  37
ENDBRANCH  35  36
ENDBRANCH  34  35
ENDBRANCH  33  34
ENDBRANCH   1  33
TORSDOF 22
