REMARK SMILES C/C(C(=O)OCCOCCOC(=O)c1ccc(-c2c3nc(c(-c4ccc(S(=O)(=O)[O-])cc4)c4ccc([nH]4)c(-c4ccc(S(=O)(=O)[O-])cc4)c4nc(c(-c5ccc(S(=O)(=O)[O-])cc5)c5ccc2[nH]5)C=C4)C=C3)cc1)=C(\C)c1ccc(C)c(F)c1
REMARK SMILES IDX 9 1 8 2 7 3 6 4 5 5 3 6 4 7 2 8 1 9 74 10 75 11 76 12 77 13
REMARK SMILES IDX 83 14 78 15 81 16 79 17 82 18 80 19 10 20 11 21 12 22 13 23
REMARK SMILES IDX 14 24 15 25 73 26 16 27 72 28 17 29 18 30 19 31 66 32 20 33
REMARK SMILES IDX 71 34 65 35 67 36 21 37 70 38 64 39 63 40 22 42 52 43 33 44
REMARK SMILES IDX 51 45 34 46 37 47 50 48 68 49 35 50 36 51 49 53 69 54 38 55
REMARK SMILES IDX 23 56 24 57 32 58 25 59 31 60 26 61 27 62 28 63 29 64 30 65
REMARK SMILES IDX 53 66 54 67 62 68 55 69 61 70 56 71 57 72 58 73 59 74 60 75
REMARK SMILES IDX 39 76 40 77 48 78 41 79 47 80 42 81 43 82 44 83 45 84 46 85
REMARK H PARENT 67 41 37 52
REMARK Flexibility Score: inf
ROOT
ATOM      1  C   UNL     1      -2.886  -2.718   0.703  1.00  0.00     0.202 C 
ENDROOT
BRANCH   1   2
ATOM      2  O   UNL     1      -3.115  -2.993   2.079  1.00  0.00    -0.374 OA
BRANCH   2   3
ATOM      3  C   UNL     1      -2.351  -2.256   3.038  1.00  0.00     0.202 C 
BRANCH   3   4
ATOM      4  C   UNL     1      -0.829  -2.405   2.981  1.00  0.00     0.261 C 
BRANCH   4   5
ATOM      5  O   UNL     1      -0.305  -1.704   1.836  1.00  0.00    -0.460 OA
BRANCH   5   6
ATOM      6  C   UNL     1       0.628  -2.370   1.109  1.00  0.00     0.334 C 
ATOM      7  O   UNL     1       1.117  -3.454   1.383  1.00  0.00    -0.247 OA
BRANCH   6   8
ATOM      8  C   UNL     1       0.978  -1.578  -0.110  1.00  0.00     0.038 C 
ATOM      9  C   UNL     1       1.263  -0.120   0.123  1.00  0.00     0.052 C 
ATOM     10  C   UNL     1       1.054  -2.172  -1.328  1.00  0.00    -0.034 C 
ATOM     11  C   UNL     1       1.586  -1.502  -2.568  1.00  0.00     0.045 C 
BRANCH  10  12
ATOM     12  C   UNL     1       0.564  -3.545  -1.582  1.00  0.00    -0.019 A 
ATOM     13  C   UNL     1       1.418  -4.652  -1.591  1.00  0.00     0.009 A 
ATOM     14  C   UNL     1      -0.800  -3.744  -1.820  1.00  0.00     0.048 A 
ATOM     15  C   UNL     1       0.902  -5.944  -1.762  1.00  0.00     0.007 A 
ATOM     16  C   UNL     1      -1.308  -5.031  -1.960  1.00  0.00     0.126 A 
ATOM     17  C   UNL     1      -0.477  -6.148  -1.905  1.00  0.00    -0.015 A 
ATOM     18  F   UNL     1      -2.630  -5.184  -2.132  1.00  0.00    -0.207 F 
ATOM     19  C   UNL     1      -1.047  -7.528  -2.032  1.00  0.00     0.047 C 
ENDBRANCH  10  12
ENDBRANCH   6   8
ENDBRANCH   5   6
ENDBRANCH   4   5
ENDBRANCH   3   4
ENDBRANCH   2   3
ENDBRANCH   1   2
BRANCH   1  20
ATOM     20  C   UNL     1      -3.493  -1.443   0.095  1.00  0.00     0.261 C 
BRANCH  20  21
ATOM     21  O   UNL     1      -3.601  -0.350   1.006  1.00  0.00    -0.460 OA
BRANCH  21  22
ATOM     22  C   UNL     1      -4.771  -0.345   1.689  1.00  0.00     0.338 C 
ATOM     23  O   UNL     1      -5.729  -1.089   1.528  1.00  0.00    -0.246 OA
BRANCH  22  24
ATOM     24  C   UNL     1      -4.678   0.613   2.798  1.00  0.00     0.060 A 
ATOM     25  C   UNL     1      -4.935   0.131   4.085  1.00  0.00     0.016 A 
ATOM     26  C   UNL     1      -4.390   1.962   2.577  1.00  0.00     0.016 A 
ATOM     27  C   UNL     1      -4.963   1.015   5.156  1.00  0.00     0.010 A 
ATOM     28  C   UNL     1      -4.420   2.849   3.656  1.00  0.00     0.010 A 
ATOM     29  C   UNL     1      -4.748   2.383   4.941  1.00  0.00    -0.014 A 
BRANCH  29  30
ATOM     30  C   UNL     1      -5.013   3.325   6.052  1.00  0.00     0.031 A 
ATOM     31  C   UNL     1      -6.311   4.085   6.071  1.00  0.00     0.074 A 
ATOM     32  C   UNL     1      -4.139   3.432   7.068  1.00  0.00     0.049 A 
ATOM     33  N   UNL     1      -6.787   4.885   6.989  1.00  0.00    -0.248 NA
ATOM     34  C   UNL     1      -7.191   3.921   4.901  1.00  0.00     0.031 C 
ATOM     35  C   UNL     1      -2.864   2.720   7.164  1.00  0.00     0.029 A 
ATOM     36  N   UNL     1      -4.203   4.166   8.224  1.00  0.00    -0.354 N 
ATOM     37  C   UNL     1      -8.020   5.316   6.512  1.00  0.00     0.074 A 
ATOM     38  C   UNL     1      -8.199   4.725   5.205  1.00  0.00     0.031 C 
ATOM     39  C   UNL     1      -2.273   3.039   8.328  1.00  0.00     0.029 A 
ATOM     40  C   UNL     1      -3.114   3.995   9.045  1.00  0.00     0.049 A 
ATOM     41  H   UNL     1      -4.957   4.759   8.445  1.00  0.00     0.167 HD
ATOM     42  C   UNL     1      -8.926   6.122   7.116  1.00  0.00     0.031 A 
ATOM     43  C   UNL     1      -2.830   4.548  10.240  1.00  0.00     0.031 A 
ATOM     44  C   UNL     1      -8.730   6.718   8.412  1.00  0.00     0.049 A 
ATOM     45  C   UNL     1      -3.833   5.479  10.867  1.00  0.00     0.074 A 
ATOM     46  C   UNL     1      -9.587   7.542   9.120  1.00  0.00     0.029 A 
ATOM     47  N   UNL     1      -7.594   6.559   9.192  1.00  0.00    -0.354 N 
ATOM     48  N   UNL     1      -5.007   5.855  10.416  1.00  0.00    -0.248 NA
ATOM     49  C   UNL     1      -3.479   6.044  12.175  1.00  0.00     0.031 C 
ATOM     50  C   UNL     1      -8.944   7.929  10.301  1.00  0.00     0.029 A 
ATOM     51  C   UNL     1      -7.717   7.288  10.363  1.00  0.00     0.049 A 
ATOM     52  H   UNL     1      -6.815   6.008   8.950  1.00  0.00     0.167 HD
ATOM     53  C   UNL     1      -5.546   6.677  11.401  1.00  0.00     0.074 A 
ATOM     54  C   UNL     1      -4.577   6.722  12.478  1.00  0.00     0.031 C 
ATOM     55  C   UNL     1      -6.734   7.334  11.417  1.00  0.00     0.031 A 
BRANCH  42  56
ATOM     56  C   UNL     1     -10.195   6.430   6.364  1.00  0.00    -0.014 A 
ATOM     57  C   UNL     1     -11.176   5.445   6.146  1.00  0.00     0.010 A 
ATOM     58  C   UNL     1     -10.427   7.737   5.897  1.00  0.00     0.010 A 
ATOM     59  C   UNL     1     -12.347   5.752   5.447  1.00  0.00     0.020 A 
ATOM     60  C   UNL     1     -11.610   8.056   5.223  1.00  0.00     0.020 A 
ATOM     61  C   UNL     1     -12.556   7.057   4.989  1.00  0.00     0.054 A 
BRANCH  61  62
ATOM     62  S   UNL     1     -14.098   7.435   4.111  1.00  0.00     0.124 S 
ATOM     63  O   UNL     1     -13.897   6.745   2.839  1.00  0.00    -0.237 OA
ATOM     64  O   UNL     1     -15.114   6.856   4.986  1.00  0.00    -0.237 OA
ATOM     65  O   UNL     1     -14.105   8.894   4.033  1.00  0.00    -0.744 OA
ENDBRANCH  61  62
ENDBRANCH  42  56
BRANCH  43  66
ATOM     66  C   UNL     1      -1.544   4.232  10.919  1.00  0.00    -0.014 A 
ATOM     67  C   UNL     1      -1.518   3.491  12.114  1.00  0.00     0.010 A 
ATOM     68  C   UNL     1      -0.328   4.677  10.367  1.00  0.00     0.010 A 
ATOM     69  C   UNL     1      -0.305   3.222  12.756  1.00  0.00     0.020 A 
ATOM     70  C   UNL     1       0.888   4.383  10.988  1.00  0.00     0.020 A 
ATOM     71  C   UNL     1       0.891   3.668  12.186  1.00  0.00     0.054 A 
BRANCH  71  72
ATOM     72  S   UNL     1       2.457   3.268  13.011  1.00  0.00     0.124 S 
ATOM     73  O   UNL     1       2.419   4.146  14.176  1.00  0.00    -0.237 OA
ATOM     74  O   UNL     1       2.312   1.841  13.286  1.00  0.00    -0.237 OA
ATOM     75  O   UNL     1       3.466   3.602  12.007  1.00  0.00    -0.744 OA
ENDBRANCH  71  72
ENDBRANCH  43  66
BRANCH  55  76
ATOM     76  C   UNL     1      -7.061   8.125  12.658  1.00  0.00    -0.014 A 
ATOM     77  C   UNL     1      -6.351   9.291  12.996  1.00  0.00     0.010 A 
ATOM     78  C   UNL     1      -8.104   7.692  13.498  1.00  0.00     0.010 A 
ATOM     79  C   UNL     1      -6.631   9.969  14.185  1.00  0.00     0.020 A 
ATOM     80  C   UNL     1      -8.411   8.388  14.670  1.00  0.00     0.020 A 
ATOM     81  C   UNL     1      -7.653   9.507  15.019  1.00  0.00     0.054 A 
BRANCH  81  82
ATOM     82  S   UNL     1      -7.989  10.395  16.564  1.00  0.00     0.124 S 
ATOM     83  O   UNL     1      -6.855   9.998  17.394  1.00  0.00    -0.237 OA
ATOM     84  O   UNL     1      -7.998  11.792  16.137  1.00  0.00    -0.237 OA
ATOM     85  O   UNL     1      -9.286   9.872  16.990  1.00  0.00    -0.744 OA
ENDBRANCH  81  82
ENDBRANCH  55  76
ENDBRANCH  29  30
ENDBRANCH  22  24
ENDBRANCH  21  22
ENDBRANCH  20  21
ENDBRANCH   1  20
TORSDOF 18
