REMARK SMILES CC1=C(C)C[C@@H](C(=O)OCCOCCOC(=O)c2ccc(-c3c4nc(c(-c5ccc(S(=O)(=O)[O-])cc5)c5ccc([nH]5)c(-c5ccc(S(=O)(=O)[O-])cc5)c5nc(c(-c6ccc(S(=O)(=O)[O-])cc6)c6ccc3[nH]6)C=C5)C=C4)cc2)[C@@H](C(=O)N2CCN(c3cccc(C(F)(F)F)c3)CC2)C1
REMARK SMILES IDX 12 1 11 2 10 3 9 4 7 5 8 6 6 7 1 8 2 9 3 10 97 11 4 12 5 13
REMARK SMILES IDX 78 14 79 15 80 16 81 17 82 18 96 19 83 20 95 21 84 22 85 23
REMARK SMILES IDX 86 24 94 25 87 26 89 27 88 28 90 29 91 30 92 31 93 32 13 33
REMARK SMILES IDX 14 34 15 35 16 36 17 37 18 38 19 39 77 40 20 41 76 42 21 43
REMARK SMILES IDX 22 44 23 45 70 46 24 47 75 48 69 49 71 50 25 51 74 52 68 53
REMARK SMILES IDX 67 54 26 56 56 57 37 58 55 59 38 60 41 61 54 62 72 63 39 64
REMARK SMILES IDX 40 65 53 67 73 68 42 69 27 70 28 71 36 72 29 73 35 74 30 75
REMARK SMILES IDX 31 76 32 77 33 78 34 79 57 80 58 81 66 82 59 83 65 84 60 85
REMARK SMILES IDX 61 86 62 87 63 88 64 89 43 90 44 91 52 92 45 93 51 94 46 95
REMARK SMILES IDX 47 96 48 97 49 98 50 99
REMARK H PARENT 71 55 41 66
REMARK Flexibility Score: inf
ROOT
ATOM      1  O   UNL     1      -4.459  -0.213  -5.629  1.00  0.00    -0.374 OA
ENDROOT
BRANCH   1   2
ATOM      2  C   UNL     1      -4.648  -0.703  -4.299  1.00  0.00     0.202 C 
BRANCH   2   3
ATOM      3  C   UNL     1      -3.805  -1.937  -3.956  1.00  0.00     0.261 C 
BRANCH   3   4
ATOM      4  O   UNL     1      -2.471  -1.583  -3.542  1.00  0.00    -0.463 OA
BRANCH   4   5
ATOM      5  C   UNL     1      -1.561  -1.345  -4.507  1.00  0.00     0.310 C 
ATOM      6  O   UNL     1      -1.727  -1.589  -5.699  1.00  0.00    -0.252 OA
BRANCH   5   7
ATOM      7  C   UNL     1      -0.244  -0.790  -3.983  1.00  0.00     0.116 C 
ATOM      8  C   UNL     1       1.174   0.035   0.116  1.00  0.00     0.039 C 
ATOM      9  C   UNL     1       0.924  -0.346  -1.318  1.00  0.00    -0.074 C 
ATOM     10  C   UNL     1       0.758  -1.613  -1.748  1.00  0.00    -0.073 C 
ATOM     11  C   UNL     1       0.897   0.795  -2.311  1.00  0.00     0.045 C 
ATOM     12  C   UNL     1       0.911  -2.851  -0.904  1.00  0.00     0.039 C 
ATOM     13  C   UNL     1       0.471  -1.899  -3.196  1.00  0.00     0.046 C 
ATOM     14  C   UNL     1      -0.187   0.650  -3.399  1.00  0.00     0.097 C 
BRANCH  14  15
ATOM     15  C   UNL     1      -1.439   1.270  -2.782  1.00  0.00     0.227 C 
ATOM     16  O   UNL     1      -2.288   0.568  -2.235  1.00  0.00    -0.275 OA
ATOM     17  N   UNL     1      -1.505   2.658  -2.683  1.00  0.00    -0.339 N 
ATOM     18  C   UNL     1      -2.455   3.193  -1.720  1.00  0.00     0.141 C 
ATOM     19  C   UNL     1      -0.915   3.701  -3.550  1.00  0.00     0.141 C 
ATOM     20  C   UNL     1      -1.794   4.238  -0.826  1.00  0.00     0.138 C 
ATOM     21  C   UNL     1      -0.501   5.016  -2.811  1.00  0.00     0.138 C 
ATOM     22  N   UNL     1      -1.380   5.358  -1.681  1.00  0.00    -0.368 N 
BRANCH  22  23
ATOM     23  C   UNL     1      -1.961   6.589  -1.447  1.00  0.00     0.037 A 
ATOM     24  C   UNL     1      -2.021   7.099  -0.138  1.00  0.00     0.026 A 
ATOM     25  C   UNL     1      -2.595   7.331  -2.451  1.00  0.00     0.039 A 
ATOM     26  C   UNL     1      -2.708   8.274   0.173  1.00  0.00     0.003 A 
ATOM     27  C   UNL     1      -3.312   8.511  -2.154  1.00  0.00     0.058 A 
ATOM     28  C   UNL     1      -3.360   8.974  -0.832  1.00  0.00     0.013 A 
BRANCH  27  29
ATOM     29  C   UNL     1      -4.049   9.278  -3.224  1.00  0.00     0.416 C 
ATOM     30  F   UNL     1      -5.355   9.499  -2.914  1.00  0.00    -0.166 F 
ATOM     31  F   UNL     1      -3.504  10.507  -3.449  1.00  0.00    -0.166 F 
ATOM     32  F   UNL     1      -4.056   8.652  -4.436  1.00  0.00    -0.166 F 
ENDBRANCH  27  29
ENDBRANCH  22  23
ENDBRANCH  14  15
ENDBRANCH   5   7
ENDBRANCH   4   5
ENDBRANCH   3   4
ENDBRANCH   2   3
ENDBRANCH   1   2
BRANCH   1  33
ATOM     33  C   UNL     1      -3.560   0.887  -5.754  1.00  0.00     0.202 C 
BRANCH  33  34
ATOM     34  C   UNL     1      -4.191   2.264  -5.519  1.00  0.00     0.261 C 
BRANCH  34  35
ATOM     35  O   UNL     1      -4.595   2.441  -4.149  1.00  0.00    -0.460 OA
BRANCH  35  36
ATOM     36  C   UNL     1      -5.923   2.312  -3.909  1.00  0.00     0.338 C 
ATOM     37  O   UNL     1      -6.808   2.187  -4.743  1.00  0.00    -0.246 OA
BRANCH  36  38
ATOM     38  C   UNL     1      -6.162   2.173  -2.456  1.00  0.00     0.060 A 
ATOM     39  C   UNL     1      -6.938   1.099  -2.014  1.00  0.00     0.016 A 
ATOM     40  C   UNL     1      -5.677   3.097  -1.532  1.00  0.00     0.016 A 
ATOM     41  C   UNL     1      -7.259   0.978  -0.659  1.00  0.00     0.010 A 
ATOM     42  C   UNL     1      -5.906   2.912  -0.164  1.00  0.00     0.010 A 
ATOM     43  C   UNL     1      -6.767   1.896   0.282  1.00  0.00    -0.014 A 
BRANCH  43  44
ATOM     44  C   UNL     1      -7.304   1.916   1.677  1.00  0.00     0.031 A 
ATOM     45  C   UNL     1      -8.070   3.133   2.155  1.00  0.00     0.074 A 
ATOM     46  C   UNL     1      -7.167   0.858   2.504  1.00  0.00     0.049 A 
ATOM     47  N   UNL     1      -8.629   3.360   3.319  1.00  0.00    -0.248 NA
ATOM     48  C   UNL     1      -8.207   4.254   1.209  1.00  0.00     0.031 C 
ATOM     49  C   UNL     1      -6.457  -0.383   2.190  1.00  0.00     0.029 A 
ATOM     50  N   UNL     1      -7.638   0.655   3.781  1.00  0.00    -0.354 N 
ATOM     51  C   UNL     1      -9.156   4.646   3.244  1.00  0.00     0.074 A 
ATOM     52  C   UNL     1      -8.787   5.180   1.955  1.00  0.00     0.031 C 
ATOM     53  C   UNL     1      -6.572  -1.230   3.229  1.00  0.00     0.029 A 
ATOM     54  C   UNL     1      -7.327  -0.582   4.299  1.00  0.00     0.049 A 
ATOM     55  H   UNL     1      -8.150   1.333   4.279  1.00  0.00     0.167 HD
ATOM     56  C   UNL     1      -9.913   5.320   4.143  1.00  0.00     0.031 A 
ATOM     57  C   UNL     1      -7.614  -1.133   5.498  1.00  0.00     0.031 A 
ATOM     58  C   UNL     1     -10.318   4.789   5.415  1.00  0.00     0.049 A 
ATOM     59  C   UNL     1      -8.426  -0.351   6.500  1.00  0.00     0.074 A 
ATOM     60  C   UNL     1     -11.121   5.379   6.375  1.00  0.00     0.029 A 
ATOM     61  N   UNL     1      -9.959   3.543   5.903  1.00  0.00    -0.354 N 
ATOM     62  N   UNL     1      -8.951   0.846   6.387  1.00  0.00    -0.248 NA
ATOM     63  C   UNL     1      -8.695  -1.003   7.791  1.00  0.00     0.031 C 
ATOM     64  C   UNL     1     -11.198   4.515   7.471  1.00  0.00     0.029 A 
ATOM     65  C   UNL     1     -10.502   3.357   7.162  1.00  0.00     0.049 A 
ATOM     66  H   UNL     1      -9.401   2.887   5.425  1.00  0.00     0.167 HD
ATOM     67  C   UNL     1      -9.639   1.074   7.576  1.00  0.00     0.074 A 
ATOM     68  C   UNL     1      -9.478  -0.114   8.387  1.00  0.00     0.031 C 
ATOM     69  C   UNL     1     -10.343   2.168   7.960  1.00  0.00     0.031 A 
BRANCH  56  70
ATOM     70  C   UNL     1     -10.354   6.715   3.777  1.00  0.00    -0.014 A 
ATOM     71  C   UNL     1     -11.280   6.942   2.741  1.00  0.00     0.010 A 
ATOM     72  C   UNL     1      -9.861   7.815   4.503  1.00  0.00     0.010 A 
ATOM     73  C   UNL     1     -11.668   8.242   2.408  1.00  0.00     0.020 A 
ATOM     74  C   UNL     1     -10.275   9.115   4.197  1.00  0.00     0.020 A 
ATOM     75  C   UNL     1     -11.162   9.321   3.139  1.00  0.00     0.054 A 
BRANCH  75  76
ATOM     76  S   UNL     1     -11.705  10.995   2.703  1.00  0.00     0.124 S 
ATOM     77  O   UNL     1     -11.030  11.206   1.424  1.00  0.00    -0.237 OA
ATOM     78  O   UNL     1     -13.156  10.852   2.631  1.00  0.00    -0.237 OA
ATOM     79  O   UNL     1     -11.216  11.818   3.806  1.00  0.00    -0.744 OA
ENDBRANCH  75  76
ENDBRANCH  56  70
BRANCH  57  80
ATOM     80  C   UNL     1      -7.134  -2.507   5.827  1.00  0.00    -0.014 A 
ATOM     81  C   UNL     1      -8.043  -3.568   5.991  1.00  0.00     0.010 A 
ATOM     82  C   UNL     1      -5.760  -2.758   5.999  1.00  0.00     0.010 A 
ATOM     83  C   UNL     1      -7.591  -4.845   6.344  1.00  0.00     0.020 A 
ATOM     84  C   UNL     1      -5.301  -4.039   6.320  1.00  0.00     0.020 A 
ATOM     85  C   UNL     1      -6.221  -5.072   6.503  1.00  0.00     0.054 A 
BRANCH  85  86
ATOM     86  S   UNL     1      -5.654  -6.745   6.920  1.00  0.00     0.124 S 
ATOM     87  O   UNL     1      -6.090  -6.878   8.306  1.00  0.00    -0.237 OA
ATOM     88  O   UNL     1      -6.369  -7.570   5.949  1.00  0.00    -0.237 OA
ATOM     89  O   UNL     1      -4.208  -6.675   6.722  1.00  0.00    -0.744 OA
ENDBRANCH  85  86
ENDBRANCH  57  80
BRANCH  69  90
ATOM     90  C   UNL     1     -11.036   2.125   9.299  1.00  0.00    -0.014 A 
ATOM     91  C   UNL     1     -10.311   2.164  10.503  1.00  0.00     0.010 A 
ATOM     92  C   UNL     1     -12.443   2.112   9.349  1.00  0.00     0.010 A 
ATOM     93  C   UNL     1     -10.979   2.156  11.731  1.00  0.00     0.020 A 
ATOM     94  C   UNL     1     -13.115   2.137  10.573  1.00  0.00     0.020 A 
ATOM     95  C   UNL     1     -12.377   2.144  11.758  1.00  0.00     0.054 A 
BRANCH  95  96
ATOM     96  S   UNL     1     -13.218   2.178  13.365  1.00  0.00     0.124 S 
ATOM     97  O   UNL     1     -12.950   0.837  13.877  1.00  0.00    -0.237 OA
ATOM     98  O   UNL     1     -12.534   3.265  14.061  1.00  0.00    -0.237 OA
ATOM     99  O   UNL     1     -14.613   2.446  13.022  1.00  0.00    -0.744 OA
ENDBRANCH  95  96
ENDBRANCH  69  90
ENDBRANCH  43  44
ENDBRANCH  36  38
ENDBRANCH  35  36
ENDBRANCH  34  35
ENDBRANCH  33  34
ENDBRANCH   1  33
TORSDOF 20
