REMARK SMILES COC(=O)c1cccc(NC(=O)[C@@H]2[C@@H]3CC[C@@H](C3)[C@@H]2C(=O)OCCOCCOC(=O)c2ccc(-c3c4nc(c(-c5ccc(S(=O)(=O)[O-])cc5)c5ccc([nH]5)c(-c5ccc(S(=O)(=O)[O-])cc5)c5nc(c(-c6ccc(S(=O)(=O)[O-])cc6)c6ccc3[nH]6)C=C5)C=C4)cc2)c1
REMARK SMILES IDX 24 1 23 2 22 3 20 4 21 5 19 6 13 7 14 8 15 9 18 10 17 11
REMARK SMILES IDX 16 12 11 13 10 14 12 16 9 17 5 18 6 19 91 20 7 21 8 22 3 23
REMARK SMILES IDX 4 24 2 25 1 26 25 27 26 28 27 29 28 30 29 31 30 32 31 33
REMARK SMILES IDX 32 34 90 35 33 36 89 37 34 38 35 39 36 40 83 41 37 42 88 43
REMARK SMILES IDX 82 44 84 45 38 46 87 47 81 48 80 49 39 51 69 52 50 53 68 54
REMARK SMILES IDX 51 55 54 56 67 57 85 58 52 59 53 60 66 62 86 63 55 64 40 65
REMARK SMILES IDX 41 66 49 67 42 68 48 69 43 70 44 71 45 72 46 73 47 74 70 75
REMARK SMILES IDX 71 76 79 77 72 78 78 79 73 80 74 81 75 82 76 83 77 84 56 85
REMARK SMILES IDX 57 86 65 87 58 88 64 89 59 90 60 91 61 92 62 93 63 94
REMARK H PARENT 10 15 84 50 54 61
REMARK Flexibility Score: inf
ROOT
ATOM      1  C   UNL     1       2.100  -5.376  -4.998  1.00  0.00     0.202 C 
ENDROOT
BRANCH   1   2
ATOM      2  C   UNL     1       0.807  -4.731  -5.528  1.00  0.00     0.261 C 
BRANCH   2   3
ATOM      3  O   UNL     1      -0.442  -5.186  -4.959  1.00  0.00    -0.463 OA
BRANCH   3   4
ATOM      4  C   UNL     1      -0.956  -6.265  -5.603  1.00  0.00     0.310 C 
ATOM      5  O   UNL     1      -0.313  -6.893  -6.437  1.00  0.00    -0.252 OA
BRANCH   4   6
ATOM      6  C   UNL     1      -2.458  -6.455  -5.387  1.00  0.00     0.115 C 
ATOM      7  C   UNL     1      -3.225  -7.087  -4.164  1.00  0.00     0.096 C 
ATOM      8  C   UNL     1      -3.998  -8.238  -4.839  1.00  0.00     0.003 C 
ATOM      9  C   UNL     1      -3.045  -9.346  -5.308  1.00  0.00     0.005 C 
ATOM     10  C   UNL     1      -4.425  -7.592  -6.158  1.00  0.00     0.009 C 
ATOM     11  C   UNL     1      -2.995  -7.317  -6.585  1.00  0.00     0.004 C 
ATOM     12  C   UNL     1      -2.428  -8.753  -6.566  1.00  0.00     0.005 C 
BRANCH   7  13
ATOM     13  C   UNL     1      -2.602  -7.240  -2.760  1.00  0.00     0.228 C 
ATOM     14  N   UNL     1      -2.243  -8.435  -2.190  1.00  0.00    -0.326 N 
ATOM     15  H   UNL     1      -1.338  -8.465  -1.804  1.00  0.00     0.169 HD
ATOM     16  O   UNL     1      -2.376  -6.216  -2.104  1.00  0.00    -0.274 OA
BRANCH  14  17
ATOM     17  C   UNL     1      -2.990  -9.625  -2.079  1.00  0.00     0.042 A 
ATOM     18  C   UNL     1      -3.071 -12.033  -1.905  1.00  0.00     0.062 A 
ATOM     19  C   UNL     1      -4.439 -12.016  -2.195  1.00  0.00     0.016 A 
ATOM     20  C   UNL     1      -2.336 -10.840  -1.838  1.00  0.00     0.041 A 
ATOM     21  C   UNL     1      -5.103 -10.801  -2.287  1.00  0.00     0.003 A 
ATOM     22  C   UNL     1      -4.382  -9.613  -2.175  1.00  0.00     0.026 A 
BRANCH  18  23
ATOM     23  C   UNL     1      -2.473 -13.358  -1.653  1.00  0.00     0.337 C 
ATOM     24  O   UNL     1      -2.658 -14.334  -2.359  1.00  0.00    -0.246 OA
BRANCH  23  25
ATOM     25  O   UNL     1      -1.909 -13.337  -0.421  1.00  0.00    -0.465 OA
ATOM     26  C   UNL     1      -1.692 -14.640   0.124  1.00  0.00     0.282 C 
ENDBRANCH  23  25
ENDBRANCH  18  23
ENDBRANCH  14  17
ENDBRANCH   7  13
ENDBRANCH   4   6
ENDBRANCH   3   4
ENDBRANCH   2   3
ENDBRANCH   1   2
BRANCH   1  27
ATOM     27  O   UNL     1       2.091  -6.746  -4.652  1.00  0.00    -0.374 OA
BRANCH  27  28
ATOM     28  C   UNL     1       1.341  -7.213  -3.546  1.00  0.00     0.202 C 
BRANCH  28  29
ATOM     29  C   UNL     1       0.730  -6.302  -2.476  1.00  0.00     0.261 C 
BRANCH  29  30
ATOM     30  O   UNL     1       1.051  -4.924  -2.484  1.00  0.00    -0.460 OA
BRANCH  30  31
ATOM     31  C   UNL     1       1.995  -4.523  -1.622  1.00  0.00     0.338 C 
ATOM     32  O   UNL     1       2.698  -5.206  -0.899  1.00  0.00    -0.246 OA
BRANCH  31  33
ATOM     33  C   UNL     1       2.054  -3.067  -1.782  1.00  0.00     0.060 A 
ATOM     34  C   UNL     1       3.102  -2.512  -2.517  1.00  0.00     0.016 A 
ATOM     35  C   UNL     1       1.039  -2.271  -1.241  1.00  0.00     0.016 A 
ATOM     36  C   UNL     1       3.174  -1.131  -2.659  1.00  0.00     0.010 A 
ATOM     37  C   UNL     1       1.111  -0.889  -1.389  1.00  0.00     0.010 A 
ATOM     38  C   UNL     1       2.202  -0.314  -2.061  1.00  0.00    -0.014 A 
BRANCH  38  39
ATOM     39  C   UNL     1       2.426   1.145  -2.001  1.00  0.00     0.031 A 
ATOM     40  C   UNL     1       2.946   1.736  -0.720  1.00  0.00     0.074 A 
ATOM     41  C   UNL     1       2.211   1.913  -3.083  1.00  0.00     0.049 A 
ATOM     42  N   UNL     1       3.253   2.976  -0.447  1.00  0.00    -0.248 NA
ATOM     43  C   UNL     1       3.146   0.805   0.405  1.00  0.00     0.031 C 
ATOM     44  C   UNL     1       1.734   1.429  -4.380  1.00  0.00     0.029 A 
ATOM     45  N   UNL     1       2.376   3.260  -3.265  1.00  0.00    -0.354 N 
ATOM     46  C   UNL     1       3.674   2.976   0.878  1.00  0.00     0.074 A 
ATOM     47  C   UNL     1       3.549   1.621   1.366  1.00  0.00     0.031 C 
ATOM     48  C   UNL     1       1.659   2.468  -5.230  1.00  0.00     0.029 A 
ATOM     49  C   UNL     1       2.049   3.689  -4.529  1.00  0.00     0.049 A 
ATOM     50  H   UNL     1       2.699   3.865  -2.558  1.00  0.00     0.167 HD
ATOM     51  C   UNL     1       4.130   4.013   1.618  1.00  0.00     0.031 A 
ATOM     52  C   UNL     1       2.056   4.930  -5.054  1.00  0.00     0.031 A 
ATOM     53  C   UNL     1       4.237   5.358   1.120  1.00  0.00     0.049 A 
ATOM     54  C   UNL     1       2.513   6.077  -4.192  1.00  0.00     0.074 A 
ATOM     55  C   UNL     1       4.708   6.482   1.773  1.00  0.00     0.029 A 
ATOM     56  N   UNL     1       3.855   5.761  -0.152  1.00  0.00    -0.354 N 
ATOM     57  N   UNL     1       2.948   6.056  -2.953  1.00  0.00    -0.248 NA
ATOM     58  C   UNL     1       2.490   7.413  -4.800  1.00  0.00     0.031 C 
ATOM     59  C   UNL     1       4.550   7.577   0.917  1.00  0.00     0.029 A 
ATOM     60  C   UNL     1       4.048   7.123  -0.293  1.00  0.00     0.049 A 
ATOM     61  H   UNL     1       3.499   5.165  -0.850  1.00  0.00     0.167 HD
ATOM     62  C   UNL     1       3.277   7.371  -2.643  1.00  0.00     0.074 A 
ATOM     63  C   UNL     1       3.005   8.157  -3.830  1.00  0.00     0.031 C 
ATOM     64  C   UNL     1       3.764   7.883  -1.486  1.00  0.00     0.031 A 
BRANCH  51  65
ATOM     65  C   UNL     1       4.507   3.737   3.050  1.00  0.00    -0.014 A 
ATOM     66  C   UNL     1       5.641   2.971   3.378  1.00  0.00     0.010 A 
ATOM     67  C   UNL     1       3.725   4.277   4.088  1.00  0.00     0.010 A 
ATOM     68  C   UNL     1       5.964   2.719   4.715  1.00  0.00     0.020 A 
ATOM     69  C   UNL     1       4.061   4.052   5.426  1.00  0.00     0.020 A 
ATOM     70  C   UNL     1       5.170   3.260   5.731  1.00  0.00     0.054 A 
BRANCH  70  71
ATOM     71  S   UNL     1       5.626   2.938   7.457  1.00  0.00     0.124 S 
ATOM     72  O   UNL     1       5.287   1.524   7.599  1.00  0.00    -0.237 OA
ATOM     73  O   UNL     1       7.053   3.246   7.473  1.00  0.00    -0.237 OA
ATOM     74  O   UNL     1       4.784   3.858   8.217  1.00  0.00    -0.744 OA
ENDBRANCH  70  71
ENDBRANCH  51  65
BRANCH  52  75
ATOM     75  C   UNL     1       1.618   5.147  -6.460  1.00  0.00    -0.014 A 
ATOM     76  C   UNL     1       2.538   5.536  -7.449  1.00  0.00     0.010 A 
ATOM     77  C   UNL     1       0.272   4.953  -6.820  1.00  0.00     0.010 A 
ATOM     78  C   UNL     1       2.118   5.740  -8.767  1.00  0.00     0.020 A 
ATOM     79  C   UNL     1      -0.147   5.128  -8.142  1.00  0.00     0.020 A 
ATOM     80  C   UNL     1       0.778   5.531  -9.106  1.00  0.00     0.054 A 
BRANCH  80  81
ATOM     81  S   UNL     1       0.267   5.752 -10.833  1.00  0.00     0.124 S 
ATOM     82  O   UNL     1       0.328   7.202 -10.986  1.00  0.00    -0.237 OA
ATOM     83  O   UNL     1       1.283   4.995 -11.560  1.00  0.00    -0.237 OA
ATOM     84  O   UNL     1      -1.074   5.173 -10.870  1.00  0.00    -0.744 OA
ENDBRANCH  80  81
ENDBRANCH  52  75
BRANCH  64  85
ATOM     85  C   UNL     1       4.067   9.358  -1.456  1.00  0.00    -0.014 A 
ATOM     86  C   UNL     1       3.038  10.316  -1.444  1.00  0.00     0.010 A 
ATOM     87  C   UNL     1       5.405   9.787  -1.377  1.00  0.00     0.010 A 
ATOM     88  C   UNL     1       3.344  11.678  -1.389  1.00  0.00     0.020 A 
ATOM     89  C   UNL     1       5.714  11.146  -1.289  1.00  0.00     0.020 A 
ATOM     90  C   UNL     1       4.681  12.084  -1.310  1.00  0.00     0.054 A 
BRANCH  90  91
ATOM     91  S   UNL     1       5.048  13.856  -1.196  1.00  0.00     0.124 S 
ATOM     92  O   UNL     1       4.755  14.315  -2.550  1.00  0.00    -0.237 OA
ATOM     93  O   UNL     1       4.120  14.309  -0.163  1.00  0.00    -0.237 OA
ATOM     94  O   UNL     1       6.459  13.894  -0.817  1.00  0.00    -0.744 OA
ENDBRANCH  90  91
ENDBRANCH  64  85
ENDBRANCH  38  39
ENDBRANCH  31  33
ENDBRANCH  30  31
ENDBRANCH  29  30
ENDBRANCH  28  29
ENDBRANCH  27  28
ENDBRANCH   1  27
TORSDOF 21
