REMARK SMILES CC[C@](C)(NC(=O)N(C)Cc1cccc(C)c1)C(=O)OCCOCCOC(=O)c1ccc(-c2c3nc(c(-c4ccc(S(=O)(=O)[O-])cc4)c4ccc([nH]4)c(-c4ccc(S(=O)(=O)[O-])cc4)c4nc(c(-c5ccc(S(=O)(=O)[O-])cc5)c5ccc2[nH]5)C=C4)C=C3)cc1
REMARK SMILES IDX 22 1 21 2 20 3 18 4 19 5 3 6 4 7 2 8 1 9 5 10 6 11 7 13 8 14
REMARK SMILES IDX 9 15 10 16 11 17 12 18 17 19 13 20 15 21 14 22 16 23 23 24
REMARK SMILES IDX 24 25 25 26 26 27 27 28 28 29 29 30 30 31 88 32 31 33 87 34
REMARK SMILES IDX 32 35 33 36 34 37 81 38 35 39 86 40 80 41 82 42 36 43 85 44
REMARK SMILES IDX 79 45 78 46 37 48 67 49 48 50 66 51 49 52 52 53 65 54 83 55
REMARK SMILES IDX 50 56 51 57 64 59 84 60 53 61 38 62 39 63 47 64 40 65 46 66
REMARK SMILES IDX 41 67 42 68 43 69 44 70 45 71 68 72 69 73 77 74 70 75 76 76
REMARK SMILES IDX 71 77 72 78 73 79 74 80 75 81 54 82 55 83 63 84 56 85 62 86
REMARK SMILES IDX 57 87 58 88 59 89 60 90 61 91
REMARK H PARENT 5 12 82 47 52 58
REMARK Flexibility Score: inf
ROOT
ATOM      1  C   UNL     1       3.808   0.840  -4.120  1.00  0.00     0.202 C 
ENDROOT
BRANCH   1   2
ATOM      2  C   UNL     1       3.637  -0.611  -3.711  1.00  0.00     0.261 C 
BRANCH   2   3
ATOM      3  O   UNL     1       2.257  -0.940  -3.590  1.00  0.00    -0.462 OA
BRANCH   3   4
ATOM      4  C   UNL     1       1.597  -0.445  -2.522  1.00  0.00     0.331 C 
ATOM      5  O   UNL     1       2.062  -0.251  -1.406  1.00  0.00    -0.249 OA
BRANCH   4   6
ATOM      6  C   UNL     1       0.124  -0.174  -2.907  1.00  0.00     0.136 C 
ATOM      7  C   UNL     1      -0.307   1.107  -2.179  1.00  0.00     0.047 C 
BRANCH   6   8
ATOM      8  C   UNL     1      -0.673  -1.434  -2.454  1.00  0.00     0.037 C 
ATOM      9  C   UNL     1      -1.006  -1.559  -0.975  1.00  0.00     0.007 C 
ENDBRANCH   6   8
BRANCH   6  10
ATOM     10  N   UNL     1      -0.168  -0.050  -4.389  1.00  0.00    -0.322 N 
ATOM     11  C   UNL     1       0.665   0.478  -5.349  1.00  0.00     0.318 C 
ATOM     12  H   UNL     1      -1.043  -0.382  -4.697  1.00  0.00     0.166 HD
ATOM     13  O   UNL     1       0.696   1.691  -5.542  1.00  0.00    -0.249 OA
BRANCH  11  14
ATOM     14  N   UNL     1       1.304  -0.466  -6.167  1.00  0.00    -0.324 N 
ATOM     15  C   UNL     1       1.103  -1.888  -5.958  1.00  0.00     0.149 C 
BRANCH  14  16
ATOM     16  C   UNL     1       2.127   0.010  -7.311  1.00  0.00     0.156 C 
BRANCH  16  17
ATOM     17  C   UNL     1       3.179  -0.863  -8.006  1.00  0.00    -0.028 A 
ATOM     18  C   UNL     1       4.355  -0.239  -8.476  1.00  0.00     0.005 A 
ATOM     19  C   UNL     1       3.052  -2.234  -8.286  1.00  0.00     0.009 A 
ATOM     20  C   UNL     1       5.368  -0.961  -9.124  1.00  0.00     0.001 A 
ATOM     21  C   UNL     1       4.107  -2.990  -8.836  1.00  0.00    -0.051 A 
ATOM     22  C   UNL     1       5.253  -2.336  -9.283  1.00  0.00     0.003 A 
ATOM     23  C   UNL     1       4.086  -4.493  -8.807  1.00  0.00     0.044 C 
ENDBRANCH  16  17
ENDBRANCH  14  16
ENDBRANCH  11  14
ENDBRANCH   6  10
ENDBRANCH   4   6
ENDBRANCH   3   4
ENDBRANCH   2   3
ENDBRANCH   1   2
BRANCH   1  24
ATOM     24  O   UNL     1       3.546   1.678  -2.993  1.00  0.00    -0.374 OA
BRANCH  24  25
ATOM     25  C   UNL     1       3.423   3.064  -3.276  1.00  0.00     0.202 C 
BRANCH  25  26
ATOM     26  C   UNL     1       4.621   3.673  -4.018  1.00  0.00     0.261 C 
BRANCH  26  27
ATOM     27  O   UNL     1       5.804   3.601  -3.198  1.00  0.00    -0.460 OA
BRANCH  27  28
ATOM     28  C   UNL     1       6.716   2.669  -3.597  1.00  0.00     0.338 C 
ATOM     29  O   UNL     1       7.328   2.722  -4.652  1.00  0.00    -0.246 OA
BRANCH  28  30
ATOM     30  C   UNL     1       6.731   1.528  -2.634  1.00  0.00     0.060 A 
ATOM     31  C   UNL     1       7.249   0.279  -3.023  1.00  0.00     0.016 A 
ATOM     32  C   UNL     1       5.988   1.632  -1.458  1.00  0.00     0.016 A 
ATOM     33  C   UNL     1       6.933  -0.880  -2.294  1.00  0.00     0.010 A 
ATOM     34  C   UNL     1       5.597   0.479  -0.806  1.00  0.00     0.010 A 
ATOM     35  C   UNL     1       6.058  -0.785  -1.218  1.00  0.00    -0.014 A 
BRANCH  35  36
ATOM     36  C   UNL     1       5.548  -1.899  -0.416  1.00  0.00     0.031 A 
ATOM     37  C   UNL     1       6.000  -1.996   0.987  1.00  0.00     0.074 A 
ATOM     38  C   UNL     1       4.394  -2.534  -0.735  1.00  0.00     0.049 A 
ATOM     39  N   UNL     1       5.732  -3.000   1.757  1.00  0.00    -0.248 NA
ATOM     40  C   UNL     1       6.858  -0.993   1.628  1.00  0.00     0.031 C 
ATOM     41  C   UNL     1       3.331  -2.912   0.196  1.00  0.00     0.029 A 
ATOM     42  N   UNL     1       3.970  -3.074  -1.941  1.00  0.00    -0.354 N 
ATOM     43  C   UNL     1       5.936  -2.529   3.028  1.00  0.00     0.074 A 
ATOM     44  C   UNL     1       6.871  -1.442   2.885  1.00  0.00     0.031 C 
ATOM     45  C   UNL     1       2.489  -3.762  -0.408  1.00  0.00     0.029 A 
ATOM     46  C   UNL     1       3.069  -4.119  -1.688  1.00  0.00     0.049 A 
ATOM     47  H   UNL     1       4.258  -2.772  -2.833  1.00  0.00     0.167 HD
ATOM     48  C   UNL     1       5.087  -2.901   4.024  1.00  0.00     0.031 A 
ATOM     49  C   UNL     1       3.114  -5.366  -2.242  1.00  0.00     0.031 A 
ATOM     50  C   UNL     1       4.162  -3.972   3.636  1.00  0.00     0.049 A 
ATOM     51  C   UNL     1       3.074  -6.476  -1.223  1.00  0.00     0.074 A 
ATOM     52  C   UNL     1       2.784  -4.096   3.627  1.00  0.00     0.029 A 
ATOM     53  N   UNL     1       4.646  -5.094   2.974  1.00  0.00    -0.354 N 
ATOM     54  N   UNL     1       2.923  -6.297   0.056  1.00  0.00    -0.248 NA
ATOM     55  C   UNL     1       3.389  -7.865  -1.552  1.00  0.00     0.031 C 
ATOM     56  C   UNL     1       2.451  -5.322   2.985  1.00  0.00     0.029 A 
ATOM     57  C   UNL     1       3.626  -5.962   2.629  1.00  0.00     0.049 A 
ATOM     58  H   UNL     1       5.597  -5.252   2.774  1.00  0.00     0.167 HD
ATOM     59  C   UNL     1       3.488  -7.367   0.704  1.00  0.00     0.074 A 
ATOM     60  C   UNL     1       3.602  -8.378  -0.330  1.00  0.00     0.031 C 
ATOM     61  C   UNL     1       3.955  -7.237   1.984  1.00  0.00     0.031 A 
BRANCH  48  62
ATOM     62  C   UNL     1       4.945  -2.136   5.323  1.00  0.00    -0.014 A 
ATOM     63  C   UNL     1       4.193  -2.700   6.372  1.00  0.00     0.010 A 
ATOM     64  C   UNL     1       5.449  -0.837   5.551  1.00  0.00     0.010 A 
ATOM     65  C   UNL     1       3.981  -2.021   7.581  1.00  0.00     0.020 A 
ATOM     66  C   UNL     1       5.291  -0.169   6.771  1.00  0.00     0.020 A 
ATOM     67  C   UNL     1       4.548  -0.764   7.780  1.00  0.00     0.054 A 
BRANCH  67  68
ATOM     68  S   UNL     1       4.311   0.080   9.362  1.00  0.00     0.124 S 
ATOM     69  O   UNL     1       2.879   0.370   9.348  1.00  0.00    -0.237 OA
ATOM     70  O   UNL     1       4.743  -0.926  10.328  1.00  0.00    -0.237 OA
ATOM     71  O   UNL     1       5.179   1.253   9.264  1.00  0.00    -0.744 OA
ENDBRANCH  67  68
ENDBRANCH  48  62
BRANCH  49  72
ATOM     72  C   UNL     1       3.971  -5.430  -3.460  1.00  0.00    -0.014 A 
ATOM     73  C   UNL     1       3.517  -4.744  -4.597  1.00  0.00     0.010 A 
ATOM     74  C   UNL     1       5.352  -5.644  -3.280  1.00  0.00     0.010 A 
ATOM     75  C   UNL     1       4.441  -4.055  -5.380  1.00  0.00     0.020 A 
ATOM     76  C   UNL     1       6.272  -4.979  -4.091  1.00  0.00     0.020 A 
ATOM     77  C   UNL     1       5.806  -4.130  -5.093  1.00  0.00     0.054 A 
BRANCH  77  78
ATOM     78  S   UNL     1       6.928  -2.892  -5.816  1.00  0.00     0.124 S 
ATOM     79  O   UNL     1       7.253  -3.489  -7.106  1.00  0.00    -0.237 OA
ATOM     80  O   UNL     1       6.102  -1.688  -5.838  1.00  0.00    -0.237 OA
ATOM     81  O   UNL     1       8.026  -2.840  -4.855  1.00  0.00    -0.744 OA
ENDBRANCH  77  78
ENDBRANCH  49  72
BRANCH  61  82
ATOM     82  C   UNL     1       4.814  -8.238   2.746  1.00  0.00    -0.014 A 
ATOM     83  C   UNL     1       5.261  -9.473   2.253  1.00  0.00     0.010 A 
ATOM     84  C   UNL     1       5.227  -7.919   4.066  1.00  0.00     0.010 A 
ATOM     85  C   UNL     1       6.008 -10.361   3.042  1.00  0.00     0.020 A 
ATOM     86  C   UNL     1       6.008  -8.774   4.850  1.00  0.00     0.020 A 
ATOM     87  C   UNL     1       6.363 -10.012   4.342  1.00  0.00     0.054 A 
BRANCH  87  88
ATOM     88  S   UNL     1       7.253 -11.209   5.360  1.00  0.00     0.124 S 
ATOM     89  O   UNL     1       6.225 -12.217   5.607  1.00  0.00    -0.237 OA
ATOM     90  O   UNL     1       8.342 -11.629   4.480  1.00  0.00    -0.237 OA
ATOM     91  O   UNL     1       7.665 -10.438   6.530  1.00  0.00    -0.744 OA
ENDBRANCH  87  88
ENDBRANCH  61  82
ENDBRANCH  35  36
ENDBRANCH  28  30
ENDBRANCH  27  28
ENDBRANCH  26  27
ENDBRANCH  25  26
ENDBRANCH  24  25
ENDBRANCH   1  24
TORSDOF 22
