REMARK SMILES Cc1c(Cl)cccc1NC(=O)NCc1cn([C@@H]2C[NH2+][C@H](C(=O)OCCOCCOC(=O)c3ccc(-c4c5nc(c(-c6ccc(S(=O)(=O)[O-])cc6)c6ccc([nH]6)c(-c6ccc(S(=O)(=O)[O-])cc6)c6nc(c(-c7ccc(S(=O)(=O)[O-])cc7)c7ccc4[nH]7)C=C6)C=C5)cc3)C2)nn1
REMARK SMILES IDX 25 1 24 2 23 3 21 4 22 5 20 6 17 7 18 8 92 9 19 10 16 13
REMARK SMILES IDX 14 14 15 15 94 16 93 17 13 18 12 19 9 20 10 21 11 23 8 25
REMARK SMILES IDX 1 26 2 27 3 28 4 29 5 30 7 31 6 32 26 33 27 34 28 35 29 36
REMARK SMILES IDX 30 37 31 38 32 39 33 40 91 41 34 42 90 43 35 44 36 45 37 46
REMARK SMILES IDX 84 47 38 48 89 49 83 50 85 51 39 52 88 53 82 54 81 55 40 57
REMARK SMILES IDX 70 58 51 59 69 60 52 61 55 62 68 63 86 64 53 65 54 66 67 68
REMARK SMILES IDX 87 69 56 70 41 71 42 72 50 73 43 74 49 75 44 76 45 77 46 78
REMARK SMILES IDX 47 79 48 80 71 81 72 82 80 83 73 84 79 85 74 86 75 87 76 88
REMARK SMILES IDX 77 89 78 90 57 91 58 92 66 93 59 94 65 95 60 96 61 97 62 98
REMARK SMILES IDX 63 99 64 100
REMARK H PARENT 19 11 19 12 9 22 12 24 85 56 55 67
REMARK Flexibility Score: inf
ROOT
ATOM      1  C   UNL     1      -3.876  -8.771  -0.569  1.00  0.00     0.202 C 
ENDROOT
BRANCH   1   2
ATOM      2  C   UNL     1      -3.810  -7.245  -0.500  1.00  0.00     0.261 C 
BRANCH   2   3
ATOM      3  O   UNL     1      -3.755  -6.799   0.865  1.00  0.00    -0.459 OA
BRANCH   3   4
ATOM      4  C   UNL     1      -4.638  -5.818   1.205  1.00  0.00     0.365 C 
ATOM      5  O   UNL     1      -5.329  -5.196   0.407  1.00  0.00    -0.245 OA
BRANCH   4   6
ATOM      6  C   UNL     1      -4.758  -5.684   2.735  1.00  0.00     0.295 C 
ATOM      7  C   UNL     1      -4.620  -3.402   3.571  1.00  0.00     0.170 C 
ATOM      8  C   UNL     1      -3.238  -4.028   3.385  1.00  0.00     0.289 C 
ATOM      9  C   UNL     1      -5.613  -4.487   3.146  1.00  0.00     0.110 C 
ATOM     10  N   UNL     1      -3.445  -5.481   3.387  1.00  0.00    -0.333 N 
ATOM     11  H   UNL     1      -3.459  -5.839   4.342  1.00  0.00     0.347 HD
ATOM     12  H   UNL     1      -2.696  -5.974   2.900  1.00  0.00     0.347 HD
BRANCH   7  13
ATOM     13  N   UNL     1      -4.769  -2.161   2.846  1.00  0.00    -0.243 N 
ATOM     14  C   UNL     1      -4.844  -0.599   1.351  1.00  0.00     0.102 A 
ATOM     15  C   UNL     1      -4.577  -1.939   1.517  1.00  0.00     0.137 A 
ATOM     16  N   UNL     1      -5.225  -0.072   2.559  1.00  0.00    -0.134 NA
ATOM     17  N   UNL     1      -5.173  -1.040   3.469  1.00  0.00    -0.067 NA
BRANCH  14  18
ATOM     18  C   UNL     1      -4.880   0.160   0.083  1.00  0.00     0.178 C 
BRANCH  18  19
ATOM     19  N   UNL     1      -4.494   1.542   0.231  1.00  0.00    -0.332 N 
ATOM     20  N   UNL     1      -2.261   2.041  -0.520  1.00  0.00    -0.308 N 
ATOM     21  C   UNL     1      -3.527   2.344  -0.197  1.00  0.00     0.319 C 
ATOM     22  H   UNL     1      -1.793   2.818  -0.903  1.00  0.00     0.171 HD
ATOM     23  O   UNL     1      -3.803   3.553  -0.208  1.00  0.00    -0.248 OA
ATOM     24  H   UNL     1      -5.125   2.025   0.812  1.00  0.00     0.165 HD
BRANCH  20  25
ATOM     25  C   UNL     1      -1.423   0.915  -0.460  1.00  0.00     0.047 A 
ATOM     26  C   UNL     1       0.537   2.401   0.298  1.00  0.00     0.048 C 
ATOM     27  C   UNL     1      -0.086   1.059  -0.006  1.00  0.00    -0.009 A 
ATOM     28  C   UNL     1       0.716  -0.100   0.110  1.00  0.00     0.046 A 
ATOM     29  Cl  UNL     1       2.354  -0.032   0.669  1.00  0.00    -0.084 Cl
ATOM     30  C   UNL     1       0.228  -1.357  -0.247  1.00  0.00     0.021 A 
ATOM     31  C   UNL     1      -1.827  -0.325  -0.950  1.00  0.00     0.026 A 
ATOM     32  C   UNL     1      -1.032  -1.464  -0.813  1.00  0.00     0.004 A 
ENDBRANCH  20  25
ENDBRANCH  18  19
ENDBRANCH  14  18
ENDBRANCH   7  13
ENDBRANCH   4   6
ENDBRANCH   3   4
ENDBRANCH   2   3
ENDBRANCH   1   2
BRANCH   1  33
ATOM     33  O   UNL     1      -5.054  -9.397  -0.055  1.00  0.00    -0.374 OA
BRANCH  33  34
ATOM     34  C   UNL     1      -5.377  -9.271   1.327  1.00  0.00     0.202 C 
BRANCH  34  35
ATOM     35  C   UNL     1      -4.526 -10.024   2.344  1.00  0.00     0.261 C 
BRANCH  35  36
ATOM     36  O   UNL     1      -3.158  -9.652   2.293  1.00  0.00    -0.460 OA
BRANCH  36  37
ATOM     37  C   UNL     1      -2.382 -10.522   1.602  1.00  0.00     0.338 C 
ATOM     38  O   UNL     1      -2.761 -11.426   0.880  1.00  0.00    -0.246 OA
BRANCH  37  39
ATOM     39  C   UNL     1      -0.977 -10.291   1.960  1.00  0.00     0.060 A 
ATOM     40  C   UNL     1      -0.085 -11.285   1.552  1.00  0.00     0.016 A 
ATOM     41  C   UNL     1      -0.634  -9.326   2.919  1.00  0.00     0.016 A 
ATOM     42  C   UNL     1       1.048 -11.483   2.302  1.00  0.00     0.010 A 
ATOM     43  C   UNL     1       0.496  -9.532   3.676  1.00  0.00     0.010 A 
ATOM     44  C   UNL     1       1.257 -10.671   3.419  1.00  0.00    -0.014 A 
BRANCH  44  45
ATOM     45  C   UNL     1       2.266 -11.105   4.358  1.00  0.00     0.031 A 
ATOM     46  C   UNL     1       3.651 -10.818   3.955  1.00  0.00     0.074 A 
ATOM     47  C   UNL     1       1.939 -11.684   5.526  1.00  0.00     0.049 A 
ATOM     48  N   UNL     1       4.580 -11.664   3.664  1.00  0.00    -0.248 NA
ATOM     49  C   UNL     1       4.003  -9.411   3.721  1.00  0.00     0.031 C 
ATOM     50  C   UNL     1       0.616 -11.769   6.150  1.00  0.00     0.029 A 
ATOM     51  N   UNL     1       2.767 -12.209   6.467  1.00  0.00    -0.354 N 
ATOM     52  C   UNL     1       5.699 -10.898   3.371  1.00  0.00     0.074 A 
ATOM     53  C   UNL     1       5.247  -9.533   3.263  1.00  0.00     0.031 C 
ATOM     54  C   UNL     1       0.772 -12.082   7.456  1.00  0.00     0.029 A 
ATOM     55  C   UNL     1       2.183 -12.326   7.718  1.00  0.00     0.049 A 
ATOM     56  H   UNL     1       3.694 -12.480   6.278  1.00  0.00     0.167 HD
ATOM     57  C   UNL     1       6.960 -11.401   3.446  1.00  0.00     0.031 A 
ATOM     58  C   UNL     1       2.838 -12.491   8.892  1.00  0.00     0.031 A 
ATOM     59  C   UNL     1       6.975 -12.836   3.526  1.00  0.00     0.049 A 
ATOM     60  C   UNL     1       4.197 -13.008   8.581  1.00  0.00     0.074 A 
ATOM     61  C   UNL     1       6.562 -13.856   2.693  1.00  0.00     0.029 A 
ATOM     62  N   UNL     1       7.149 -13.399   4.770  1.00  0.00    -0.354 N 
ATOM     63  N   UNL     1       4.421 -14.197   8.095  1.00  0.00    -0.248 NA
ATOM     64  C   UNL     1       5.287 -12.058   8.405  1.00  0.00     0.031 C 
ATOM     65  C   UNL     1       6.093 -14.882   3.562  1.00  0.00     0.029 A 
ATOM     66  C   UNL     1       6.268 -14.446   4.877  1.00  0.00     0.049 A 
ATOM     67  H   UNL     1       7.789 -13.104   5.457  1.00  0.00     0.167 HD
ATOM     68  C   UNL     1       5.471 -14.032   7.201  1.00  0.00     0.074 A 
ATOM     69  C   UNL     1       6.039 -12.727   7.525  1.00  0.00     0.031 C 
ATOM     70  C   UNL     1       5.602 -14.837   6.104  1.00  0.00     0.031 A 
BRANCH  57  71
ATOM     71  C   UNL     1       8.152 -10.561   3.809  1.00  0.00    -0.014 A 
ATOM     72  C   UNL     1       9.440 -11.118   3.706  1.00  0.00     0.010 A 
ATOM     73  C   UNL     1       8.029  -9.338   4.500  1.00  0.00     0.010 A 
ATOM     74  C   UNL     1      10.539 -10.509   4.326  1.00  0.00     0.020 A 
ATOM     75  C   UNL     1       9.123  -8.698   5.077  1.00  0.00     0.020 A 
ATOM     76  C   UNL     1      10.365  -9.312   5.023  1.00  0.00     0.054 A 
BRANCH  76  77
ATOM     77  S   UNL     1      11.752  -8.610   5.946  1.00  0.00     0.124 S 
ATOM     78  O   UNL     1      11.911  -9.579   7.026  1.00  0.00    -0.237 OA
ATOM     79  O   UNL     1      12.816  -8.592   4.946  1.00  0.00    -0.237 OA
ATOM     80  O   UNL     1      11.261  -7.295   6.351  1.00  0.00    -0.744 OA
ENDBRANCH  76  77
ENDBRANCH  57  71
BRANCH  58  81
ATOM     81  C   UNL     1       2.457 -11.916  10.207  1.00  0.00    -0.014 A 
ATOM     82  C   UNL     1       3.099 -12.318  11.391  1.00  0.00     0.010 A 
ATOM     83  C   UNL     1       1.617 -10.784  10.271  1.00  0.00     0.010 A 
ATOM     84  C   UNL     1       2.945 -11.583  12.579  1.00  0.00     0.020 A 
ATOM     85  C   UNL     1       1.444 -10.058  11.452  1.00  0.00     0.020 A 
ATOM     86  C   UNL     1       2.129 -10.447  12.597  1.00  0.00     0.054 A 
BRANCH  86  87
ATOM     87  S   UNL     1       2.068  -9.404  14.082  1.00  0.00     0.124 S 
ATOM     88  O   UNL     1       1.306 -10.232  15.012  1.00  0.00    -0.237 OA
ATOM     89  O   UNL     1       3.481  -9.226  14.402  1.00  0.00    -0.237 OA
ATOM     90  O   UNL     1       1.384  -8.195  13.624  1.00  0.00    -0.744 OA
ENDBRANCH  86  87
ENDBRANCH  58  81
BRANCH  70  91
ATOM     91  C   UNL     1       4.760 -16.092   6.034  1.00  0.00    -0.014 A 
ATOM     92  C   UNL     1       3.351 -16.068   6.028  1.00  0.00     0.010 A 
ATOM     93  C   UNL     1       5.409 -17.316   5.793  1.00  0.00     0.010 A 
ATOM     94  C   UNL     1       2.613 -17.240   5.811  1.00  0.00     0.020 A 
ATOM     95  C   UNL     1       4.679 -18.484   5.556  1.00  0.00     0.020 A 
ATOM     96  C   UNL     1       3.284 -18.442   5.573  1.00  0.00     0.054 A 
BRANCH  96  97
ATOM     97  S   UNL     1       2.321 -19.938   5.216  1.00  0.00     0.124 S 
ATOM     98  O   UNL     1       1.750 -20.266   6.519  1.00  0.00    -0.237 OA
ATOM     99  O   UNL     1       1.367 -19.479   4.209  1.00  0.00    -0.237 OA
ATOM    100  O   UNL     1       3.320 -20.885   4.722  1.00  0.00    -0.744 OA
ENDBRANCH  96  97
ENDBRANCH  70  91
ENDBRANCH  44  45
ENDBRANCH  37  39
ENDBRANCH  36  37
ENDBRANCH  35  36
ENDBRANCH  34  35
ENDBRANCH  33  34
ENDBRANCH   1  33
TORSDOF 21
