REMARK SMILES CC(C)C(=O)Nc1ccc2c([C@H](C(=O)OCCOCCOC(=O)c3ccc(-c4c5nc(c(-c6ccc(S(=O)(=O)[O-])cc6)c6ccc([nH]6)c(-c6ccc(S(=O)(=O)[O-])cc6)c6nc(c(-c7ccc(S(=O)(=O)[O-])cc7)c7ccc4[nH]7)C=C6)C=C5)cc3)[NH+]3CC[NH+](CC(=O)N(C)C)CC3)c[nH]c2c1
REMARK SMILES IDX 18 1 17 2 16 3 15 4 13 5 14 6 12 7 11 8 7 9 8 10 99 11 9 12
REMARK SMILES IDX 98 13 10 14 97 15 96 16 6 18 4 19 5 20 2 22 1 23 3 24 84 25
REMARK SMILES IDX 85 26 95 27 86 29 94 30 87 31 88 33 89 34 90 35 91 36 92 37
REMARK SMILES IDX 93 38 19 39 20 40 21 41 22 42 23 43 24 44 25 45 83 46 26 47
REMARK SMILES IDX 82 48 27 49 28 50 29 51 76 52 30 53 81 54 75 55 77 56 31 57
REMARK SMILES IDX 80 58 74 59 73 60 32 62 62 63 43 64 61 65 44 66 47 67 60 68
REMARK SMILES IDX 78 69 45 70 46 71 59 73 79 74 48 75 33 76 34 77 42 78 35 79
REMARK SMILES IDX 41 80 36 81 37 82 38 83 39 84 40 85 63 86 64 87 72 88 65 89
REMARK SMILES IDX 71 90 66 91 67 92 68 93 69 94 70 95 49 96 50 97 58 98 51 99
REMARK SMILES IDX 57 100 52 101 53 102 54 103 55 104 56 105
REMARK H PARENT 97 17 6 21 84 28 87 32 77 61 47 72
REMARK Flexibility Score: inf
ROOT
ATOM      1  O   UNL     1      -2.110   0.276   6.212  1.00  0.00    -0.374 OA
ENDROOT
BRANCH   1   2
ATOM      2  C   UNL     1      -1.562  -0.350   5.046  1.00  0.00     0.202 C 
BRANCH   2   3
ATOM      3  C   UNL     1      -0.890   0.600   4.046  1.00  0.00     0.261 C 
BRANCH   3   4
ATOM      4  O   UNL     1       0.323   1.115   4.610  1.00  0.00    -0.459 OA
BRANCH   4   5
ATOM      5  C   UNL     1       0.533   2.465   4.596  1.00  0.00     0.370 C 
ATOM      6  O   UNL     1      -0.141   3.249   3.933  1.00  0.00    -0.245 OA
BRANCH   5   7
ATOM      7  C   UNL     1       1.729   2.885   5.532  1.00  0.00     0.328 C 
BRANCH   7   8
ATOM      8  C   UNL     1       1.310   4.047   6.411  1.00  0.00     0.046 A 
ATOM      9  C   UNL     1       3.324   7.475   7.739  1.00  0.00     0.043 A 
ATOM     10  C   UNL     1       4.128   6.467   7.226  1.00  0.00     0.027 A 
ATOM     11  C   UNL     1       1.972   7.237   8.016  1.00  0.00     0.052 A 
ATOM     12  C   UNL     1       3.575   5.282   6.750  1.00  0.00     0.013 A 
ATOM     13  C   UNL     1       1.429   6.033   7.543  1.00  0.00     0.048 A 
ATOM     14  C   UNL     1       2.190   5.082   6.865  1.00  0.00     0.009 A 
ATOM     15  N   UNL     1       0.141   5.552   7.586  1.00  0.00    -0.361 N 
ATOM     16  C   UNL     1       0.058   4.363   6.910  1.00  0.00     0.094 A 
ATOM     17  H   UNL     1      -0.612   5.998   8.037  1.00  0.00     0.166 HD
BRANCH   9  18
ATOM     18  N   UNL     1       3.846   8.744   7.996  1.00  0.00    -0.326 N 
ATOM     19  C   UNL     1       4.683   9.513   7.234  1.00  0.00     0.226 C 
ATOM     20  O   UNL     1       5.170  10.518   7.767  1.00  0.00    -0.274 OA
ATOM     21  H   UNL     1       3.573   9.144   8.853  1.00  0.00     0.169 HD
BRANCH  19  22
ATOM     22  C   UNL     1       4.932   9.262   5.734  1.00  0.00     0.072 C 
ATOM     23  C   UNL     1       5.980   8.209   5.392  1.00  0.00     0.018 C 
ATOM     24  C   UNL     1       3.651   9.096   4.916  1.00  0.00     0.018 C 
ENDBRANCH  19  22
ENDBRANCH   9  18
ENDBRANCH   7   8
BRANCH   7  25
ATOM     25  N   UNL     1       2.200   1.735   6.335  1.00  0.00    -0.310 N 
ATOM     26  C   UNL     1       2.900   1.939   7.605  1.00  0.00     0.325 C 
ATOM     27  C   UNL     1       3.017   0.803   5.543  1.00  0.00     0.325 C 
ATOM     28  H   UNL     1       1.286   1.374   6.608  1.00  0.00     0.349 HD
ATOM     29  C   UNL     1       3.055   0.597   8.383  1.00  0.00     0.325 C 
ATOM     30  C   UNL     1       2.889  -0.577   6.196  1.00  0.00     0.325 C 
ATOM     31  N   UNL     1       3.245  -0.647   7.613  1.00  0.00    -0.318 N 
ATOM     32  H   UNL     1       2.514  -1.252   7.987  1.00  0.00     0.348 HD
BRANCH  31  33
ATOM     33  C   UNL     1       4.471  -1.393   7.923  1.00  0.00     0.364 C 
BRANCH  33  34
ATOM     34  C   UNL     1       5.728  -0.540   7.733  1.00  0.00     0.277 C 
ATOM     35  O   UNL     1       6.219   0.052   8.701  1.00  0.00    -0.268 OA
ATOM     36  N   UNL     1       6.228  -0.354   6.453  1.00  0.00    -0.344 N 
ATOM     37  C   UNL     1       6.058  -1.264   5.331  1.00  0.00     0.146 C 
ATOM     38  C   UNL     1       7.121   0.768   6.252  1.00  0.00     0.146 C 
ENDBRANCH  33  34
ENDBRANCH  31  33
ENDBRANCH   7  25
ENDBRANCH   5   7
ENDBRANCH   4   5
ENDBRANCH   3   4
ENDBRANCH   2   3
ENDBRANCH   1   2
BRANCH   1  39
ATOM     39  C   UNL     1      -1.182   0.653   7.232  1.00  0.00     0.202 C 
BRANCH  39  40
ATOM     40  C   UNL     1      -0.712  -0.474   8.158  1.00  0.00     0.261 C 
BRANCH  40  41
ATOM     41  O   UNL     1      -0.020  -1.503   7.436  1.00  0.00    -0.460 OA
BRANCH  41  42
ATOM     42  C   UNL     1      -0.486  -2.755   7.591  1.00  0.00     0.338 C 
ATOM     43  O   UNL     1      -1.368  -3.134   8.356  1.00  0.00    -0.246 OA
BRANCH  42  44
ATOM     44  C   UNL     1       0.106  -3.627   6.563  1.00  0.00     0.060 A 
ATOM     45  C   UNL     1      -0.745  -4.132   5.575  1.00  0.00     0.016 A 
ATOM     46  C   UNL     1       1.449  -4.011   6.606  1.00  0.00     0.016 A 
ATOM     47  C   UNL     1      -0.267  -5.065   4.657  1.00  0.00     0.010 A 
ATOM     48  C   UNL     1       1.929  -4.944   5.675  1.00  0.00     0.010 A 
ATOM     49  C   UNL     1       1.064  -5.507   4.718  1.00  0.00    -0.014 A 
BRANCH  49  50
ATOM     50  C   UNL     1       1.491  -6.637   3.849  1.00  0.00     0.031 A 
ATOM     51  C   UNL     1       1.648  -8.014   4.442  1.00  0.00     0.074 A 
ATOM     52  C   UNL     1       1.668  -6.456   2.526  1.00  0.00     0.049 A 
ATOM     53  N   UNL     1       1.934  -9.144   3.844  1.00  0.00    -0.248 NA
ATOM     54  C   UNL     1       1.455  -8.137   5.895  1.00  0.00     0.031 C 
ATOM     55  C   UNL     1       1.520  -5.182   1.822  1.00  0.00     0.029 A 
ATOM     56  N   UNL     1       1.998  -7.350   1.536  1.00  0.00    -0.354 N 
ATOM     57  C   UNL     1       1.956 -10.109   4.845  1.00  0.00     0.074 A 
ATOM     58  C   UNL     1       1.695  -9.425   6.093  1.00  0.00     0.031 C 
ATOM     59  C   UNL     1       1.742  -5.380   0.512  1.00  0.00     0.029 A 
ATOM     60  C   UNL     1       2.079  -6.784   0.285  1.00  0.00     0.049 A 
ATOM     61  H   UNL     1       2.160  -8.306   1.706  1.00  0.00     0.167 HD
ATOM     62  C   UNL     1       2.163 -11.444   4.737  1.00  0.00     0.031 A 
ATOM     63  C   UNL     1       2.394  -7.329  -0.908  1.00  0.00     0.031 A 
ATOM     64  C   UNL     1       2.433 -12.124   3.497  1.00  0.00     0.049 A 
ATOM     65  C   UNL     1       2.688  -8.804  -0.994  1.00  0.00     0.074 A 
ATOM     66  C   UNL     1       2.626 -13.479   3.284  1.00  0.00     0.029 A 
ATOM     67  N   UNL     1       2.563 -11.505   2.264  1.00  0.00    -0.354 N 
ATOM     68  N   UNL     1       2.653  -9.708  -0.043  1.00  0.00    -0.248 NA
ATOM     69  C   UNL     1       3.055  -9.335  -2.315  1.00  0.00     0.031 C 
ATOM     70  C   UNL     1       2.941 -13.669   1.935  1.00  0.00     0.029 A 
ATOM     71  C   UNL     1       2.876 -12.443   1.293  1.00  0.00     0.049 A 
ATOM     72  H   UNL     1       2.450 -10.540   2.101  1.00  0.00     0.167 HD
ATOM     73  C   UNL     1       2.977 -10.915  -0.655  1.00  0.00     0.074 A 
ATOM     74  C   UNL     1       3.184 -10.630  -2.060  1.00  0.00     0.031 C 
ATOM     75  C   UNL     1       3.093 -12.148  -0.102  1.00  0.00     0.031 A 
BRANCH  62  76
ATOM     76  C   UNL     1       2.140 -12.259   6.006  1.00  0.00    -0.014 A 
ATOM     77  C   UNL     1       0.943 -12.484   6.711  1.00  0.00     0.010 A 
ATOM     78  C   UNL     1       3.329 -12.844   6.478  1.00  0.00     0.010 A 
ATOM     79  C   UNL     1       0.946 -13.240   7.887  1.00  0.00     0.020 A 
ATOM     80  C   UNL     1       3.331 -13.625   7.637  1.00  0.00     0.020 A 
ATOM     81  C   UNL     1       2.141 -13.803   8.345  1.00  0.00     0.054 A 
BRANCH  81  82
ATOM     82  S   UNL     1       2.113 -14.789   9.867  1.00  0.00     0.124 S 
ATOM     83  O   UNL     1       1.909 -13.763  10.886  1.00  0.00    -0.237 OA
ATOM     84  O   UNL     1       0.982 -15.687   9.644  1.00  0.00    -0.237 OA
ATOM     85  O   UNL     1       3.423 -15.435   9.887  1.00  0.00    -0.744 OA
ENDBRANCH  81  82
ENDBRANCH  62  76
BRANCH  63  86
ATOM     86  C   UNL     1       2.468  -6.465  -2.119  1.00  0.00    -0.014 A 
ATOM     87  C   UNL     1       1.529  -6.588  -3.157  1.00  0.00     0.010 A 
ATOM     88  C   UNL     1       3.485  -5.497  -2.230  1.00  0.00     0.010 A 
ATOM     89  C   UNL     1       1.607  -5.764  -4.285  1.00  0.00     0.020 A 
ATOM     90  C   UNL     1       3.548  -4.652  -3.340  1.00  0.00     0.020 A 
ATOM     91  C   UNL     1       2.612  -4.796  -4.365  1.00  0.00     0.054 A 
BRANCH  91  92
ATOM     92  S   UNL     1       2.652  -3.689  -5.803  1.00  0.00     0.124 S 
ATOM     93  O   UNL     1       3.114  -4.580  -6.861  1.00  0.00    -0.237 OA
ATOM     94  O   UNL     1       1.262  -3.253  -5.901  1.00  0.00    -0.237 OA
ATOM     95  O   UNL     1       3.597  -2.647  -5.404  1.00  0.00    -0.744 OA
ENDBRANCH  91  92
ENDBRANCH  63  86
BRANCH  75  96
ATOM     96  C   UNL     1       3.450 -13.294  -1.013  1.00  0.00    -0.014 A 
ATOM     97  C   UNL     1       4.744 -13.421  -1.548  1.00  0.00     0.010 A 
ATOM     98  C   UNL     1       2.498 -14.295  -1.282  1.00  0.00     0.010 A 
ATOM     99  C   UNL     1       5.072 -14.516  -2.354  1.00  0.00     0.020 A 
ATOM    100  C   UNL     1       2.830 -15.405  -2.063  1.00  0.00     0.020 A 
ATOM    101  C   UNL     1       4.114 -15.503  -2.604  1.00  0.00     0.054 A 
BRANCH 101 102
ATOM    102  S   UNL     1       4.583 -16.940  -3.607  1.00  0.00     0.124 S 
ATOM    103  O   UNL     1       4.681 -16.359  -4.943  1.00  0.00    -0.237 OA
ATOM    104  O   UNL     1       5.850 -17.349  -3.005  1.00  0.00    -0.237 OA
ATOM    105  O   UNL     1       3.477 -17.875  -3.414  1.00  0.00    -0.744 OA
ENDBRANCH 101 102
ENDBRANCH  75  96
ENDBRANCH  49  50
ENDBRANCH  42  44
ENDBRANCH  41  42
ENDBRANCH  40  41
ENDBRANCH  39  40
ENDBRANCH   1  39
TORSDOF 23
