REMARK SMILES COc1cc(Br)c(OC)c(C(=O)NCCC(=O)OCCOCCOC(=O)c2ccc(-c3c4nc(c(-c5ccc(S(=O)(=O)[O-])cc5)c5ccc([nH]5)c(-c5ccc(S(=O)(=O)[O-])cc5)c5nc(c(-c6ccc(S(=O)(=O)[O-])cc6)c6ccc3[nH]6)C=C5)C=C4)cc2)c1
REMARK SMILES IDX 20 1 19 2 18 3 16 4 17 5 15 6 14 7 13 8 11 9 12 10 10 12
REMARK SMILES IDX 3 13 4 14 87 15 5 16 6 17 7 18 2 19 1 20 8 21 9 22 21 23
REMARK SMILES IDX 22 24 23 25 24 26 25 27 26 28 27 29 28 30 86 31 29 32 85 33
REMARK SMILES IDX 30 34 31 35 32 36 79 37 33 38 84 39 78 40 80 41 34 42 83 43
REMARK SMILES IDX 77 44 76 45 35 47 65 48 46 49 64 50 47 51 50 52 63 53 81 54
REMARK SMILES IDX 48 55 49 56 62 58 82 59 51 60 36 61 37 62 45 63 38 64 44 65
REMARK SMILES IDX 39 66 40 67 41 68 42 69 43 70 66 71 67 72 75 73 68 74 74 75
REMARK SMILES IDX 69 76 70 77 71 78 72 79 73 80 52 81 53 82 61 83 54 84 60 85
REMARK SMILES IDX 55 86 56 87 57 88 58 89 59 90
REMARK H PARENT 13 11 80 46 50 57
REMARK Flexibility Score: inf
ROOT
ATOM      1  C   UNL     1      -6.872   6.279  -1.429  1.00  0.00     0.202 C 
ENDROOT
BRANCH   1   2
ATOM      2  C   UNL     1      -6.322   6.132  -0.009  1.00  0.00     0.261 C 
BRANCH   2   3
ATOM      3  O   UNL     1      -4.984   5.595   0.025  1.00  0.00    -0.463 OA
BRANCH   3   4
ATOM      4  C   UNL     1      -4.862   4.372   0.605  1.00  0.00     0.307 C 
ATOM      5  O   UNL     1      -5.792   3.683   1.008  1.00  0.00    -0.252 OA
BRANCH   4   6
ATOM      6  C   UNL     1      -3.424   3.953   0.763  1.00  0.00     0.144 C 
BRANCH   6   7
ATOM      7  C   UNL     1      -2.611   3.902  -0.520  1.00  0.00     0.128 C 
BRANCH   7   8
ATOM      8  N   UNL     1      -1.958   5.154  -0.883  1.00  0.00    -0.351 N 
ATOM      9  C   UNL     1      -0.632   5.477  -1.106  1.00  0.00     0.255 C 
ATOM     10  O   UNL     1      -0.364   6.609  -1.502  1.00  0.00    -0.269 OA
ATOM     11  H   UNL     1      -2.577   5.911  -0.990  1.00  0.00     0.163 HD
BRANCH   9  12
ATOM     12  C   UNL     1       0.467   4.490  -0.907  1.00  0.00     0.086 A 
ATOM     13  C   UNL     1       1.270   2.219  -1.111  1.00  0.00     0.121 A 
ATOM     14  C   UNL     1       2.450   2.562  -0.463  1.00  0.00     0.066 A 
ATOM     15  C   UNL     1       0.330   3.194  -1.421  1.00  0.00     0.064 A 
ATOM     16  C   UNL     1       2.649   3.874  -0.027  1.00  0.00     0.064 A 
ATOM     17  Br  UNL     1       4.255   4.181   0.945  1.00  0.00    -0.047 Br
ATOM     18  C   UNL     1       1.658   4.852  -0.234  1.00  0.00     0.146 A 
BRANCH  13  19
ATOM     19  O   UNL     1       0.967   0.926  -1.445  1.00  0.00    -0.497 OA
ATOM     20  C   UNL     1       1.047   0.061  -0.305  1.00  0.00     0.278 C 
ENDBRANCH  13  19
BRANCH  18  21
ATOM     21  O   UNL     1       1.739   6.099   0.331  1.00  0.00    -0.495 OA
ATOM     22  C   UNL     1       2.807   6.907  -0.170  1.00  0.00     0.278 C 
ENDBRANCH  18  21
ENDBRANCH   9  12
ENDBRANCH   7   8
ENDBRANCH   6   7
ENDBRANCH   4   6
ENDBRANCH   3   4
ENDBRANCH   2   3
ENDBRANCH   1   2
BRANCH   1  23
ATOM     23  O   UNL     1      -7.092   5.072  -2.158  1.00  0.00    -0.374 OA
BRANCH  23  24
ATOM     24  C   UNL     1      -5.946   4.428  -2.711  1.00  0.00     0.202 C 
BRANCH  24  25
ATOM     25  C   UNL     1      -5.328   5.074  -3.958  1.00  0.00     0.261 C 
BRANCH  25  26
ATOM     26  O   UNL     1      -4.727   6.350  -3.670  1.00  0.00    -0.460 OA
BRANCH  26  27
ATOM     27  C   UNL     1      -5.326   7.406  -4.271  1.00  0.00     0.338 C 
ATOM     28  O   UNL     1      -6.255   7.367  -5.070  1.00  0.00    -0.246 OA
BRANCH  27  29
ATOM     29  C   UNL     1      -4.846   8.672  -3.690  1.00  0.00     0.060 A 
ATOM     30  C   UNL     1      -5.811   9.555  -3.186  1.00  0.00     0.016 A 
ATOM     31  C   UNL     1      -3.498   9.034  -3.715  1.00  0.00     0.016 A 
ATOM     32  C   UNL     1      -5.438  10.826  -2.756  1.00  0.00     0.010 A 
ATOM     33  C   UNL     1      -3.128  10.318  -3.293  1.00  0.00     0.010 A 
ATOM     34  C   UNL     1      -4.101  11.232  -2.850  1.00  0.00    -0.014 A 
BRANCH  34  35
ATOM     35  C   UNL     1      -3.759  12.659  -2.628  1.00  0.00     0.031 A 
ATOM     36  C   UNL     1      -3.602  13.566  -3.821  1.00  0.00     0.074 A 
ATOM     37  C   UNL     1      -3.642  13.156  -1.384  1.00  0.00     0.049 A 
ATOM     38  N   UNL     1      -3.312  14.841  -3.859  1.00  0.00    -0.248 NA
ATOM     39  C   UNL     1      -3.803  12.954  -5.145  1.00  0.00     0.031 C 
ATOM     40  C   UNL     1      -3.818  12.393  -0.149  1.00  0.00     0.029 A 
ATOM     41  N   UNL     1      -3.346  14.427  -0.956  1.00  0.00    -0.354 N 
ATOM     42  C   UNL     1      -3.291  15.183  -5.207  1.00  0.00     0.074 A 
ATOM     43  C   UNL     1      -3.571  13.977  -5.954  1.00  0.00     0.031 C 
ATOM     44  C   UNL     1      -3.622  13.211   0.900  1.00  0.00     0.029 A 
ATOM     45  C   UNL     1      -3.275  14.545   0.411  1.00  0.00     0.049 A 
ATOM     46  H   UNL     1      -3.199  15.181  -1.571  1.00  0.00     0.167 HD
ATOM     47  C   UNL     1      -3.064  16.393  -5.771  1.00  0.00     0.031 A 
ATOM     48  C   UNL     1      -2.948  15.602   1.181  1.00  0.00     0.031 A 
ATOM     49  C   UNL     1      -2.769  17.590  -5.028  1.00  0.00     0.049 A 
ATOM     50  C   UNL     1      -2.624  16.920   0.527  1.00  0.00     0.074 A 
ATOM     51  C   UNL     1      -2.531  18.865  -5.509  1.00  0.00     0.029 A 
ATOM     52  N   UNL     1      -2.663  17.657  -3.647  1.00  0.00    -0.354 N 
ATOM     53  N   UNL     1      -2.628  17.233  -0.747  1.00  0.00    -0.248 NA
ATOM     54  C   UNL     1      -2.257  18.031   1.418  1.00  0.00     0.031 C 
ATOM     55  C   UNL     1      -2.229  19.693  -4.423  1.00  0.00     0.029 A 
ATOM     56  C   UNL     1      -2.338  18.947  -3.260  1.00  0.00     0.049 A 
ATOM     57  H   UNL     1      -2.799  16.901  -3.032  1.00  0.00     0.167 HD
ATOM     58  C   UNL     1      -2.290  18.581  -0.809  1.00  0.00     0.074 A 
ATOM     59  C   UNL     1      -2.102  19.028   0.556  1.00  0.00     0.031 C 
ATOM     60  C   UNL     1      -2.151  19.378  -1.898  1.00  0.00     0.031 A 
BRANCH  47  61
ATOM     61  C   UNL     1      -3.093  16.475  -7.274  1.00  0.00    -0.014 A 
ATOM     62  C   UNL     1      -4.303  16.384  -7.986  1.00  0.00     0.010 A 
ATOM     63  C   UNL     1      -1.896  16.682  -7.984  1.00  0.00     0.010 A 
ATOM     64  C   UNL     1      -4.311  16.464  -9.382  1.00  0.00     0.020 A 
ATOM     65  C   UNL     1      -1.903  16.787  -9.377  1.00  0.00     0.020 A 
ATOM     66  C   UNL     1      -3.109  16.661 -10.069  1.00  0.00     0.054 A 
BRANCH  66  67
ATOM     67  S   UNL     1      -3.150  16.782 -11.878  1.00  0.00     0.124 S 
ATOM     68  O   UNL     1      -3.397  15.395 -12.267  1.00  0.00    -0.237 OA
ATOM     69  O   UNL     1      -4.256  17.706 -12.114  1.00  0.00    -0.237 OA
ATOM     70  O   UNL     1      -1.827  17.298 -12.222  1.00  0.00    -0.744 OA
ENDBRANCH  66  67
ENDBRANCH  47  61
BRANCH  48  71
ATOM     71  C   UNL     1      -2.890  15.452   2.661  1.00  0.00    -0.014 A 
ATOM     72  C   UNL     1      -3.838  16.079   3.487  1.00  0.00     0.010 A 
ATOM     73  C   UNL     1      -1.876  14.675   3.252  1.00  0.00     0.010 A 
ATOM     74  C   UNL     1      -3.766  15.944   4.877  1.00  0.00     0.020 A 
ATOM     75  C   UNL     1      -1.816  14.515   4.639  1.00  0.00     0.020 A 
ATOM     76  C   UNL     1      -2.756  15.160   5.444  1.00  0.00     0.054 A 
BRANCH  76  77
ATOM     77  S   UNL     1      -2.713  14.954   7.246  1.00  0.00     0.124 S 
ATOM     78  O   UNL     1      -2.215  16.252   7.689  1.00  0.00    -0.237 OA
ATOM     79  O   UNL     1      -4.111  14.670   7.565  1.00  0.00    -0.237 OA
ATOM     80  O   UNL     1      -1.798  13.832   7.440  1.00  0.00    -0.744 OA
ENDBRANCH  76  77
ENDBRANCH  48  71
BRANCH  60  81
ATOM     81  C   UNL     1      -1.810  20.826  -1.663  1.00  0.00    -0.014 A 
ATOM     82  C   UNL     1      -0.523  21.215  -1.249  1.00  0.00     0.010 A 
ATOM     83  C   UNL     1      -2.776  21.817  -1.918  1.00  0.00     0.010 A 
ATOM     84  C   UNL     1      -0.219  22.567  -1.067  1.00  0.00     0.020 A 
ATOM     85  C   UNL     1      -2.467  23.171  -1.763  1.00  0.00     0.020 A 
ATOM     86  C   UNL     1      -1.194  23.537  -1.324  1.00  0.00     0.054 A 
BRANCH  86  87
ATOM     87  S   UNL     1      -0.761  25.287  -1.124  1.00  0.00     0.124 S 
ATOM     88  O   UNL     1      -0.736  25.430   0.329  1.00  0.00    -0.237 OA
ATOM     89  O   UNL     1       0.539  25.375  -1.785  1.00  0.00    -0.237 OA
ATOM     90  O   UNL     1      -1.846  25.993  -1.801  1.00  0.00    -0.744 OA
ENDBRANCH  86  87
ENDBRANCH  60  81
ENDBRANCH  34  35
ENDBRANCH  27  29
ENDBRANCH  26  27
ENDBRANCH  25  26
ENDBRANCH  24  25
ENDBRANCH  23  24
ENDBRANCH   1  23
TORSDOF 22
