REMARK SMILES COc1ccc(-c2ncn(CC(=O)OCCOCCOC(=O)c3ccc(-c4c5nc(c(-c6ccc(S(=O)(=O)[O-])cc6)c6ccc([nH]6)c(-c6ccc(S(=O)(=O)[O-])cc6)c6nc(c(-c7ccc(S(=O)(=O)[O-])cc7)c7ccc4[nH]7)C=C6)C=C5)cc3)c2-c2ccc(OC)cc2)cc1
REMARK SMILES IDX 17 1 16 2 15 3 14 4 12 5 13 6 11 7 10 8 7 9 8 10 83 11 9 12
REMARK SMILES IDX 6 13 3 14 4 15 93 16 5 17 92 18 2 19 1 20 84 21 85 22 91 23
REMARK SMILES IDX 86 24 90 25 87 26 88 27 89 28 18 29 19 30 20 31 21 32 22 33
REMARK SMILES IDX 23 34 24 35 82 36 25 37 81 38 26 39 27 40 28 41 75 42 29 43
REMARK SMILES IDX 80 44 74 45 76 46 30 47 79 48 73 49 72 50 31 52 61 53 42 54
REMARK SMILES IDX 60 55 43 56 46 57 59 58 77 59 44 60 45 61 58 63 78 64 47 65
REMARK SMILES IDX 32 66 33 67 41 68 34 69 40 70 35 71 36 72 37 73 38 74 39 75
REMARK SMILES IDX 62 76 63 77 71 78 64 79 70 80 65 81 66 82 67 83 68 84 69 85
REMARK SMILES IDX 48 86 49 87 57 88 50 89 56 90 51 91 52 92 53 93 54 94 55 95
REMARK H PARENT 76 51 46 62
REMARK Flexibility Score: inf
ROOT
ATOM      1  O   UNL     1      -2.653 -10.307   2.836  1.00  0.00    -0.374 OA
ENDROOT
BRANCH   1   2
ATOM      2  C   UNL     1      -2.322 -10.677   4.161  1.00  0.00     0.202 C 
BRANCH   2   3
ATOM      3  C   UNL     1      -0.820 -10.890   4.392  1.00  0.00     0.261 C 
BRANCH   3   4
ATOM      4  O   UNL     1       0.023 -10.001   3.621  1.00  0.00    -0.462 OA
BRANCH   4   5
ATOM      5  C   UNL     1       0.734 -10.554   2.607  1.00  0.00     0.326 C 
ATOM      6  O   UNL     1       0.782 -11.763   2.390  1.00  0.00    -0.250 OA
BRANCH   5   7
ATOM      7  C   UNL     1       1.456  -9.582   1.698  1.00  0.00     0.246 C 
BRANCH   7   8
ATOM      8  N   UNL     1       1.583  -8.184   2.097  1.00  0.00    -0.319 N 
ATOM      9  C   UNL     1       1.707  -5.998   2.115  1.00  0.00     0.096 A 
ATOM     10  N   UNL     1       2.391  -6.436   3.217  1.00  0.00    -0.236 NA
ATOM     11  C   UNL     1       1.211  -7.063   1.368  1.00  0.00     0.076 A 
ATOM     12  C   UNL     1       2.321  -7.747   3.169  1.00  0.00     0.201 A 
BRANCH   9  13
ATOM     13  C   UNL     1       1.479  -4.609   1.767  1.00  0.00     0.003 A 
ATOM     14  C   UNL     1       0.880  -2.077   0.710  1.00  0.00     0.118 A 
ATOM     15  C   UNL     1      -0.130  -2.888   1.223  1.00  0.00     0.047 A 
ATOM     16  C   UNL     1       2.203  -2.517   0.765  1.00  0.00     0.047 A 
ATOM     17  C   UNL     1       0.171  -4.123   1.786  1.00  0.00     0.014 A 
ATOM     18  C   UNL     1       2.503  -3.788   1.285  1.00  0.00     0.014 A 
BRANCH  14  19
ATOM     19  O   UNL     1       0.425  -0.882   0.232  1.00  0.00    -0.497 OA
ATOM     20  C   UNL     1       1.354  -0.035  -0.425  1.00  0.00     0.278 C 
ENDBRANCH  14  19
ENDBRANCH   9  13
BRANCH  11  21
ATOM     21  C   UNL     1       0.432  -7.036   0.126  1.00  0.00     0.001 A 
ATOM     22  C   UNL     1      -0.950  -6.821   0.177  1.00  0.00     0.014 A 
ATOM     23  C   UNL     1       1.037  -7.122  -1.129  1.00  0.00     0.014 A 
ATOM     24  C   UNL     1      -1.741  -6.811  -0.967  1.00  0.00     0.047 A 
ATOM     25  C   UNL     1       0.254  -7.080  -2.293  1.00  0.00     0.047 A 
ATOM     26  C   UNL     1      -1.131  -6.945  -2.202  1.00  0.00     0.118 A 
BRANCH  26  27
ATOM     27  O   UNL     1      -1.899  -7.036  -3.326  1.00  0.00    -0.497 OA
ATOM     28  C   UNL     1      -2.277  -5.747  -3.807  1.00  0.00     0.278 C 
ENDBRANCH  26  27
ENDBRANCH  11  21
ENDBRANCH   7   8
ENDBRANCH   5   7
ENDBRANCH   4   5
ENDBRANCH   3   4
ENDBRANCH   2   3
ENDBRANCH   1   2
BRANCH   1  29
ATOM     29  C   UNL     1      -2.496  -8.951   2.432  1.00  0.00     0.202 C 
BRANCH  29  30
ATOM     30  C   UNL     1      -1.916  -7.879   3.358  1.00  0.00     0.261 C 
BRANCH  30  31
ATOM     31  O   UNL     1      -2.396  -7.938   4.696  1.00  0.00    -0.460 OA
BRANCH  31  32
ATOM     32  C   UNL     1      -3.313  -6.986   4.957  1.00  0.00     0.338 C 
ATOM     33  O   UNL     1      -4.512  -7.168   4.880  1.00  0.00    -0.246 OA
BRANCH  32  34
ATOM     34  C   UNL     1      -2.655  -5.717   5.346  1.00  0.00     0.060 A 
ATOM     35  C   UNL     1      -3.487  -4.659   5.707  1.00  0.00     0.016 A 
ATOM     36  C   UNL     1      -1.257  -5.552   5.293  1.00  0.00     0.016 A 
ATOM     37  C   UNL     1      -2.925  -3.430   5.998  1.00  0.00     0.010 A 
ATOM     38  C   UNL     1      -0.699  -4.314   5.535  1.00  0.00     0.010 A 
ATOM     39  C   UNL     1      -1.539  -3.266   5.897  1.00  0.00    -0.014 A 
BRANCH  39  40
ATOM     40  C   UNL     1      -0.969  -2.023   6.373  1.00  0.00     0.031 A 
ATOM     41  C   UNL     1      -0.861  -1.917   7.839  1.00  0.00     0.074 A 
ATOM     42  C   UNL     1      -0.449  -1.077   5.579  1.00  0.00     0.049 A 
ATOM     43  N   UNL     1      -1.554  -1.151   8.612  1.00  0.00    -0.248 NA
ATOM     44  C   UNL     1       0.033  -2.850   8.539  1.00  0.00     0.031 C 
ATOM     45  C   UNL     1      -0.218  -1.173   4.148  1.00  0.00     0.029 A 
ATOM     46  N   UNL     1       0.087   0.126   5.911  1.00  0.00    -0.354 N 
ATOM     47  C   UNL     1      -1.036  -1.346   9.882  1.00  0.00     0.074 A 
ATOM     48  C   UNL     1      -0.200  -2.520   9.810  1.00  0.00     0.031 C 
ATOM     49  C   UNL     1       0.612  -0.181   3.764  1.00  0.00     0.029 A 
ATOM     50  C   UNL     1       0.843   0.692   4.899  1.00  0.00     0.049 A 
ATOM     51  H   UNL     1      -0.048   0.553   6.787  1.00  0.00     0.167 HD
ATOM     52  C   UNL     1      -1.121  -0.386  10.840  1.00  0.00     0.031 A 
ATOM     53  C   UNL     1       1.656   1.768   4.997  1.00  0.00     0.031 A 
ATOM     54  C   UNL     1      -2.054   0.655  10.496  1.00  0.00     0.049 A 
ATOM     55  C   UNL     1       1.187   2.568   6.152  1.00  0.00     0.074 A 
ATOM     56  C   UNL     1      -3.403   0.696  10.205  1.00  0.00     0.029 A 
ATOM     57  N   UNL     1      -1.526   1.838  10.031  1.00  0.00    -0.354 N 
ATOM     58  N   UNL     1       0.023   3.159   6.184  1.00  0.00    -0.248 NA
ATOM     59  C   UNL     1       1.819   2.388   7.450  1.00  0.00     0.031 C 
ATOM     60  C   UNL     1      -3.542   1.702   9.204  1.00  0.00     0.029 A 
ATOM     61  C   UNL     1      -2.279   2.244   8.956  1.00  0.00     0.049 A 
ATOM     62  H   UNL     1      -0.746   2.310  10.402  1.00  0.00     0.167 HD
ATOM     63  C   UNL     1      -0.412   3.022   7.494  1.00  0.00     0.074 A 
ATOM     64  C   UNL     1       0.787   2.677   8.250  1.00  0.00     0.031 C 
ATOM     65  C   UNL     1      -1.743   2.921   7.788  1.00  0.00     0.031 A 
BRANCH  52  66
ATOM     66  C   UNL     1      -0.061  -0.205  11.890  1.00  0.00    -0.014 A 
ATOM     67  C   UNL     1      -0.309   0.643  12.984  1.00  0.00     0.010 A 
ATOM     68  C   UNL     1       1.268  -0.640  11.695  1.00  0.00     0.010 A 
ATOM     69  C   UNL     1       0.735   1.064  13.819  1.00  0.00     0.020 A 
ATOM     70  C   UNL     1       2.305  -0.267  12.547  1.00  0.00     0.020 A 
ATOM     71  C   UNL     1       2.037   0.615  13.584  1.00  0.00     0.054 A 
BRANCH  71  72
ATOM     72  S   UNL     1       3.396   1.252  14.592  1.00  0.00     0.124 S 
ATOM     73  O   UNL     1       3.488   2.633  14.126  1.00  0.00    -0.237 OA
ATOM     74  O   UNL     1       2.890   1.073  15.950  1.00  0.00    -0.237 OA
ATOM     75  O   UNL     1       4.520   0.391  14.233  1.00  0.00    -0.744 OA
ENDBRANCH  71  72
ENDBRANCH  52  66
BRANCH  53  76
ATOM     76  C   UNL     1       2.975   1.921   4.340  1.00  0.00    -0.014 A 
ATOM     77  C   UNL     1       3.630   3.161   4.288  1.00  0.00     0.010 A 
ATOM     78  C   UNL     1       3.710   0.772   3.970  1.00  0.00     0.010 A 
ATOM     79  C   UNL     1       4.987   3.242   3.929  1.00  0.00     0.020 A 
ATOM     80  C   UNL     1       5.056   0.845   3.603  1.00  0.00     0.020 A 
ATOM     81  C   UNL     1       5.695   2.080   3.606  1.00  0.00     0.054 A 
BRANCH  81  82
ATOM     82  S   UNL     1       7.484   2.174   3.308  1.00  0.00     0.124 S 
ATOM     83  O   UNL     1       7.546   2.843   2.012  1.00  0.00    -0.237 OA
ATOM     84  O   UNL     1       7.956   2.954   4.448  1.00  0.00    -0.237 OA
ATOM     85  O   UNL     1       7.907   0.774   3.302  1.00  0.00    -0.744 OA
ENDBRANCH  81  82
ENDBRANCH  53  76
BRANCH  65  86
ATOM     86  C   UNL     1      -2.739   3.278   6.703  1.00  0.00    -0.014 A 
ATOM     87  C   UNL     1      -2.849   2.561   5.495  1.00  0.00     0.010 A 
ATOM     88  C   UNL     1      -3.695   4.272   6.976  1.00  0.00     0.010 A 
ATOM     89  C   UNL     1      -3.872   2.845   4.577  1.00  0.00     0.020 A 
ATOM     90  C   UNL     1      -4.727   4.550   6.073  1.00  0.00     0.020 A 
ATOM     91  C   UNL     1      -4.808   3.839   4.874  1.00  0.00     0.054 A 
BRANCH  91  92
ATOM     92  S   UNL     1      -6.168   4.154   3.713  1.00  0.00     0.124 S 
ATOM     93  O   UNL     1      -5.486   4.783   2.585  1.00  0.00    -0.237 OA
ATOM     94  O   UNL     1      -6.699   2.816   3.460  1.00  0.00    -0.237 OA
ATOM     95  O   UNL     1      -7.066   5.035   4.460  1.00  0.00    -0.744 OA
ENDBRANCH  91  92
ENDBRANCH  65  86
ENDBRANCH  39  40
ENDBRANCH  32  34
ENDBRANCH  31  32
ENDBRANCH  30  31
ENDBRANCH  29  30
ENDBRANCH   1  29
TORSDOF 22
