REMARK SMILES O=C(Cc1ccn(-c2ccccc2F)c1)OCCOCCOC(=O)c1ccc(-c2c3nc(c(-c4ccc(S(=O)(=O)[O-])cc4)c4ccc([nH]4)c(-c4ccc(S(=O)(=O)[O-])cc4)c4nc(c(-c5ccc(S(=O)(=O)[O-])cc5)c5ccc2[nH]5)C=C4)C=C3)cc1
REMARK SMILES IDX 20 1 19 2 18 3 17 4 16 5 2 6 1 7 3 8 4 9 5 10 15 11 6 12
REMARK SMILES IDX 7 13 8 14 9 15 13 16 10 17 12 18 14 19 11 20 21 21 22 22
REMARK SMILES IDX 23 23 24 24 25 25 26 26 84 27 27 28 83 29 28 30 29 31 30 32
REMARK SMILES IDX 77 33 31 34 82 35 76 36 78 37 32 38 81 39 75 40 74 41 33 43
REMARK SMILES IDX 63 44 44 45 62 46 45 47 48 48 61 49 79 50 46 51 47 52 60 54
REMARK SMILES IDX 80 55 49 56 34 57 35 58 43 59 36 60 42 61 37 62 38 63 39 64
REMARK SMILES IDX 40 65 41 66 64 67 65 68 73 69 66 70 72 71 67 72 68 73 69 74
REMARK SMILES IDX 70 75 71 76 50 77 51 78 59 79 52 80 58 81 53 82 54 83 55 84
REMARK SMILES IDX 56 85 57 86
REMARK H PARENT 78 42 48 53
REMARK Flexibility Score: inf
ROOT
ATOM      1  C   UNL     1       2.736  -0.927   1.890  1.00  0.00     0.202 C 
ENDROOT
BRANCH   1   2
ATOM      2  O   UNL     1       3.988  -1.048   1.212  1.00  0.00    -0.374 OA
BRANCH   2   3
ATOM      3  C   UNL     1       4.651   0.160   0.859  1.00  0.00     0.202 C 
BRANCH   3   4
ATOM      4  C   UNL     1       4.179   0.852  -0.411  1.00  0.00     0.261 C 
BRANCH   4   5
ATOM      5  O   UNL     1       2.761   1.031  -0.530  1.00  0.00    -0.463 OA
BRANCH   5   6
ATOM      6  C   UNL     1       1.949   0.250  -1.282  1.00  0.00     0.310 C 
ATOM      7  O   UNL     1       0.867   0.696  -1.667  1.00  0.00    -0.252 OA
BRANCH   6   8
ATOM      8  C   UNL     1       2.304  -1.198  -1.518  1.00  0.00     0.159 C 
BRANCH   8   9
ATOM      9  C   UNL     1       3.401  -1.494  -2.480  1.00  0.00    -0.019 A 
ATOM     10  C   UNL     1       4.081  -0.629  -3.379  1.00  0.00     0.024 A 
ATOM     11  C   UNL     1       3.961  -2.745  -2.659  1.00  0.00     0.095 A 
ATOM     12  C   UNL     1       5.111  -1.345  -3.947  1.00  0.00     0.091 A 
ATOM     13  N   UNL     1       4.940  -2.671  -3.620  1.00  0.00    -0.321 N 
BRANCH  13  14
ATOM     14  C   UNL     1       5.576  -3.758  -4.251  1.00  0.00     0.081 A 
ATOM     15  C   UNL     1       6.911  -3.659  -4.657  1.00  0.00     0.030 A 
ATOM     16  C   UNL     1       4.826  -4.890  -4.578  1.00  0.00     0.147 A 
ATOM     17  C   UNL     1       7.480  -4.695  -5.401  1.00  0.00     0.002 A 
ATOM     18  C   UNL     1       5.383  -5.899  -5.355  1.00  0.00     0.041 A 
ATOM     19  F   UNL     1       3.529  -4.992  -4.252  1.00  0.00    -0.205 F 
ATOM     20  C   UNL     1       6.711  -5.802  -5.768  1.00  0.00     0.003 A 
ENDBRANCH  13  14
ENDBRANCH   8   9
ENDBRANCH   6   8
ENDBRANCH   5   6
ENDBRANCH   4   5
ENDBRANCH   3   4
ENDBRANCH   2   3
ENDBRANCH   1   2
BRANCH   1  21
ATOM     21  C   UNL     1       2.792  -0.567   3.363  1.00  0.00     0.261 C 
BRANCH  21  22
ATOM     22  O   UNL     1       3.155   0.797   3.564  1.00  0.00    -0.460 OA
BRANCH  22  23
ATOM     23  C   UNL     1       4.423   0.974   3.975  1.00  0.00     0.338 C 
ATOM     24  O   UNL     1       5.364   0.193   3.867  1.00  0.00    -0.246 OA
BRANCH  23  25
ATOM     25  C   UNL     1       4.521   2.251   4.665  1.00  0.00     0.060 A 
ATOM     26  C   UNL     1       5.779   2.859   4.748  1.00  0.00     0.016 A 
ATOM     27  C   UNL     1       3.417   2.704   5.404  1.00  0.00     0.016 A 
ATOM     28  C   UNL     1       5.956   3.878   5.658  1.00  0.00     0.010 A 
ATOM     29  C   UNL     1       3.610   3.690   6.344  1.00  0.00     0.010 A 
ATOM     30  C   UNL     1       4.884   4.248   6.479  1.00  0.00    -0.014 A 
BRANCH  30  31
ATOM     31  C   UNL     1       5.097   5.299   7.475  1.00  0.00     0.031 A 
ATOM     32  C   UNL     1       4.814   6.678   6.912  1.00  0.00     0.074 A 
ATOM     33  C   UNL     1       5.543   4.876   8.692  1.00  0.00     0.049 A 
ATOM     34  N   UNL     1       5.319   7.818   7.260  1.00  0.00    -0.248 NA
ATOM     35  C   UNL     1       3.920   6.810   5.729  1.00  0.00     0.031 C 
ATOM     36  C   UNL     1       5.781   3.458   9.046  1.00  0.00     0.029 A 
ATOM     37  N   UNL     1       5.888   5.517   9.858  1.00  0.00    -0.354 N 
ATOM     38  C   UNL     1       4.678   8.801   6.486  1.00  0.00     0.074 A 
ATOM     39  C   UNL     1       3.930   8.117   5.476  1.00  0.00     0.031 C 
ATOM     40  C   UNL     1       6.286   3.356  10.292  1.00  0.00     0.029 A 
ATOM     41  C   UNL     1       6.397   4.678  10.876  1.00  0.00     0.049 A 
ATOM     42  H   UNL     1       5.788   6.489   9.976  1.00  0.00     0.167 HD
ATOM     43  C   UNL     1       4.666  10.120   6.819  1.00  0.00     0.031 A 
ATOM     44  C   UNL     1       6.908   5.020  12.095  1.00  0.00     0.031 A 
ATOM     45  C   UNL     1       5.452  10.359   7.984  1.00  0.00     0.049 A 
ATOM     46  C   UNL     1       6.707   6.474  12.244  1.00  0.00     0.074 A 
ATOM     47  C   UNL     1       6.800  10.330   8.235  1.00  0.00     0.029 A 
ATOM     48  N   UNL     1       4.777  10.333   9.182  1.00  0.00    -0.354 N 
ATOM     49  N   UNL     1       5.562   7.059  12.425  1.00  0.00    -0.248 NA
ATOM     50  C   UNL     1       7.865   7.368  12.108  1.00  0.00     0.031 C 
ATOM     51  C   UNL     1       6.893   9.852   9.563  1.00  0.00     0.029 A 
ATOM     52  C   UNL     1       5.605   9.724  10.095  1.00  0.00     0.049 A 
ATOM     53  H   UNL     1       3.873  10.684   9.354  1.00  0.00     0.167 HD
ATOM     54  C   UNL     1       5.818   8.354  12.044  1.00  0.00     0.074 A 
ATOM     55  C   UNL     1       7.246   8.544  12.170  1.00  0.00     0.031 C 
ATOM     56  C   UNL     1       4.987   8.974  11.167  1.00  0.00     0.031 A 
BRANCH  43  57
ATOM     57  C   UNL     1       3.746  11.207   6.348  1.00  0.00    -0.014 A 
ATOM     58  C   UNL     1       4.113  12.538   6.657  1.00  0.00     0.010 A 
ATOM     59  C   UNL     1       2.424  10.970   5.940  1.00  0.00     0.010 A 
ATOM     60  C   UNL     1       3.168  13.562   6.694  1.00  0.00     0.020 A 
ATOM     61  C   UNL     1       1.478  12.004   5.933  1.00  0.00     0.020 A 
ATOM     62  C   UNL     1       1.845  13.277   6.368  1.00  0.00     0.054 A 
BRANCH  62  63
ATOM     63  S   UNL     1       0.598  14.568   6.607  1.00  0.00     0.124 S 
ATOM     64  O   UNL     1       0.425  14.558   8.056  1.00  0.00    -0.237 OA
ATOM     65  O   UNL     1       1.258  15.754   6.063  1.00  0.00    -0.237 OA
ATOM     66  O   UNL     1      -0.541  14.089   5.828  1.00  0.00    -0.744 OA
ENDBRANCH  62  63
ENDBRANCH  43  57
BRANCH  44  67
ATOM     67  C   UNL     1       7.687   4.327  13.184  1.00  0.00    -0.014 A 
ATOM     68  C   UNL     1       8.029   2.968  13.214  1.00  0.00     0.010 A 
ATOM     69  C   UNL     1       8.238   5.125  14.222  1.00  0.00     0.010 A 
ATOM     70  C   UNL     1       8.976   2.471  14.137  1.00  0.00     0.020 A 
ATOM     71  C   UNL     1       9.209   4.660  15.111  1.00  0.00     0.020 A 
ATOM     72  C   UNL     1       9.595   3.332  15.047  1.00  0.00     0.054 A 
BRANCH  72  73
ATOM     73  S   UNL     1      10.994   2.782  16.061  1.00  0.00     0.124 S 
ATOM     74  O   UNL     1      10.344   2.397  17.308  1.00  0.00    -0.237 OA
ATOM     75  O   UNL     1      11.560   1.685  15.278  1.00  0.00    -0.237 OA
ATOM     76  O   UNL     1      11.837   3.975  16.134  1.00  0.00    -0.744 OA
ENDBRANCH  72  73
ENDBRANCH  44  67
BRANCH  56  77
ATOM     77  C   UNL     1       3.566   8.430  11.135  1.00  0.00    -0.014 A 
ATOM     78  C   UNL     1       2.745   8.526  12.273  1.00  0.00     0.010 A 
ATOM     79  C   UNL     1       3.052   7.731  10.024  1.00  0.00     0.010 A 
ATOM     80  C   UNL     1       1.471   7.936  12.306  1.00  0.00     0.020 A 
ATOM     81  C   UNL     1       1.779   7.137  10.045  1.00  0.00     0.020 A 
ATOM     82  C   UNL     1       0.996   7.240  11.192  1.00  0.00     0.054 A 
BRANCH  82  83
ATOM     83  S   UNL     1      -0.636   6.443  11.282  1.00  0.00     0.124 S 
ATOM     84  O   UNL     1      -0.510   5.578  12.453  1.00  0.00    -0.237 OA
ATOM     85  O   UNL     1      -1.536   7.581  11.441  1.00  0.00    -0.237 OA
ATOM     86  O   UNL     1      -0.751   5.734  10.007  1.00  0.00    -0.744 OA
ENDBRANCH  82  83
ENDBRANCH  56  77
ENDBRANCH  30  31
ENDBRANCH  23  25
ENDBRANCH  22  23
ENDBRANCH  21  22
ENDBRANCH   1  21
TORSDOF 19
