REMARK SMILES C[C@@H](C(=O)OCCOCCOC(=O)c1ccc(-c2c3nc(c(-c4ccc(S(=O)(=O)[O-])cc4)c4ccc([nH]4)c(-c4ccc(S(=O)(=O)[O-])cc4)c4nc(c(-c5ccc(S(=O)(=O)[O-])cc5)c5ccc2[nH]5)C=C4)C=C3)cc1)c1ccc(-c2cccc(OC(=O)Nc3ccccc3)c2)c(F)c1
REMARK SMILES IDX 7 1 6 2 5 3 3 4 4 5 2 6 1 7 74 8 75 9 96 10 76 11 94 12
REMARK SMILES IDX 77 13 95 14 78 15 79 16 93 17 80 18 82 19 81 20 83 21 84 22
REMARK SMILES IDX 85 23 86 24 87 26 88 27 92 28 89 29 91 30 90 31 8 32 9 33
REMARK SMILES IDX 10 34 11 35 12 36 13 37 14 38 15 39 73 40 16 41 72 42 17 43
REMARK SMILES IDX 18 44 19 45 66 46 20 47 71 48 65 49 67 50 21 51 70 52 64 53
REMARK SMILES IDX 63 54 22 56 52 57 33 58 51 59 34 60 37 61 50 62 68 63 35 64
REMARK SMILES IDX 36 65 49 67 69 68 38 69 23 70 24 71 32 72 25 73 31 74 26 75
REMARK SMILES IDX 27 76 28 77 29 78 30 79 53 80 54 81 62 82 55 83 61 84 56 85
REMARK SMILES IDX 57 86 58 87 59 88 60 89 39 90 40 91 48 92 41 93 47 94 42 95
REMARK SMILES IDX 43 96 44 97 45 98 46 99
REMARK H PARENT 86 25 67 55 37 66
REMARK Flexibility Score: inf
ROOT
ATOM      1  C   UNL     1       2.344  -1.835  -4.178  1.00  0.00     0.202 C 
ENDROOT
BRANCH   1   2
ATOM      2  C   UNL     1       2.277  -0.306  -4.121  1.00  0.00     0.261 C 
BRANCH   2   3
ATOM      3  O   UNL     1       2.003   0.139  -2.778  1.00  0.00    -0.463 OA
BRANCH   3   4
ATOM      4  C   UNL     1       0.994   1.039  -2.646  1.00  0.00     0.313 C 
ATOM      5  O   UNL     1       0.439   1.599  -3.586  1.00  0.00    -0.252 OA
BRANCH   4   6
ATOM      6  C   UNL     1       0.587   1.267  -1.183  1.00  0.00     0.126 C 
ATOM      7  C   UNL     1       1.360   0.439  -0.149  1.00  0.00     0.025 C 
BRANCH   6   8
ATOM      8  C   UNL     1      -0.926   1.121  -1.046  1.00  0.00    -0.031 A 
ATOM      9  C   UNL     1      -1.746   2.250  -1.195  1.00  0.00     0.005 A 
ATOM     10  C   UNL     1      -1.546  -0.122  -0.882  1.00  0.00     0.044 A 
ATOM     11  C   UNL     1      -3.143   2.136  -1.178  1.00  0.00     0.012 A 
ATOM     12  C   UNL     1      -2.936  -0.230  -0.888  1.00  0.00     0.131 A 
ATOM     13  C   UNL     1      -3.767   0.890  -1.024  1.00  0.00     0.018 A 
ATOM     14  F   UNL     1      -3.464  -1.459  -0.766  1.00  0.00    -0.206 F 
BRANCH  13  15
ATOM     15  C   UNL     1      -5.233   0.772  -0.943  1.00  0.00    -0.012 A 
ATOM     16  C   UNL     1      -6.087   1.389  -1.871  1.00  0.00     0.009 A 
ATOM     17  C   UNL     1      -5.813   0.050   0.113  1.00  0.00     0.056 A 
ATOM     18  C   UNL     1      -7.477   1.292  -1.742  1.00  0.00     0.004 A 
ATOM     19  C   UNL     1      -7.194  -0.040   0.249  1.00  0.00     0.133 A 
ATOM     20  C   UNL     1      -8.031   0.579  -0.679  1.00  0.00     0.047 A 
BRANCH  19  21
ATOM     21  O   UNL     1      -7.846  -0.702   1.319  1.00  0.00    -0.410 OA
BRANCH  21  22
ATOM     22  C   UNL     1      -7.228  -1.263   2.437  1.00  0.00     0.417 C 
ATOM     23  O   UNL     1      -6.019  -1.380   2.612  1.00  0.00    -0.224 OA
ATOM     24  N   UNL     1      -8.079  -1.601   3.456  1.00  0.00    -0.291 N 
ATOM     25  H   UNL     1      -7.634  -1.846   4.299  1.00  0.00     0.173 HD
BRANCH  24  26
ATOM     26  C   UNL     1      -9.478  -1.655   3.498  1.00  0.00     0.044 A 
ATOM     27  C   UNL     1     -10.075  -1.603   4.763  1.00  0.00     0.026 A 
ATOM     28  C   UNL     1     -10.286  -1.797   2.369  1.00  0.00     0.026 A 
ATOM     29  C   UNL     1     -11.464  -1.643   4.894  1.00  0.00     0.002 A 
ATOM     30  C   UNL     1     -11.675  -1.858   2.502  1.00  0.00     0.002 A 
ATOM     31  C   UNL     1     -12.264  -1.770   3.762  1.00  0.00     0.000 A 
ENDBRANCH  24  26
ENDBRANCH  21  22
ENDBRANCH  19  21
ENDBRANCH  13  15
ENDBRANCH   6   8
ENDBRANCH   4   6
ENDBRANCH   3   4
ENDBRANCH   2   3
ENDBRANCH   1   2
BRANCH   1  32
ATOM     32  O   UNL     1       1.107  -2.530  -3.993  1.00  0.00    -0.374 OA
BRANCH  32  33
ATOM     33  C   UNL     1       0.567  -2.550  -2.674  1.00  0.00     0.202 C 
BRANCH  33  34
ATOM     34  C   UNL     1       1.162  -3.567  -1.693  1.00  0.00     0.261 C 
BRANCH  34  35
ATOM     35  O   UNL     1       2.566  -3.360  -1.472  1.00  0.00    -0.460 OA
BRANCH  35  36
ATOM     36  C   UNL     1       3.363  -4.295  -2.049  1.00  0.00     0.338 C 
ATOM     37  O   UNL     1       3.008  -5.308  -2.628  1.00  0.00    -0.246 OA
BRANCH  36  38
ATOM     38  C   UNL     1       4.763  -3.832  -2.056  1.00  0.00     0.060 A 
ATOM     39  C   UNL     1       5.428  -3.831  -3.289  1.00  0.00     0.016 A 
ATOM     40  C   UNL     1       5.436  -3.475  -0.885  1.00  0.00     0.016 A 
ATOM     41  C   UNL     1       6.784  -3.526  -3.350  1.00  0.00     0.010 A 
ATOM     42  C   UNL     1       6.802  -3.178  -0.948  1.00  0.00     0.010 A 
ATOM     43  C   UNL     1       7.489  -3.239  -2.174  1.00  0.00    -0.014 A 
BRANCH  43  44
ATOM     44  C   UNL     1       8.969  -3.163  -2.220  1.00  0.00     0.031 A 
ATOM     45  C   UNL     1       9.772  -4.369  -1.810  1.00  0.00     0.074 A 
ATOM     46  C   UNL     1       9.588  -2.057  -2.669  1.00  0.00     0.049 A 
ATOM     47  N   UNL     1      11.070  -4.528  -1.782  1.00  0.00    -0.248 NA
ATOM     48  C   UNL     1       9.010  -5.553  -1.379  1.00  0.00     0.031 C 
ATOM     49  C   UNL     1       8.919  -0.845  -3.142  1.00  0.00     0.029 A 
ATOM     50  N   UNL     1      10.925  -1.777  -2.804  1.00  0.00    -0.354 N 
ATOM     51  C   UNL     1      11.281  -5.823  -1.321  1.00  0.00     0.074 A 
ATOM     52  C   UNL     1       9.980  -6.397  -1.058  1.00  0.00     0.031 C 
ATOM     53  C   UNL     1       9.850   0.049  -3.516  1.00  0.00     0.029 A 
ATOM     54  C   UNL     1      11.178  -0.513  -3.280  1.00  0.00     0.049 A 
ATOM     55  H   UNL     1      11.635  -2.422  -2.582  1.00  0.00     0.167 HD
ATOM     56  C   UNL     1      12.453  -6.477  -1.139  1.00  0.00     0.031 A 
ATOM     57  C   UNL     1      12.348   0.124  -3.485  1.00  0.00     0.031 A 
ATOM     58  C   UNL     1      13.746  -5.899  -1.392  1.00  0.00     0.049 A 
ATOM     59  C   UNL     1      13.640  -0.599  -3.204  1.00  0.00     0.074 A 
ATOM     60  C   UNL     1      14.992  -6.486  -1.254  1.00  0.00     0.029 A 
ATOM     61  N   UNL     1      13.961  -4.600  -1.826  1.00  0.00    -0.354 N 
ATOM     62  N   UNL     1      13.822  -1.832  -2.792  1.00  0.00    -0.248 NA
ATOM     63  C   UNL     1      14.883   0.153  -3.424  1.00  0.00     0.031 C 
ATOM     64  C   UNL     1      15.962  -5.523  -1.550  1.00  0.00     0.029 A 
ATOM     65  C   UNL     1      15.320  -4.356  -1.933  1.00  0.00     0.049 A 
ATOM     66  H   UNL     1      13.252  -3.948  -2.029  1.00  0.00     0.167 HD
ATOM     67  C   UNL     1      15.201  -2.010  -2.730  1.00  0.00     0.074 A 
ATOM     68  C   UNL     1      15.804  -0.764  -3.158  1.00  0.00     0.031 C 
ATOM     69  C   UNL     1      15.904  -3.109  -2.357  1.00  0.00     0.031 A 
BRANCH  56  70
ATOM     70  C   UNL     1      12.389  -7.881  -0.600  1.00  0.00    -0.014 A 
ATOM     71  C   UNL     1      11.927  -8.949  -1.390  1.00  0.00     0.010 A 
ATOM     72  C   UNL     1      12.832  -8.142   0.710  1.00  0.00     0.010 A 
ATOM     73  C   UNL     1      11.873 -10.244  -0.868  1.00  0.00     0.020 A 
ATOM     74  C   UNL     1      12.804  -9.440   1.228  1.00  0.00     0.020 A 
ATOM     75  C   UNL     1      12.309 -10.480   0.440  1.00  0.00     0.054 A 
BRANCH  75  76
ATOM     76  S   UNL     1      12.247 -12.174   1.087  1.00  0.00     0.124 S 
ATOM     77  O   UNL     1      10.813 -12.364   1.296  1.00  0.00    -0.237 OA
ATOM     78  O   UNL     1      12.832 -12.955   0.000  1.00  0.00    -0.237 OA
ATOM     79  O   UNL     1      13.050 -12.110   2.306  1.00  0.00    -0.744 OA
ENDBRANCH  75  76
ENDBRANCH  56  70
BRANCH  57  80
ATOM     80  C   UNL     1      12.353   1.531  -3.970  1.00  0.00    -0.014 A 
ATOM     81  C   UNL     1      12.802   1.845  -5.264  1.00  0.00     0.010 A 
ATOM     82  C   UNL     1      11.905   2.569  -3.131  1.00  0.00     0.010 A 
ATOM     83  C   UNL     1      12.815   3.172  -5.707  1.00  0.00     0.020 A 
ATOM     84  C   UNL     1      11.891   3.892  -3.579  1.00  0.00     0.020 A 
ATOM     85  C   UNL     1      12.357   4.187  -4.862  1.00  0.00     0.054 A 
BRANCH  85  86
ATOM     86  S   UNL     1      12.331   5.894  -5.476  1.00  0.00     0.124 S 
ATOM     87  O   UNL     1      13.747   6.247  -5.452  1.00  0.00    -0.237 OA
ATOM     88  O   UNL     1      11.738   5.744  -6.802  1.00  0.00    -0.237 OA
ATOM     89  O   UNL     1      11.494   6.594  -4.503  1.00  0.00    -0.744 OA
ENDBRANCH  85  86
ENDBRANCH  57  80
BRANCH  69  90
ATOM     90  C   UNL     1      17.407  -3.029  -2.426  1.00  0.00    -0.014 A 
ATOM     91  C   UNL     1      18.142  -2.272  -1.497  1.00  0.00     0.010 A 
ATOM     92  C   UNL     1      18.096  -3.772  -3.403  1.00  0.00     0.010 A 
ATOM     93  C   UNL     1      19.537  -2.235  -1.562  1.00  0.00     0.020 A 
ATOM     94  C   UNL     1      19.492  -3.759  -3.454  1.00  0.00     0.020 A 
ATOM     95  C   UNL     1      20.204  -2.978  -2.542  1.00  0.00     0.054 A 
BRANCH  95  96
ATOM     96  S   UNL     1      22.017  -2.948  -2.579  1.00  0.00     0.124 S 
ATOM     97  O   UNL     1      22.287  -1.623  -3.131  1.00  0.00    -0.237 OA
ATOM     98  O   UNL     1      22.371  -3.128  -1.173  1.00  0.00    -0.237 OA
ATOM     99  O   UNL     1      22.365  -4.069  -3.450  1.00  0.00    -0.744 OA
ENDBRANCH  95  96
ENDBRANCH  69  90
ENDBRANCH  43  44
ENDBRANCH  36  38
ENDBRANCH  35  36
ENDBRANCH  34  35
ENDBRANCH  33  34
ENDBRANCH  32  33
ENDBRANCH   1  32
TORSDOF 22
