REMARK SMILES O=C(NC1(C(=O)OCCOCCOC(=O)c2ccc(-c3c4nc(c(-c5ccc(S(=O)(=O)[O-])cc5)c5ccc([nH]5)c(-c5ccc(S(=O)(=O)[O-])cc5)c5nc(c(-c6ccc(S(=O)(=O)[O-])cc6)c6ccc3[nH]6)C=C5)C=C4)cc2)CC[NH2+]CC1)OCC1c2ccccc2-c2ccccc21
REMARK SMILES IDX 9 1 8 2 7 3 5 4 6 5 4 6 76 7 80 8 77 9 79 10 78 11 3 14 1 15
REMARK SMILES IDX 2 16 81 18 82 19 83 20 84 21 95 22 85 23 89 24 90 25 94 26
REMARK SMILES IDX 86 27 88 28 91 29 93 30 87 31 92 32 10 33 11 34 12 35 13 36
REMARK SMILES IDX 14 37 15 38 16 39 17 40 75 41 18 42 74 43 19 44 20 45 21 46
REMARK SMILES IDX 68 47 22 48 73 49 67 50 69 51 23 52 72 53 66 54 65 55 24 57
REMARK SMILES IDX 54 58 35 59 53 60 36 61 39 62 52 63 70 64 37 65 38 66 51 68
REMARK SMILES IDX 71 69 40 70 25 71 26 72 34 73 27 74 33 75 28 76 29 77 30 78
REMARK SMILES IDX 31 79 32 80 55 81 56 82 64 83 57 84 63 85 58 86 59 87 60 88
REMARK SMILES IDX 61 89 62 90 41 91 42 92 50 93 43 94 49 95 44 96 45 97 46 98
REMARK SMILES IDX 47 99 48 100
REMARK H PARENT 78 12 78 13 3 17 69 56 39 67
REMARK Flexibility Score: inf
ROOT
ATOM      1  C   UNL     1       5.568   2.189   2.705  1.00  0.00     0.202 C 
ENDROOT
BRANCH   1   2
ATOM      2  C   UNL     1       4.649   1.021   2.329  1.00  0.00     0.261 C 
BRANCH   2   3
ATOM      3  O   UNL     1       4.507   0.767   0.883  1.00  0.00    -0.461 OA
BRANCH   3   4
ATOM      4  C   UNL     1       3.439   1.074   0.104  1.00  0.00     0.332 C 
ATOM      5  O   UNL     1       2.477   1.698   0.553  1.00  0.00    -0.249 OA
BRANCH   4   6
ATOM      6  C   UNL     1       3.422   0.434  -1.439  1.00  0.00     0.151 C 
ATOM      7  C   UNL     1       3.095   1.668  -2.349  1.00  0.00     0.102 C 
ATOM      8  C   UNL     1       4.399  -0.397  -2.313  1.00  0.00     0.102 C 
ATOM      9  C   UNL     1       3.025   1.480  -3.883  1.00  0.00     0.263 C 
ATOM     10  C   UNL     1       3.894  -0.705  -3.716  1.00  0.00     0.263 C 
ATOM     11  N   UNL     1       3.983   0.539  -4.439  1.00  0.00    -0.346 N 
ATOM     12  H   UNL     1       4.925   0.919  -4.352  1.00  0.00     0.346 HD
ATOM     13  H   UNL     1       3.776   0.380  -5.425  1.00  0.00     0.346 HD
BRANCH   6  14
ATOM     14  N   UNL     1       2.369  -0.496  -1.063  1.00  0.00    -0.305 N 
ATOM     15  O   UNL     1       1.743  -2.148   0.358  1.00  0.00    -0.225 OA
ATOM     16  C   UNL     1       2.662  -1.557  -0.209  1.00  0.00     0.408 C 
ATOM     17  H   UNL     1       1.455  -0.376  -1.409  1.00  0.00     0.168 HD
BRANCH  16  18
ATOM     18  O   UNL     1       3.950  -2.027  -0.228  1.00  0.00    -0.449 OA
BRANCH  18  19
ATOM     19  C   UNL     1       5.190  -1.636   0.533  1.00  0.00     0.248 C 
BRANCH  19  20
ATOM     20  C   UNL     1       6.442  -0.881  -0.234  1.00  0.00     0.088 C 
ATOM     21  C   UNL     1       7.836  -1.468   0.044  1.00  0.00    -0.029 A 
ATOM     22  C   UNL     1       6.866   0.634  -0.600  1.00  0.00    -0.029 A 
ATOM     23  C   UNL     1       8.196  -2.712   0.529  1.00  0.00     0.005 A 
ATOM     24  C   UNL     1       8.824  -0.599  -0.475  1.00  0.00    -0.014 A 
ATOM     25  C   UNL     1       8.226   0.616  -0.956  1.00  0.00    -0.014 A 
ATOM     26  C   UNL     1       6.249   1.876  -0.802  1.00  0.00     0.005 A 
ATOM     27  C   UNL     1       9.550  -3.054   0.532  1.00  0.00     0.000 A 
ATOM     28  C   UNL     1      10.165  -0.928  -0.454  1.00  0.00     0.009 A 
ATOM     29  C   UNL     1       8.843   1.654  -1.673  1.00  0.00     0.009 A 
ATOM     30  C   UNL     1       6.856   2.943  -1.487  1.00  0.00     0.000 A 
ATOM     31  C   UNL     1      10.526  -2.167   0.057  1.00  0.00     0.001 A 
ATOM     32  C   UNL     1       8.135   2.807  -1.982  1.00  0.00     0.001 A 
ENDBRANCH  19  20
ENDBRANCH  18  19
ENDBRANCH  16  18
ENDBRANCH   6  14
ENDBRANCH   4   6
ENDBRANCH   3   4
ENDBRANCH   2   3
ENDBRANCH   1   2
BRANCH   1  33
ATOM     33  O   UNL     1       4.834   3.328   3.147  1.00  0.00    -0.374 OA
BRANCH  33  34
ATOM     34  C   UNL     1       4.257   4.075   2.086  1.00  0.00     0.202 C 
BRANCH  34  35
ATOM     35  C   UNL     1       5.130   5.238   1.610  1.00  0.00     0.261 C 
BRANCH  35  36
ATOM     36  O   UNL     1       6.452   4.823   1.209  1.00  0.00    -0.460 OA
BRANCH  36  37
ATOM     37  C   UNL     1       7.397   4.978   2.168  1.00  0.00     0.338 C 
ATOM     38  O   UNL     1       7.223   5.454   3.285  1.00  0.00    -0.246 OA
BRANCH  37  39
ATOM     39  C   UNL     1       8.715   4.444   1.761  1.00  0.00     0.060 A 
ATOM     40  C   UNL     1       9.443   3.737   2.724  1.00  0.00     0.016 A 
ATOM     41  C   UNL     1       9.311   4.763   0.538  1.00  0.00     0.016 A 
ATOM     42  C   UNL     1      10.789   3.433   2.509  1.00  0.00     0.010 A 
ATOM     43  C   UNL     1      10.658   4.429   0.311  1.00  0.00     0.010 A 
ATOM     44  C   UNL     1      11.426   3.820   1.321  1.00  0.00    -0.014 A 
BRANCH  44  45
ATOM     45  C   UNL     1      12.915   3.740   1.231  1.00  0.00     0.031 A 
ATOM     46  C   UNL     1      13.733   5.010   1.293  1.00  0.00     0.074 A 
ATOM     47  C   UNL     1      13.551   2.553   1.187  1.00  0.00     0.049 A 
ATOM     48  N   UNL     1      15.035   5.160   1.291  1.00  0.00    -0.248 NA
ATOM     49  C   UNL     1      12.989   6.278   1.374  1.00  0.00     0.031 C 
ATOM     50  C   UNL     1      12.900   1.244   1.187  1.00  0.00     0.029 A 
ATOM     51  N   UNL     1      14.894   2.256   1.154  1.00  0.00    -0.354 N 
ATOM     52  C   UNL     1      15.263   6.531   1.363  1.00  0.00     0.074 A 
ATOM     53  C   UNL     1      13.967   7.172   1.366  1.00  0.00     0.031 C 
ATOM     54  C   UNL     1      13.842   0.286   1.167  1.00  0.00     0.029 A 
ATOM     55  C   UNL     1      15.165   0.908   1.122  1.00  0.00     0.049 A 
ATOM     56  H   UNL     1      15.597   2.946   1.153  1.00  0.00     0.167 HD
ATOM     57  C   UNL     1      16.440   7.201   1.435  1.00  0.00     0.031 A 
ATOM     58  C   UNL     1      16.338   0.244   1.058  1.00  0.00     0.031 A 
ATOM     59  C   UNL     1      17.736   6.573   1.439  1.00  0.00     0.049 A 
ATOM     60  C   UNL     1      17.634   1.014   1.056  1.00  0.00     0.074 A 
ATOM     61  C   UNL     1      18.980   7.174   1.537  1.00  0.00     0.029 A 
ATOM     62  N   UNL     1      17.960   5.209   1.334  1.00  0.00    -0.354 N 
ATOM     63  N   UNL     1      17.825   2.308   1.152  1.00  0.00    -0.248 NA
ATOM     64  C   UNL     1      18.874   0.231   0.948  1.00  0.00     0.031 C 
ATOM     65  C   UNL     1      19.957   6.182   1.417  1.00  0.00     0.029 A 
ATOM     66  C   UNL     1      19.322   4.954   1.324  1.00  0.00     0.049 A 
ATOM     67  H   UNL     1      17.256   4.524   1.275  1.00  0.00     0.167 HD
ATOM     68  C   UNL     1      19.206   2.489   1.152  1.00  0.00     0.074 A 
ATOM     69  C   UNL     1      19.801   1.173   1.059  1.00  0.00     0.031 C 
ATOM     70  C   UNL     1      19.915   3.643   1.228  1.00  0.00     0.031 A 
BRANCH  57  71
ATOM     71  C   UNL     1      16.388   8.708   1.481  1.00  0.00    -0.014 A 
ATOM     72  C   UNL     1      15.921   9.396   2.616  1.00  0.00     0.010 A 
ATOM     73  C   UNL     1      16.874   9.449   0.387  1.00  0.00     0.010 A 
ATOM     74  C   UNL     1      15.906  10.794   2.640  1.00  0.00     0.020 A 
ATOM     75  C   UNL     1      16.890  10.846   0.420  1.00  0.00     0.020 A 
ATOM     76  C   UNL     1      16.391  11.510   1.541  1.00  0.00     0.054 A 
BRANCH  76  77
ATOM     77  S   UNL     1      16.384  13.323   1.611  1.00  0.00     0.124 S 
ATOM     78  O   UNL     1      14.957  13.623   1.523  1.00  0.00    -0.237 OA
ATOM     79  O   UNL     1      17.004  13.595   2.906  1.00  0.00    -0.237 OA
ATOM     80  O   UNL     1      17.176  13.719   0.449  1.00  0.00    -0.744 OA
ENDBRANCH  76  77
ENDBRANCH  57  71
BRANCH  58  81
ATOM     81  C   UNL     1      16.347  -1.245   0.982  1.00  0.00    -0.014 A 
ATOM     82  C   UNL     1      16.853  -2.020   2.040  1.00  0.00     0.010 A 
ATOM     83  C   UNL     1      15.855  -1.895  -0.166  1.00  0.00     0.010 A 
ATOM     84  C   UNL     1      16.881  -3.416   1.946  1.00  0.00     0.020 A 
ATOM     85  C   UNL     1      15.852  -3.290  -0.250  1.00  0.00     0.020 A 
ATOM     86  C   UNL     1      16.375  -4.042   0.803  1.00  0.00     0.054 A 
BRANCH  86  87
ATOM     87  S   UNL     1      16.369  -5.854   0.727  1.00  0.00     0.124 S 
ATOM     88  O   UNL     1      17.787  -6.158   0.567  1.00  0.00    -0.237 OA
ATOM     89  O   UNL     1      15.783  -6.219   2.014  1.00  0.00    -0.237 OA
ATOM     90  O   UNL     1      15.531  -6.144  -0.434  1.00  0.00    -0.744 OA
ENDBRANCH  86  87
ENDBRANCH  58  81
BRANCH  70  91
ATOM     91  C   UNL     1      21.420   3.546   1.253  1.00  0.00    -0.014 A 
ATOM     92  C   UNL     1      22.151   3.158   0.116  1.00  0.00     0.010 A 
ATOM     93  C   UNL     1      22.119   3.905   2.421  1.00  0.00     0.010 A 
ATOM     94  C   UNL     1      23.548   3.099   0.157  1.00  0.00     0.020 A 
ATOM     95  C   UNL     1      23.516   3.879   2.456  1.00  0.00     0.020 A 
ATOM     96  C   UNL     1      24.222   3.462   1.327  1.00  0.00     0.054 A 
BRANCH  96  97
ATOM     97  S   UNL     1      26.036   3.416   1.339  1.00  0.00     0.124 S 
ATOM     98  O   UNL     1      26.305   1.981   1.331  1.00  0.00    -0.237 OA
ATOM     99  O   UNL     1      26.381   4.127   0.111  1.00  0.00    -0.237 OA
ATOM    100  O   UNL     1      26.393   4.110   2.575  1.00  0.00    -0.744 OA
ENDBRANCH  96  97
ENDBRANCH  70  91
ENDBRANCH  44  45
ENDBRANCH  37  39
ENDBRANCH  36  37
ENDBRANCH  35  36
ENDBRANCH  34  35
ENDBRANCH  33  34
ENDBRANCH   1  33
TORSDOF 21
