REMARK SMILES O=C(OCCOCCOC(=O)c1ccc(N2C(=O)/C(=C/c3ccco3)SC2=S)cc1)c1ccc(-c2c3nc(c(-c4ccc(S(=O)(=O)[O-])cc4)c4ccc([nH]4)c(-c4ccc(S(=O)(=O)[O-])cc4)c4nc(c(-c5ccc(S(=O)(=O)[O-])cc5)c5ccc2[nH]5)C=C4)C=C3)cc1
REMARK SMILES IDX 5 1 4 2 3 3 2 4 1 5 31 6 32 7 90 8 33 9 89 10 34 11 35 12
REMARK SMILES IDX 36 13 83 14 37 15 88 16 82 17 84 18 38 19 87 20 81 21 80 22
REMARK SMILES IDX 39 24 69 25 50 26 68 27 51 28 54 29 67 30 85 31 52 32 53 33
REMARK SMILES IDX 66 35 86 36 55 37 40 38 41 39 49 40 42 41 48 42 43 43 44 44
REMARK SMILES IDX 45 45 46 46 47 47 70 48 71 49 79 50 72 51 78 52 73 53 74 54
REMARK SMILES IDX 75 55 76 56 77 57 56 58 57 59 65 60 58 61 64 62 59 63 60 64
REMARK SMILES IDX 61 65 62 66 63 67 6 68 7 69 8 70 9 71 10 72 11 73 12 74
REMARK SMILES IDX 13 75 30 76 14 77 29 78 15 79 16 80 17 81 27 82 18 83 19 84
REMARK SMILES IDX 26 85 28 86 20 87 21 88 22 89 25 90 23 91 24 92
REMARK H PARENT 84 23 54 34
REMARK Flexibility Score: inf
ROOT
ATOM      1  C   UNL     1       4.485  -1.327   0.843  1.00  0.00     0.202 C 
ENDROOT
BRANCH   1   2
ATOM      2  C   UNL     1       4.241   0.105   1.325  1.00  0.00     0.261 C 
BRANCH   2   3
ATOM      3  O   UNL     1       2.848   0.432   1.219  1.00  0.00    -0.460 OA
BRANCH   3   4
ATOM      4  C   UNL     1       2.230   1.114   0.228  1.00  0.00     0.338 C 
ATOM      5  O   UNL     1       1.007   1.239   0.280  1.00  0.00    -0.246 OA
BRANCH   4   6
ATOM      6  C   UNL     1       2.947   1.733  -0.928  1.00  0.00     0.060 A 
ATOM      7  C   UNL     1       4.115   1.237  -1.514  1.00  0.00     0.016 A 
ATOM      8  C   UNL     1       2.327   2.839  -1.529  1.00  0.00     0.016 A 
ATOM      9  C   UNL     1       4.671   1.815  -2.641  1.00  0.00     0.010 A 
ATOM     10  C   UNL     1       2.869   3.424  -2.673  1.00  0.00     0.010 A 
ATOM     11  C   UNL     1       4.048   2.909  -3.222  1.00  0.00    -0.014 A 
BRANCH  11  12
ATOM     12  C   UNL     1       4.733   3.580  -4.331  1.00  0.00     0.031 A 
ATOM     13  C   UNL     1       5.481   4.833  -4.023  1.00  0.00     0.074 A 
ATOM     14  C   UNL     1       4.737   3.015  -5.549  1.00  0.00     0.049 A 
ATOM     15  N   UNL     1       6.048   5.676  -4.837  1.00  0.00    -0.248 NA
ATOM     16  C   UNL     1       5.607   5.182  -2.596  1.00  0.00     0.031 C 
ATOM     17  C   UNL     1       4.147   1.714  -5.878  1.00  0.00     0.029 A 
ATOM     18  N   UNL     1       5.254   3.460  -6.733  1.00  0.00    -0.354 N 
ATOM     19  C   UNL     1       6.554   6.684  -4.027  1.00  0.00     0.074 A 
ATOM     20  C   UNL     1       6.237   6.343  -2.659  1.00  0.00     0.031 C 
ATOM     21  C   UNL     1       4.320   1.476  -7.187  1.00  0.00     0.029 A 
ATOM     22  C   UNL     1       4.962   2.637  -7.794  1.00  0.00     0.049 A 
ATOM     23  H   UNL     1       5.782   4.286  -6.818  1.00  0.00     0.167 HD
ATOM     24  C   UNL     1       7.201   7.806  -4.413  1.00  0.00     0.031 A 
ATOM     25  C   UNL     1       5.140   2.841  -9.113  1.00  0.00     0.031 A 
ATOM     26  C   UNL     1       7.456   8.109  -5.794  1.00  0.00     0.049 A 
ATOM     27  C   UNL     1       5.774   4.137  -9.534  1.00  0.00     0.074 A 
ATOM     28  C   UNL     1       8.050   9.229  -6.340  1.00  0.00     0.029 A 
ATOM     29  N   UNL     1       7.114   7.273  -6.852  1.00  0.00    -0.354 N 
ATOM     30  N   UNL     1       6.201   5.123  -8.777  1.00  0.00    -0.248 NA
ATOM     31  C   UNL     1       5.947   4.361 -10.973  1.00  0.00     0.031 C 
ATOM     32  C   UNL     1       8.010   9.096  -7.732  1.00  0.00     0.029 A 
ATOM     33  C   UNL     1       7.461   7.860  -8.052  1.00  0.00     0.049 A 
ATOM     34  H   UNL     1       6.686   6.391  -6.758  1.00  0.00     0.167 HD
ATOM     35  C   UNL     1       6.716   6.077  -9.643  1.00  0.00     0.074 A 
ATOM     36  C   UNL     1       6.548   5.545 -10.984  1.00  0.00     0.031 C 
ATOM     37  C   UNL     1       7.280   7.278  -9.362  1.00  0.00     0.031 A 
BRANCH  24  38
ATOM     38  C   UNL     1       7.539   8.801  -3.335  1.00  0.00    -0.014 A 
ATOM     39  C   UNL     1       8.496   8.524  -2.341  1.00  0.00     0.010 A 
ATOM     40  C   UNL     1       6.818  10.007  -3.271  1.00  0.00     0.010 A 
ATOM     41  C   UNL     1       8.668   9.399  -1.263  1.00  0.00     0.020 A 
ATOM     42  C   UNL     1       7.011  10.899  -2.213  1.00  0.00     0.020 A 
ATOM     43  C   UNL     1       7.913  10.574  -1.199  1.00  0.00     0.054 A 
BRANCH  43  44
ATOM     44  S   UNL     1       8.114  11.665   0.235  1.00  0.00     0.124 S 
ATOM     45  O   UNL     1       7.442  10.907   1.287  1.00  0.00    -0.237 OA
ATOM     46  O   UNL     1       9.566  11.762   0.363  1.00  0.00    -0.237 OA
ATOM     47  O   UNL     1       7.443  12.898  -0.169  1.00  0.00    -0.744 OA
ENDBRANCH  43  44
ENDBRANCH  24  38
BRANCH  25  48
ATOM     48  C   UNL     1       4.644   1.829 -10.085  1.00  0.00    -0.014 A 
ATOM     49  C   UNL     1       5.532   1.040 -10.834  1.00  0.00     0.010 A 
ATOM     50  C   UNL     1       3.259   1.591 -10.205  1.00  0.00     0.010 A 
ATOM     51  C   UNL     1       5.048   0.029 -11.674  1.00  0.00     0.020 A 
ATOM     52  C   UNL     1       2.773   0.565 -11.020  1.00  0.00     0.020 A 
ATOM     53  C   UNL     1       3.671  -0.209 -11.753  1.00  0.00     0.054 A 
BRANCH  53  54
ATOM     54  S   UNL     1       3.075  -1.584 -12.777  1.00  0.00     0.124 S 
ATOM     55  O   UNL     1       3.319  -1.086 -14.127  1.00  0.00    -0.237 OA
ATOM     56  O   UNL     1       3.926  -2.690 -12.347  1.00  0.00    -0.237 OA
ATOM     57  O   UNL     1       1.668  -1.707 -12.402  1.00  0.00    -0.744 OA
ENDBRANCH  53  54
ENDBRANCH  25  48
BRANCH  37  58
ATOM     58  C   UNL     1       7.807   8.079 -10.518  1.00  0.00    -0.014 A 
ATOM     59  C   UNL     1       6.943   8.793 -11.364  1.00  0.00     0.010 A 
ATOM     60  C   UNL     1       9.200   8.226 -10.661  1.00  0.00     0.010 A 
ATOM     61  C   UNL     1       7.467   9.650 -12.334  1.00  0.00     0.020 A 
ATOM     62  C   UNL     1       9.725   9.102 -11.610  1.00  0.00     0.020 A 
ATOM     63  C   UNL     1       8.854   9.808 -12.441  1.00  0.00     0.054 A 
BRANCH  63  64
ATOM     64  S   UNL     1       9.503  11.015 -13.628  1.00  0.00     0.124 S 
ATOM     65  O   UNL     1       9.262  10.346 -14.903  1.00  0.00    -0.237 OA
ATOM     66  O   UNL     1       8.679  12.193 -13.368  1.00  0.00    -0.237 OA
ATOM     67  O   UNL     1      10.908  11.150 -13.251  1.00  0.00    -0.744 OA
ENDBRANCH  63  64
ENDBRANCH  37  58
ENDBRANCH  11  12
ENDBRANCH   4   6
ENDBRANCH   3   4
ENDBRANCH   2   3
ENDBRANCH   1   2
BRANCH   1  68
ATOM     68  O   UNL     1       4.135  -1.563  -0.520  1.00  0.00    -0.374 OA
BRANCH  68  69
ATOM     69  C   UNL     1       2.773  -1.920  -0.782  1.00  0.00     0.202 C 
BRANCH  69  70
ATOM     70  C   UNL     1       2.738  -3.212  -1.600  1.00  0.00     0.261 C 
BRANCH  70  71
ATOM     71  O   UNL     1       3.296  -4.258  -0.794  1.00  0.00    -0.460 OA
BRANCH  71  72
ATOM     72  C   UNL     1       4.653  -4.324  -0.840  1.00  0.00     0.338 C 
ATOM     73  O   UNL     1       5.395  -3.905  -1.700  1.00  0.00    -0.246 OA
BRANCH  72  74
ATOM     74  C   UNL     1       5.119  -4.839   0.465  1.00  0.00     0.060 A 
ATOM     75  C   UNL     1       6.304  -4.319   1.005  1.00  0.00     0.018 A 
ATOM     76  C   UNL     1       4.398  -5.820   1.148  1.00  0.00     0.018 A 
ATOM     77  C   UNL     1       6.805  -4.822   2.205  1.00  0.00     0.028 A 
ATOM     78  C   UNL     1       4.917  -6.351   2.322  1.00  0.00     0.028 A 
ATOM     79  C   UNL     1       6.143  -5.887   2.820  1.00  0.00     0.051 A 
BRANCH  79  80
ATOM     80  N   UNL     1       6.814  -6.657   3.793  1.00  0.00    -0.261 N 
ATOM     81  C   UNL     1       6.994  -6.183   5.084  1.00  0.00     0.270 C 
ATOM     82  C   UNL     1       7.335  -7.907   3.491  1.00  0.00     0.152 C 
ATOM     83  O   UNL     1       6.675  -5.089   5.529  1.00  0.00    -0.268 OA
ATOM     84  C   UNL     1       7.631  -7.248   5.912  1.00  0.00     0.084 C 
ATOM     85  S   UNL     1       8.037  -8.605   4.932  1.00  0.00    -0.054 SA
ATOM     86  S   UNL     1       7.401  -8.711   2.025  1.00  0.00    -0.051 S 
ATOM     87  C   UNL     1       7.752  -7.143   7.243  1.00  0.00     0.068 C 
BRANCH  87  88
ATOM     88  C   UNL     1       8.269  -8.189   8.055  1.00  0.00     0.127 A 
ATOM     89  C   UNL     1       9.440  -8.933   7.936  1.00  0.00     0.050 A 
ATOM     90  O   UNL     1       7.600  -8.656   9.164  1.00  0.00    -0.465 OA
ATOM     91  C   UNL     1       9.441  -9.915   8.952  1.00  0.00     0.042 A 
ATOM     92  C   UNL     1       8.296  -9.701   9.675  1.00  0.00     0.195 A 
ENDBRANCH  87  88
ENDBRANCH  79  80
ENDBRANCH  72  74
ENDBRANCH  71  72
ENDBRANCH  70  71
ENDBRANCH  69  70
ENDBRANCH  68  69
ENDBRANCH   1  68
TORSDOF 19
