REMARK SMILES C[NH+]1CCC([NH+]2CCC(Oc3ccc4ccccc4c3)(C(=O)OCCOCCOC(=O)c3ccc(-c4c5nc(c(-c6ccc(S(=O)(=O)[O-])cc6)c6ccc([nH]6)c(-c6ccc(S(=O)(=O)[O-])cc6)c6nc(c(-c7ccc(S(=O)(=O)[O-])cc7)c7ccc4[nH]7)C=C6)C=C5)cc3)CC2)CC1
REMARK SMILES IDX 27 1 26 2 25 3 24 4 23 5 21 6 22 7 9 8 6 9 7 10 93 11 8 13
REMARK SMILES IDX 92 14 5 15 1 16 2 17 3 18 95 19 4 21 94 22 10 23 11 24 12 25
REMARK SMILES IDX 20 26 13 27 19 28 14 29 18 30 15 31 17 32 16 33 28 34 29 35
REMARK SMILES IDX 30 36 31 37 32 38 33 39 91 40 34 41 90 42 35 43 36 44 37 45
REMARK SMILES IDX 84 46 38 47 89 48 83 49 85 50 39 51 88 52 82 53 81 54 40 56
REMARK SMILES IDX 70 57 51 58 69 59 52 60 55 61 68 62 86 63 53 64 54 65 67 67
REMARK SMILES IDX 87 68 56 69 41 70 42 71 50 72 43 73 49 74 44 75 45 76 46 77
REMARK SMILES IDX 47 78 48 79 71 80 72 81 80 82 73 83 79 84 74 85 75 86 76 87
REMARK SMILES IDX 77 88 78 89 57 90 58 91 66 92 59 93 65 94 60 95 61 96 62 97
REMARK SMILES IDX 63 98 64 99
REMARK H PARENT 6 12 2 20 85 55 55 66
REMARK Flexibility Score: inf
ROOT
ATOM      1  C   UNL     1       2.654  -4.134   2.098  1.00  0.00     0.202 C 
ENDROOT
BRANCH   1   2
ATOM      2  O   UNL     1       3.119  -5.157   2.958  1.00  0.00    -0.374 OA
BRANCH   2   3
ATOM      3  C   UNL     1       4.078  -4.799   3.953  1.00  0.00     0.202 C 
BRANCH   3   4
ATOM      4  C   UNL     1       5.347  -4.061   3.506  1.00  0.00     0.261 C 
BRANCH   4   5
ATOM      5  O   UNL     1       5.125  -2.694   3.088  1.00  0.00    -0.460 OA
BRANCH   5   6
ATOM      6  C   UNL     1       5.582  -2.365   1.843  1.00  0.00     0.351 C 
ATOM      7  O   UNL     1       5.970  -3.202   1.030  1.00  0.00    -0.247 OA
BRANCH   6   8
ATOM      8  C   UNL     1       5.640  -0.839   1.568  1.00  0.00     0.216 C 
ATOM      9  N   UNL     1       3.234   0.193   0.114  1.00  0.00    -0.332 N 
ATOM     10  C   UNL     1       3.301   0.372   1.564  1.00  0.00     0.267 C 
ATOM     11  C   UNL     1       4.085  -0.869  -0.409  1.00  0.00     0.267 C 
ATOM     12  H   UNL     1       3.655   1.051  -0.241  1.00  0.00     0.348 HD
ATOM     13  C   UNL     1       4.588  -0.007   2.317  1.00  0.00     0.122 C 
ATOM     14  C   UNL     1       5.526  -0.643   0.045  1.00  0.00     0.122 C 
BRANCH   9  15
ATOM     15  C   UNL     1       1.856   0.200  -0.459  1.00  0.00     0.195 C 
ATOM     16  C   UNL     1      -2.484   0.239  -0.410  1.00  0.00     0.332 C 
ATOM     17  N   UNL     1      -1.055   0.219  -0.117  1.00  0.00    -0.337 N 
ATOM     18  C   UNL     1      -0.381   1.437  -0.574  1.00  0.00     0.268 C 
ATOM     19  C   UNL     1      -0.409  -0.965  -0.683  1.00  0.00     0.268 C 
ATOM     20  H   UNL     1      -0.968   0.179   0.899  1.00  0.00     0.347 HD
ATOM     21  C   UNL     1       1.064   1.466  -0.063  1.00  0.00     0.126 C 
ATOM     22  C   UNL     1       1.017  -1.053  -0.146  1.00  0.00     0.126 C 
ENDBRANCH   9  15
BRANCH   8  23
ATOM     23  O   UNL     1       6.967  -0.596   2.132  1.00  0.00    -0.475 OA
BRANCH  23  24
ATOM     24  C   UNL     1       7.707   0.426   1.613  1.00  0.00     0.121 A 
ATOM     25  C   UNL     1       7.518   1.737   2.035  1.00  0.00     0.047 A 
ATOM     26  C   UNL     1       8.772   0.113   0.767  1.00  0.00     0.055 A 
ATOM     27  C   UNL     1       8.338   2.755   1.548  1.00  0.00     0.012 A 
ATOM     28  C   UNL     1       9.626   1.124   0.289  1.00  0.00    -0.015 A 
ATOM     29  C   UNL     1       9.393   2.465   0.674  1.00  0.00    -0.018 A 
ATOM     30  C   UNL     1      10.718   0.837  -0.547  1.00  0.00     0.009 A 
ATOM     31  C   UNL     1      10.239   3.480   0.199  1.00  0.00     0.009 A 
ATOM     32  C   UNL     1      11.558   1.857  -1.001  1.00  0.00     0.001 A 
ATOM     33  C   UNL     1      11.315   3.177  -0.633  1.00  0.00     0.001 A 
ENDBRANCH  23  24
ENDBRANCH   8  23
ENDBRANCH   6   8
ENDBRANCH   5   6
ENDBRANCH   4   5
ENDBRANCH   3   4
ENDBRANCH   2   3
ENDBRANCH   1   2
BRANCH   1  34
ATOM     34  C   UNL     1       1.844  -2.989   2.709  1.00  0.00     0.261 C 
BRANCH  34  35
ATOM     35  O   UNL     1       2.129  -2.674   4.069  1.00  0.00    -0.460 OA
BRANCH  35  36
ATOM     36  C   UNL     1       1.107  -2.901   4.925  1.00  0.00     0.338 C 
ATOM     37  O   UNL     1      -0.023  -3.269   4.665  1.00  0.00    -0.246 OA
BRANCH  36  38
ATOM     38  C   UNL     1       1.614  -2.745   6.293  1.00  0.00     0.060 A 
ATOM     39  C   UNL     1       1.805  -3.905   7.048  1.00  0.00     0.016 A 
ATOM     40  C   UNL     1       1.828  -1.478   6.840  1.00  0.00     0.016 A 
ATOM     41  C   UNL     1       2.176  -3.797   8.383  1.00  0.00     0.010 A 
ATOM     42  C   UNL     1       2.200  -1.374   8.182  1.00  0.00     0.010 A 
ATOM     43  C   UNL     1       2.340  -2.532   8.966  1.00  0.00    -0.014 A 
BRANCH  43  44
ATOM     44  C   UNL     1       2.526  -2.439  10.432  1.00  0.00     0.031 A 
ATOM     45  C   UNL     1       1.334  -2.151  11.301  1.00  0.00     0.074 A 
ATOM     46  C   UNL     1       3.733  -2.673  10.977  1.00  0.00     0.049 A 
ATOM     47  N   UNL     1       1.257  -2.097  12.605  1.00  0.00    -0.248 NA
ATOM     48  C   UNL     1       0.059  -1.894  10.610  1.00  0.00     0.031 C 
ATOM     49  C   UNL     1       4.950  -2.989  10.229  1.00  0.00     0.029 A 
ATOM     50  N   UNL     1       4.129  -2.693  12.289  1.00  0.00    -0.354 N 
ATOM     51  C   UNL     1      -0.072  -1.806  12.892  1.00  0.00     0.074 A 
ATOM     52  C   UNL     1      -0.758  -1.660  11.627  1.00  0.00     0.031 C 
ATOM     53  C   UNL     1       5.958  -3.179  11.098  1.00  0.00     0.029 A 
ATOM     54  C   UNL     1       5.462  -2.978  12.457  1.00  0.00     0.049 A 
ATOM     55  H   UNL     1       3.516  -2.519  13.040  1.00  0.00     0.167 HD
ATOM     56  C   UNL     1      -0.667  -1.680  14.101  1.00  0.00     0.031 A 
ATOM     57  C   UNL     1       6.199  -3.062  13.582  1.00  0.00     0.031 A 
ATOM     58  C   UNL     1       0.026  -1.808  15.355  1.00  0.00     0.049 A 
ATOM     59  C   UNL     1       5.526  -2.864  14.913  1.00  0.00     0.074 A 
ATOM     60  C   UNL     1      -0.485  -1.708  16.637  1.00  0.00     0.029 A 
ATOM     61  N   UNL     1       1.385  -2.057  15.483  1.00  0.00    -0.354 N 
ATOM     62  N   UNL     1       4.261  -2.623  15.169  1.00  0.00    -0.248 NA
ATOM     63  C   UNL     1       6.375  -2.961  16.108  1.00  0.00     0.031 C 
ATOM     64  C   UNL     1       0.575  -1.847  17.540  1.00  0.00     0.029 A 
ATOM     65  C   UNL     1       1.736  -2.088  16.821  1.00  0.00     0.049 A 
ATOM     66  H   UNL     1       2.007  -2.191  14.732  1.00  0.00     0.167 HD
ATOM     67  C   UNL     1       4.159  -2.561  16.554  1.00  0.00     0.074 A 
ATOM     68  C   UNL     1       5.487  -2.804  17.081  1.00  0.00     0.031 C 
ATOM     69  C   UNL     1       3.066  -2.326  17.322  1.00  0.00     0.031 A 
BRANCH  56  70
ATOM     70  C   UNL     1      -2.138  -1.358  14.119  1.00  0.00    -0.014 A 
ATOM     71  C   UNL     1      -3.098  -2.322  13.762  1.00  0.00     0.010 A 
ATOM     72  C   UNL     1      -2.567  -0.080  14.520  1.00  0.00     0.010 A 
ATOM     73  C   UNL     1      -4.459  -2.001  13.769  1.00  0.00     0.020 A 
ATOM     74  C   UNL     1      -3.928   0.237  14.551  1.00  0.00     0.020 A 
ATOM     75  C   UNL     1      -4.864  -0.721  14.158  1.00  0.00     0.054 A 
BRANCH  75  76
ATOM     76  S   UNL     1      -6.637  -0.333  14.171  1.00  0.00     0.124 S 
ATOM     77  O   UNL     1      -6.927  -0.201  12.746  1.00  0.00    -0.237 OA
ATOM     78  O   UNL     1      -7.218  -1.504  14.824  1.00  0.00    -0.237 OA
ATOM     79  O   UNL     1      -6.715   0.907  14.940  1.00  0.00    -0.744 OA
ENDBRANCH  75  76
ENDBRANCH  56  70
BRANCH  57  80
ATOM     80  C   UNL     1       7.657  -3.344  13.493  1.00  0.00    -0.014 A 
ATOM     81  C   UNL     1       8.180  -4.581  13.907  1.00  0.00     0.010 A 
ATOM     82  C   UNL     1       8.532  -2.371  12.973  1.00  0.00     0.010 A 
ATOM     83  C   UNL     1       9.552  -4.836  13.815  1.00  0.00     0.020 A 
ATOM     84  C   UNL     1       9.900  -2.631  12.857  1.00  0.00     0.020 A 
ATOM     85  C   UNL     1      10.403  -3.860  13.288  1.00  0.00     0.054 A 
BRANCH  85  86
ATOM     86  S   UNL     1      12.172  -4.232  13.122  1.00  0.00     0.124 S 
ATOM     87  O   UNL     1      12.635  -4.121  14.501  1.00  0.00    -0.237 OA
ATOM     88  O   UNL     1      12.160  -5.582  12.564  1.00  0.00    -0.237 OA
ATOM     89  O   UNL     1      12.654  -3.195  12.213  1.00  0.00    -0.744 OA
ENDBRANCH  85  86
ENDBRANCH  57  80
BRANCH  69  90
ATOM     90  C   UNL     1       3.256  -2.343  18.814  1.00  0.00    -0.014 A 
ATOM     91  C   UNL     1       3.900  -1.283  19.477  1.00  0.00     0.010 A 
ATOM     92  C   UNL     1       2.732  -3.409  19.568  1.00  0.00     0.010 A 
ATOM     93  C   UNL     1       4.044  -1.304  20.867  1.00  0.00     0.020 A 
ATOM     94  C   UNL     1       2.852  -3.421  20.960  1.00  0.00     0.020 A 
ATOM     95  C   UNL     1       3.521  -2.375  21.599  1.00  0.00     0.054 A 
BRANCH  95  96
ATOM     96  S   UNL     1       3.682  -2.361  23.406  1.00  0.00     0.124 S 
ATOM     97  O   UNL     1       5.085  -2.724  23.587  1.00  0.00    -0.237 OA
ATOM     98  O   UNL     1       3.340  -0.983  23.750  1.00  0.00    -0.237 OA
ATOM     99  O   UNL     1       2.716  -3.364  23.847  1.00  0.00    -0.744 OA
ENDBRANCH  95  96
ENDBRANCH  69  90
ENDBRANCH  43  44
ENDBRANCH  36  38
ENDBRANCH  35  36
ENDBRANCH  34  35
ENDBRANCH   1  34
TORSDOF 20
