REMARK SMILES C[C@H]1[C@H](C(=O)OCCOCCOC(=O)c2ccc(-c3c4nc(c(-c5ccc(S(=O)(=O)[O-])cc5)c5ccc([nH]5)c(-c5ccc(S(=O)(=O)[O-])cc5)c5nc(c(-c6ccc(S(=O)(=O)[O-])cc6)c6ccc3[nH]6)C=C5)C=C4)cc2)CC[N@@H+]1CC(=O)N1CCCC1
REMARK SMILES IDX 10 1 9 2 8 3 7 4 6 5 4 6 5 7 3 8 1 9 2 10 77 11 75 12 76 13
REMARK SMILES IDX 78 15 79 16 80 17 81 18 82 19 85 20 83 21 84 22 11 23 12 24
REMARK SMILES IDX 13 25 14 26 15 27 16 28 74 29 17 30 73 31 18 32 19 33 20 34
REMARK SMILES IDX 67 35 21 36 72 37 66 38 68 39 22 40 71 41 65 42 64 43 23 45
REMARK SMILES IDX 53 46 34 47 52 48 35 49 38 50 51 51 69 52 36 53 37 54 50 56
REMARK SMILES IDX 70 57 39 58 24 59 25 60 33 61 26 62 32 63 27 64 28 65 29 66
REMARK SMILES IDX 30 67 31 68 54 69 55 70 63 71 56 72 62 73 57 74 58 75 59 76
REMARK SMILES IDX 60 77 61 78 40 79 41 80 49 81 42 82 48 83 43 84 44 85 45 86
REMARK SMILES IDX 46 87 47 88
REMARK H PARENT 77 14 68 44 38 55
REMARK Flexibility Score: inf
ROOT
ATOM      1  C   UNL     1       2.544   2.983   1.704  1.00  0.00     0.202 C 
ENDROOT
BRANCH   1   2
ATOM      2  O   UNL     1       2.233   4.353   1.954  1.00  0.00    -0.374 OA
BRANCH   2   3
ATOM      3  C   UNL     1       0.943   4.582   2.521  1.00  0.00     0.202 C 
BRANCH   3   4
ATOM      4  C   UNL     1      -0.245   4.433   1.548  1.00  0.00     0.261 C 
BRANCH   4   5
ATOM      5  O   UNL     1      -0.474   3.083   1.077  1.00  0.00    -0.463 OA
BRANCH   5   6
ATOM      6  C   UNL     1      -0.133   2.809  -0.211  1.00  0.00     0.315 C 
ATOM      7  O   UNL     1       0.456   3.590  -0.949  1.00  0.00    -0.252 OA
BRANCH   6   8
ATOM      8  C   UNL     1      -0.516   1.409  -0.661  1.00  0.00     0.162 C 
ATOM      9  C   UNL     1       1.506  -0.026  -1.210  1.00  0.00     0.076 C 
ATOM     10  C   UNL     1       0.425   0.296  -0.178  1.00  0.00     0.195 C 
ATOM     11  N   UNL     1      -0.428  -0.886   0.030  1.00  0.00    -0.324 N 
ATOM     12  C   UNL     1      -1.899   0.932  -0.241  1.00  0.00     0.083 C 
ATOM     13  C   UNL     1      -1.784  -0.573  -0.412  1.00  0.00     0.264 C 
ATOM     14  H   UNL     1      -0.059  -1.630  -0.563  1.00  0.00     0.348 HD
BRANCH  11  15
ATOM     15  C   UNL     1      -0.309  -1.591   1.324  1.00  0.00     0.364 C 
BRANCH  15  16
ATOM     16  C   UNL     1      -1.364  -1.293   2.416  1.00  0.00     0.277 C 
ATOM     17  O   UNL     1      -2.409  -1.947   2.468  1.00  0.00    -0.268 OA
ATOM     18  N   UNL     1      -1.079  -0.337   3.365  1.00  0.00    -0.338 N 
ATOM     19  C   UNL     1      -0.027   0.630   3.303  1.00  0.00     0.119 C 
ATOM     20  C   UNL     1      -1.831  -0.191   4.596  1.00  0.00     0.119 C 
ATOM     21  C   UNL     1      -0.452   1.760   4.209  1.00  0.00     0.023 C 
ATOM     22  C   UNL     1      -1.600   1.241   5.044  1.00  0.00     0.023 C 
ENDBRANCH  15  16
ENDBRANCH  11  15
ENDBRANCH   6   8
ENDBRANCH   5   6
ENDBRANCH   4   5
ENDBRANCH   3   4
ENDBRANCH   2   3
ENDBRANCH   1   2
BRANCH   1  23
ATOM     23  C   UNL     1       3.647   2.434   2.612  1.00  0.00     0.261 C 
BRANCH  23  24
ATOM     24  O   UNL     1       3.057   1.778   3.762  1.00  0.00    -0.460 OA
BRANCH  24  25
ATOM     25  C   UNL     1       3.376   2.286   4.976  1.00  0.00     0.338 C 
ATOM     26  O   UNL     1       4.107   3.239   5.194  1.00  0.00    -0.246 OA
BRANCH  25  27
ATOM     27  C   UNL     1       2.601   1.602   6.045  1.00  0.00     0.060 A 
ATOM     28  C   UNL     1       2.079   2.401   7.069  1.00  0.00     0.016 A 
ATOM     29  C   UNL     1       2.368   0.220   6.062  1.00  0.00     0.016 A 
ATOM     30  C   UNL     1       1.357   1.827   8.119  1.00  0.00     0.010 A 
ATOM     31  C   UNL     1       1.640  -0.357   7.119  1.00  0.00     0.010 A 
ATOM     32  C   UNL     1       1.163   0.439   8.176  1.00  0.00    -0.014 A 
BRANCH  32  33
ATOM     33  C   UNL     1       0.693  -0.156   9.460  1.00  0.00     0.031 A 
ATOM     34  C   UNL     1       1.739  -0.593  10.454  1.00  0.00     0.074 A 
ATOM     35  C   UNL     1      -0.608  -0.222   9.806  1.00  0.00     0.049 A 
ATOM     36  N   UNL     1       1.593  -0.977  11.697  1.00  0.00    -0.248 NA
ATOM     37  C   UNL     1       3.135  -0.583   9.986  1.00  0.00     0.031 C 
ATOM     38  C   UNL     1      -1.731   0.182   8.969  1.00  0.00     0.029 A 
ATOM     39  N   UNL     1      -1.204  -0.640  10.974  1.00  0.00    -0.354 N 
ATOM     40  C   UNL     1       2.877  -1.226  12.165  1.00  0.00     0.074 A 
ATOM     41  C   UNL     1       3.783  -1.004  11.060  1.00  0.00     0.031 C 
ATOM     42  C   UNL     1      -2.879   0.004   9.645  1.00  0.00     0.029 A 
ATOM     43  C   UNL     1      -2.577  -0.533  10.969  1.00  0.00     0.049 A 
ATOM     44  H   UNL     1      -0.695  -0.985  11.743  1.00  0.00     0.167 HD
ATOM     45  C   UNL     1       3.278  -1.589  13.406  1.00  0.00     0.031 A 
ATOM     46  C   UNL     1      -3.487  -0.822  11.922  1.00  0.00     0.031 A 
ATOM     47  C   UNL     1       2.389  -1.855  14.503  1.00  0.00     0.049 A 
ATOM     48  C   UNL     1      -3.023  -1.304  13.274  1.00  0.00     0.074 A 
ATOM     49  C   UNL     1       2.708  -2.236  15.795  1.00  0.00     0.029 A 
ATOM     50  N   UNL     1       1.006  -1.788  14.435  1.00  0.00    -0.354 N 
ATOM     51  N   UNL     1      -1.799  -1.473  13.715  1.00  0.00    -0.248 NA
ATOM     52  C   UNL     1      -4.066  -1.610  14.265  1.00  0.00     0.031 C 
ATOM     53  C   UNL     1       1.515  -2.453  16.493  1.00  0.00     0.029 A 
ATOM     54  C   UNL     1       0.456  -2.145  15.654  1.00  0.00     0.049 A 
ATOM     55  H   UNL     1       0.492  -1.525  13.637  1.00  0.00     0.167 HD
ATOM     56  C   UNL     1      -1.927  -1.871  15.044  1.00  0.00     0.074 A 
ATOM     57  C   UNL     1      -3.344  -1.904  15.337  1.00  0.00     0.031 C 
ATOM     58  C   UNL     1      -0.956  -2.176  15.941  1.00  0.00     0.031 A 
BRANCH  45  59
ATOM     59  C   UNL     1       4.758  -1.746  13.623  1.00  0.00    -0.014 A 
ATOM     60  C   UNL     1       5.607  -0.625  13.659  1.00  0.00     0.010 A 
ATOM     61  C   UNL     1       5.305  -3.030  13.794  1.00  0.00     0.010 A 
ATOM     62  C   UNL     1       6.985  -0.788  13.816  1.00  0.00     0.020 A 
ATOM     63  C   UNL     1       6.680  -3.195  13.979  1.00  0.00     0.020 A 
ATOM     64  C   UNL     1       7.513  -2.073  13.969  1.00  0.00     0.054 A 
BRANCH  64  65
ATOM     65  S   UNL     1       9.305  -2.257  14.171  1.00  0.00     0.124 S 
ATOM     66  O   UNL     1       9.790  -1.978  12.822  1.00  0.00    -0.237 OA
ATOM     67  O   UNL     1       9.620  -1.244  15.174  1.00  0.00    -0.237 OA
ATOM     68  O   UNL     1       9.464  -3.640  14.616  1.00  0.00    -0.744 OA
ENDBRANCH  64  65
ENDBRANCH  45  59
BRANCH  46  69
ATOM     69  C   UNL     1      -4.945  -0.658  11.648  1.00  0.00    -0.014 A 
ATOM     70  C   UNL     1      -5.696   0.336  12.302  1.00  0.00     0.010 A 
ATOM     71  C   UNL     1      -5.599  -1.528  10.756  1.00  0.00     0.010 A 
ATOM     72  C   UNL     1      -7.076   0.439  12.090  1.00  0.00     0.020 A 
ATOM     73  C   UNL     1      -6.973  -1.411  10.521  1.00  0.00     0.020 A 
ATOM     74  C   UNL     1      -7.705  -0.436  11.201  1.00  0.00     0.054 A 
BRANCH  74  75
ATOM     75  S   UNL     1      -9.490  -0.262  10.915  1.00  0.00     0.124 S 
ATOM     76  O   UNL     1     -10.050  -0.784  12.157  1.00  0.00    -0.237 OA
ATOM     77  O   UNL     1      -9.636   1.177  10.709  1.00  0.00    -0.237 OA
ATOM     78  O   UNL     1      -9.726  -1.081   9.727  1.00  0.00    -0.744 OA
ENDBRANCH  74  75
ENDBRANCH  46  69
BRANCH  58  79
ATOM     79  C   UNL     1      -1.382  -2.531  17.343  1.00  0.00    -0.014 A 
ATOM     80  C   UNL     1      -2.032  -3.745  17.629  1.00  0.00     0.010 A 
ATOM     81  C   UNL     1      -1.082  -1.652  18.400  1.00  0.00     0.010 A 
ATOM     82  C   UNL     1      -2.411  -4.053  18.939  1.00  0.00     0.020 A 
ATOM     83  C   UNL     1      -1.433  -1.970  19.715  1.00  0.00     0.020 A 
ATOM     84  C   UNL     1      -2.112  -3.161  19.974  1.00  0.00     0.054 A 
BRANCH  84  85
ATOM     85  S   UNL     1      -2.590  -3.594  21.670  1.00  0.00     0.124 S 
ATOM     86  O   UNL     1      -4.032  -3.364  21.647  1.00  0.00    -0.237 OA
ATOM     87  O   UNL     1      -2.178  -4.992  21.774  1.00  0.00    -0.237 OA
ATOM     88  O   UNL     1      -1.823  -2.662  22.494  1.00  0.00    -0.744 OA
ENDBRANCH  84  85
ENDBRANCH  58  79
ENDBRANCH  32  33
ENDBRANCH  25  27
ENDBRANCH  24  25
ENDBRANCH  23  24
ENDBRANCH   1  23
TORSDOF 19
