REMARK SMILES COC(=O)C[C@H](NC(=O)N(C)C[C@@H]1CCC[N@H+]1C)C(=O)OCCOCCOC(=O)c1ccc(-c2c3nc(c(-c4ccc(S(=O)(=O)[O-])cc4)c4ccc([nH]4)c(-c4ccc(S(=O)(=O)[O-])cc4)c4nc(c(-c5ccc(S(=O)(=O)[O-])cc5)c5ccc2[nH]5)C=C4)C=C3)cc1
REMARK SMILES IDX 23 1 22 2 21 3 19 4 20 5 6 6 5 7 3 8 4 9 2 10 1 11 7 12 8 13
REMARK SMILES IDX 9 15 10 16 11 17 12 18 13 19 14 20 17 21 15 22 16 23 18 24
REMARK SMILES IDX 24 26 25 27 26 28 27 29 28 30 29 31 30 32 31 33 89 34 32 35
REMARK SMILES IDX 88 36 33 37 34 38 35 39 82 40 36 41 87 42 81 43 83 44 37 45
REMARK SMILES IDX 86 46 80 47 79 48 38 50 68 51 49 52 67 53 50 54 53 55 66 56
REMARK SMILES IDX 84 57 51 58 52 59 65 61 85 62 54 63 39 64 40 65 48 66 41 67
REMARK SMILES IDX 47 68 42 69 43 70 44 71 45 72 46 73 69 74 70 75 78 76 71 77
REMARK SMILES IDX 77 78 72 79 73 80 74 81 75 82 76 83 55 84 56 85 64 86 57 87
REMARK SMILES IDX 63 88 58 89 59 90 60 91 61 92 62 93
REMARK H PARENT 7 14 17 25 83 49 53 60
REMARK Flexibility Score: inf
ROOT
ATOM      1  C   UNL     1      -3.276   4.134   9.124  1.00  0.00     0.202 C 
ENDROOT
BRANCH   1   2
ATOM      2  C   UNL     1      -3.238   3.263  10.388  1.00  0.00     0.261 C 
BRANCH   2   3
ATOM      3  O   UNL     1      -2.039   2.475  10.509  1.00  0.00    -0.462 OA
BRANCH   3   4
ATOM      4  C   UNL     1      -2.217   1.123  10.542  1.00  0.00     0.329 C 
ATOM      5  O   UNL     1      -3.305   0.559  10.595  1.00  0.00    -0.250 OA
BRANCH   4   6
ATOM      6  C   UNL     1      -0.894   0.344  10.596  1.00  0.00     0.204 C 
BRANCH   6   7
ATOM      7  C   UNL     1      -0.759  -0.185  12.028  1.00  0.00     0.159 C 
BRANCH   7   8
ATOM      8  C   UNL     1      -0.024  -1.494  12.077  1.00  0.00     0.308 C 
ATOM      9  O   UNL     1       0.905  -1.727  12.838  1.00  0.00    -0.252 OA
BRANCH   8  10
ATOM     10  O   UNL     1      -0.577  -2.402  11.226  1.00  0.00    -0.469 OA
ATOM     11  C   UNL     1       0.072  -3.673  11.233  1.00  0.00     0.282 C 
ENDBRANCH   8  10
ENDBRANCH   7   8
ENDBRANCH   6   7
BRANCH   6  12
ATOM     12  N   UNL     1       0.301   1.111  10.211  1.00  0.00    -0.324 N 
ATOM     13  C   UNL     1       1.213   1.081   9.221  1.00  0.00     0.318 C 
ATOM     14  H   UNL     1       0.482   1.841  10.847  1.00  0.00     0.166 HD
ATOM     15  O   UNL     1       2.228   1.745   9.449  1.00  0.00    -0.249 OA
BRANCH  13  16
ATOM     16  N   UNL     1       1.065   0.362   8.068  1.00  0.00    -0.322 N 
ATOM     17  C   UNL     1      -0.118  -0.356   7.631  1.00  0.00     0.149 C 
BRANCH  16  18
ATOM     18  C   UNL     1       2.244   0.213   7.184  1.00  0.00     0.185 C 
BRANCH  18  19
ATOM     19  C   UNL     1       2.594   1.363   6.182  1.00  0.00     0.203 C 
ATOM     20  C   UNL     1       3.579   2.402   6.751  1.00  0.00     0.073 C 
ATOM     21  N   UNL     1       1.483   2.156   5.617  1.00  0.00    -0.333 N 
ATOM     22  C   UNL     1       2.981   3.759   6.425  1.00  0.00     0.068 C 
ATOM     23  C   UNL     1       2.057   3.465   5.262  1.00  0.00     0.262 C 
ATOM     24  C   UNL     1       0.838   1.550   4.462  1.00  0.00     0.333 C 
ATOM     25  H   UNL     1       0.739   2.224   6.311  1.00  0.00     0.348 HD
ENDBRANCH  18  19
ENDBRANCH  16  18
ENDBRANCH  13  16
ENDBRANCH   6  12
ENDBRANCH   4   6
ENDBRANCH   3   4
ENDBRANCH   2   3
ENDBRANCH   1   2
BRANCH   1  26
ATOM     26  O   UNL     1      -3.096   3.478   7.870  1.00  0.00    -0.374 OA
BRANCH  26  27
ATOM     27  C   UNL     1      -1.815   2.913   7.610  1.00  0.00     0.202 C 
BRANCH  27  28
ATOM     28  C   UNL     1      -0.621   3.856   7.492  1.00  0.00     0.261 C 
BRANCH  28  29
ATOM     29  O   UNL     1      -0.437   4.722   8.615  1.00  0.00    -0.460 OA
BRANCH  29  30
ATOM     30  C   UNL     1      -0.287   6.024   8.289  1.00  0.00     0.338 C 
ATOM     31  O   UNL     1      -0.280   6.528   7.175  1.00  0.00    -0.246 OA
BRANCH  30  32
ATOM     32  C   UNL     1      -0.247   6.823   9.515  1.00  0.00     0.060 A 
ATOM     33  C   UNL     1      -1.350   7.630   9.811  1.00  0.00     0.016 A 
ATOM     34  C   UNL     1       0.910   6.862  10.295  1.00  0.00     0.016 A 
ATOM     35  C   UNL     1      -1.280   8.522  10.876  1.00  0.00     0.010 A 
ATOM     36  C   UNL     1       0.978   7.760  11.361  1.00  0.00     0.010 A 
ATOM     37  C   UNL     1      -0.103   8.617  11.632  1.00  0.00    -0.014 A 
BRANCH  37  38
ATOM     38  C   UNL     1       0.034   9.702  12.630  1.00  0.00     0.031 A 
ATOM     39  C   UNL     1       0.781  10.952  12.258  1.00  0.00     0.074 A 
ATOM     40  C   UNL     1      -0.533   9.578  13.843  1.00  0.00     0.049 A 
ATOM     41  N   UNL     1       1.007  12.022  12.975  1.00  0.00    -0.248 NA
ATOM     42  C   UNL     1       1.346  11.004  10.900  1.00  0.00     0.031 C 
ATOM     43  C   UNL     1      -1.304   8.422  14.300  1.00  0.00     0.029 A 
ATOM     44  N   UNL     1      -0.545  10.436  14.911  1.00  0.00    -0.354 N 
ATOM     45  C   UNL     1       1.740  12.875  12.158  1.00  0.00     0.074 A 
ATOM     46  C   UNL     1       1.946  12.186  10.902  1.00  0.00     0.031 C 
ATOM     47  C   UNL     1      -1.712   8.642  15.561  1.00  0.00     0.029 A 
ATOM     48  C   UNL     1      -1.209   9.940  16.006  1.00  0.00     0.049 A 
ATOM     49  H   UNL     1      -0.119  11.324  14.896  1.00  0.00     0.167 HD
ATOM     50  C   UNL     1       2.194  14.122  12.427  1.00  0.00     0.031 A 
ATOM     51  C   UNL     1      -1.379  10.467  17.234  1.00  0.00     0.031 A 
ATOM     52  C   UNL     1       2.005  14.792  13.686  1.00  0.00     0.049 A 
ATOM     53  C   UNL     1      -0.814  11.830  17.531  1.00  0.00     0.074 A 
ATOM     54  C   UNL     1       2.420  16.058  14.060  1.00  0.00     0.029 A 
ATOM     55  N   UNL     1       1.353  14.245  14.781  1.00  0.00    -0.354 N 
ATOM     56  N   UNL     1      -0.148  12.635  16.739  1.00  0.00    -0.248 NA
ATOM     57  C   UNL     1      -1.033  12.358  18.884  1.00  0.00     0.031 C 
ATOM     58  C   UNL     1       2.058  16.258  15.397  1.00  0.00     0.029 A 
ATOM     59  C   UNL     1       1.372  15.137  15.839  1.00  0.00     0.049 A 
ATOM     60  H   UNL     1       0.937  13.353  14.803  1.00  0.00     0.167 HD
ATOM     61  C   UNL     1       0.115  13.775  17.491  1.00  0.00     0.074 A 
ATOM     62  C   UNL     1      -0.476  13.559  18.796  1.00  0.00     0.031 C 
ATOM     63  C   UNL     1       0.783  14.900  17.133  1.00  0.00     0.031 A 
BRANCH  50  64
ATOM     64  C   UNL     1       2.968  14.825  11.344  1.00  0.00    -0.014 A 
ATOM     65  C   UNL     1       2.323  15.322  10.197  1.00  0.00     0.010 A 
ATOM     66  C   UNL     1       4.355  15.008  11.483  1.00  0.00     0.010 A 
ATOM     67  C   UNL     1       3.058  15.953   9.189  1.00  0.00     0.020 A 
ATOM     68  C   UNL     1       5.091  15.659  10.489  1.00  0.00     0.020 A 
ATOM     69  C   UNL     1       4.440  16.111   9.338  1.00  0.00     0.054 A 
BRANCH  69  70
ATOM     70  S   UNL     1       5.371  16.939   8.020  1.00  0.00     0.124 S 
ATOM     71  O   UNL     1       5.418  15.905   6.989  1.00  0.00    -0.237 OA
ATOM     72  O   UNL     1       4.533  18.096   7.711  1.00  0.00    -0.237 OA
ATOM     73  O   UNL     1       6.653  17.253   8.646  1.00  0.00    -0.744 OA
ENDBRANCH  69  70
ENDBRANCH  50  64
BRANCH  51  74
ATOM     74  C   UNL     1      -2.108   9.693  18.273  1.00  0.00    -0.014 A 
ATOM     75  C   UNL     1      -3.396  10.076  18.683  1.00  0.00     0.010 A 
ATOM     76  C   UNL     1      -1.522   8.546  18.838  1.00  0.00     0.010 A 
ATOM     77  C   UNL     1      -4.082   9.330  19.646  1.00  0.00     0.020 A 
ATOM     78  C   UNL     1      -2.213   7.784  19.783  1.00  0.00     0.020 A 
ATOM     79  C   UNL     1      -3.487   8.186  20.188  1.00  0.00     0.054 A 
BRANCH  79  80
ATOM     80  S   UNL     1      -4.423   7.192  21.384  1.00  0.00     0.124 S 
ATOM     81  O   UNL     1      -4.320   8.000  22.595  1.00  0.00    -0.237 OA
ATOM     82  O   UNL     1      -5.749   7.129  20.775  1.00  0.00    -0.237 OA
ATOM     83  O   UNL     1      -3.699   5.923  21.412  1.00  0.00    -0.744 OA
ENDBRANCH  79  80
ENDBRANCH  51  74
BRANCH  63  84
ATOM     84  C   UNL     1       0.889  15.994  18.160  1.00  0.00    -0.014 A 
ATOM     85  C   UNL     1       1.762  15.880  19.256  1.00  0.00     0.010 A 
ATOM     86  C   UNL     1       0.144  17.176  17.994  1.00  0.00     0.010 A 
ATOM     87  C   UNL     1       1.866  16.919  20.186  1.00  0.00     0.020 A 
ATOM     88  C   UNL     1       0.264  18.226  18.908  1.00  0.00     0.020 A 
ATOM     89  C   UNL     1       1.115  18.084  20.006  1.00  0.00     0.054 A 
BRANCH  89  90
ATOM     90  S   UNL     1       1.298  19.436  21.202  1.00  0.00     0.124 S 
ATOM     91  O   UNL     1       0.531  18.940  22.341  1.00  0.00    -0.237 OA
ATOM     92  O   UNL     1       2.744  19.500  21.398  1.00  0.00    -0.237 OA
ATOM     93  O   UNL     1       0.718  20.587  20.513  1.00  0.00    -0.744 OA
ENDBRANCH  89  90
ENDBRANCH  63  84
ENDBRANCH  37  38
ENDBRANCH  30  32
ENDBRANCH  29  30
ENDBRANCH  28  29
ENDBRANCH  27  28
ENDBRANCH  26  27
ENDBRANCH   1  26
TORSDOF 24
