REMARK SMILES O=C(OCCOCCOC(=O)c1cccc(Nc2ccc([N+](=O)[O-])cc2)c1)c1ccc(-c2c3nc(c(-c4ccc(S(=O)(=O)[O-])cc4)c4ccc([nH]4)c(-c4ccc(S(=O)(=O)[O-])cc4)c4nc(c(-c5ccc(S(=O)(=O)[O-])cc5)c5ccc2[nH]5)C=C4)C=C3)cc1
REMARK SMILES IDX 6 1 5 2 4 3 3 4 2 5 1 6 28 7 29 8 87 9 30 10 86 11 31 12
REMARK SMILES IDX 32 13 33 14 80 15 34 16 85 17 79 18 81 19 35 20 84 21 78 22
REMARK SMILES IDX 77 23 36 25 66 26 47 27 65 28 48 29 51 30 64 31 82 32 49 33
REMARK SMILES IDX 50 34 63 36 83 37 52 38 37 39 38 40 46 41 39 42 45 43 40 44
REMARK SMILES IDX 41 45 42 46 43 47 44 48 67 49 68 50 76 51 69 52 75 53 70 54
REMARK SMILES IDX 71 55 72 56 73 57 74 58 53 59 54 60 62 61 55 62 61 63 56 64
REMARK SMILES IDX 57 65 58 66 59 67 60 68 7 69 8 70 9 71 10 72 11 73 12 74
REMARK SMILES IDX 13 75 27 76 14 77 16 78 15 79 17 80 18 82 19 83 26 84 20 85
REMARK SMILES IDX 25 86 21 87 22 88 23 89 24 90
REMARK H PARENT 81 24 51 35 17 81
REMARK Flexibility Score: inf
ROOT
ATOM      1  O   UNL     1       3.989  -0.926   1.338  1.00  0.00    -0.374 OA
ENDROOT
BRANCH   1   2
ATOM      2  C   UNL     1       4.304   0.436   1.611  1.00  0.00     0.202 C 
BRANCH   2   3
ATOM      3  C   UNL     1       4.046   1.395   0.448  1.00  0.00     0.261 C 
BRANCH   3   4
ATOM      4  O   UNL     1       2.665   1.347   0.060  1.00  0.00    -0.460 OA
BRANCH   4   5
ATOM      5  C   UNL     1       2.137   0.722  -1.019  1.00  0.00     0.338 C 
ATOM      6  O   UNL     1       0.925   0.804  -1.212  1.00  0.00    -0.246 OA
BRANCH   5   7
ATOM      7  C   UNL     1       2.949  -0.074  -1.987  1.00  0.00     0.060 A 
ATOM      8  C   UNL     1       4.086  -0.811  -1.649  1.00  0.00     0.016 A 
ATOM      9  C   UNL     1       2.457  -0.185  -3.296  1.00  0.00     0.016 A 
ATOM     10  C   UNL     1       4.731  -1.623  -2.561  1.00  0.00     0.010 A 
ATOM     11  C   UNL     1       3.080  -1.028  -4.220  1.00  0.00     0.010 A 
ATOM     12  C   UNL     1       4.212  -1.757  -3.840  1.00  0.00    -0.014 A 
BRANCH  12  13
ATOM     13  C   UNL     1       4.925  -2.645  -4.763  1.00  0.00     0.031 A 
ATOM     14  C   UNL     1       5.792  -2.026  -5.806  1.00  0.00     0.074 A 
ATOM     15  C   UNL     1       4.862  -3.975  -4.566  1.00  0.00     0.049 A 
ATOM     16  N   UNL     1       6.437  -2.601  -6.780  1.00  0.00    -0.248 NA
ATOM     17  C   UNL     1       5.967  -0.563  -5.739  1.00  0.00     0.031 C 
ATOM     18  C   UNL     1       4.147  -4.633  -3.465  1.00  0.00     0.029 A 
ATOM     19  N   UNL     1       5.416  -5.011  -5.265  1.00  0.00    -0.354 N 
ATOM     20  C   UNL     1       7.050  -1.569  -7.475  1.00  0.00     0.074 A 
ATOM     21  C   UNL     1       6.725  -0.334  -6.801  1.00  0.00     0.031 C 
ATOM     22  C   UNL     1       4.308  -5.962  -3.567  1.00  0.00     0.029 A 
ATOM     23  C   UNL     1       5.059  -6.249  -4.782  1.00  0.00     0.049 A 
ATOM     24  H   UNL     1       6.012  -4.884  -6.038  1.00  0.00     0.167 HD
ATOM     25  C   UNL     1       7.792  -1.665  -8.599  1.00  0.00     0.031 A 
ATOM     26  C   UNL     1       5.266  -7.469  -5.311  1.00  0.00     0.031 A 
ATOM     27  C   UNL     1       8.081  -2.921  -9.232  1.00  0.00     0.049 A 
ATOM     28  C   UNL     1       6.007  -7.534  -6.620  1.00  0.00     0.074 A 
ATOM     29  C   UNL     1       8.798  -3.158 -10.388  1.00  0.00     0.029 A 
ATOM     30  N   UNL     1       7.652  -4.155  -8.758  1.00  0.00    -0.354 N 
ATOM     31  N   UNL     1       6.565  -6.554  -7.296  1.00  0.00    -0.248 NA
ATOM     32  C   UNL     1       6.128  -8.852  -7.253  1.00  0.00     0.031 C 
ATOM     33  C   UNL     1       8.740  -4.529 -10.652  1.00  0.00     0.029 A 
ATOM     34  C   UNL     1       8.049  -5.155  -9.623  1.00  0.00     0.049 A 
ATOM     35  H   UNL     1       7.141  -4.295  -7.928  1.00  0.00     0.167 HD
ATOM     36  C   UNL     1       7.110  -7.139  -8.430  1.00  0.00     0.074 A 
ATOM     37  C   UNL     1       6.842  -8.561  -8.332  1.00  0.00     0.031 C 
ATOM     38  C   UNL     1       7.762  -6.560  -9.469  1.00  0.00     0.031 A 
BRANCH  25  39
ATOM     39  C   UNL     1       8.235  -0.390  -9.255  1.00  0.00    -0.014 A 
ATOM     40  C   UNL     1       9.256   0.412  -8.716  1.00  0.00     0.010 A 
ATOM     41  C   UNL     1       7.620  -0.000 -10.459  1.00  0.00     0.010 A 
ATOM     42  C   UNL     1       9.643   1.589  -9.364  1.00  0.00     0.020 A 
ATOM     43  C   UNL     1       8.020   1.161 -11.122  1.00  0.00     0.020 A 
ATOM     44  C   UNL     1       9.025   1.953 -10.566  1.00  0.00     0.054 A 
BRANCH  44  45
ATOM     45  S   UNL     1       9.586   3.455 -11.414  1.00  0.00     0.124 S 
ATOM     46  O   UNL     1       9.088   4.505 -10.529  1.00  0.00    -0.237 OA
ATOM     47  O   UNL     1      11.036   3.286 -11.434  1.00  0.00    -0.237 OA
ATOM     48  O   UNL     1       8.934   3.382 -12.719  1.00  0.00    -0.744 OA
ENDBRANCH  44  45
ENDBRANCH  25  39
BRANCH  26  49
ATOM     49  C   UNL     1       4.673  -8.685  -4.684  1.00  0.00    -0.014 A 
ATOM     50  C   UNL     1       5.481  -9.736  -4.218  1.00  0.00     0.010 A 
ATOM     51  C   UNL     1       3.273  -8.813  -4.581  1.00  0.00     0.010 A 
ATOM     52  C   UNL     1       4.902 -10.902  -3.700  1.00  0.00     0.020 A 
ATOM     53  C   UNL     1       2.691  -9.959  -4.032  1.00  0.00     0.020 A 
ATOM     54  C   UNL     1       3.510 -11.007  -3.615  1.00  0.00     0.054 A 
BRANCH  54  55
ATOM     55  S   UNL     1       2.781 -12.528  -2.947  1.00  0.00     0.124 S 
ATOM     56  O   UNL     1       3.034 -13.482  -4.022  1.00  0.00    -0.237 OA
ATOM     57  O   UNL     1       3.549 -12.736  -1.722  1.00  0.00    -0.237 OA
ATOM     58  O   UNL     1       1.378 -12.175  -2.742  1.00  0.00    -0.744 OA
ENDBRANCH  54  55
ENDBRANCH  26  49
BRANCH  38  59
ATOM     59  C   UNL     1       8.244  -7.468 -10.562  1.00  0.00    -0.014 A 
ATOM     60  C   UNL     1       7.343  -8.022 -11.487  1.00  0.00     0.010 A 
ATOM     61  C   UNL     1       9.625  -7.678 -10.724  1.00  0.00     0.010 A 
ATOM     62  C   UNL     1       7.818  -8.780 -12.557  1.00  0.00     0.020 A 
ATOM     63  C   UNL     1      10.104  -8.408 -11.811  1.00  0.00     0.020 A 
ATOM     64  C   UNL     1       9.196  -8.958 -12.718  1.00  0.00     0.054 A 
BRANCH  64  65
ATOM     65  S   UNL     1       9.788  -9.867 -14.169  1.00  0.00     0.124 S 
ATOM     66  O   UNL     1       9.406 -11.239 -13.845  1.00  0.00    -0.237 OA
ATOM     67  O   UNL     1       9.041  -9.246 -15.260  1.00  0.00    -0.237 OA
ATOM     68  O   UNL     1      11.226  -9.607 -14.178  1.00  0.00    -0.744 OA
ENDBRANCH  64  65
ENDBRANCH  38  59
ENDBRANCH  12  13
ENDBRANCH   5   7
ENDBRANCH   4   5
ENDBRANCH   3   4
ENDBRANCH   2   3
ENDBRANCH   1   2
BRANCH   1  69
ATOM     69  C   UNL     1       2.635  -1.340   1.547  1.00  0.00     0.202 C 
BRANCH  69  70
ATOM     70  C   UNL     1       2.645  -2.714   2.225  1.00  0.00     0.261 C 
BRANCH  70  71
ATOM     71  O   UNL     1       3.293  -2.574   3.497  1.00  0.00    -0.460 OA
BRANCH  71  72
ATOM     72  C   UNL     1       4.654  -2.589   3.440  1.00  0.00     0.338 C 
ATOM     73  O   UNL     1       5.359  -3.116   2.607  1.00  0.00    -0.246 OA
BRANCH  72  74
ATOM     74  C   UNL     1       5.144  -1.653   4.476  1.00  0.00     0.062 A 
ATOM     75  C   UNL     1       6.283  -0.884   4.224  1.00  0.00     0.016 A 
ATOM     76  C   UNL     1       4.445  -1.506   5.674  1.00  0.00     0.041 A 
ATOM     77  C   UNL     1       6.706   0.043   5.173  1.00  0.00     0.003 A 
ATOM     78  C   UNL     1       4.899  -0.630   6.662  1.00  0.00     0.039 A 
ATOM     79  C   UNL     1       6.023   0.160   6.388  1.00  0.00     0.026 A 
BRANCH  78  80
ATOM     80  N   UNL     1       4.207  -0.617   7.888  1.00  0.00    -0.355 N 
ATOM     81  H   UNL     1       3.268  -0.910   7.863  1.00  0.00     0.167 HD
BRANCH  80  82
ATOM     82  C   UNL     1       4.707  -0.233   9.139  1.00  0.00     0.039 A 
ATOM     83  C   UNL     1       5.048  -1.228  10.065  1.00  0.00     0.033 A 
ATOM     84  C   UNL     1       4.941   1.108   9.450  1.00  0.00     0.033 A 
ATOM     85  C   UNL     1       5.610  -0.892  11.295  1.00  0.00     0.088 A 
ATOM     86  C   UNL     1       5.496   1.461  10.681  1.00  0.00     0.088 A 
ATOM     87  C   UNL     1       5.830   0.456  11.598  1.00  0.00     0.269 A 
BRANCH  87  88
ATOM     88  N   UNL     1       6.420   0.819  12.890  1.00  0.00     0.062 N 
ATOM     89  O   UNL     1       6.673  -0.096  13.687  1.00  0.00    -0.258 OA
ATOM     90  O   UNL     1       6.627   2.021  13.113  1.00  0.00    -0.258 OA
ENDBRANCH  87  88
ENDBRANCH  80  82
ENDBRANCH  78  80
ENDBRANCH  72  74
ENDBRANCH  71  72
ENDBRANCH  70  71
ENDBRANCH  69  70
ENDBRANCH   1  69
TORSDOF 20
