REMARK SMILES O=C(CCn1cc(/C=C\C(=O)c2ccc(F)cc2)c(-c2cccc(Cl)c2)n1)OCCOCCOC(=O)c1ccc(-c2c3nc(c(-c4ccc(S(=O)(=O)[O-])cc4)c4ccc([nH]4)c(-c4ccc(S(=O)(=O)[O-])cc4)c4nc(c(-c5ccc(S(=O)(=O)[O-])cc5)c5ccc2[nH]5)C=C4)C=C3)cc1
REMARK SMILES IDX 30 1 29 2 28 3 2 4 1 5 3 6 4 7 5 8 6 9 27 10 7 11 19 12 8 13
REMARK SMILES IDX 9 14 10 15 11 16 12 17 13 18 18 19 14 20 17 21 15 22 16 23
REMARK SMILES IDX 20 24 21 25 26 26 22 27 24 28 23 29 25 30 31 31 32 32 33 33
REMARK SMILES IDX 34 34 35 35 36 36 37 37 38 38 96 39 39 40 95 41 40 42 41 43
REMARK SMILES IDX 42 44 89 45 43 46 94 47 88 48 90 49 44 50 93 51 87 52 86 53
REMARK SMILES IDX 45 55 75 56 56 57 74 58 57 59 60 60 73 61 91 62 58 63 59 64
REMARK SMILES IDX 72 66 92 67 61 68 46 69 47 70 55 71 48 72 54 73 49 74 50 75
REMARK SMILES IDX 51 76 52 77 53 78 76 79 77 80 85 81 78 82 84 83 79 84 80 85
REMARK SMILES IDX 81 86 82 87 83 88 62 89 63 90 71 91 64 92 70 93 65 94 66 95
REMARK SMILES IDX 67 96 68 97 69 98
REMARK H PARENT 90 54 60 65
REMARK Flexibility Score: inf
ROOT
ATOM      1  C   UNL     1       4.160   1.109  -1.069  1.00  0.00     0.202 C 
ENDROOT
BRANCH   1   2
ATOM      2  C   UNL     1       3.642  -0.310  -1.081  1.00  0.00     0.261 C 
BRANCH   2   3
ATOM      3  O   UNL     1       2.350  -0.478  -0.508  1.00  0.00    -0.463 OA
BRANCH   3   4
ATOM      4  C   UNL     1       2.213  -1.012   0.729  1.00  0.00     0.307 C 
ATOM      5  O   UNL     1       1.229  -1.707   0.974  1.00  0.00    -0.252 OA
BRANCH   4   6
ATOM      6  C   UNL     1       3.158  -0.589   1.839  1.00  0.00     0.146 C 
BRANCH   6   7
ATOM      7  C   UNL     1       4.255  -1.546   2.272  1.00  0.00     0.156 C 
BRANCH   7   8
ATOM      8  N   UNL     1       5.445  -1.667   1.448  1.00  0.00    -0.271 N 
ATOM      9  C   UNL     1       6.237  -0.721   0.835  1.00  0.00     0.117 A 
ATOM     10  N   UNL     1       5.798  -2.910   1.105  1.00  0.00    -0.172 NA
ATOM     11  C   UNL     1       6.807  -1.371  -0.259  1.00  0.00     0.021 A 
ATOM     12  C   UNL     1       6.425  -2.740  -0.058  1.00  0.00     0.100 A 
BRANCH  11  13
ATOM     13  C   UNL     1       7.497  -0.732  -1.366  1.00  0.00     0.016 C 
ATOM     14  C   UNL     1       7.883  -1.154  -2.600  1.00  0.00     0.053 C 
BRANCH  14  15
ATOM     15  C   UNL     1       7.820  -2.445  -3.440  1.00  0.00     0.185 C 
ATOM     16  O   UNL     1       8.256  -2.447  -4.586  1.00  0.00    -0.289 OA
BRANCH  15  17
ATOM     17  C   UNL     1       7.070  -3.666  -2.857  1.00  0.00     0.022 A 
ATOM     18  C   UNL     1       5.453  -2.894  -2.576  1.00  0.00     0.015 A 
ATOM     19  C   UNL     1       7.468  -5.376  -1.827  1.00  0.00     0.015 A 
ATOM     20  C   UNL     1       4.375  -3.588  -1.371  1.00  0.00     0.040 A 
ATOM     21  C   UNL     1       6.259  -5.944  -0.617  1.00  0.00     0.040 A 
ATOM     22  C   UNL     1       4.785  -5.025  -0.430  1.00  0.00     0.123 A 
ATOM     23  F   UNL     1       3.894  -5.435   0.487  1.00  0.00    -0.207 F 
ENDBRANCH  15  17
ENDBRANCH  14  15
ENDBRANCH  11  13
BRANCH  12  24
ATOM     24  C   UNL     1       6.726  -3.853  -1.009  1.00  0.00     0.004 A 
ATOM     25  C   UNL     1       5.753  -4.946  -2.420  1.00  0.00     0.010 A 
ATOM     26  C   UNL     1       8.533  -3.694  -1.215  1.00  0.00     0.031 A 
ATOM     27  C   UNL     1       6.681  -5.598  -3.802  1.00  0.00     0.002 A 
ATOM     28  C   UNL     1       9.281  -4.392  -2.641  1.00  0.00     0.041 A 
ATOM     29  C   UNL     1       8.390  -5.286  -3.869  1.00  0.00     0.020 A 
ATOM     30  Cl  UNL     1      10.982  -4.205  -2.850  1.00  0.00    -0.084 Cl
ENDBRANCH  12  24
ENDBRANCH   7   8
ENDBRANCH   6   7
ENDBRANCH   4   6
ENDBRANCH   3   4
ENDBRANCH   2   3
ENDBRANCH   1   2
BRANCH   1  31
ATOM     31  O   UNL     1       4.032   1.811   0.165  1.00  0.00    -0.374 OA
BRANCH  31  32
ATOM     32  C   UNL     1       2.762   2.431   0.398  1.00  0.00     0.202 C 
BRANCH  32  33
ATOM     33  C   UNL     1       2.599   3.810  -0.218  1.00  0.00     0.261 C 
BRANCH  33  34
ATOM     34  O   UNL     1       2.836   3.761  -1.610  1.00  0.00    -0.460 OA
BRANCH  34  35
ATOM     35  C   UNL     1       4.130   3.863  -2.004  1.00  0.00     0.338 C 
ATOM     36  O   UNL     1       5.114   4.036  -1.311  1.00  0.00    -0.246 OA
BRANCH  35  37
ATOM     37  C   UNL     1       4.121   3.775  -3.473  1.00  0.00     0.060 A 
ATOM     38  C   UNL     1       5.225   4.334  -4.101  1.00  0.00     0.016 A 
ATOM     39  C   UNL     1       2.881   3.638  -4.112  1.00  0.00     0.016 A 
ATOM     40  C   UNL     1       4.966   5.155  -5.170  1.00  0.00     0.010 A 
ATOM     41  C   UNL     1       2.615   4.487  -5.147  1.00  0.00     0.010 A 
ATOM     42  C   UNL     1       3.633   5.332  -5.573  1.00  0.00    -0.014 A 
BRANCH  42  43
ATOM     43  C   UNL     1       3.342   6.238  -6.659  1.00  0.00     0.031 A 
ATOM     44  C   UNL     1       3.722   5.571  -7.921  1.00  0.00     0.074 A 
ATOM     45  C   UNL     1       2.746   7.439  -6.522  1.00  0.00     0.049 A 
ATOM     46  N   UNL     1       4.899   5.614  -8.452  1.00  0.00    -0.248 NA
ATOM     47  C   UNL     1       2.887   4.457  -8.416  1.00  0.00     0.031 C 
ATOM     48  C   UNL     1       2.142   8.062  -5.342  1.00  0.00     0.029 A 
ATOM     49  N   UNL     1       2.513   8.370  -7.485  1.00  0.00    -0.354 N 
ATOM     50  C   UNL     1       4.807   4.793  -9.562  1.00  0.00     0.074 A 
ATOM     51  C   UNL     1       3.728   3.885  -9.281  1.00  0.00     0.031 C 
ATOM     52  C   UNL     1       1.413   9.145  -5.722  1.00  0.00     0.029 A 
ATOM     53  C   UNL     1       1.616   9.383  -7.142  1.00  0.00     0.049 A 
ATOM     54  H   UNL     1       2.949   8.332  -8.367  1.00  0.00     0.167 HD
ATOM     55  C   UNL     1       5.304   5.222 -10.754  1.00  0.00     0.031 A 
ATOM     56  C   UNL     1       1.082  10.307  -7.995  1.00  0.00     0.031 A 
ATOM     57  C   UNL     1       6.181   6.357 -10.560  1.00  0.00     0.049 A 
ATOM     58  C   UNL     1       1.983  10.358  -9.179  1.00  0.00     0.074 A 
ATOM     59  C   UNL     1       7.329   6.588  -9.828  1.00  0.00     0.029 A 
ATOM     60  N   UNL     1       5.626   7.590 -10.816  1.00  0.00    -0.354 N 
ATOM     61  N   UNL     1       3.205  10.812  -9.110  1.00  0.00    -0.248 NA
ATOM     62  C   UNL     1       1.721   9.417 -10.258  1.00  0.00     0.031 C 
ATOM     63  C   UNL     1       7.177   7.907  -9.307  1.00  0.00     0.029 A 
ATOM     64  C   UNL     1       6.012   8.465  -9.837  1.00  0.00     0.049 A 
ATOM     65  H   UNL     1       5.045   7.808 -11.580  1.00  0.00     0.167 HD
ATOM     66  C   UNL     1       3.960   9.886  -9.816  1.00  0.00     0.074 A 
ATOM     67  C   UNL     1       2.981   9.076 -10.548  1.00  0.00     0.031 C 
ATOM     68  C   UNL     1       5.268   9.657  -9.492  1.00  0.00     0.031 A 
BRANCH  55  69
ATOM     69  C   UNL     1       4.593   4.984 -12.068  1.00  0.00    -0.014 A 
ATOM     70  C   UNL     1       5.154   5.551 -13.228  1.00  0.00     0.010 A 
ATOM     71  C   UNL     1       3.283   4.473 -12.181  1.00  0.00     0.010 A 
ATOM     72  C   UNL     1       4.417   5.666 -14.411  1.00  0.00     0.020 A 
ATOM     73  C   UNL     1       2.551   4.547 -13.365  1.00  0.00     0.020 A 
ATOM     74  C   UNL     1       3.117   5.165 -14.468  1.00  0.00     0.054 A 
BRANCH  74  75
ATOM     75  S   UNL     1       2.171   5.336 -15.995  1.00  0.00     0.124 S 
ATOM     76  O   UNL     1       2.027   6.785 -16.099  1.00  0.00    -0.237 OA
ATOM     77  O   UNL     1       3.059   4.712 -16.971  1.00  0.00    -0.237 OA
ATOM     78  O   UNL     1       0.940   4.600 -15.718  1.00  0.00    -0.744 OA
ENDBRANCH  74  75
ENDBRANCH  55  69
BRANCH  56  79
ATOM     79  C   UNL     1      -0.304  10.862  -8.057  1.00  0.00    -0.014 A 
ATOM     80  C   UNL     1      -0.644  11.909  -8.945  1.00  0.00     0.010 A 
ATOM     81  C   UNL     1      -1.369  10.146  -7.478  1.00  0.00     0.010 A 
ATOM     82  C   UNL     1      -1.986  12.177  -9.292  1.00  0.00     0.020 A 
ATOM     83  C   UNL     1      -2.707  10.407  -7.817  1.00  0.00     0.020 A 
ATOM     84  C   UNL     1      -3.010  11.404  -8.742  1.00  0.00     0.054 A 
BRANCH  84  85
ATOM     85  S   UNL     1      -4.724  11.607  -9.332  1.00  0.00     0.124 S 
ATOM     86  O   UNL     1      -5.092  12.910  -8.786  1.00  0.00    -0.237 OA
ATOM     87  O   UNL     1      -4.574  11.551 -10.783  1.00  0.00    -0.237 OA
ATOM     88  O   UNL     1      -5.427  10.469  -8.742  1.00  0.00    -0.744 OA
ENDBRANCH  84  85
ENDBRANCH  56  79
BRANCH  68  89
ATOM     89  C   UNL     1       5.979  10.642  -8.593  1.00  0.00    -0.014 A 
ATOM     90  C   UNL     1       5.641  10.919  -7.252  1.00  0.00     0.010 A 
ATOM     91  C   UNL     1       7.155  11.204  -9.117  1.00  0.00     0.010 A 
ATOM     92  C   UNL     1       6.453  11.764  -6.474  1.00  0.00     0.020 A 
ATOM     93  C   UNL     1       7.974  12.024  -8.346  1.00  0.00     0.020 A 
ATOM     94  C   UNL     1       7.613  12.315  -7.032  1.00  0.00     0.054 A 
BRANCH  94  95
ATOM     95  S   UNL     1       8.670  13.408  -6.040  1.00  0.00     0.124 S 
ATOM     96  O   UNL     1       7.822  14.581  -5.851  1.00  0.00    -0.237 OA
ATOM     97  O   UNL     1       8.924  12.613  -4.840  1.00  0.00    -0.237 OA
ATOM     98  O   UNL     1       9.842  13.623  -6.888  1.00  0.00    -0.744 OA
ENDBRANCH  94  95
ENDBRANCH  68  89
ENDBRANCH  42  43
ENDBRANCH  35  37
ENDBRANCH  34  35
ENDBRANCH  33  34
ENDBRANCH  32  33
ENDBRANCH  31  32
ENDBRANCH   1  31
TORSDOF 23
