REMARK SMILES O=C(OCCOCCOC(=O)[C@@H]1CCC(=O)N1C(=O)/C=C/c1ccccc1)c1ccc(-c2c3nc(c(-c4ccc(S(=O)(=O)[O-])cc4)c4ccc([nH]4)c(-c4ccc(S(=O)(=O)[O-])cc4)c4nc(c(-c5ccc(S(=O)(=O)[O-])cc5)c5ccc2[nH]5)C=C4)C=C3)cc1
REMARK SMILES IDX 6 1 5 2 4 3 3 4 2 5 1 6 28 7 29 8 87 9 30 10 86 11 31 12
REMARK SMILES IDX 32 13 33 14 80 15 34 16 85 17 79 18 81 19 35 20 84 21 78 22
REMARK SMILES IDX 77 23 36 25 66 26 47 27 65 28 48 29 51 30 64 31 82 32 49 33
REMARK SMILES IDX 50 34 63 36 83 37 52 38 37 39 38 40 46 41 39 42 45 43 40 44
REMARK SMILES IDX 41 45 42 46 43 47 44 48 67 49 68 50 76 51 69 52 75 53 70 54
REMARK SMILES IDX 71 55 72 56 73 57 74 58 53 59 54 60 62 61 55 62 61 63 56 64
REMARK SMILES IDX 57 65 58 66 59 67 60 68 7 69 8 70 9 71 10 72 11 73 12 74
REMARK SMILES IDX 13 75 17 76 14 77 15 78 16 79 18 80 19 81 20 82 21 83 22 84
REMARK SMILES IDX 23 85 27 86 24 87 26 88 25 89
REMARK H PARENT 81 24 51 35
REMARK Flexibility Score: inf
ROOT
ATOM      1  O   UNL     1       4.075  -1.381  -0.823  1.00  0.00    -0.374 OA
ENDROOT
BRANCH   1   2
ATOM      2  C   UNL     1       4.346  -1.395   0.579  1.00  0.00     0.202 C 
BRANCH   2   3
ATOM      3  C   UNL     1       4.147  -0.062   1.296  1.00  0.00     0.261 C 
BRANCH   3   4
ATOM      4  O   UNL     1       2.753   0.278   1.294  1.00  0.00    -0.460 OA
BRANCH   4   5
ATOM      5  C   UNL     1       2.100   1.128   0.472  1.00  0.00     0.338 C 
ATOM      6  O   UNL     1       0.875   1.204   0.552  1.00  0.00    -0.246 OA
BRANCH   5   7
ATOM      7  C   UNL     1       2.794   2.010  -0.509  1.00  0.00     0.060 A 
ATOM      8  C   UNL     1       3.950   1.674  -1.222  1.00  0.00     0.016 A 
ATOM      9  C   UNL     1       2.171   3.234  -0.792  1.00  0.00     0.016 A 
ATOM     10  C   UNL     1       4.526   2.552  -2.126  1.00  0.00     0.010 A 
ATOM     11  C   UNL     1       2.721   4.111  -1.725  1.00  0.00     0.010 A 
ATOM     12  C   UNL     1       3.917   3.777  -2.370  1.00  0.00    -0.014 A 
BRANCH  12  13
ATOM     13  C   UNL     1       4.617   4.757  -3.207  1.00  0.00     0.031 A 
ATOM     14  C   UNL     1       5.336   5.871  -2.519  1.00  0.00     0.074 A 
ATOM     15  C   UNL     1       4.644   4.596  -4.540  1.00  0.00     0.049 A 
ATOM     16  N   UNL     1       5.905   6.926  -3.029  1.00  0.00    -0.248 NA
ATOM     17  C   UNL     1       5.429   5.779  -1.050  1.00  0.00     0.031 C 
ATOM     18  C   UNL     1       4.073   3.458  -5.264  1.00  0.00     0.029 A 
ATOM     19  N   UNL     1       5.173   5.389  -5.519  1.00  0.00    -0.354 N 
ATOM     20  C   UNL     1       6.384   7.649  -1.944  1.00  0.00     0.074 A 
ATOM     21  C   UNL     1       6.050   6.908  -0.749  1.00  0.00     0.031 C 
ATOM     22  C   UNL     1       4.275   3.634  -6.580  1.00  0.00     0.029 A 
ATOM     23  C   UNL     1       4.921   4.925  -6.787  1.00  0.00     0.049 A 
ATOM     24  H   UNL     1       5.684   6.210  -5.335  1.00  0.00     0.167 HD
ATOM     25  C   UNL     1       7.021   8.841  -1.958  1.00  0.00     0.031 A 
ATOM     26  C   UNL     1       5.143   5.514  -7.977  1.00  0.00     0.031 A 
ATOM     27  C   UNL     1       7.295   9.556  -3.173  1.00  0.00     0.049 A 
ATOM     28  C   UNL     1       5.776   6.878  -7.973  1.00  0.00     0.074 A 
ATOM     29  C   UNL     1       7.868  10.801  -3.338  1.00  0.00     0.029 A 
ATOM     30  N   UNL     1       7.000   9.072  -4.444  1.00  0.00    -0.354 N 
ATOM     31  N   UNL     1       6.168   7.595  -6.943  1.00  0.00    -0.248 NA
ATOM     32  C   UNL     1       5.990   7.519  -9.274  1.00  0.00     0.031 C 
ATOM     33  C   UNL     1       7.876  11.089  -4.708  1.00  0.00     0.029 A 
ATOM     34  C   UNL     1       7.364   9.999  -5.400  1.00  0.00     0.049 A 
ATOM     35  H   UNL     1       6.590   8.197  -4.633  1.00  0.00     0.167 HD
ATOM     36  C   UNL     1       6.695   8.765  -7.471  1.00  0.00     0.074 A 
ATOM     37  C   UNL     1       6.574   8.656  -8.914  1.00  0.00     0.031 C 
ATOM     38  C   UNL     1       7.232   9.832  -6.828  1.00  0.00     0.031 A 
BRANCH  25  39
ATOM     39  C   UNL     1       7.341   9.455  -0.622  1.00  0.00    -0.014 A 
ATOM     40  C   UNL     1       8.325   8.913   0.225  1.00  0.00     0.010 A 
ATOM     41  C   UNL     1       6.580  10.549  -0.172  1.00  0.00     0.010 A 
ATOM     42  C   UNL     1       8.491   9.406   1.523  1.00  0.00     0.020 A 
ATOM     43  C   UNL     1       6.761  11.063   1.115  1.00  0.00     0.020 A 
ATOM     44  C   UNL     1       7.694  10.468   1.965  1.00  0.00     0.054 A 
BRANCH  44  45
ATOM     45  S   UNL     1       7.884  11.053   3.672  1.00  0.00     0.124 S 
ATOM     46  O   UNL     1       7.218   9.995   4.427  1.00  0.00    -0.237 OA
ATOM     47  O   UNL     1       9.334  11.119   3.832  1.00  0.00    -0.237 OA
ATOM     48  O   UNL     1       7.201  12.344   3.674  1.00  0.00    -0.744 OA
ENDBRANCH  44  45
ENDBRANCH  25  39
BRANCH  26  49
ATOM     49  C   UNL     1       4.709   4.832  -9.227  1.00  0.00    -0.014 A 
ATOM     50  C   UNL     1       5.647   4.294 -10.122  1.00  0.00     0.010 A 
ATOM     51  C   UNL     1       3.336   4.645  -9.486  1.00  0.00     0.010 A 
ATOM     52  C   UNL     1       5.223   3.574 -11.246  1.00  0.00     0.020 A 
ATOM     53  C   UNL     1       2.909   3.905 -10.593  1.00  0.00     0.020 A 
ATOM     54  C   UNL     1       3.857   3.376 -11.469  1.00  0.00     0.054 A 
BRANCH  54  55
ATOM     55  S   UNL     1       3.334   2.361 -12.881  1.00  0.00     0.124 S 
ATOM     56  O   UNL     1       3.597   3.249 -14.008  1.00  0.00    -0.237 OA
ATOM     57  O   UNL     1       4.209   1.197 -12.774  1.00  0.00    -0.237 OA
ATOM     58  O   UNL     1       1.923   2.096 -12.608  1.00  0.00    -0.744 OA
ENDBRANCH  54  55
ENDBRANCH  26  49
BRANCH  38  59
ATOM     59  C   UNL     1       7.775  10.943  -7.679  1.00  0.00    -0.014 A 
ATOM     60  C   UNL     1       6.921  11.881  -8.280  1.00  0.00     0.010 A 
ATOM     61  C   UNL     1       9.169  11.113  -7.766  1.00  0.00     0.010 A 
ATOM     62  C   UNL     1       7.455  12.979  -8.957  1.00  0.00     0.020 A 
ATOM     63  C   UNL     1       9.705  12.221  -8.421  1.00  0.00     0.020 A 
ATOM     64  C   UNL     1       8.844  13.146  -9.015  1.00  0.00     0.054 A 
BRANCH  64  65
ATOM     65  S   UNL     1       9.511  14.633  -9.808  1.00  0.00     0.124 S 
ATOM     66  O   UNL     1       9.319  14.333 -11.224  1.00  0.00    -0.237 OA
ATOM     67  O   UNL     1       8.662  15.693  -9.269  1.00  0.00    -0.237 OA
ATOM     68  O   UNL     1      10.902  14.669  -9.361  1.00  0.00    -0.744 OA
ENDBRANCH  64  65
ENDBRANCH  38  59
ENDBRANCH  12  13
ENDBRANCH   5   7
ENDBRANCH   4   5
ENDBRANCH   3   4
ENDBRANCH   2   3
ENDBRANCH   1   2
BRANCH   1  69
ATOM     69  C   UNL     1       2.717  -1.628  -1.218  1.00  0.00     0.202 C 
BRANCH  69  70
ATOM     70  C   UNL     1       2.704  -2.457  -2.512  1.00  0.00     0.261 C 
BRANCH  70  71
ATOM     71  O   UNL     1       3.279  -3.747  -2.244  1.00  0.00    -0.462 OA
BRANCH  71  72
ATOM     72  C   UNL     1       4.641  -3.722  -2.146  1.00  0.00     0.329 C 
ATOM     73  O   UNL     1       5.370  -3.003  -2.819  1.00  0.00    -0.250 OA
BRANCH  72  74
ATOM     74  C   UNL     1       5.115  -4.499  -0.912  1.00  0.00     0.204 C 
ATOM     75  C   UNL     1       6.564  -4.917  -1.065  1.00  0.00     0.047 C 
ATOM     76  N   UNL     1       4.350  -5.711  -0.695  1.00  0.00    -0.265 N 
ATOM     77  C   UNL     1       6.618  -6.297  -0.461  1.00  0.00     0.103 C 
ATOM     78  C   UNL     1       5.210  -6.814  -0.606  1.00  0.00     0.230 C 
ATOM     79  O   UNL     1       4.940  -7.998  -0.605  1.00  0.00    -0.274 OA
BRANCH  76  80
ATOM     80  C   UNL     1       3.094  -5.613  -0.108  1.00  0.00     0.253 C 
ATOM     81  O   UNL     1       2.726  -4.648   0.558  1.00  0.00    -0.269 OA
BRANCH  80  82
ATOM     82  C   UNL     1       2.127  -6.683  -0.430  1.00  0.00     0.072 C 
ATOM     83  C   UNL     1       2.201  -7.886   0.153  1.00  0.00     0.014 C 
BRANCH  83  84
ATOM     84  C   UNL     1       1.398  -9.064  -0.209  1.00  0.00    -0.025 A 
ATOM     85  C   UNL     1       1.789 -10.305   0.315  1.00  0.00     0.008 A 
ATOM     86  C   UNL     1       0.305  -9.025  -1.084  1.00  0.00     0.008 A 
ATOM     87  C   UNL     1       1.118 -11.478  -0.037  1.00  0.00     0.001 A 
ATOM     88  C   UNL     1      -0.365 -10.199  -1.440  1.00  0.00     0.001 A 
ATOM     89  C   UNL     1       0.043 -11.424  -0.918  1.00  0.00     0.000 A 
ENDBRANCH  83  84
ENDBRANCH  80  82
ENDBRANCH  76  80
ENDBRANCH  72  74
ENDBRANCH  71  72
ENDBRANCH  70  71
ENDBRANCH  69  70
ENDBRANCH   1  69
TORSDOF 20
