REMARK SMILES Cc1ccccc1NC(=S)NN1C(=O)CS[C@H]1c1ccccc1C(=O)OCCOCCOC(=O)c1ccc(-c2c3nc(c(-c4ccc(S(=O)(=O)[O-])cc4)c4ccc([nH]4)c(-c4ccc(S(=O)(=O)[O-])cc4)c4nc(c(-c5ccc(S(=O)(=O)[O-])cc5)c5ccc2[nH]5)C=C4)C=C3)cc1
REMARK SMILES IDX 28 1 27 2 26 3 24 4 25 5 23 6 18 7 19 8 20 9 22 10 21 11
REMARK SMILES IDX 17 12 12 13 13 14 14 15 15 16 16 17 11 18 9 20 10 21 8 22
REMARK SMILES IDX 7 24 1 25 2 26 3 27 4 28 6 29 5 30 29 31 30 32 31 33 32 34
REMARK SMILES IDX 33 35 34 36 35 37 36 38 94 39 37 40 93 41 38 42 39 43 40 44
REMARK SMILES IDX 87 45 41 46 92 47 86 48 88 49 42 50 91 51 85 52 84 53 43 55
REMARK SMILES IDX 73 56 54 57 72 58 55 59 58 60 71 61 89 62 56 63 57 64 70 66
REMARK SMILES IDX 90 67 59 68 44 69 45 70 53 71 46 72 52 73 47 74 48 75 49 76
REMARK SMILES IDX 50 77 51 78 74 79 75 80 83 81 76 82 82 83 77 84 78 85 79 86
REMARK SMILES IDX 80 87 81 88 60 89 61 90 69 91 62 92 68 93 63 94 64 95 65 96
REMARK SMILES IDX 66 97 67 98
REMARK H PARENT 11 19 8 23 88 54 58 65
REMARK Flexibility Score: inf
ROOT
ATOM      1  C   UNL     1      -1.350   2.061  -2.477  1.00  0.00     0.202 C 
ENDROOT
BRANCH   1   2
ATOM      2  C   UNL     1      -1.631   1.661  -0.717  1.00  0.00     0.261 C 
BRANCH   2   3
ATOM      3  O   UNL     1      -2.151   2.717   0.612  1.00  0.00    -0.460 OA
BRANCH   3   4
ATOM      4  C   UNL     1      -2.983   3.794   1.116  1.00  0.00     0.338 C 
ATOM      5  O   UNL     1      -2.940   4.060   2.324  1.00  0.00    -0.246 OA
BRANCH   4   6
ATOM      6  C   UNL     1      -4.043   4.807   0.465  1.00  0.00     0.066 A 
ATOM      7  C   UNL     1      -5.025   4.516  -0.509  1.00  0.00     0.001 A 
ATOM      8  C   UNL     1      -6.262   5.199  -0.521  1.00  0.00     0.008 A 
ATOM      9  C   UNL     1      -6.375   6.425   0.102  1.00  0.00     0.000 A 
ATOM     10  C   UNL     1      -4.146   6.112   1.000  1.00  0.00     0.016 A 
ATOM     11  C   UNL     1      -5.262   6.939   0.751  1.00  0.00     0.001 A 
BRANCH   7  12
ATOM     12  C   UNL     1      -4.609   3.785  -1.773  1.00  0.00     0.197 C 
ATOM     13  N   UNL     1      -3.503   2.971  -1.421  1.00  0.00    -0.236 N 
ATOM     14  C   UNL     1      -4.232   1.921  -0.576  1.00  0.00     0.252 C 
ATOM     15  O   UNL     1      -4.160   1.610   0.610  1.00  0.00    -0.272 OA
ATOM     16  C   UNL     1      -5.415   1.374  -1.336  1.00  0.00     0.174 C 
ATOM     17  S   UNL     1      -5.887   2.689  -2.448  1.00  0.00    -0.120 SA
BRANCH  13  18
ATOM     18  N   UNL     1      -2.029   3.960  -1.257  1.00  0.00    -0.270 N 
ATOM     19  H   UNL     1      -2.181   4.817  -1.715  1.00  0.00     0.191 HD
BRANCH  18  20
ATOM     20  C   UNL     1      -0.647   3.976  -0.683  1.00  0.00     0.189 C 
ATOM     21  S   UNL     1      -0.498   5.572  -0.045  1.00  0.00    -0.039 S 
BRANCH  20  22
ATOM     22  N   UNL     1       0.492   3.008  -0.517  1.00  0.00    -0.331 N 
ATOM     23  H   UNL     1       0.999   3.410   0.225  1.00  0.00     0.169 HD
BRANCH  22  24
ATOM     24  C   UNL     1       1.411   1.626  -0.865  1.00  0.00     0.043 A 
ATOM     25  C   UNL     1       3.924   0.811   0.055  1.00  0.00     0.046 C 
ATOM     26  C   UNL     1       2.278   0.929   0.141  1.00  0.00    -0.028 A 
ATOM     27  C   UNL     1       2.175  -0.495   0.262  1.00  0.00     0.005 A 
ATOM     28  C   UNL     1       2.089  -1.209  -0.919  1.00  0.00     0.000 A 
ATOM     29  C   UNL     1       1.357   0.873  -2.028  1.00  0.00     0.026 A 
ATOM     30  C   UNL     1       1.748  -0.501  -2.069  1.00  0.00     0.002 A 
ENDBRANCH  22  24
ENDBRANCH  20  22
ENDBRANCH  18  20
ENDBRANCH  13  18
ENDBRANCH   7  12
ENDBRANCH   4   6
ENDBRANCH   3   4
ENDBRANCH   2   3
ENDBRANCH   1   2
BRANCH   1  31
ATOM     31  O   UNL     1      -0.285   2.971  -3.002  1.00  0.00    -0.374 OA
BRANCH  31  32
ATOM     32  C   UNL     1      -0.585   4.273  -3.546  1.00  0.00     0.202 C 
BRANCH  32  33
ATOM     33  C   UNL     1       0.424   4.701  -4.624  1.00  0.00     0.261 C 
BRANCH  33  34
ATOM     34  O   UNL     1       1.613   5.237  -3.989  1.00  0.00    -0.460 OA
BRANCH  34  35
ATOM     35  C   UNL     1       2.563   4.351  -3.611  1.00  0.00     0.338 C 
ATOM     36  O   UNL     1       2.918   3.365  -4.261  1.00  0.00    -0.246 OA
BRANCH  35  37
ATOM     37  C   UNL     1       2.997   4.662  -2.211  1.00  0.00     0.060 A 
ATOM     38  C   UNL     1       3.627   3.694  -1.435  1.00  0.00     0.016 A 
ATOM     39  C   UNL     1       2.607   5.828  -1.560  1.00  0.00     0.016 A 
ATOM     40  C   UNL     1       3.581   3.777  -0.019  1.00  0.00     0.010 A 
ATOM     41  C   UNL     1       2.559   5.863  -0.153  1.00  0.00     0.010 A 
ATOM     42  C   UNL     1       2.837   4.727   0.618  1.00  0.00    -0.014 A 
BRANCH  42  43
ATOM     43  C   UNL     1       2.259   4.511   1.993  1.00  0.00     0.031 A 
ATOM     44  C   UNL     1       2.719   5.488   3.033  1.00  0.00     0.074 A 
ATOM     45  C   UNL     1       1.230   3.678   2.417  1.00  0.00     0.049 A 
ATOM     46  N   UNL     1       2.394   5.465   4.287  1.00  0.00    -0.248 NA
ATOM     47  C   UNL     1       3.638   6.586   2.724  1.00  0.00     0.031 C 
ATOM     48  C   UNL     1       0.235   4.272   3.312  1.00  0.00     0.029 A 
ATOM     49  N   UNL     1       0.568   2.455   2.100  1.00  0.00    -0.354 N 
ATOM     50  C   UNL     1       2.534   6.761   4.713  1.00  0.00     0.074 A 
ATOM     51  C   UNL     1       3.539   7.315   3.838  1.00  0.00     0.031 C 
ATOM     52  C   UNL     1      -0.726   3.403   3.591  1.00  0.00     0.029 A 
ATOM     53  C   UNL     1      -0.447   2.104   3.004  1.00  0.00     0.049 A 
ATOM     54  H   UNL     1       0.801   1.906   1.316  1.00  0.00     0.167 HD
ATOM     55  C   UNL     1       1.611   7.312   5.554  1.00  0.00     0.031 A 
ATOM     56  C   UNL     1      -1.188   0.997   3.376  1.00  0.00     0.031 A 
ATOM     57  C   UNL     1       0.640   6.343   6.112  1.00  0.00     0.049 A 
ATOM     58  C   UNL     1      -1.134   1.003   4.921  1.00  0.00     0.074 A 
ATOM     59  C   UNL     1      -0.745   6.306   6.160  1.00  0.00     0.029 A 
ATOM     60  N   UNL     1       1.061   5.089   6.582  1.00  0.00    -0.354 N 
ATOM     61  N   UNL     1      -0.814   2.096   5.555  1.00  0.00    -0.248 NA
ATOM     62  C   UNL     1      -1.244  -0.090   5.890  1.00  0.00     0.031 C 
ATOM     63  C   UNL     1      -1.146   5.028   6.641  1.00  0.00     0.029 A 
ATOM     64  C   UNL     1      -0.015   4.278   6.920  1.00  0.00     0.049 A 
ATOM     65  H   UNL     1       2.004   4.817   6.662  1.00  0.00     0.167 HD
ATOM     66  C   UNL     1      -0.450   1.894   6.829  1.00  0.00     0.074 A 
ATOM     67  C   UNL     1      -0.790   0.496   7.028  1.00  0.00     0.031 C 
ATOM     68  C   UNL     1       0.162   2.923   7.489  1.00  0.00     0.031 A 
BRANCH  55  69
ATOM     69  C   UNL     1       1.462   8.825   5.724  1.00  0.00    -0.014 A 
ATOM     70  C   UNL     1       0.636   9.343   6.741  1.00  0.00     0.010 A 
ATOM     71  C   UNL     1       2.070   9.791   4.889  1.00  0.00     0.010 A 
ATOM     72  C   UNL     1       0.484  10.728   6.951  1.00  0.00     0.020 A 
ATOM     73  C   UNL     1       1.973  11.172   5.117  1.00  0.00     0.020 A 
ATOM     74  C   UNL     1       1.180  11.636   6.155  1.00  0.00     0.054 A 
BRANCH  74  75
ATOM     75  S   UNL     1       1.057  13.413   6.489  1.00  0.00     0.124 S 
ATOM     76  O   UNL     1      -0.341  13.695   6.175  1.00  0.00    -0.237 OA
ATOM     77  O   UNL     1       1.419  13.497   7.901  1.00  0.00    -0.237 OA
ATOM     78  O   UNL     1       2.027  14.007   5.569  1.00  0.00    -0.744 OA
ENDBRANCH  74  75
ENDBRANCH  55  69
BRANCH  56  79
ATOM     79  C   UNL     1      -1.520  -0.178   2.475  1.00  0.00    -0.014 A 
ATOM     80  C   UNL     1      -2.836  -0.532   2.072  1.00  0.00     0.010 A 
ATOM     81  C   UNL     1      -0.520  -0.720   1.689  1.00  0.00     0.010 A 
ATOM     82  C   UNL     1      -3.122  -1.187   0.820  1.00  0.00     0.020 A 
ATOM     83  C   UNL     1      -0.802  -1.340   0.445  1.00  0.00     0.020 A 
ATOM     84  C   UNL     1      -2.084  -1.511  -0.040  1.00  0.00     0.054 A 
BRANCH  84  85
ATOM     85  S   UNL     1      -2.314  -1.705  -1.879  1.00  0.00     0.124 S 
ATOM     86  O   UNL     1      -2.684  -3.104  -2.027  1.00  0.00    -0.237 OA
ATOM     87  O   UNL     1      -3.358  -0.736  -2.195  1.00  0.00    -0.237 OA
ATOM     88  O   UNL     1      -1.021  -1.349  -2.453  1.00  0.00    -0.744 OA
ENDBRANCH  84  85
ENDBRANCH  56  79
BRANCH  68  89
ATOM     89  C   UNL     1       0.900   2.763   8.778  1.00  0.00    -0.014 A 
ATOM     90  C   UNL     1       1.459   1.546   9.194  1.00  0.00     0.010 A 
ATOM     91  C   UNL     1       1.134   3.904   9.578  1.00  0.00     0.010 A 
ATOM     92  C   UNL     1       2.124   1.448  10.418  1.00  0.00     0.020 A 
ATOM     93  C   UNL     1       1.835   3.826  10.778  1.00  0.00     0.020 A 
ATOM     94  C   UNL     1       2.284   2.585  11.213  1.00  0.00     0.054 A 
BRANCH  94  95
ATOM     95  S   UNL     1       3.078   2.422  12.826  1.00  0.00     0.124 S 
ATOM     96  O   UNL     1       1.997   1.861  13.633  1.00  0.00    -0.237 OA
ATOM     97  O   UNL     1       4.189   1.514  12.551  1.00  0.00    -0.237 OA
ATOM     98  O   UNL     1       3.467   3.789  13.163  1.00  0.00    -0.744 OA
ENDBRANCH  94  95
ENDBRANCH  68  89
ENDBRANCH  42  43
ENDBRANCH  35  37
ENDBRANCH  34  35
ENDBRANCH  33  34
ENDBRANCH  32  33
ENDBRANCH  31  32
ENDBRANCH   1  31
TORSDOF 22
