REMARK SMILES O=C(OCCOCCOC(=O)C1(O)CCC(F)(F)CC1)c1ccc(-c2c3nc(c(-c4ccc(S(=O)(=O)[O-])cc4)c4ccc([nH]4)c(-c4ccc(S(=O)(=O)[O-])cc4)c4nc(c(-c5ccc(S(=O)(=O)[O-])cc5)c5ccc2[nH]5)C=C4)C=C3)cc1
REMARK SMILES IDX 5 1 4 2 3 3 2 4 1 5 21 6 22 7 80 8 23 9 79 10 24 11 25 12
REMARK SMILES IDX 26 13 73 14 27 15 78 16 72 17 74 18 28 19 77 20 71 21 70 22
REMARK SMILES IDX 29 24 59 25 40 26 58 27 41 28 44 29 57 30 75 31 42 32 43 33
REMARK SMILES IDX 56 35 76 36 45 37 30 38 31 39 39 40 32 41 38 42 33 43 34 44
REMARK SMILES IDX 35 45 36 46 37 47 60 48 61 49 69 50 62 51 68 52 63 53 64 54
REMARK SMILES IDX 65 55 66 56 67 57 46 58 47 59 55 60 48 61 54 62 49 63 50 64
REMARK SMILES IDX 51 65 52 66 53 67 6 68 7 69 8 70 9 71 10 72 11 73 12 74
REMARK SMILES IDX 14 75 20 76 15 77 19 78 16 79 17 80 18 81 13 82
REMARK H PARENT 74 23 44 34 13 83
REMARK Flexibility Score: inf
ROOT
ATOM      1  C   UNL     1       4.086   0.665   0.664  1.00  0.00     0.202 C 
ENDROOT
BRANCH   1   2
ATOM      2  C   UNL     1       3.544   0.503  -0.758  1.00  0.00     0.261 C 
BRANCH   2   3
ATOM      3  O   UNL     1       2.107   0.343  -0.775  1.00  0.00    -0.460 OA
BRANCH   3   4
ATOM      4  C   UNL     1       1.475  -0.799  -1.171  1.00  0.00     0.338 C 
ATOM      5  O   UNL     1       0.274  -0.824  -1.406  1.00  0.00    -0.246 OA
BRANCH   4   6
ATOM      6  C   UNL     1       2.300  -2.013  -1.333  1.00  0.00     0.060 A 
ATOM      7  C   UNL     1       3.118  -2.417  -0.287  1.00  0.00     0.016 A 
ATOM      8  C   UNL     1       2.324  -2.716  -2.535  1.00  0.00     0.016 A 
ATOM      9  C   UNL     1       4.139  -3.317  -0.508  1.00  0.00     0.010 A 
ATOM     10  C   UNL     1       3.218  -3.785  -2.683  1.00  0.00     0.010 A 
ATOM     11  C   UNL     1       4.159  -4.075  -1.678  1.00  0.00    -0.014 A 
BRANCH  11  12
ATOM     12  C   UNL     1       5.140  -5.185  -1.792  1.00  0.00     0.031 A 
ATOM     13  C   UNL     1       6.041  -5.275  -2.991  1.00  0.00     0.074 A 
ATOM     14  C   UNL     1       5.238  -6.091  -0.793  1.00  0.00     0.049 A 
ATOM     15  N   UNL     1       6.775  -6.280  -3.389  1.00  0.00    -0.248 NA
ATOM     16  C   UNL     1       6.112  -4.096  -3.871  1.00  0.00     0.031 C 
ATOM     17  C   UNL     1       4.461  -6.076   0.455  1.00  0.00     0.029 A 
ATOM     18  N   UNL     1       6.049  -7.187  -0.645  1.00  0.00    -0.354 N 
ATOM     19  C   UNL     1       7.319  -5.892  -4.608  1.00  0.00     0.074 A 
ATOM     20  C   UNL     1       6.860  -4.546  -4.871  1.00  0.00     0.031 C 
ATOM     21  C   UNL     1       4.899  -7.042   1.270  1.00  0.00     0.029 A 
ATOM     22  C   UNL     1       5.865  -7.851   0.547  1.00  0.00     0.049 A 
ATOM     23  H   UNL     1       6.702  -7.471  -1.325  1.00  0.00     0.167 HD
ATOM     24  C   UNL     1       8.106  -6.618  -5.437  1.00  0.00     0.031 A 
ATOM     25  C   UNL     1       6.352  -9.026   0.986  1.00  0.00     0.031 A 
ATOM     26  C   UNL     1       8.580  -7.939  -5.117  1.00  0.00     0.049 A 
ATOM     27  C   UNL     1       7.209  -9.815   0.043  1.00  0.00     0.074 A 
ATOM     28  C   UNL     1       9.350  -8.792  -5.886  1.00  0.00     0.029 A 
ATOM     29  N   UNL     1       8.346  -8.586  -3.911  1.00  0.00    -0.354 N 
ATOM     30  N   UNL     1       7.619  -9.488  -1.160  1.00  0.00    -0.248 NA
ATOM     31  C   UNL     1       7.633 -11.145   0.492  1.00  0.00     0.031 C 
ATOM     32  C   UNL     1       9.556  -9.968  -5.155  1.00  0.00     0.029 A 
ATOM     33  C   UNL     1       8.952  -9.828  -3.915  1.00  0.00     0.049 A 
ATOM     34  H   UNL     1       7.824  -8.214  -3.163  1.00  0.00     0.167 HD
ATOM     35  C   UNL     1       8.343 -10.578  -1.618  1.00  0.00     0.074 A 
ATOM     36  C   UNL     1       8.346 -11.556  -0.547  1.00  0.00     0.031 C 
ATOM     37  C   UNL     1       8.935 -10.766  -2.822  1.00  0.00     0.031 A 
BRANCH  24  38
ATOM     38  C   UNL     1       8.432  -6.035  -6.786  1.00  0.00    -0.014 A 
ATOM     39  C   UNL     1       9.365  -4.996  -6.942  1.00  0.00     0.010 A 
ATOM     40  C   UNL     1       7.804  -6.567  -7.929  1.00  0.00     0.010 A 
ATOM     41  C   UNL     1       9.638  -4.477  -8.213  1.00  0.00     0.020 A 
ATOM     42  C   UNL     1       8.090  -6.066  -9.202  1.00  0.00     0.020 A 
ATOM     43  C   UNL     1       8.995  -5.012  -9.334  1.00  0.00     0.054 A 
BRANCH  43  44
ATOM     44  S   UNL     1       9.379  -4.333 -10.973  1.00  0.00     0.124 S 
ATOM     45  O   UNL     1       8.672  -3.054 -10.942  1.00  0.00    -0.237 OA
ATOM     46  O   UNL     1      10.836  -4.245 -10.952  1.00  0.00    -0.237 OA
ATOM     47  O   UNL     1       8.831  -5.324 -11.897  1.00  0.00    -0.744 OA
ENDBRANCH  43  44
ENDBRANCH  24  38
BRANCH  25  48
ATOM     48  C   UNL     1       5.941  -9.568   2.312  1.00  0.00    -0.014 A 
ATOM     49  C   UNL     1       6.878  -9.731   3.347  1.00  0.00     0.010 A 
ATOM     50  C   UNL     1       4.596  -9.914   2.553  1.00  0.00     0.010 A 
ATOM     51  C   UNL     1       6.482 -10.246   4.587  1.00  0.00     0.020 A 
ATOM     52  C   UNL     1       4.190 -10.392   3.800  1.00  0.00     0.020 A 
ATOM     53  C   UNL     1       5.140 -10.574   4.805  1.00  0.00     0.054 A 
BRANCH  53  54
ATOM     54  S   UNL     1       4.634 -11.207   6.429  1.00  0.00     0.124 S 
ATOM     55  O   UNL     1       5.055 -12.601   6.353  1.00  0.00    -0.237 OA
ATOM     56  O   UNL     1       5.392 -10.365   7.352  1.00  0.00    -0.237 OA
ATOM     57  O   UNL     1       3.189 -10.987   6.443  1.00  0.00    -0.744 OA
ENDBRANCH  53  54
ENDBRANCH  25  48
BRANCH  37  58
ATOM     58  C   UNL     1       9.656 -12.067  -3.015  1.00  0.00    -0.014 A 
ATOM     59  C   UNL     1       8.945 -13.255  -3.255  1.00  0.00     0.010 A 
ATOM     60  C   UNL     1      11.061 -12.087  -2.994  1.00  0.00     0.010 A 
ATOM     61  C   UNL     1       9.633 -14.454  -3.446  1.00  0.00     0.020 A 
ATOM     62  C   UNL     1      11.751 -13.280  -3.208  1.00  0.00     0.020 A 
ATOM     63  C   UNL     1      11.031 -14.458  -3.420  1.00  0.00     0.054 A 
BRANCH  63  64
ATOM     64  S   UNL     1      11.905 -16.017  -3.719  1.00  0.00     0.124 S 
ATOM     65  O   UNL     1      11.753 -16.700  -2.437  1.00  0.00    -0.237 OA
ATOM     66  O   UNL     1      11.159 -16.597  -4.833  1.00  0.00    -0.237 OA
ATOM     67  O   UNL     1      13.265 -15.593  -4.042  1.00  0.00    -0.744 OA
ENDBRANCH  63  64
ENDBRANCH  37  58
ENDBRANCH  11  12
ENDBRANCH   4   6
ENDBRANCH   3   4
ENDBRANCH   2   3
ENDBRANCH   1   2
BRANCH   1  68
ATOM     68  O   UNL     1       3.558  -0.213   1.647  1.00  0.00    -0.374 OA
BRANCH  68  69
ATOM     69  C   UNL     1       2.331   0.223   2.240  1.00  0.00     0.202 C 
BRANCH  69  70
ATOM     70  C   UNL     1       2.545   0.502   3.727  1.00  0.00     0.261 C 
BRANCH  70  71
ATOM     71  O   UNL     1       3.410   1.647   3.889  1.00  0.00    -0.461 OA
BRANCH  71  72
ATOM     72  C   UNL     1       4.743   1.359   3.960  1.00  0.00     0.338 C 
ATOM     73  O   UNL     1       5.211   0.230   4.027  1.00  0.00    -0.249 OA
BRANCH  72  74
ATOM     74  C   UNL     1       5.588   2.658   4.021  1.00  0.00     0.162 C 
ATOM     75  C   UNL     1       7.075   2.318   3.847  1.00  0.00     0.053 C 
ATOM     76  C   UNL     1       5.174   3.769   3.034  1.00  0.00     0.053 C 
ATOM     77  C   UNL     1       7.392   1.916   2.411  1.00  0.00     0.080 C 
ATOM     78  C   UNL     1       5.732   3.694   1.611  1.00  0.00     0.080 C 
ATOM     79  C   UNL     1       7.102   3.057   1.459  1.00  0.00     0.248 C 
ATOM     80  F   UNL     1       7.235   2.621   0.179  1.00  0.00    -0.207 F 
ATOM     81  F   UNL     1       8.044   4.021   1.635  1.00  0.00    -0.207 F 
BRANCH  74  82
ATOM     82  O   UNL     1       5.416   3.198   5.343  1.00  0.00    -0.378 OA
ATOM     83  H   UNL     1       5.666   2.530   6.000  1.00  0.00     0.212 HD
ENDBRANCH  74  82
ENDBRANCH  72  74
ENDBRANCH  71  72
ENDBRANCH  70  71
ENDBRANCH  69  70
ENDBRANCH  68  69
ENDBRANCH   1  68
TORSDOF 18
