REMARK SMILES O=C(N[C@@H](Cc1ccc(O)cc1)C(=O)N[C@@H](Cc1c[nH]c2ccccc12)C(=O)N[C@@H](CO)C(=O)OCCOCCOC(=O)c1ccc(-c2c3nc(c(-c4ccc(S(=O)(=O)[O-])cc4)c4ccc([nH]4)c(-c4ccc(S(=O)(=O)[O-])cc4)c4nc(c(-c5ccc(S(=O)(=O)[O-])cc5)c5ccc2[nH]5)C=C4)C=C3)cc1)c1ccc(F)cc1
REMARK SMILES IDX 36 1 35 2 33 3 34 4 30 5 29 6 27 7 28 8 16 10 15 11 13 12
REMARK SMILES IDX 14 13 4 15 3 16 1 17 2 18 104 20 105 21 110 22 106 23 109 24
REMARK SMILES IDX 107 25 108 26 5 27 6 28 7 29 12 30 8 31 11 32 9 33 10 34
REMARK SMILES IDX 17 36 18 37 19 38 26 39 20 40 21 41 25 42 22 44 24 45 23 46
REMARK SMILES IDX 31 47 32 48 37 50 38 51 39 52 40 53 41 54 42 55 43 56 44 57
REMARK SMILES IDX 45 58 103 59 46 60 102 61 47 62 48 63 49 64 96 65 50 66
REMARK SMILES IDX 101 67 95 68 97 69 51 70 100 71 94 72 93 73 52 75 82 76
REMARK SMILES IDX 63 77 81 78 64 79 67 80 80 81 98 82 65 83 66 84 79 86 99 87
REMARK SMILES IDX 68 88 53 89 54 90 62 91 55 92 61 93 56 94 57 95 58 96 59 97
REMARK SMILES IDX 60 98 83 99 84 100 92 101 85 102 91 103 86 104 87 105 88 106
REMARK SMILES IDX 89 107 90 108 69 109 70 110 78 111 71 112 77 113 72 114
REMARK SMILES IDX 73 115 74 116 75 117 76 118
REMARK H PARENT 29 9 15 14 3 19 10 35 20 43 32 49 97 74 67 85
REMARK Flexibility Score: inf
ROOT
ATOM      1  C   UNL     1       4.471 -10.019  -0.545  1.00  0.00     0.261 C 
ENDROOT
BRANCH   1   2
ATOM      2  O   UNL     1       4.930  -8.676  -0.308  1.00  0.00    -0.462 OA
BRANCH   2   3
ATOM      3  C   UNL     1       5.061  -7.885  -1.408  1.00  0.00     0.331 C 
ATOM      4  O   UNL     1       5.038  -8.287  -2.566  1.00  0.00    -0.250 OA
BRANCH   3   5
ATOM      5  C   UNL     1       5.432  -6.447  -1.008  1.00  0.00     0.218 C 
BRANCH   5   6
ATOM      6  N   UNL     1       4.915  -6.093   0.322  1.00  0.00    -0.339 N 
ATOM      7  C   UNL     1       3.848  -5.342   0.697  1.00  0.00     0.243 C 
ATOM      8  O   UNL     1       3.208  -5.715   1.684  1.00  0.00    -0.273 OA
ATOM      9  H   UNL     1       5.434  -6.466   1.071  1.00  0.00     0.164 HD
BRANCH   7  10
ATOM     10  C   UNL     1       3.366  -4.089  -0.047  1.00  0.00     0.175 C 
BRANCH  10  11
ATOM     11  N   UNL     1       4.382  -3.371  -0.810  1.00  0.00    -0.342 N 
ATOM     12  C   UNL     1       5.035  -2.213  -0.508  1.00  0.00     0.243 C 
ATOM     13  O   UNL     1       6.098  -2.010  -1.107  1.00  0.00    -0.273 OA
ATOM     14  H   UNL     1       4.633  -3.783  -1.668  1.00  0.00     0.164 HD
BRANCH  12  15
ATOM     15  C   UNL     1       4.543  -1.194   0.554  1.00  0.00     0.176 C 
BRANCH  15  16
ATOM     16  N   UNL     1       3.092  -0.966   0.546  1.00  0.00    -0.340 N 
ATOM     17  O   UNL     1       1.140   0.080   0.178  1.00  0.00    -0.269 OA
ATOM     18  C   UNL     1       2.365   0.113   0.112  1.00  0.00     0.251 C 
ATOM     19  H   UNL     1       2.555  -1.706   0.911  1.00  0.00     0.164 HD
BRANCH  18  20
ATOM     20  C   UNL     1       3.030   1.357  -0.330  1.00  0.00     0.040 A 
ATOM     21  C   UNL     1       3.991   1.380  -1.349  1.00  0.00     0.017 A 
ATOM     22  C   UNL     1       2.655   2.546   0.311  1.00  0.00     0.017 A 
ATOM     23  C   UNL     1       4.633   2.580  -1.662  1.00  0.00     0.040 A 
ATOM     24  C   UNL     1       3.287   3.745  -0.018  1.00  0.00     0.040 A 
ATOM     25  C   UNL     1       4.281   3.748  -0.990  1.00  0.00     0.123 A 
ATOM     26  F   UNL     1       4.907   4.894  -1.286  1.00  0.00    -0.207 F 
ENDBRANCH  18  20
ENDBRANCH  15  16
BRANCH  15  27
ATOM     27  C   UNL     1       5.161  -1.333   1.956  1.00  0.00     0.070 C 
BRANCH  27  28
ATOM     28  C   UNL     1       4.884  -2.569   2.771  1.00  0.00    -0.045 A 
ATOM     29  C   UNL     1       3.687  -2.714   3.490  1.00  0.00     0.007 A 
ATOM     30  C   UNL     1       5.868  -3.563   2.885  1.00  0.00     0.007 A 
ATOM     31  C   UNL     1       3.472  -3.843   4.289  1.00  0.00     0.046 A 
ATOM     32  C   UNL     1       5.660  -4.679   3.697  1.00  0.00     0.046 A 
ATOM     33  C   UNL     1       4.461  -4.818   4.382  1.00  0.00     0.115 A 
BRANCH  33  34
ATOM     34  O   UNL     1       4.283  -5.946   5.126  1.00  0.00    -0.508 OA
ATOM     35  H   UNL     1       3.486  -6.073   5.602  1.00  0.00     0.293 HD
ENDBRANCH  33  34
ENDBRANCH  27  28
ENDBRANCH  15  27
ENDBRANCH  12  15
ENDBRANCH  10  11
BRANCH  10  36
ATOM     36  C   UNL     1       2.025  -4.277  -0.777  1.00  0.00     0.072 C 
BRANCH  36  37
ATOM     37  C   UNL     1       1.909  -5.514  -1.610  1.00  0.00    -0.020 A 
ATOM     38  C   UNL     1       2.497  -5.749  -2.837  1.00  0.00     0.087 A 
ATOM     39  C   UNL     1       1.144  -6.685  -1.287  1.00  0.00     0.003 A 
ATOM     40  N   UNL     1       2.213  -7.037  -3.209  1.00  0.00    -0.361 N 
ATOM     41  C   UNL     1       1.398  -7.634  -2.277  1.00  0.00     0.046 A 
ATOM     42  C   UNL     1       0.286  -7.043  -0.225  1.00  0.00     0.010 A 
ATOM     43  H   UNL     1       2.544  -7.473  -4.027  1.00  0.00     0.166 HD
ATOM     44  C   UNL     1       0.882  -8.935  -2.233  1.00  0.00     0.026 A 
ATOM     45  C   UNL     1      -0.249  -8.336  -0.172  1.00  0.00     0.001 A 
ATOM     46  C   UNL     1       0.060  -9.272  -1.155  1.00  0.00     0.002 A 
ENDBRANCH  36  37
ENDBRANCH  10  36
ENDBRANCH   7  10
ENDBRANCH   5   6
BRANCH   5  47
ATOM     47  C   UNL     1       6.963  -6.359  -1.042  1.00  0.00     0.193 C 
BRANCH  47  48
ATOM     48  O   UNL     1       7.557  -6.973   0.106  1.00  0.00    -0.394 OA
ATOM     49  H   UNL     1       7.260  -6.515   0.908  1.00  0.00     0.210 HD
ENDBRANCH  47  48
ENDBRANCH   5  47
ENDBRANCH   3   5
ENDBRANCH   2   3
ENDBRANCH   1   2
BRANCH   1  50
ATOM     50  C   UNL     1       3.910 -10.601   0.756  1.00  0.00     0.202 C 
BRANCH  50  51
ATOM     51  O   UNL     1       2.716  -9.956   1.213  1.00  0.00    -0.374 OA
BRANCH  51  52
ATOM     52  C   UNL     1       2.922  -8.611   1.667  1.00  0.00     0.202 C 
BRANCH  52  53
ATOM     53  C   UNL     1       1.971  -8.257   2.811  1.00  0.00     0.261 C 
BRANCH  53  54
ATOM     54  O   UNL     1       2.352  -9.045   3.944  1.00  0.00    -0.460 OA
BRANCH  54  55
ATOM     55  C   UNL     1       1.747 -10.257   3.944  1.00  0.00     0.338 C 
ATOM     56  O   UNL     1       0.596 -10.489   3.630  1.00  0.00    -0.246 OA
BRANCH  55  57
ATOM     57  C   UNL     1       2.774 -11.293   4.196  1.00  0.00     0.060 A 
ATOM     58  C   UNL     1       2.525 -12.567   3.675  1.00  0.00     0.016 A 
ATOM     59  C   UNL     1       3.967 -11.026   4.881  1.00  0.00     0.016 A 
ATOM     60  C   UNL     1       3.426 -13.597   3.910  1.00  0.00     0.010 A 
ATOM     61  C   UNL     1       4.878 -12.057   5.106  1.00  0.00     0.010 A 
ATOM     62  C   UNL     1       4.580 -13.354   4.666  1.00  0.00    -0.014 A 
BRANCH  62  63
ATOM     63  C   UNL     1       5.358 -14.512   5.148  1.00  0.00     0.031 A 
ATOM     64  C   UNL     1       5.069 -15.032   6.528  1.00  0.00     0.074 A 
ATOM     65  C   UNL     1       6.230 -15.130   4.334  1.00  0.00     0.049 A 
ATOM     66  N   UNL     1       5.518 -16.109   7.116  1.00  0.00    -0.248 NA
ATOM     67  C   UNL     1       4.144 -14.235   7.354  1.00  0.00     0.031 C 
ATOM     68  C   UNL     1       6.562 -14.707   2.973  1.00  0.00     0.029 A 
ATOM     69  N   UNL     1       6.980 -16.259   4.530  1.00  0.00    -0.354 N 
ATOM     70  C   UNL     1       4.921 -16.125   8.372  1.00  0.00     0.074 A 
ATOM     71  C   UNL     1       4.115 -14.931   8.480  1.00  0.00     0.031 C 
ATOM     72  C   UNL     1       7.440 -15.579   2.448  1.00  0.00     0.029 A 
ATOM     73  C   UNL     1       7.737 -16.611   3.439  1.00  0.00     0.049 A 
ATOM     74  H   UNL     1       6.976 -16.770   5.371  1.00  0.00     0.167 HD
ATOM     75  C   UNL     1       5.027 -17.061   9.343  1.00  0.00     0.031 A 
ATOM     76  C   UNL     1       8.569 -17.656   3.265  1.00  0.00     0.031 A 
ATOM     77  C   UNL     1       5.855 -18.230   9.230  1.00  0.00     0.049 A 
ATOM     78  C   UNL     1       8.703 -18.663   4.375  1.00  0.00     0.074 A 
ATOM     79  C   UNL     1       6.045 -19.247  10.147  1.00  0.00     0.029 A 
ATOM     80  N   UNL     1       6.643 -18.529   8.127  1.00  0.00    -0.354 N 
ATOM     81  N   UNL     1       8.101 -18.687   5.543  1.00  0.00    -0.248 NA
ATOM     82  C   UNL     1       9.612 -19.791   4.139  1.00  0.00     0.031 C 
ATOM     83  C   UNL     1       6.986 -20.138   9.616  1.00  0.00     0.029 A 
ATOM     84  C   UNL     1       7.341 -19.702   8.348  1.00  0.00     0.049 A 
ATOM     85  H   UNL     1       6.697 -17.986   7.308  1.00  0.00     0.167 HD
ATOM     86  C   UNL     1       8.550 -19.840   6.177  1.00  0.00     0.074 A 
ATOM     87  C   UNL     1       9.453 -20.497   5.251  1.00  0.00     0.031 C 
ATOM     88  C   UNL     1       8.248 -20.316   7.411  1.00  0.00     0.031 A 
BRANCH  75  89
ATOM     89  C   UNL     1       4.250 -16.829  10.611  1.00  0.00    -0.014 A 
ATOM     90  C   UNL     1       2.848 -16.949  10.638  1.00  0.00     0.010 A 
ATOM     91  C   UNL     1       4.929 -16.481  11.792  1.00  0.00     0.010 A 
ATOM     92  C   UNL     1       2.137 -16.686  11.813  1.00  0.00     0.020 A 
ATOM     93  C   UNL     1       4.224 -16.240  12.975  1.00  0.00     0.020 A 
ATOM     94  C   UNL     1       2.830 -16.326  12.973  1.00  0.00     0.054 A 
BRANCH  94  95
ATOM     95  S   UNL     1       1.885 -15.996  14.486  1.00  0.00     0.124 S 
ATOM     96  O   UNL     1       1.298 -14.690  14.196  1.00  0.00    -0.237 OA
ATOM     97  O   UNL     1       0.944 -17.112  14.527  1.00  0.00    -0.237 OA
ATOM     98  O   UNL     1       2.900 -16.003  15.537  1.00  0.00    -0.744 OA
ENDBRANCH  94  95
ENDBRANCH  75  89
BRANCH  76  99
ATOM     99  C   UNL     1       9.322 -17.800   1.990  1.00  0.00    -0.014 A 
ATOM    100  C   UNL     1       9.000 -18.813   1.070  1.00  0.00     0.010 A 
ATOM    101  C   UNL     1      10.357 -16.899   1.678  1.00  0.00     0.010 A 
ATOM    102  C   UNL     1       9.704 -18.927  -0.134  1.00  0.00     0.020 A 
ATOM    103  C   UNL     1      11.046 -16.994   0.466  1.00  0.00     0.020 A 
ATOM    104  C   UNL     1      10.720 -18.014  -0.430  1.00  0.00     0.054 A 
BRANCH 104 105
ATOM    105  S   UNL     1      11.572 -18.133  -2.028  1.00  0.00     0.124 S 
ATOM    106  O   UNL     1      12.450 -19.280  -1.821  1.00  0.00    -0.237 OA
ATOM    107  O   UNL     1      10.467 -18.340  -2.961  1.00  0.00    -0.237 OA
ATOM    108  O   UNL     1      12.245 -16.841  -2.152  1.00  0.00    -0.744 OA
ENDBRANCH 104 105
ENDBRANCH  76  99
BRANCH  88 109
ATOM    109  C   UNL     1       8.902 -21.607   7.818  1.00  0.00    -0.014 A 
ATOM    110  C   UNL     1      10.267 -21.652   8.150  1.00  0.00     0.010 A 
ATOM    111  C   UNL     1       8.132 -22.782   7.900  1.00  0.00     0.010 A 
ATOM    112  C   UNL     1      10.864 -22.861   8.512  1.00  0.00     0.020 A 
ATOM    113  C   UNL     1       8.720 -23.987   8.288  1.00  0.00     0.020 A 
ATOM    114  C   UNL     1      10.087 -24.023   8.572  1.00  0.00     0.054 A 
BRANCH 114 115
ATOM    115  S   UNL     1      10.878 -25.580   9.059  1.00  0.00     0.124 S 
ATOM    116  O   UNL     1      11.584 -25.955   7.837  1.00  0.00    -0.237 OA
ATOM    117  O   UNL     1      11.728 -25.174  10.176  1.00  0.00    -0.237 OA
ATOM    118  O   UNL     1       9.754 -26.440   9.420  1.00  0.00    -0.744 OA
ENDBRANCH 114 115
ENDBRANCH  88 109
ENDBRANCH  62  63
ENDBRANCH  55  57
ENDBRANCH  54  55
ENDBRANCH  53  54
ENDBRANCH  52  53
ENDBRANCH  51  52
ENDBRANCH  50  51
ENDBRANCH   1  50
TORSDOF 30
