REMARK SMILES O=C(OCCOCCOC(=O)c1cc(-c2cccc(Cl)c2)ccc1Cl)c1ccc(-c2c3nc(c(-c4ccc(S(=O)(=O)[O-])cc4)c4ccc([nH]4)c(-c4ccc(S(=O)(=O)[O-])cc4)c4nc(c(-c5ccc(S(=O)(=O)[O-])cc5)c5ccc2[nH]5)C=C4)C=C3)cc1
REMARK SMILES IDX 5 1 4 2 3 3 2 4 1 5 26 6 27 7 85 8 28 9 84 10 29 11 30 12
REMARK SMILES IDX 31 13 78 14 32 15 83 16 77 17 79 18 33 19 82 20 76 21 75 22
REMARK SMILES IDX 34 24 64 25 45 26 63 27 46 28 49 29 62 30 80 31 47 32 48 33
REMARK SMILES IDX 61 35 81 36 50 37 35 38 36 39 44 40 37 41 43 42 38 43 39 44
REMARK SMILES IDX 40 45 41 46 42 47 65 48 66 49 74 50 67 51 73 52 68 53 69 54
REMARK SMILES IDX 70 55 71 56 72 57 51 58 52 59 60 60 53 61 59 62 54 63 55 64
REMARK SMILES IDX 56 65 57 66 58 67 6 68 7 69 8 70 9 71 10 72 11 73 12 74
REMARK SMILES IDX 13 75 24 76 14 77 23 78 25 79 22 80 15 81 16 82 21 83 17 84
REMARK SMILES IDX 19 85 18 86 20 87
REMARK H PARENT 79 23 49 34
REMARK Flexibility Score: inf
ROOT
ATOM      1  C   UNL     1       4.378  -0.026  -1.608  1.00  0.00     0.202 C 
ENDROOT
BRANCH   1   2
ATOM      2  C   UNL     1       4.008  -1.150  -0.635  1.00  0.00     0.261 C 
BRANCH   2   3
ATOM      3  O   UNL     1       2.624  -1.048  -0.260  1.00  0.00    -0.460 OA
BRANCH   3   4
ATOM      4  C   UNL     1       2.100  -0.621   0.913  1.00  0.00     0.338 C 
ATOM      5  O   UNL     1       0.881  -0.680   1.068  1.00  0.00    -0.246 OA
BRANCH   4   6
ATOM      6  C   UNL     1       2.924  -0.085   2.038  1.00  0.00     0.060 A 
ATOM      7  C   UNL     1       4.149   0.563   1.883  1.00  0.00     0.016 A 
ATOM      8  C   UNL     1       2.382  -0.164   3.332  1.00  0.00     0.016 A 
ATOM      9  C   UNL     1       4.860   1.046   2.968  1.00  0.00     0.010 A 
ATOM     10  C   UNL     1       3.068   0.366   4.431  1.00  0.00     0.010 A 
ATOM     11  C   UNL     1       4.322   0.955   4.247  1.00  0.00    -0.014 A 
BRANCH  11  12
ATOM     12  C   UNL     1       5.168   1.404   5.365  1.00  0.00     0.031 A 
ATOM     13  C   UNL     1       5.868   0.366   6.187  1.00  0.00     0.074 A 
ATOM     14  C   UNL     1       5.427   2.718   5.504  1.00  0.00     0.049 A 
ATOM     15  N   UNL     1       6.695   0.524   7.183  1.00  0.00    -0.248 NA
ATOM     16  C   UNL     1       5.618  -1.040   5.824  1.00  0.00     0.031 C 
ATOM     17  C   UNL     1       4.889   3.778   4.645  1.00  0.00     0.029 A 
ATOM     18  N   UNL     1       6.246   3.381   6.376  1.00  0.00    -0.354 N 
ATOM     19  C   UNL     1       7.042  -0.760   7.586  1.00  0.00     0.074 A 
ATOM     20  C   UNL     1       6.338  -1.685   6.728  1.00  0.00     0.031 C 
ATOM     21  C   UNL     1       5.431   4.952   5.005  1.00  0.00     0.029 A 
ATOM     22  C   UNL     1       6.294   4.739   6.160  1.00  0.00     0.049 A 
ATOM     23  H   UNL     1       6.753   2.930   7.090  1.00  0.00     0.167 HD
ATOM     24  C   UNL     1       7.867  -1.124   8.594  1.00  0.00     0.031 A 
ATOM     25  C   UNL     1       6.950   5.697   6.841  1.00  0.00     0.031 A 
ATOM     26  C   UNL     1       8.536  -0.174   9.439  1.00  0.00     0.049 A 
ATOM     27  C   UNL     1       7.777   5.271   8.023  1.00  0.00     0.074 A 
ATOM     28  C   UNL     1       9.334  -0.407  10.543  1.00  0.00     0.029 A 
ATOM     29  N   UNL     1       8.476   1.203   9.266  1.00  0.00    -0.354 N 
ATOM     30  N   UNL     1       8.037   4.055   8.448  1.00  0.00    -0.248 NA
ATOM     31  C   UNL     1       8.384   6.337   8.826  1.00  0.00     0.031 C 
ATOM     32  C   UNL     1       9.717   0.834  11.066  1.00  0.00     0.029 A 
ATOM     33  C   UNL     1       9.206   1.837  10.254  1.00  0.00     0.049 A 
ATOM     34  H   UNL     1       7.986   1.661   8.545  1.00  0.00     0.167 HD
ATOM     35  C   UNL     1       8.851   4.209   9.563  1.00  0.00     0.074 A 
ATOM     36  C   UNL     1       9.055   5.636   9.730  1.00  0.00     0.031 C 
ATOM     37  C   UNL     1       9.380   3.264  10.379  1.00  0.00     0.031 A 
BRANCH  24  38
ATOM     38  C   UNL     1       7.990  -2.597   8.874  1.00  0.00    -0.014 A 
ATOM     39  C   UNL     1       8.688  -3.461   8.010  1.00  0.00     0.010 A 
ATOM     40  C   UNL     1       7.341  -3.135  10.000  1.00  0.00     0.010 A 
ATOM     41  C   UNL     1       8.686  -4.841   8.237  1.00  0.00     0.020 A 
ATOM     42  C   UNL     1       7.358  -4.511  10.245  1.00  0.00     0.020 A 
ATOM     43  C   UNL     1       8.009  -5.358   9.347  1.00  0.00     0.054 A 
BRANCH  43  44
ATOM     44  S   UNL     1       7.991  -7.154   9.603  1.00  0.00     0.124 S 
ATOM     45  O   UNL     1       7.055  -7.595   8.571  1.00  0.00    -0.237 OA
ATOM     46  O   UNL     1       9.386  -7.525   9.384  1.00  0.00    -0.237 OA
ATOM     47  O   UNL     1       7.517  -7.304  10.977  1.00  0.00    -0.744 OA
ENDBRANCH  43  44
ENDBRANCH  24  38
BRANCH  25  48
ATOM     48  C   UNL     1       6.807   7.131   6.459  1.00  0.00    -0.014 A 
ATOM     49  C   UNL     1       7.905   7.871   5.987  1.00  0.00     0.010 A 
ATOM     50  C   UNL     1       5.556   7.770   6.566  1.00  0.00     0.010 A 
ATOM     51  C   UNL     1       7.760   9.222   5.648  1.00  0.00     0.020 A 
ATOM     52  C   UNL     1       5.399   9.110   6.200  1.00  0.00     0.020 A 
ATOM     53  C   UNL     1       6.507   9.832   5.757  1.00  0.00     0.054 A 
BRANCH  53  54
ATOM     54  S   UNL     1       6.331  11.575   5.280  1.00  0.00     0.124 S 
ATOM     55  O   UNL     1       6.986  12.261   6.390  1.00  0.00    -0.237 OA
ATOM     56  O   UNL     1       7.033  11.627   4.001  1.00  0.00    -0.237 OA
ATOM     57  O   UNL     1       4.884  11.762   5.196  1.00  0.00    -0.744 OA
ENDBRANCH  53  54
ENDBRANCH  25  48
BRANCH  37  58
ATOM     58  C   UNL     1      10.253   3.751  11.500  1.00  0.00    -0.014 A 
ATOM     59  C   UNL     1       9.701   4.372  12.634  1.00  0.00     0.010 A 
ATOM     60  C   UNL     1      11.640   3.531  11.435  1.00  0.00     0.010 A 
ATOM     61  C   UNL     1      10.531   4.795  13.674  1.00  0.00     0.020 A 
ATOM     62  C   UNL     1      12.468   3.927  12.486  1.00  0.00     0.020 A 
ATOM     63  C   UNL     1      11.909   4.570  13.592  1.00  0.00     0.054 A 
BRANCH  63  64
ATOM     64  S   UNL     1      12.961   5.084  14.976  1.00  0.00     0.124 S 
ATOM     65  O   UNL     1      13.029   6.530  14.783  1.00  0.00    -0.237 OA
ATOM     66  O   UNL     1      12.200   4.639  16.141  1.00  0.00    -0.237 OA
ATOM     67  O   UNL     1      14.211   4.364  14.745  1.00  0.00    -0.744 OA
ENDBRANCH  63  64
ENDBRANCH  37  58
ENDBRANCH  11  12
ENDBRANCH   4   6
ENDBRANCH   3   4
ENDBRANCH   2   3
ENDBRANCH   1   2
BRANCH   1  68
ATOM     68  O   UNL     1       4.212   1.292  -1.088  1.00  0.00    -0.374 OA
BRANCH  68  69
ATOM     69  C   UNL     1       2.900   1.853  -1.222  1.00  0.00     0.202 C 
BRANCH  69  70
ATOM     70  C   UNL     1       2.987   3.149  -2.027  1.00  0.00     0.261 C 
BRANCH  70  71
ATOM     71  O   UNL     1       3.439   2.812  -3.348  1.00  0.00    -0.460 OA
BRANCH  71  72
ATOM     72  C   UNL     1       4.772   2.913  -3.566  1.00  0.00     0.339 C 
ATOM     73  O   UNL     1       5.608   3.468  -2.874  1.00  0.00    -0.246 OA
BRANCH  72  74
ATOM     74  C   UNL     1       5.105   1.991  -4.666  1.00  0.00     0.079 A 
ATOM     75  C   UNL     1       6.092   1.021  -4.403  1.00  0.00     0.026 A 
ATOM     76  C   UNL     1       4.420   1.985  -5.882  1.00  0.00     0.055 A 
ATOM     77  C   UNL     1       6.345  -0.007  -5.320  1.00  0.00    -0.017 A 
ATOM     78  C   UNL     1       4.682   0.975  -6.808  1.00  0.00     0.022 A 
ATOM     79  Cl  UNL     1       3.274   3.198  -6.330  1.00  0.00    -0.083 Cl
ATOM     80  C   UNL     1       5.623  -0.018  -6.522  1.00  0.00     0.010 A 
BRANCH  77  81
ATOM     81  C   UNL     1       7.317  -1.069  -5.046  1.00  0.00    -0.017 A 
ATOM     82  C   UNL     1       8.591  -1.035  -5.635  1.00  0.00     0.009 A 
ATOM     83  C   UNL     1       6.975  -2.177  -4.254  1.00  0.00     0.029 A 
ATOM     84  C   UNL     1       9.493  -2.087  -5.459  1.00  0.00     0.002 A 
ATOM     85  C   UNL     1       7.879  -3.228  -4.083  1.00  0.00     0.041 A 
ATOM     86  C   UNL     1       9.133  -3.190  -4.687  1.00  0.00     0.020 A 
ATOM     87  Cl  UNL     1       7.427  -4.596  -3.143  1.00  0.00    -0.084 Cl
ENDBRANCH  77  81
ENDBRANCH  72  74
ENDBRANCH  71  72
ENDBRANCH  70  71
ENDBRANCH  69  70
ENDBRANCH  68  69
ENDBRANCH   1  68
TORSDOF 18
