REMARK SMILES O=C(C[C@H](NC(=O)[C@]12C[C@H]3C[C@H](C[C@H](C3)C1)C2)c1cccc([N+](=O)[O-])c1)OCCOCCOC(=O)c1ccc(-c2c3nc(c(-c4ccc(S(=O)(=O)[O-])cc4)c4ccc([nH]4)c(-c4ccc(S(=O)(=O)[O-])cc4)c4nc(c(-c5ccc(S(=O)(=O)[O-])cc5)c5ccc2[nH]5)C=C4)C=C3)cc1
REMARK SMILES IDX 30 1 29 2 28 3 27 4 2 5 1 6 3 7 4 8 18 9 19 10 26 11 20 12
REMARK SMILES IDX 22 13 21 14 23 15 24 16 25 17 5 18 6 19 7 21 8 22 9 23 16 24
REMARK SMILES IDX 17 25 10 26 14 27 12 28 11 29 15 30 13 31 31 32 32 33 33 34
REMARK SMILES IDX 34 35 35 36 36 37 37 38 95 39 38 40 94 41 39 42 40 43 41 44
REMARK SMILES IDX 88 45 42 46 93 47 87 48 89 49 43 50 92 51 86 52 85 53 44 55
REMARK SMILES IDX 74 56 55 57 73 58 56 59 59 60 72 61 90 62 57 63 58 64 71 66
REMARK SMILES IDX 91 67 60 68 45 69 46 70 54 71 47 72 53 73 48 74 49 75 50 76
REMARK SMILES IDX 51 77 52 78 75 79 76 80 84 81 77 82 83 83 78 84 79 85 80 86
REMARK SMILES IDX 81 87 82 88 61 89 62 90 70 91 63 92 69 93 64 94 65 95 66 96
REMARK SMILES IDX 67 97 68 98
REMARK H PARENT 5 20 89 54 59 65
REMARK Flexibility Score: inf
ROOT
ATOM      1  O   UNL     1       4.196   1.660   0.830  1.00  0.00    -0.374 OA
ENDROOT
BRANCH   1   2
ATOM      2  C   UNL     1       3.496   0.449   1.091  1.00  0.00     0.202 C 
BRANCH   2   3
ATOM      3  C   UNL     1       4.205  -0.905   1.199  1.00  0.00     0.261 C 
BRANCH   3   4
ATOM      4  O   UNL     1       5.338  -1.257   0.369  1.00  0.00    -0.463 OA
BRANCH   4   5
ATOM      5  C   UNL     1       5.793  -0.812  -0.808  1.00  0.00     0.308 C 
ATOM      6  O   UNL     1       6.925  -1.125  -1.179  1.00  0.00    -0.252 OA
BRANCH   5   7
ATOM      7  C   UNL     1       4.932   0.043  -1.677  1.00  0.00     0.152 C 
BRANCH   7   8
ATOM      8  C   UNL     1       3.970  -0.746  -2.556  1.00  0.00     0.123 C 
BRANCH   8   9
ATOM      9  C   UNL     1       4.709  -1.735  -3.442  1.00  0.00    -0.018 A 
ATOM     10  C   UNL     1       4.471  -3.116  -3.411  1.00  0.00     0.006 A 
ATOM     11  C   UNL     1       5.742  -1.252  -4.269  1.00  0.00     0.091 A 
ATOM     12  C   UNL     1       5.287  -3.998  -4.124  1.00  0.00     0.007 A 
ATOM     13  C   UNL     1       6.580  -2.140  -4.950  1.00  0.00     0.269 A 
ATOM     14  C   UNL     1       6.357  -3.517  -4.878  1.00  0.00     0.085 A 
BRANCH  13  15
ATOM     15  N   UNL     1       7.721  -1.615  -5.708  1.00  0.00     0.062 N 
ATOM     16  O   UNL     1       8.415  -2.421  -6.343  1.00  0.00    -0.258 OA
ATOM     17  O   UNL     1       7.918  -0.390  -5.681  1.00  0.00    -0.258 OA
ENDBRANCH  13  15
ENDBRANCH   8   9
BRANCH   8  18
ATOM     18  N   UNL     1       2.891  -1.353  -1.773  1.00  0.00    -0.348 N 
ATOM     19  C   UNL     1       1.570  -1.044  -1.619  1.00  0.00     0.226 C 
ATOM     20  H   UNL     1       3.175  -2.140  -1.255  1.00  0.00     0.164 HD
ATOM     21  O   UNL     1       0.956  -1.688  -0.765  1.00  0.00    -0.274 OA
BRANCH  19  22
ATOM     22  C   UNL     1       0.895   0.068  -2.431  1.00  0.00     0.050 C 
ATOM     23  C   UNL     1      -0.641   0.131  -2.157  1.00  0.00     0.020 C 
ATOM     24  C   UNL     1       1.033  -0.219  -3.945  1.00  0.00     0.020 C 
ATOM     25  C   UNL     1       1.446   1.452  -2.012  1.00  0.00     0.020 C 
ATOM     26  C   UNL     1      -1.300   1.246  -3.005  1.00  0.00    -0.010 C 
ATOM     27  C   UNL     1       0.464   0.937  -4.768  1.00  0.00    -0.010 C 
ATOM     28  C   UNL     1       0.836   2.564  -2.870  1.00  0.00    -0.010 C 
ATOM     29  C   UNL     1      -0.682   2.604  -2.638  1.00  0.00     0.007 C 
ATOM     30  C   UNL     1      -1.045   0.997  -4.502  1.00  0.00     0.007 C 
ATOM     31  C   UNL     1       1.137   2.255  -4.344  1.00  0.00     0.007 C 
ENDBRANCH  19  22
ENDBRANCH   8  18
ENDBRANCH   7   8
ENDBRANCH   5   7
ENDBRANCH   4   5
ENDBRANCH   3   4
ENDBRANCH   2   3
ENDBRANCH   1   2
BRANCH   1  32
ATOM     32  C   UNL     1       5.561   1.817   1.183  1.00  0.00     0.202 C 
BRANCH  32  33
ATOM     33  C   UNL     1       5.797   2.361   2.581  1.00  0.00     0.261 C 
BRANCH  33  34
ATOM     34  O   UNL     1       5.427   1.375   3.547  1.00  0.00    -0.460 OA
BRANCH  34  35
ATOM     35  C   UNL     1       4.179   1.521   4.040  1.00  0.00     0.338 C 
ATOM     36  O   UNL     1       3.395   2.433   3.821  1.00  0.00    -0.246 OA
BRANCH  35  37
ATOM     37  C   UNL     1       3.813   0.297   4.768  1.00  0.00     0.060 A 
ATOM     38  C   UNL     1       2.494  -0.159   4.654  1.00  0.00     0.016 A 
ATOM     39  C   UNL     1       4.735  -0.359   5.590  1.00  0.00     0.016 A 
ATOM     40  C   UNL     1       2.061  -1.212   5.442  1.00  0.00     0.010 A 
ATOM     41  C   UNL     1       4.298  -1.411   6.389  1.00  0.00     0.010 A 
ATOM     42  C   UNL     1       2.945  -1.782   6.366  1.00  0.00    -0.014 A 
BRANCH  42  43
ATOM     43  C   UNL     1       2.374  -2.544   7.492  1.00  0.00     0.031 A 
ATOM     44  C   UNL     1       2.150  -1.810   8.788  1.00  0.00     0.074 A 
ATOM     45  C   UNL     1       2.000  -3.822   7.334  1.00  0.00     0.049 A 
ATOM     46  N   UNL     1       1.640  -2.246   9.908  1.00  0.00    -0.248 NA
ATOM     47  C   UNL     1       2.559  -0.394   8.826  1.00  0.00     0.031 C 
ATOM     48  C   UNL     1       2.123  -4.594   6.098  1.00  0.00     0.029 A 
ATOM     49  N   UNL     1       1.427  -4.690   8.223  1.00  0.00    -0.354 N 
ATOM     50  C   UNL     1       1.682  -1.166  10.784  1.00  0.00     0.074 A 
ATOM     51  C   UNL     1       2.298  -0.066  10.081  1.00  0.00     0.031 C 
ATOM     52  C   UNL     1       1.631  -5.827   6.307  1.00  0.00     0.029 A 
ATOM     53  C   UNL     1       1.191  -5.935   7.696  1.00  0.00     0.049 A 
ATOM     54  H   UNL     1       1.205  -4.445   9.150  1.00  0.00     0.167 HD
ATOM     55  C   UNL     1       1.238  -1.099  12.059  1.00  0.00     0.031 A 
ATOM     56  C   UNL     1       0.685  -7.036   8.282  1.00  0.00     0.031 A 
ATOM     57  C   UNL     1       0.631  -2.208  12.743  1.00  0.00     0.049 A 
ATOM     58  C   UNL     1       0.252  -6.953   9.722  1.00  0.00     0.074 A 
ATOM     59  C   UNL     1       0.130  -2.256  14.031  1.00  0.00     0.029 A 
ATOM     60  N   UNL     1       0.449  -3.469  12.191  1.00  0.00    -0.354 N 
ATOM     61  N   UNL     1       0.283  -5.923  10.537  1.00  0.00    -0.248 NA
ATOM     62  C   UNL     1      -0.302  -8.176  10.315  1.00  0.00     0.031 C 
ATOM     63  C   UNL     1      -0.295  -3.565  14.280  1.00  0.00     0.029 A 
ATOM     64  C   UNL     1      -0.133  -4.311  13.121  1.00  0.00     0.049 A 
ATOM     65  H   UNL     1       0.697  -3.725  11.274  1.00  0.00     0.167 HD
ATOM     66  C   UNL     1      -0.287  -6.364  11.727  1.00  0.00     0.074 A 
ATOM     67  C   UNL     1      -0.661  -7.749  11.517  1.00  0.00     0.031 C 
ATOM     68  C   UNL     1      -0.493  -5.687  12.885  1.00  0.00     0.031 A 
BRANCH  55  69
ATOM     69  C   UNL     1       1.441   0.195  12.804  1.00  0.00    -0.014 A 
ATOM     70  C   UNL     1       0.738   1.365  12.461  1.00  0.00     0.010 A 
ATOM     71  C   UNL     1       2.343   0.234  13.883  1.00  0.00     0.010 A 
ATOM     72  C   UNL     1       0.960   2.556  13.158  1.00  0.00     0.020 A 
ATOM     73  C   UNL     1       2.544   1.414  14.604  1.00  0.00     0.020 A 
ATOM     74  C   UNL     1       1.862   2.572  14.226  1.00  0.00     0.054 A 
BRANCH  74  75
ATOM     75  S   UNL     1       2.111   4.124  15.133  1.00  0.00     0.124 S 
ATOM     76  O   UNL     1       2.842   4.929  14.158  1.00  0.00    -0.237 OA
ATOM     77  O   UNL     1       0.742   4.556  15.405  1.00  0.00    -0.237 OA
ATOM     78  O   UNL     1       2.879   3.720  16.308  1.00  0.00    -0.744 OA
ENDBRANCH  74  75
ENDBRANCH  55  69
BRANCH  56  79
ATOM     79  C   UNL     1       0.558  -8.299   7.506  1.00  0.00    -0.014 A 
ATOM     80  C   UNL     1      -0.707  -8.819   7.180  1.00  0.00     0.010 A 
ATOM     81  C   UNL     1       1.710  -8.988   7.083  1.00  0.00     0.010 A 
ATOM     82  C   UNL     1      -0.817 -10.015   6.465  1.00  0.00     0.020 A 
ATOM     83  C   UNL     1       1.603 -10.168   6.342  1.00  0.00     0.020 A 
ATOM     84  C   UNL     1       0.339 -10.681   6.048  1.00  0.00     0.054 A 
BRANCH  84  85
ATOM     85  S   UNL     1       0.170 -12.209   5.086  1.00  0.00     0.124 S 
ATOM     86  O   UNL     1      -0.319 -13.148   6.091  1.00  0.00    -0.237 OA
ATOM     87  O   UNL     1      -0.792 -11.826   4.056  1.00  0.00    -0.237 OA
ATOM     88  O   UNL     1       1.525 -12.460   4.601  1.00  0.00    -0.744 OA
ENDBRANCH  84  85
ENDBRANCH  56  79
BRANCH  68  89
ATOM     89  C   UNL     1      -1.208  -6.418  13.992  1.00  0.00    -0.014 A 
ATOM     90  C   UNL     1      -0.608  -7.484  14.683  1.00  0.00     0.010 A 
ATOM     91  C   UNL     1      -2.500  -6.000  14.363  1.00  0.00     0.010 A 
ATOM     92  C   UNL     1      -1.309  -8.156  15.688  1.00  0.00     0.020 A 
ATOM     93  C   UNL     1      -3.189  -6.644  15.392  1.00  0.00     0.020 A 
ATOM     94  C   UNL     1      -2.597  -7.733  16.033  1.00  0.00     0.054 A 
BRANCH  94  95
ATOM     95  S   UNL     1      -3.482  -8.615  17.346  1.00  0.00     0.124 S 
ATOM     96  O   UNL     1      -3.824  -9.873  16.689  1.00  0.00    -0.237 OA
ATOM     97  O   UNL     1      -2.477  -8.708  18.402  1.00  0.00    -0.237 OA
ATOM     98  O   UNL     1      -4.615  -7.742  17.647  1.00  0.00    -0.744 OA
ENDBRANCH  94  95
ENDBRANCH  68  89
ENDBRANCH  42  43
ENDBRANCH  35  37
ENDBRANCH  34  35
ENDBRANCH  33  34
ENDBRANCH  32  33
ENDBRANCH   1  32
TORSDOF 22
