REMARK SMILES O=C(Cc1ccc(-c2cccc(F)c2F)cc1)OCCOCCOC(=O)c1ccc(-c2c3nc(c(-c4ccc(S(=O)(=O)[O-])cc4)c4ccc([nH]4)c(-c4ccc(S(=O)(=O)[O-])cc4)c4nc(c(-c5ccc(S(=O)(=O)[O-])cc5)c5ccc2[nH]5)C=C4)C=C3)cc1
REMARK SMILES IDX 22 1 21 2 20 3 19 4 18 5 2 6 1 7 3 8 4 9 5 10 17 11 6 12
REMARK SMILES IDX 16 13 7 14 8 15 9 16 14 17 10 18 12 19 15 20 11 21 13 22
REMARK SMILES IDX 23 23 24 24 25 25 26 26 27 27 28 28 86 29 29 30 85 31 30 32
REMARK SMILES IDX 31 33 32 34 79 35 33 36 84 37 78 38 80 39 34 40 83 41 77 42
REMARK SMILES IDX 76 43 35 45 65 46 46 47 64 48 47 49 50 50 63 51 81 52 48 53
REMARK SMILES IDX 49 54 62 56 82 57 51 58 36 59 37 60 45 61 38 62 44 63 39 64
REMARK SMILES IDX 40 65 41 66 42 67 43 68 66 69 67 70 75 71 68 72 74 73 69 74
REMARK SMILES IDX 70 75 71 76 72 77 73 78 52 79 53 80 61 81 54 82 60 83 55 84
REMARK SMILES IDX 56 85 57 86 58 87 59 88
REMARK H PARENT 80 44 50 55
REMARK Flexibility Score: inf
ROOT
ATOM      1  C   UNL     1       2.900   1.495   1.827  1.00  0.00     0.202 C 
ENDROOT
BRANCH   1   2
ATOM      2  O   UNL     1       4.117   0.983   1.266  1.00  0.00    -0.374 OA
BRANCH   2   3
ATOM      3  C   UNL     1       4.363   1.367  -0.086  1.00  0.00     0.202 C 
BRANCH   3   4
ATOM      4  C   UNL     1       3.777   0.464  -1.168  1.00  0.00     0.261 C 
BRANCH   4   5
ATOM      5  O   UNL     1       2.391   0.150  -0.974  1.00  0.00    -0.463 OA
BRANCH   5   6
ATOM      6  C   UNL     1       1.910  -0.943  -0.340  1.00  0.00     0.310 C 
ATOM      7  O   UNL     1       0.726  -1.248  -0.501  1.00  0.00    -0.252 OA
BRANCH   6   8
ATOM      8  C   UNL     1       2.761  -1.719   0.647  1.00  0.00     0.158 C 
BRANCH   8   9
ATOM      9  C   UNL     1       3.754  -2.678   0.059  1.00  0.00    -0.037 A 
ATOM     10  C   UNL     1       3.330  -3.934  -0.364  1.00  0.00     0.005 A 
ATOM     11  C   UNL     1       5.099  -2.327  -0.104  1.00  0.00     0.005 A 
ATOM     12  C   UNL     1       4.209  -4.770  -1.047  1.00  0.00     0.009 A 
ATOM     13  C   UNL     1       5.953  -3.130  -0.862  1.00  0.00     0.009 A 
ATOM     14  C   UNL     1       5.510  -4.353  -1.382  1.00  0.00    -0.015 A 
BRANCH  14  15
ATOM     15  C   UNL     1       6.333  -5.159  -2.301  1.00  0.00     0.020 A 
ATOM     16  C   UNL     1       5.727  -5.779  -3.416  1.00  0.00     0.012 A 
ATOM     17  C   UNL     1       7.714  -5.338  -2.139  1.00  0.00     0.166 A 
ATOM     18  C   UNL     1       6.455  -6.575  -4.302  1.00  0.00     0.004 A 
ATOM     19  C   UNL     1       8.441  -6.126  -3.029  1.00  0.00     0.159 A 
ATOM     20  F   UNL     1       8.362  -4.763  -1.112  1.00  0.00    -0.203 F 
ATOM     21  C   UNL     1       7.819  -6.754  -4.102  1.00  0.00     0.042 A 
ATOM     22  F   UNL     1       9.759  -6.295  -2.851  1.00  0.00    -0.204 F 
ENDBRANCH  14  15
ENDBRANCH   8   9
ENDBRANCH   6   8
ENDBRANCH   5   6
ENDBRANCH   4   5
ENDBRANCH   3   4
ENDBRANCH   2   3
ENDBRANCH   1   2
BRANCH   1  23
ATOM     23  C   UNL     1       3.029   2.863   2.503  1.00  0.00     0.261 C 
BRANCH  23  24
ATOM     24  O   UNL     1       3.372   3.875   1.551  1.00  0.00    -0.460 OA
BRANCH  24  25
ATOM     25  C   UNL     1       4.697   4.138   1.443  1.00  0.00     0.338 C 
ATOM     26  O   UNL     1       5.593   3.735   2.167  1.00  0.00    -0.246 OA
BRANCH  25  27
ATOM     27  C   UNL     1       4.924   4.811   0.147  1.00  0.00     0.060 A 
ATOM     28  C   UNL     1       6.041   4.428  -0.611  1.00  0.00     0.016 A 
ATOM     29  C   UNL     1       4.022   5.759  -0.341  1.00  0.00     0.016 A 
ATOM     30  C   UNL     1       6.288   5.030  -1.842  1.00  0.00     0.010 A 
ATOM     31  C   UNL     1       4.273   6.365  -1.568  1.00  0.00     0.010 A 
ATOM     32  C   UNL     1       5.427   6.032  -2.299  1.00  0.00    -0.014 A 
BRANCH  32  33
ATOM     33  C   UNL     1       5.819   6.921  -3.412  1.00  0.00     0.031 A 
ATOM     34  C   UNL     1       6.364   8.273  -3.055  1.00  0.00     0.074 A 
ATOM     35  C   UNL     1       5.609   6.573  -4.691  1.00  0.00     0.049 A 
ATOM     36  N   UNL     1       6.580   9.310  -3.817  1.00  0.00    -0.248 NA
ATOM     37  C   UNL     1       6.679   8.489  -1.631  1.00  0.00     0.031 C 
ATOM     38  C   UNL     1       5.116   5.275  -5.147  1.00  0.00     0.029 A 
ATOM     39  N   UNL     1       5.748   7.309  -5.840  1.00  0.00    -0.354 N 
ATOM     40  C   UNL     1       7.016  10.314  -2.961  1.00  0.00     0.074 A 
ATOM     41  C   UNL     1       7.014   9.768  -1.623  1.00  0.00     0.031 C 
ATOM     42  C   UNL     1       4.955   5.318  -6.480  1.00  0.00     0.029 A 
ATOM     43  C   UNL     1       5.287   6.660  -6.959  1.00  0.00     0.049 A 
ATOM     44  H   UNL     1       6.139   8.212  -5.860  1.00  0.00     0.167 HD
ATOM     45  C   UNL     1       7.376  11.582  -3.267  1.00  0.00     0.031 A 
ATOM     46  C   UNL     1       5.108   7.115  -8.215  1.00  0.00     0.031 A 
ATOM     47  C   UNL     1       7.346  12.112  -4.603  1.00  0.00     0.049 A 
ATOM     48  C   UNL     1       5.470   8.541  -8.535  1.00  0.00     0.074 A 
ATOM     49  C   UNL     1       7.719  13.369  -5.039  1.00  0.00     0.029 A 
ATOM     50  N   UNL     1       6.900  11.413  -5.716  1.00  0.00    -0.354 N 
ATOM     51  N   UNL     1       5.915   9.477  -7.729  1.00  0.00    -0.248 NA
ATOM     52  C   UNL     1       5.314   8.971  -9.931  1.00  0.00     0.031 C 
ATOM     53  C   UNL     1       7.435  13.453  -6.406  1.00  0.00     0.029 A 
ATOM     54  C   UNL     1       6.960  12.222  -6.837  1.00  0.00     0.049 A 
ATOM     55  H   UNL     1       6.586  10.480  -5.710  1.00  0.00     0.167 HD
ATOM     56  C   UNL     1       6.125  10.599  -8.526  1.00  0.00     0.074 A 
ATOM     57  C   UNL     1       5.756  10.222  -9.877  1.00  0.00     0.031 C 
ATOM     58  C   UNL     1       6.590  11.824  -8.174  1.00  0.00     0.031 A 
BRANCH  45  59
ATOM     59  C   UNL     1       7.762  12.484  -2.123  1.00  0.00    -0.014 A 
ATOM     60  C   UNL     1       8.919  12.252  -1.357  1.00  0.00     0.010 A 
ATOM     61  C   UNL     1       6.933  13.571  -1.792  1.00  0.00     0.010 A 
ATOM     62  C   UNL     1       9.201  13.045  -0.241  1.00  0.00     0.020 A 
ATOM     63  C   UNL     1       7.230  14.389  -0.699  1.00  0.00     0.020 A 
ATOM     64  C   UNL     1       8.348  14.103   0.086  1.00  0.00     0.054 A 
BRANCH  64  65
ATOM     65  S   UNL     1       8.723  15.101   1.553  1.00  0.00     0.124 S 
ATOM     66  O   UNL     1       8.383  14.182   2.636  1.00  0.00    -0.237 OA
ATOM     67  O   UNL     1      10.146  15.384   1.393  1.00  0.00    -0.237 OA
ATOM     68  O   UNL     1       7.841  16.259   1.420  1.00  0.00    -0.744 OA
ENDBRANCH  64  65
ENDBRANCH  45  59
BRANCH  46  69
ATOM     69  C   UNL     1       4.541   6.201  -9.243  1.00  0.00    -0.014 A 
ATOM     70  C   UNL     1       5.356   5.668 -10.256  1.00  0.00     0.010 A 
ATOM     71  C   UNL     1       3.195   5.797  -9.165  1.00  0.00     0.010 A 
ATOM     72  C   UNL     1       4.840   4.736 -11.162  1.00  0.00     0.020 A 
ATOM     73  C   UNL     1       2.682   4.846 -10.052  1.00  0.00     0.020 A 
ATOM     74  C   UNL     1       3.511   4.320 -11.045  1.00  0.00     0.054 A 
BRANCH  74  75
ATOM     75  S   UNL     1       2.901   3.025 -12.161  1.00  0.00     0.124 S 
ATOM     76  O   UNL     1       2.832   3.729 -13.437  1.00  0.00    -0.237 OA
ATOM     77  O   UNL     1       3.943   2.006 -12.055  1.00  0.00    -0.237 OA
ATOM     78  O   UNL     1       1.613   2.650 -11.580  1.00  0.00    -0.744 OA
ENDBRANCH  74  75
ENDBRANCH  46  69
BRANCH  58  79
ATOM     79  C   UNL     1       6.784  12.843  -9.266  1.00  0.00    -0.014 A 
ATOM     80  C   UNL     1       5.694  13.489  -9.875  1.00  0.00     0.010 A 
ATOM     81  C   UNL     1       8.092  13.232  -9.611  1.00  0.00     0.010 A 
ATOM     82  C   UNL     1       5.911  14.497 -10.819  1.00  0.00     0.020 A 
ATOM     83  C   UNL     1       8.312  14.259 -10.531  1.00  0.00     0.020 A 
ATOM     84  C   UNL     1       7.219  14.881 -11.135  1.00  0.00     0.054 A 
BRANCH  84  85
ATOM     85  S   UNL     1       7.471  16.244 -12.304  1.00  0.00     0.124 S 
ATOM     86  O   UNL     1       7.088  15.632 -13.573  1.00  0.00    -0.237 OA
ATOM     87  O   UNL     1       6.560  17.269 -11.800  1.00  0.00    -0.237 OA
ATOM     88  O   UNL     1       8.891  16.560 -12.168  1.00  0.00    -0.744 OA
ENDBRANCH  84  85
ENDBRANCH  58  79
ENDBRANCH  32  33
ENDBRANCH  25  27
ENDBRANCH  24  25
ENDBRANCH  23  24
ENDBRANCH   1  23
TORSDOF 19
