REMARK SMILES CCOC(=O)C1=NN(c2ccc(OC(F)(F)F)cc2)[C@@](C)(C(=O)OCCOCCOC(=O)c2ccc(-c3c4nc(c(-c5ccc(S(=O)(=O)[O-])cc5)c5ccc([nH]5)c(-c5ccc(S(=O)(=O)[O-])cc5)c5nc(c(-c6ccc(S(=O)(=O)[O-])cc6)c6ccc3[nH]6)C=C5)C=C4)cc2)C1
REMARK SMILES IDX 27 1 26 2 25 3 24 4 22 5 23 6 20 7 6 8 7 9 93 10 8 11 21 12
REMARK SMILES IDX 4 13 5 14 3 15 2 16 1 17 9 18 10 19 19 20 11 21 18 22 12 23
REMARK SMILES IDX 13 24 14 25 15 26 16 27 17 28 28 29 29 30 30 31 31 32 32 33
REMARK SMILES IDX 33 34 34 35 92 36 35 37 91 38 36 39 37 40 38 41 85 42 39 43
REMARK SMILES IDX 90 44 84 45 86 46 40 47 89 48 83 49 82 50 41 52 71 53 52 54
REMARK SMILES IDX 70 55 53 56 56 57 69 58 87 59 54 60 55 61 68 63 88 64 57 65
REMARK SMILES IDX 42 66 43 67 51 68 44 69 50 70 45 71 46 72 47 73 48 74 49 75
REMARK SMILES IDX 72 76 73 77 81 78 74 79 80 80 75 81 76 82 77 83 78 84 79 85
REMARK SMILES IDX 58 86 59 87 67 88 60 89 66 90 61 91 62 92 63 93 64 94 65 95
REMARK H PARENT 86 51 56 62
REMARK Flexibility Score: inf
ROOT
ATOM      1  O   UNL     1       6.658  -4.324   3.828  1.00  0.00    -0.374 OA
ENDROOT
BRANCH   1   2
ATOM      2  C   UNL     1       7.285  -4.373   5.108  1.00  0.00     0.202 C 
BRANCH   2   3
ATOM      3  C   UNL     1       7.393  -3.063   5.896  1.00  0.00     0.261 C 
BRANCH   3   4
ATOM      4  O   UNL     1       6.117  -2.445   6.148  1.00  0.00    -0.461 OA
BRANCH   4   5
ATOM      5  C   UNL     1       5.913  -1.257   5.518  1.00  0.00     0.334 C 
ATOM      6  O   UNL     1       6.775  -0.678   4.856  1.00  0.00    -0.249 OA
BRANCH   5   7
ATOM      7  C   UNL     1       4.513  -0.643   5.722  1.00  0.00     0.163 C 
ATOM      8  C   UNL     1       3.141  -1.227   3.958  1.00  0.00     0.149 C 
ATOM      9  N   UNL     1       2.776  -2.038   4.899  1.00  0.00    -0.169 NA
ATOM     10  C   UNL     1       4.046  -0.113   4.348  1.00  0.00     0.108 C 
ATOM     11  N   UNL     1       3.440  -1.629   6.035  1.00  0.00    -0.248 N 
ATOM     12  C   UNL     1       4.698   0.506   6.702  1.00  0.00     0.050 C 
BRANCH   8  13
ATOM     13  C   UNL     1       2.688  -1.360   2.535  1.00  0.00     0.354 C 
ATOM     14  O   UNL     1       3.460  -1.702   1.655  1.00  0.00    -0.245 OA
BRANCH  13  15
ATOM     15  O   UNL     1       1.392  -1.024   2.427  1.00  0.00    -0.461 OA
BRANCH  15  16
ATOM     16  C   UNL     1       0.827  -1.196   1.120  1.00  0.00     0.230 C 
ATOM     17  C   UNL     1       1.086   0.027   0.260  1.00  0.00     0.049 C 
ENDBRANCH  15  16
ENDBRANCH  13  15
ENDBRANCH   8  13
BRANCH  11  18
ATOM     18  C   UNL     1       2.930  -2.078   7.247  1.00  0.00     0.061 A 
ATOM     19  C   UNL     1       2.493  -3.407   7.381  1.00  0.00     0.032 A 
ATOM     20  C   UNL     1       2.705  -1.248   8.349  1.00  0.00     0.032 A 
ATOM     21  C   UNL     1       1.899  -3.883   8.560  1.00  0.00     0.049 A 
ATOM     22  C   UNL     1       2.105  -1.711   9.532  1.00  0.00     0.049 A 
ATOM     23  C   UNL     1       1.703  -3.036   9.648  1.00  0.00     0.129 A 
BRANCH  23  24
ATOM     24  O   UNL     1       1.105  -3.609  10.732  1.00  0.00    -0.406 OA
BRANCH  24  25
ATOM     25  C   UNL     1       0.893  -2.792  11.873  1.00  0.00     0.573 C 
ATOM     26  F   UNL     1       2.055  -2.297  12.348  1.00  0.00    -0.132 F 
ATOM     27  F   UNL     1       0.055  -1.770  11.588  1.00  0.00    -0.132 F 
ATOM     28  F   UNL     1       0.322  -3.536  12.845  1.00  0.00    -0.132 F 
ENDBRANCH  24  25
ENDBRANCH  23  24
ENDBRANCH  11  18
ENDBRANCH   5   7
ENDBRANCH   4   5
ENDBRANCH   3   4
ENDBRANCH   2   3
ENDBRANCH   1   2
BRANCH   1  29
ATOM     29  C   UNL     1       5.240  -4.169   3.800  1.00  0.00     0.202 C 
BRANCH  29  30
ATOM     30  C   UNL     1       4.376  -5.371   4.197  1.00  0.00     0.261 C 
BRANCH  30  31
ATOM     31  O   UNL     1       4.602  -5.799   5.551  1.00  0.00    -0.460 OA
BRANCH  31  32
ATOM     32  C   UNL     1       5.182  -7.019   5.659  1.00  0.00     0.338 C 
ATOM     33  O   UNL     1       5.431  -7.796   4.751  1.00  0.00    -0.246 OA
BRANCH  32  34
ATOM     34  C   UNL     1       5.669  -7.246   7.034  1.00  0.00     0.060 A 
ATOM     35  C   UNL     1       7.000  -7.659   7.168  1.00  0.00     0.016 A 
ATOM     36  C   UNL     1       4.835  -7.163   8.152  1.00  0.00     0.016 A 
ATOM     37  C   UNL     1       7.479  -8.073   8.406  1.00  0.00     0.010 A 
ATOM     38  C   UNL     1       5.320  -7.583   9.399  1.00  0.00     0.010 A 
ATOM     39  C   UNL     1       6.627  -8.089   9.519  1.00  0.00    -0.014 A 
BRANCH  39  40
ATOM     40  C   UNL     1       7.091  -8.788  10.744  1.00  0.00     0.031 A 
ATOM     41  C   UNL     1       6.626 -10.197  11.007  1.00  0.00     0.074 A 
ATOM     42  C   UNL     1       8.000  -8.214  11.553  1.00  0.00     0.049 A 
ATOM     43  N   UNL     1       7.008 -11.033  11.938  1.00  0.00    -0.248 NA
ATOM     44  C   UNL     1       5.600 -10.737  10.100  1.00  0.00     0.031 C 
ATOM     45  C   UNL     1       8.546  -6.867  11.390  1.00  0.00     0.029 A 
ATOM     46  N   UNL     1       8.640  -8.705  12.664  1.00  0.00    -0.354 N 
ATOM     47  C   UNL     1       6.272 -12.195  11.730  1.00  0.00     0.074 A 
ATOM     48  C   UNL     1       5.396 -11.944  10.607  1.00  0.00     0.031 C 
ATOM     49  C   UNL     1       9.450  -6.643  12.359  1.00  0.00     0.029 A 
ATOM     50  C   UNL     1       9.534  -7.822  13.219  1.00  0.00     0.049 A 
ATOM     51  H   UNL     1       8.475  -9.605  13.027  1.00  0.00     0.167 HD
ATOM     52  C   UNL     1       6.326 -13.368  12.406  1.00  0.00     0.031 A 
ATOM     53  C   UNL     1      10.332  -7.948  14.298  1.00  0.00     0.031 A 
ATOM     54  C   UNL     1       7.194 -13.615  13.528  1.00  0.00     0.049 A 
ATOM     55  C   UNL     1      10.353  -9.252  15.051  1.00  0.00     0.074 A 
ATOM     56  C   UNL     1       7.342 -14.780  14.262  1.00  0.00     0.029 A 
ATOM     57  N   UNL     1       8.055 -12.682  14.084  1.00  0.00    -0.354 N 
ATOM     58  N   UNL     1       9.682 -10.354  14.812  1.00  0.00    -0.248 NA
ATOM     59  C   UNL     1      11.256  -9.334  16.206  1.00  0.00     0.031 C 
ATOM     60  C   UNL     1       8.250 -14.533  15.297  1.00  0.00     0.029 A 
ATOM     61  C   UNL     1       8.716 -13.234  15.170  1.00  0.00     0.049 A 
ATOM     62  H   UNL     1       8.179 -11.762  13.757  1.00  0.00     0.167 HD
ATOM     63  C   UNL     1      10.098 -11.267  15.776  1.00  0.00     0.074 A 
ATOM     64  C   UNL     1      11.097 -10.595  16.582  1.00  0.00     0.031 C 
ATOM     65  C   UNL     1       9.693 -12.547  15.976  1.00  0.00     0.031 A 
BRANCH  52  66
ATOM     66  C   UNL     1       5.395 -14.469  11.969  1.00  0.00    -0.014 A 
ATOM     67  C   UNL     1       5.597 -15.165  10.763  1.00  0.00     0.010 A 
ATOM     68  C   UNL     1       4.323 -14.842  12.801  1.00  0.00     0.010 A 
ATOM     69  C   UNL     1       4.726 -16.191  10.383  1.00  0.00     0.020 A 
ATOM     70  C   UNL     1       3.466 -15.884  12.437  1.00  0.00     0.020 A 
ATOM     71  C   UNL     1       3.664 -16.542  11.222  1.00  0.00     0.054 A 
BRANCH  71  72
ATOM     72  S   UNL     1       2.567 -17.897  10.720  1.00  0.00     0.124 S 
ATOM     73  O   UNL     1       1.800 -17.279   9.640  1.00  0.00    -0.237 OA
ATOM     74  O   UNL     1       3.507 -18.935  10.307  1.00  0.00    -0.237 OA
ATOM     75  O   UNL     1       1.807 -18.195  11.931  1.00  0.00    -0.744 OA
ENDBRANCH  71  72
ENDBRANCH  52  66
BRANCH  53  76
ATOM     76  C   UNL     1      11.175  -6.801  14.734  1.00  0.00    -0.014 A 
ATOM     77  C   UNL     1      12.576  -6.843  14.617  1.00  0.00     0.010 A 
ATOM     78  C   UNL     1      10.569  -5.652  15.275  1.00  0.00     0.010 A 
ATOM     79  C   UNL     1      13.355  -5.766  15.051  1.00  0.00     0.020 A 
ATOM     80  C   UNL     1      11.342  -4.562  15.682  1.00  0.00     0.020 A 
ATOM     81  C   UNL     1      12.732  -4.631  15.579  1.00  0.00     0.054 A 
BRANCH  81  82
ATOM     82  S   UNL     1      13.757  -3.221  16.085  1.00  0.00     0.124 S 
ATOM     83  O   UNL     1      14.336  -3.701  17.336  1.00  0.00    -0.237 OA
ATOM     84  O   UNL     1      14.686  -3.088  14.966  1.00  0.00    -0.237 OA
ATOM     85  O   UNL     1      12.794  -2.130  16.218  1.00  0.00    -0.744 OA
ENDBRANCH  81  82
ENDBRANCH  53  76
BRANCH  65  86
ATOM     86  C   UNL     1      10.350 -13.306  17.100  1.00  0.00    -0.014 A 
ATOM     87  C   UNL     1      10.100 -12.982  18.445  1.00  0.00     0.010 A 
ATOM     88  C   UNL     1      11.228 -14.365  16.803  1.00  0.00     0.010 A 
ATOM     89  C   UNL     1      10.763 -13.661  19.471  1.00  0.00     0.020 A 
ATOM     90  C   UNL     1      11.869 -15.067  17.827  1.00  0.00     0.020 A 
ATOM     91  C   UNL     1      11.652 -14.692  19.155  1.00  0.00     0.054 A 
BRANCH  91  92
ATOM     92  S   UNL     1      12.511 -15.553  20.501  1.00  0.00     0.124 S 
ATOM     93  O   UNL     1      13.529 -14.577  20.882  1.00  0.00    -0.237 OA
ATOM     94  O   UNL     1      11.447 -15.766  21.479  1.00  0.00    -0.237 OA
ATOM     95  O   UNL     1      13.019 -16.767  19.867  1.00  0.00    -0.744 OA
ENDBRANCH  91  92
ENDBRANCH  65  86
ENDBRANCH  39  40
ENDBRANCH  32  34
ENDBRANCH  31  32
ENDBRANCH  30  31
ENDBRANCH  29  30
ENDBRANCH   1  29
TORSDOF 23
