REMARK SMILES O=C(OCCOCCOC(=O)[C@H]1CC[C@@H]2CCCC[C@@H]2N1C(=O)NC1CC1)c1ccc(-c2c3nc(c(-c4ccc(S(=O)(=O)[O-])cc4)c4ccc([nH]4)c(-c4ccc(S(=O)(=O)[O-])cc4)c4nc(c(-c5ccc(S(=O)(=O)[O-])cc5)c5ccc2[nH]5)C=C4)C=C3)cc1
REMARK SMILES IDX 5 1 4 2 3 3 2 4 1 5 28 6 29 7 87 8 30 9 86 10 31 11 32 12
REMARK SMILES IDX 33 13 80 14 34 15 85 16 79 17 81 18 35 19 84 20 78 21 77 22
REMARK SMILES IDX 36 24 66 25 47 26 65 27 48 28 51 29 64 30 82 31 49 32 50 33
REMARK SMILES IDX 63 35 83 36 52 37 37 38 38 39 46 40 39 41 45 42 40 43 41 44
REMARK SMILES IDX 42 45 43 46 44 47 67 48 68 49 76 50 69 51 75 52 70 53 71 54
REMARK SMILES IDX 72 55 73 56 74 57 53 58 54 59 62 60 55 61 61 62 56 63 57 64
REMARK SMILES IDX 58 65 59 66 60 67 6 68 7 69 8 70 9 71 10 72 11 73 12 74
REMARK SMILES IDX 13 75 21 76 14 77 20 78 15 79 19 80 16 81 18 82 17 83 22 84
REMARK SMILES IDX 23 85 24 86 25 88 26 89 27 90
REMARK H PARENT 81 23 51 34 24 87
REMARK Flexibility Score: inf
ROOT
ATOM      1  C   UNL     1       4.855   8.124  -0.415  1.00  0.00     0.202 C 
ENDROOT
BRANCH   1   2
ATOM      2  C   UNL     1       3.997   8.566  -1.649  1.00  0.00     0.261 C 
BRANCH   2   3
ATOM      3  O   UNL     1       4.673   8.727  -2.938  1.00  0.00    -0.460 OA
BRANCH   3   4
ATOM      4  C   UNL     1       5.159   9.858  -3.535  1.00  0.00     0.338 C 
ATOM      5  O   UNL     1       5.377   9.916  -4.741  1.00  0.00    -0.246 OA
BRANCH   4   6
ATOM      6  C   UNL     1       5.433  11.016  -2.664  1.00  0.00     0.060 A 
ATOM      7  C   UNL     1       5.877  10.730  -1.409  1.00  0.00     0.016 A 
ATOM      8  C   UNL     1       5.040  12.322  -2.953  1.00  0.00     0.016 A 
ATOM      9  C   UNL     1       5.218  11.406  -0.417  1.00  0.00     0.010 A 
ATOM     10  C   UNL     1       4.777  13.203  -1.886  1.00  0.00     0.010 A 
ATOM     11  C   UNL     1       4.681  12.675  -0.593  1.00  0.00    -0.014 A 
BRANCH  11  12
ATOM     12  C   UNL     1       3.877  13.225   0.549  1.00  0.00     0.031 A 
ATOM     13  C   UNL     1       2.491  13.768   0.279  1.00  0.00     0.074 A 
ATOM     14  C   UNL     1       4.238  12.983   1.838  1.00  0.00     0.049 A 
ATOM     15  N   UNL     1       1.701  14.428   1.083  1.00  0.00    -0.248 NA
ATOM     16  C   UNL     1       1.908  13.531  -1.055  1.00  0.00     0.031 C 
ATOM     17  C   UNL     1       5.445  12.258   2.278  1.00  0.00     0.029 A 
ATOM     18  N   UNL     1       3.576  13.198   3.023  1.00  0.00    -0.354 N 
ATOM     19  C   UNL     1       0.584  14.765   0.325  1.00  0.00     0.074 A 
ATOM     20  C   UNL     1       0.770  14.206  -0.990  1.00  0.00     0.031 C 
ATOM     21  C   UNL     1       5.321  11.907   3.563  1.00  0.00     0.029 A 
ATOM     22  C   UNL     1       4.203  12.639   4.119  1.00  0.00     0.049 A 
ATOM     23  H   UNL     1       2.733  13.703   3.085  1.00  0.00     0.167 HD
ATOM     24  C   UNL     1      -0.483  15.510   0.698  1.00  0.00     0.031 A 
ATOM     25  C   UNL     1       3.991  12.793   5.441  1.00  0.00     0.031 A 
ATOM     26  C   UNL     1      -0.634  16.025   2.030  1.00  0.00     0.049 A 
ATOM     27  C   UNL     1       2.916  13.764   5.825  1.00  0.00     0.074 A 
ATOM     28  C   UNL     1      -1.522  16.965   2.512  1.00  0.00     0.029 A 
ATOM     29  N   UNL     1       0.133  15.600   3.107  1.00  0.00    -0.354 N 
ATOM     30  N   UNL     1       2.017  14.333   5.055  1.00  0.00    -0.248 NA
ATOM     31  C   UNL     1       2.868  14.178   7.230  1.00  0.00     0.031 C 
ATOM     32  C   UNL     1      -1.261  17.140   3.878  1.00  0.00     0.029 A 
ATOM     33  C   UNL     1      -0.251  16.265   4.253  1.00  0.00     0.049 A 
ATOM     34  H   UNL     1       0.846  14.923   3.060  1.00  0.00     0.167 HD
ATOM     35  C   UNL     1       1.307  15.190   5.880  1.00  0.00     0.074 A 
ATOM     36  C   UNL     1       1.849  15.025   7.216  1.00  0.00     0.031 C 
ATOM     37  C   UNL     1       0.316  16.058   5.561  1.00  0.00     0.031 A 
BRANCH  24  38
ATOM     38  C   UNL     1      -1.442  15.916  -0.386  1.00  0.00    -0.014 A 
ATOM     39  C   UNL     1      -2.397  15.031  -0.915  1.00  0.00     0.010 A 
ATOM     40  C   UNL     1      -1.325  17.206  -0.938  1.00  0.00     0.010 A 
ATOM     41  C   UNL     1      -3.187  15.415  -2.007  1.00  0.00     0.020 A 
ATOM     42  C   UNL     1      -2.123  17.599  -2.014  1.00  0.00     0.020 A 
ATOM     43  C   UNL     1      -3.034  16.695  -2.557  1.00  0.00     0.054 A 
BRANCH  43  44
ATOM     44  S   UNL     1      -4.061  17.155  -3.981  1.00  0.00     0.124 S 
ATOM     45  O   UNL     1      -3.420  16.392  -5.066  1.00  0.00    -0.237 OA
ATOM     46  O   UNL     1      -5.373  16.726  -3.599  1.00  0.00    -0.237 OA
ATOM     47  O   UNL     1      -3.871  18.615  -4.079  1.00  0.00    -0.744 OA
ENDBRANCH  43  44
ENDBRANCH  24  38
BRANCH  25  48
ATOM     48  C   UNL     1       4.932  12.214   6.454  1.00  0.00    -0.014 A 
ATOM     49  C   UNL     1       4.482  11.381   7.492  1.00  0.00     0.010 A 
ATOM     50  C   UNL     1       6.306  12.537   6.406  1.00  0.00     0.010 A 
ATOM     51  C   UNL     1       5.375  10.909   8.466  1.00  0.00     0.020 A 
ATOM     52  C   UNL     1       7.207  12.030   7.344  1.00  0.00     0.020 A 
ATOM     53  C   UNL     1       6.731  11.240   8.386  1.00  0.00     0.054 A 
BRANCH  53  54
ATOM     54  S   UNL     1       7.878  10.627   9.652  1.00  0.00     0.124 S 
ATOM     55  O   UNL     1       7.587  11.512  10.775  1.00  0.00    -0.237 OA
ATOM     56  O   UNL     1       7.461   9.236   9.815  1.00  0.00    -0.237 OA
ATOM     57  O   UNL     1       9.192  10.807   9.037  1.00  0.00    -0.744 OA
ENDBRANCH  53  54
ENDBRANCH  25  48
BRANCH  37  58
ATOM     58  C   UNL     1      -0.256  16.855   6.690  1.00  0.00    -0.014 A 
ATOM     59  C   UNL     1       0.451  17.938   7.239  1.00  0.00     0.010 A 
ATOM     60  C   UNL     1      -1.536  16.537   7.173  1.00  0.00     0.010 A 
ATOM     61  C   UNL     1      -0.107  18.678   8.280  1.00  0.00     0.020 A 
ATOM     62  C   UNL     1      -2.107  17.291   8.195  1.00  0.00     0.020 A 
ATOM     63  C   UNL     1      -1.383  18.348   8.751  1.00  0.00     0.054 A 
BRANCH  63  64
ATOM     64  S   UNL     1      -2.112  19.353  10.069  1.00  0.00     0.124 S 
ATOM     65  O   UNL     1      -1.417  18.851  11.250  1.00  0.00    -0.237 OA
ATOM     66  O   UNL     1      -1.767  20.714   9.665  1.00  0.00    -0.237 OA
ATOM     67  O   UNL     1      -3.536  19.031   9.998  1.00  0.00    -0.744 OA
ENDBRANCH  63  64
ENDBRANCH  37  58
ENDBRANCH  11  12
ENDBRANCH   4   6
ENDBRANCH   3   4
ENDBRANCH   2   3
ENDBRANCH   1   2
BRANCH   1  68
ATOM     68  O   UNL     1       5.956   7.207  -0.494  1.00  0.00    -0.374 OA
BRANCH  68  69
ATOM     69  C   UNL     1       6.715   6.958  -1.674  1.00  0.00     0.202 C 
BRANCH  69  70
ATOM     70  C   UNL     1       6.749   5.457  -2.113  1.00  0.00     0.261 C 
BRANCH  70  71
ATOM     71  O   UNL     1       5.538   5.100  -2.831  1.00  0.00    -0.462 OA
BRANCH  71  72
ATOM     72  C   UNL     1       4.620   4.127  -2.726  1.00  0.00     0.329 C 
ATOM     73  O   UNL     1       3.473   4.404  -3.119  1.00  0.00    -0.250 OA
BRANCH  72  74
ATOM     74  C   UNL     1       4.882   2.643  -2.413  1.00  0.00     0.197 C 
ATOM     75  C   UNL     1       4.815   2.171  -3.880  1.00  0.00     0.038 C 
ATOM     76  N   UNL     1       6.016   2.046  -1.715  1.00  0.00    -0.308 N 
ATOM     77  C   UNL     1       4.692   0.697  -4.010  1.00  0.00     0.008 C 
ATOM     78  C   UNL     1       6.502   0.640  -2.140  1.00  0.00     0.091 C 
ATOM     79  C   UNL     1       5.952   0.039  -3.494  1.00  0.00     0.012 C 
ATOM     80  C   UNL     1       6.372  -0.465  -1.042  1.00  0.00     0.025 C 
ATOM     81  C   UNL     1       5.647  -1.477  -3.472  1.00  0.00     0.006 C 
ATOM     82  C   UNL     1       5.003  -1.135  -1.033  1.00  0.00     0.002 C 
ATOM     83  C   UNL     1       4.693  -1.861  -2.340  1.00  0.00     0.000 C 
BRANCH  76  84
ATOM     84  C   UNL     1       6.423   2.481  -0.471  1.00  0.00     0.318 C 
ATOM     85  O   UNL     1       7.467   2.044   0.032  1.00  0.00    -0.249 OA
ATOM     86  N   UNL     1       5.700   3.296   0.353  1.00  0.00    -0.335 N 
ATOM     87  H   UNL     1       5.650   2.897   1.252  1.00  0.00     0.165 HD
BRANCH  86  88
ATOM     88  C   UNL     1       4.987   4.548   0.340  1.00  0.00     0.084 C 
ATOM     89  C   UNL     1       3.857   5.110  -0.469  1.00  0.00     0.027 C 
ATOM     90  C   UNL     1       3.619   4.750   0.940  1.00  0.00     0.027 C 
ENDBRANCH  86  88
ENDBRANCH  76  84
ENDBRANCH  72  74
ENDBRANCH  71  72
ENDBRANCH  70  71
ENDBRANCH  69  70
ENDBRANCH  68  69
ENDBRANCH   1  68
TORSDOF 19
