REMARK SMILES Cc1ccc(C(=O)OCCOCCOC(=O)c2ccc(-c3c4nc(c(-c5ccc(S(=O)(=O)[O-])cc5)c5ccc([nH]5)c(-c5ccc(S(=O)(=O)[O-])cc5)c5nc(c(-c6ccc(S(=O)(=O)[O-])cc6)c6ccc3[nH]6)C=C5)C=C4)cc2)c2c1N[C@H](c1ccccc1F)[C@H]1CC=C[C@@H]21
REMARK SMILES IDX 12 1 11 2 10 3 9 4 8 5 6 6 7 7 5 8 1 9 2 10 3 11 78 12 4 13
REMARK SMILES IDX 77 14 79 15 92 16 80 17 88 19 91 20 89 21 90 22 81 23 82 24
REMARK SMILES IDX 86 25 83 26 85 27 87 28 84 29 13 30 14 31 15 32 16 33 17 34
REMARK SMILES IDX 18 35 76 36 19 37 75 38 20 39 21 40 22 41 69 42 23 43 74 44
REMARK SMILES IDX 68 45 70 46 24 47 73 48 67 49 66 50 25 52 55 53 36 54 54 55
REMARK SMILES IDX 37 56 40 57 53 58 71 59 38 60 39 61 52 63 72 64 41 65 26 66
REMARK SMILES IDX 27 67 35 68 28 69 34 70 29 71 30 72 31 73 32 74 33 75 56 76
REMARK SMILES IDX 57 77 65 78 58 79 64 80 59 81 60 82 61 83 62 84 63 85 42 86
REMARK SMILES IDX 43 87 51 88 44 89 50 90 45 91 46 92 47 93 48 94 49 95
REMARK H PARENT 79 18 70 51 40 62
REMARK Flexibility Score: inf
ROOT
ATOM      1  C   UNL     1       0.626  -0.776   7.059  1.00  0.00     0.202 C 
ENDROOT
BRANCH   1   2
ATOM      2  O   UNL     1      -0.429  -1.241   7.903  1.00  0.00    -0.374 OA
BRANCH   2   3
ATOM      3  C   UNL     1      -0.674  -2.644   7.950  1.00  0.00     0.202 C 
BRANCH   3   4
ATOM      4  C   UNL     1      -1.354  -3.292   6.739  1.00  0.00     0.261 C 
BRANCH   4   5
ATOM      5  O   UNL     1      -0.777  -2.863   5.500  1.00  0.00    -0.460 OA
BRANCH   5   6
ATOM      6  C   UNL     1      -1.626  -2.199   4.680  1.00  0.00     0.338 C 
ATOM      7  O   UNL     1      -2.839  -2.106   4.809  1.00  0.00    -0.246 OA
BRANCH   6   8
ATOM      8  C   UNL     1      -0.865  -1.541   3.595  1.00  0.00     0.065 A 
ATOM      9  C   UNL     1       1.198   0.034   0.163  1.00  0.00     0.046 C 
ATOM     10  C   UNL     1       0.496  -0.449   1.405  1.00  0.00    -0.028 A 
ATOM     11  C   UNL     1       0.591  -1.820   1.696  1.00  0.00     0.006 A 
ATOM     12  C   UNL     1      -0.216   0.411   2.275  1.00  0.00     0.042 A 
ATOM     13  C   UNL     1      -0.085  -2.365   2.780  1.00  0.00     0.016 A 
ATOM     14  C   UNL     1      -0.920  -0.141   3.376  1.00  0.00    -0.003 A 
ATOM     15  N   UNL     1      -0.235   1.784   2.050  1.00  0.00    -0.377 N 
ATOM     16  C   UNL     1      -1.597   0.782   4.374  1.00  0.00     0.050 C 
ATOM     17  C   UNL     1      -1.266   2.599   2.674  1.00  0.00     0.117 C 
ATOM     18  H   UNL     1       0.445   2.201   1.474  1.00  0.00     0.161 HD
ATOM     19  C   UNL     1      -1.285   2.288   4.185  1.00  0.00     0.031 C 
ATOM     20  C   UNL     1      -3.103   0.813   4.388  1.00  0.00    -0.023 C 
ATOM     21  C   UNL     1      -2.442   2.987   4.922  1.00  0.00     0.034 C 
ATOM     22  C   UNL     1      -3.564   2.021   4.736  1.00  0.00    -0.030 C 
BRANCH  17  23
ATOM     23  C   UNL     1      -1.109   4.046   2.233  1.00  0.00     0.010 A 
ATOM     24  C   UNL     1      -1.540   4.395   0.936  1.00  0.00     0.009 A 
ATOM     25  C   UNL     1      -0.620   5.072   3.047  1.00  0.00     0.128 A 
ATOM     26  C   UNL     1      -1.530   5.723   0.501  1.00  0.00     0.001 A 
ATOM     27  C   UNL     1      -0.618   6.401   2.622  1.00  0.00     0.039 A 
ATOM     28  F   UNL     1      -0.173   4.818   4.284  1.00  0.00    -0.207 F 
ATOM     29  C   UNL     1      -1.083   6.730   1.351  1.00  0.00     0.003 A 
ENDBRANCH  17  23
ENDBRANCH   6   8
ENDBRANCH   5   6
ENDBRANCH   4   5
ENDBRANCH   3   4
ENDBRANCH   2   3
ENDBRANCH   1   2
BRANCH   1  30
ATOM     30  C   UNL     1       2.070  -1.145   7.419  1.00  0.00     0.261 C 
BRANCH  30  31
ATOM     31  O   UNL     1       2.336  -2.551   7.272  1.00  0.00    -0.460 OA
BRANCH  31  32
ATOM     32  C   UNL     1       2.657  -3.193   8.419  1.00  0.00     0.338 C 
ATOM     33  O   UNL     1       2.781  -2.708   9.534  1.00  0.00    -0.246 OA
BRANCH  32  34
ATOM     34  C   UNL     1       2.664  -4.644   8.180  1.00  0.00     0.060 A 
ATOM     35  C   UNL     1       1.698  -5.426   8.827  1.00  0.00     0.016 A 
ATOM     36  C   UNL     1       3.666  -5.234   7.410  1.00  0.00     0.016 A 
ATOM     37  C   UNL     1       1.748  -6.812   8.727  1.00  0.00     0.010 A 
ATOM     38  C   UNL     1       3.730  -6.626   7.332  1.00  0.00     0.010 A 
ATOM     39  C   UNL     1       2.790  -7.418   8.016  1.00  0.00    -0.014 A 
BRANCH  39  40
ATOM     40  C   UNL     1       2.995  -8.877   8.138  1.00  0.00     0.031 A 
ATOM     41  C   UNL     1       3.937  -9.384   9.194  1.00  0.00     0.074 A 
ATOM     42  C   UNL     1       2.324  -9.732   7.348  1.00  0.00     0.049 A 
ATOM     43  N   UNL     1       4.283 -10.614   9.465  1.00  0.00    -0.248 NA
ATOM     44  C   UNL     1       4.565  -8.373  10.063  1.00  0.00     0.031 C 
ATOM     45  C   UNL     1       1.339  -9.353   6.335  1.00  0.00     0.029 A 
ATOM     46  N   UNL     1       2.369 -11.101   7.280  1.00  0.00    -0.354 N 
ATOM     47  C   UNL     1       5.166 -10.527  10.534  1.00  0.00     0.074 A 
ATOM     48  C   UNL     1       5.322  -9.126  10.850  1.00  0.00     0.031 C 
ATOM     49  C   UNL     1       0.875 -10.467   5.743  1.00  0.00     0.029 A 
ATOM     50  C   UNL     1       1.550 -11.631   6.313  1.00  0.00     0.049 A 
ATOM     51  H   UNL     1       2.935 -11.651   7.869  1.00  0.00     0.167 HD
ATOM     52  C   UNL     1       5.787 -11.530  11.195  1.00  0.00     0.031 A 
ATOM     53  C   UNL     1       1.378 -12.910   5.923  1.00  0.00     0.031 A 
ATOM     54  C   UNL     1       5.638 -12.921  10.868  1.00  0.00     0.049 A 
ATOM     55  C   UNL     1       2.149 -14.001   6.615  1.00  0.00     0.074 A 
ATOM     56  C   UNL     1       6.226 -14.013  11.481  1.00  0.00     0.029 A 
ATOM     57  N   UNL     1       4.848 -13.412   9.841  1.00  0.00    -0.354 N 
ATOM     58  N   UNL     1       2.989 -13.904   7.618  1.00  0.00    -0.248 NA
ATOM     59  C   UNL     1       1.952 -15.373   6.124  1.00  0.00     0.031 C 
ATOM     60  C   UNL     1       5.831 -15.162  10.792  1.00  0.00     0.029 A 
ATOM     61  C   UNL     1       4.953 -14.790   9.786  1.00  0.00     0.049 A 
ATOM     62  H   UNL     1       4.295 -12.862   9.240  1.00  0.00     0.167 HD
ATOM     63  C   UNL     1       3.404 -15.202   7.893  1.00  0.00     0.074 A 
ATOM     64  C   UNL     1       2.722 -16.068   6.953  1.00  0.00     0.031 C 
ATOM     65  C   UNL     1       4.268 -15.636   8.842  1.00  0.00     0.031 A 
BRANCH  52  66
ATOM     66  C   UNL     1       6.703 -11.166  12.328  1.00  0.00    -0.014 A 
ATOM     67  C   UNL     1       6.186 -10.788  13.579  1.00  0.00     0.010 A 
ATOM     68  C   UNL     1       8.094 -11.293  12.166  1.00  0.00     0.010 A 
ATOM     69  C   UNL     1       7.048 -10.538  14.650  1.00  0.00     0.020 A 
ATOM     70  C   UNL     1       8.958 -11.062  13.240  1.00  0.00     0.020 A 
ATOM     71  C   UNL     1       8.427 -10.688  14.476  1.00  0.00     0.054 A 
BRANCH  71  72
ATOM     72  S   UNL     1       9.513 -10.408  15.902  1.00  0.00     0.124 S 
ATOM     73  O   UNL     1       9.220  -9.017  16.242  1.00  0.00    -0.237 OA
ATOM     74  O   UNL     1       9.037 -11.403  16.858  1.00  0.00    -0.237 OA
ATOM     75  O   UNL     1      10.854 -10.644  15.371  1.00  0.00    -0.744 OA
ENDBRANCH  71  72
ENDBRANCH  52  66
BRANCH  53  76
ATOM     76  C   UNL     1       0.438 -13.216   4.813  1.00  0.00    -0.014 A 
ATOM     77  C   UNL     1      -0.805 -13.816   5.075  1.00  0.00     0.010 A 
ATOM     78  C   UNL     1       0.767 -12.868   3.490  1.00  0.00     0.010 A 
ATOM     79  C   UNL     1      -1.706 -14.056   4.034  1.00  0.00     0.020 A 
ATOM     80  C   UNL     1      -0.139 -13.087   2.450  1.00  0.00     0.020 A 
ATOM     81  C   UNL     1      -1.372 -13.678   2.729  1.00  0.00     0.054 A 
BRANCH  81  82
ATOM     82  S   UNL     1      -2.588 -13.946   1.409  1.00  0.00     0.124 S 
ATOM     83  O   UNL     1      -2.769 -15.394   1.445  1.00  0.00    -0.237 OA
ATOM     84  O   UNL     1      -3.724 -13.154   1.874  1.00  0.00    -0.237 OA
ATOM     85  O   UNL     1      -1.921 -13.429   0.216  1.00  0.00    -0.744 OA
ENDBRANCH  81  82
ENDBRANCH  53  76
BRANCH  65  86
ATOM     86  C   UNL     1       4.525 -17.114   8.943  1.00  0.00    -0.014 A 
ATOM     87  C   UNL     1       5.377 -17.761   8.033  1.00  0.00     0.010 A 
ATOM     88  C   UNL     1       4.006 -17.833  10.035  1.00  0.00     0.010 A 
ATOM     89  C   UNL     1       5.705 -19.108   8.214  1.00  0.00     0.020 A 
ATOM     90  C   UNL     1       4.348 -19.173  10.231  1.00  0.00     0.020 A 
ATOM     91  C   UNL     1       5.197 -19.801   9.318  1.00  0.00     0.054 A 
BRANCH  91  92
ATOM     92  S   UNL     1       5.694 -21.529   9.557  1.00  0.00     0.124 S 
ATOM     93  O   UNL     1       5.188 -22.166   8.344  1.00  0.00    -0.237 OA
ATOM     94  O   UNL     1       7.147 -21.427   9.654  1.00  0.00    -0.237 OA
ATOM     95  O   UNL     1       5.015 -21.920  10.790  1.00  0.00    -0.744 OA
ENDBRANCH  91  92
ENDBRANCH  65  86
ENDBRANCH  39  40
ENDBRANCH  32  34
ENDBRANCH  31  32
ENDBRANCH  30  31
ENDBRANCH   1  30
TORSDOF 18
