REMARK SMILES NC(=O)c1ccsc1NS(=O)(=O)c1ccc(C(=O)OCCOCCOC(=O)c2ccc(-c3c4nc(c(-c5ccc(S(=O)(=O)[O-])cc5)c5ccc([nH]5)c(-c5ccc(S(=O)(=O)[O-])cc5)c5nc(c(-c6ccc(S(=O)(=O)[O-])cc6)c6ccc3[nH]6)C=C5)C=C4)cc2)cc1
REMARK SMILES IDX 21 1 20 2 19 3 17 4 18 5 16 6 13 7 14 8 89 9 15 10 88 11
REMARK SMILES IDX 10 12 11 13 12 14 9 15 8 17 4 18 5 19 6 20 7 21 2 22 1 23
REMARK SMILES IDX 3 26 22 27 23 28 24 29 25 30 26 31 27 32 28 33 29 34 87 35
REMARK SMILES IDX 30 36 86 37 31 38 32 39 33 40 80 41 34 42 85 43 79 44 81 45
REMARK SMILES IDX 35 46 84 47 78 48 77 49 36 51 66 52 47 53 65 54 48 55 51 56
REMARK SMILES IDX 64 57 82 58 49 59 50 60 63 62 83 63 52 64 37 65 38 66 46 67
REMARK SMILES IDX 39 68 45 69 40 70 41 71 42 72 43 73 44 74 67 75 68 76 76 77
REMARK SMILES IDX 69 78 75 79 70 80 71 81 72 82 73 83 74 84 53 85 54 86 62 87
REMARK SMILES IDX 55 88 61 89 56 90 57 91 58 92 59 93 60 94
REMARK H PARENT 9 16 1 24 1 25 81 50 51 61
REMARK Flexibility Score: inf
ROOT
ATOM      1  C   UNL     1       4.287   8.423  -8.182  1.00  0.00     0.202 C 
ENDROOT
BRANCH   1   2
ATOM      2  C   UNL     1       2.801   8.361  -8.550  1.00  0.00     0.261 C 
BRANCH   2   3
ATOM      3  O   UNL     1       1.977   8.036  -7.420  1.00  0.00    -0.460 OA
BRANCH   3   4
ATOM      4  C   UNL     1       1.413   6.803  -7.456  1.00  0.00     0.338 C 
ATOM      5  O   UNL     1       1.474   6.005  -8.379  1.00  0.00    -0.246 OA
BRANCH   4   6
ATOM      6  C   UNL     1       0.778   6.464  -6.154  1.00  0.00     0.060 A 
ATOM      7  C   UNL     1      -0.286   5.642  -3.699  1.00  0.00     0.087 A 
ATOM      8  C   UNL     1      -0.119   4.709  -4.724  1.00  0.00     0.023 A 
ATOM      9  C   UNL     1       0.034   6.991  -3.910  1.00  0.00     0.023 A 
ATOM     10  C   UNL     1       0.435   5.119  -5.938  1.00  0.00     0.017 A 
ATOM     11  C   UNL     1       0.556   7.405  -5.140  1.00  0.00     0.017 A 
BRANCH   7  12
ATOM     12  S   UNL     1      -0.791   5.148  -2.066  1.00  0.00     0.262 S 
ATOM     13  O   UNL     1      -2.241   5.179  -2.077  1.00  0.00    -0.201 OA
ATOM     14  O   UNL     1      -0.037   5.932  -1.113  1.00  0.00    -0.201 OA
BRANCH  12  15
ATOM     15  N   UNL     1      -0.376   3.550  -1.858  1.00  0.00    -0.270 N 
ATOM     16  H   UNL     1      -1.094   2.935  -1.583  1.00  0.00     0.181 HD
BRANCH  15  17
ATOM     17  C   UNL     1       0.918   2.988  -2.041  1.00  0.00     0.115 A 
ATOM     18  C   UNL     1       1.171   1.650  -1.770  1.00  0.00     0.074 A 
ATOM     19  C   UNL     1       2.441   1.256  -2.323  1.00  0.00     0.028 A 
ATOM     20  C   UNL     1       3.137   2.317  -2.855  1.00  0.00     0.068 A 
ATOM     21  S   UNL     1       2.316   3.789  -2.599  1.00  0.00    -0.125 S 
BRANCH  18  22
ATOM     22  C   UNL     1       0.236   0.780  -1.066  1.00  0.00     0.251 C 
ATOM     23  N   UNL     1       0.807  -0.238  -0.359  1.00  0.00    -0.366 N 
ATOM     24  H   UNL     1       0.240  -0.868   0.143  1.00  0.00     0.159 HD
ATOM     25  H   UNL     1       1.786  -0.343  -0.351  1.00  0.00     0.159 HD
ATOM     26  O   UNL     1      -0.978   0.965  -1.043  1.00  0.00    -0.269 OA
ENDBRANCH  18  22
ENDBRANCH  15  17
ENDBRANCH  12  15
ENDBRANCH   7  12
ENDBRANCH   4   6
ENDBRANCH   3   4
ENDBRANCH   2   3
ENDBRANCH   1   2
BRANCH   1  27
ATOM     27  O   UNL     1       4.843   7.261  -7.569  1.00  0.00    -0.374 OA
BRANCH  27  28
ATOM     28  C   UNL     1       4.629   7.105  -6.163  1.00  0.00     0.202 C 
BRANCH  28  29
ATOM     29  C   UNL     1       5.480   7.985  -5.237  1.00  0.00     0.261 C 
BRANCH  29  30
ATOM     30  O   UNL     1       5.105   9.373  -5.309  1.00  0.00    -0.460 OA
BRANCH  30  31
ATOM     31  C   UNL     1       6.038  10.191  -5.859  1.00  0.00     0.338 C 
ATOM     32  O   UNL     1       7.161   9.887  -6.223  1.00  0.00    -0.246 OA
BRANCH  31  33
ATOM     33  C   UNL     1       5.436  11.508  -6.149  1.00  0.00     0.060 A 
ATOM     34  C   UNL     1       5.542  11.996  -7.458  1.00  0.00     0.016 A 
ATOM     35  C   UNL     1       4.831  12.276  -5.152  1.00  0.00     0.016 A 
ATOM     36  C   UNL     1       5.076  13.274  -7.767  1.00  0.00     0.010 A 
ATOM     37  C   UNL     1       4.373  13.561  -5.463  1.00  0.00     0.010 A 
ATOM     38  C   UNL     1       4.519  14.077  -6.764  1.00  0.00    -0.014 A 
BRANCH  38  39
ATOM     39  C   UNL     1       4.198  15.497  -7.048  1.00  0.00     0.031 A 
ATOM     40  C   UNL     1       5.152  16.570  -6.599  1.00  0.00     0.074 A 
ATOM     41  C   UNL     1       3.076  15.826  -7.713  1.00  0.00     0.049 A 
ATOM     42  N   UNL     1       5.050  17.869  -6.713  1.00  0.00    -0.248 NA
ATOM     43  C   UNL     1       6.384  16.119  -5.932  1.00  0.00     0.031 C 
ATOM     44  C   UNL     1       2.093  14.877  -8.235  1.00  0.00     0.029 A 
ATOM     45  N   UNL     1       2.572  17.056  -8.056  1.00  0.00    -0.354 N 
ATOM     46  C   UNL     1       6.195  18.392  -6.124  1.00  0.00     0.074 A 
ATOM     47  C   UNL     1       6.966  17.271  -5.631  1.00  0.00     0.031 C 
ATOM     48  C   UNL     1       1.098  15.561  -8.825  1.00  0.00     0.029 A 
ATOM     49  C   UNL     1       1.355  16.993  -8.693  1.00  0.00     0.049 A 
ATOM     50  H   UNL     1       3.037  17.902  -7.865  1.00  0.00     0.167 HD
ATOM     51  C   UNL     1       6.573  19.688  -6.007  1.00  0.00     0.031 A 
ATOM     52  C   UNL     1       0.532  17.979  -9.103  1.00  0.00     0.031 A 
ATOM     53  C   UNL     1       5.796  20.802  -6.485  1.00  0.00     0.049 A 
ATOM     54  C   UNL     1       0.938  19.414  -8.898  1.00  0.00     0.074 A 
ATOM     55  C   UNL     1       6.103  22.150  -6.431  1.00  0.00     0.029 A 
ATOM     56  N   UNL     1       4.554  20.698  -7.094  1.00  0.00    -0.354 N 
ATOM     57  N   UNL     1       2.038  19.892  -8.366  1.00  0.00    -0.248 NA
ATOM     58  C   UNL     1      -0.005  20.444  -9.358  1.00  0.00     0.031 C 
ATOM     59  C   UNL     1       5.020  22.866  -6.954  1.00  0.00     0.029 A 
ATOM     60  C   UNL     1       4.067  21.960  -7.393  1.00  0.00     0.049 A 
ATOM     61  H   UNL     1       4.088  19.853  -7.285  1.00  0.00     0.167 HD
ATOM     62  C   UNL     1       1.931  21.276  -8.449  1.00  0.00     0.074 A 
ATOM     63  C   UNL     1       0.665  21.558  -9.096  1.00  0.00     0.031 C 
ATOM     64  C   UNL     1       2.803  22.228  -8.032  1.00  0.00     0.031 A 
BRANCH  51  65
ATOM     65  C   UNL     1       7.871  19.973  -5.299  1.00  0.00    -0.014 A 
ATOM     66  C   UNL     1       9.110  19.663  -5.889  1.00  0.00     0.010 A 
ATOM     67  C   UNL     1       7.852  20.594  -4.036  1.00  0.00     0.010 A 
ATOM     68  C   UNL     1      10.303  19.931  -5.212  1.00  0.00     0.020 A 
ATOM     69  C   UNL     1       9.043  20.889  -3.368  1.00  0.00     0.020 A 
ATOM     70  C   UNL     1      10.262  20.539  -3.953  1.00  0.00     0.054 A 
BRANCH  70  71
ATOM     71  S   UNL     1      11.826  20.890  -3.104  1.00  0.00     0.124 S 
ATOM     72  O   UNL     1      12.254  19.554  -2.698  1.00  0.00    -0.237 OA
ATOM     73  O   UNL     1      12.627  21.515  -4.153  1.00  0.00    -0.237 OA
ATOM     74  O   UNL     1      11.436  21.778  -2.011  1.00  0.00    -0.744 OA
ENDBRANCH  70  71
ENDBRANCH  51  65
BRANCH  52  75
ATOM     75  C   UNL     1      -0.774  17.638  -9.732  1.00  0.00    -0.014 A 
ATOM     76  C   UNL     1      -0.996  17.876 -11.099  1.00  0.00     0.010 A 
ATOM     77  C   UNL     1      -1.801  17.061  -8.963  1.00  0.00     0.010 A 
ATOM     78  C   UNL     1      -2.225  17.553 -11.683  1.00  0.00     0.020 A 
ATOM     79  C   UNL     1      -3.021  16.711  -9.548  1.00  0.00     0.020 A 
ATOM     80  C   UNL     1      -3.228  16.968 -10.904  1.00  0.00     0.054 A 
BRANCH  80  81
ATOM     81  S   UNL     1      -4.792  16.500 -11.697  1.00  0.00     0.124 S 
ATOM     82  O   UNL     1      -5.427  17.797 -11.905  1.00  0.00    -0.237 OA
ATOM     83  O   UNL     1      -4.339  15.814 -12.905  1.00  0.00    -0.237 OA
ATOM     84  O   UNL     1      -5.433  15.639 -10.705  1.00  0.00    -0.744 OA
ENDBRANCH  80  81
ENDBRANCH  52  75
BRANCH  64  85
ATOM     85  C   UNL     1       2.437  23.667  -8.288  1.00  0.00    -0.014 A 
ATOM     86  C   UNL     1       1.418  24.304  -7.559  1.00  0.00     0.010 A 
ATOM     87  C   UNL     1       3.165  24.408  -9.238  1.00  0.00     0.010 A 
ATOM     88  C   UNL     1       1.113  25.648  -7.797  1.00  0.00     0.020 A 
ATOM     89  C   UNL     1       2.882  25.758  -9.458  1.00  0.00     0.020 A 
ATOM     90  C   UNL     1       1.847  26.366  -8.746  1.00  0.00     0.054 A 
BRANCH  90  91
ATOM     91  S   UNL     1       1.459  28.119  -9.007  1.00  0.00     0.124 S 
ATOM     92  O   UNL     1       0.200  28.046  -9.741  1.00  0.00    -0.237 OA
ATOM     93  O   UNL     1       1.362  28.633  -7.642  1.00  0.00    -0.237 OA
ATOM     94  O   UNL     1       2.600  28.616  -9.773  1.00  0.00    -0.744 OA
ENDBRANCH  90  91
ENDBRANCH  64  85
ENDBRANCH  38  39
ENDBRANCH  31  33
ENDBRANCH  30  31
ENDBRANCH  29  30
ENDBRANCH  28  29
ENDBRANCH  27  28
ENDBRANCH   1  27
TORSDOF 21
