REMARK SMILES Cc1cc(/C=C2/C(=O)NC(=S)N=C2OCCOCCOC(=O)c2ccc(-c3c4nc(c(-c5ccc(S(=O)(=O)[O-])cc5)c5ccc([nH]5)c(-c5ccc(S(=O)(=O)[O-])cc5)c5nc(c(-c6ccc(S(=O)(=O)[O-])cc6)c6ccc3[nH]6)C=C5)C=C4)cc2)c(C)n1-c1cccc(C(=O)[O-])c1
REMARK SMILES IDX 18 1 17 2 16 3 15 4 14 5 13 6 5 7 6 8 7 9 8 10 9 11 12 12
REMARK SMILES IDX 10 13 11 15 4 16 1 17 2 18 3 19 85 20 83 21 84 22 86 23
REMARK SMILES IDX 87 24 94 25 88 26 90 27 89 28 91 29 92 30 93 31 19 32 20 33
REMARK SMILES IDX 21 34 22 35 23 36 24 37 82 38 25 39 81 40 26 41 27 42 28 43
REMARK SMILES IDX 75 44 29 45 80 46 74 47 76 48 30 49 79 50 73 51 72 52 31 54
REMARK SMILES IDX 61 55 42 56 60 57 43 58 46 59 59 60 77 61 44 62 45 63 58 65
REMARK SMILES IDX 78 66 47 67 32 68 33 69 41 70 34 71 40 72 35 73 36 74 37 75
REMARK SMILES IDX 38 76 39 77 62 78 63 79 71 80 64 81 70 82 65 83 66 84 67 85
REMARK SMILES IDX 68 86 69 87 48 88 49 89 57 90 50 91 56 92 51 93 52 94 53 95
REMARK SMILES IDX 54 96 55 97
REMARK H PARENT 9 14 76 53 46 64
REMARK Flexibility Score: inf
ROOT
ATOM      1  C   UNL     1      -2.852   3.757   4.054  1.00  0.00     0.202 C 
ENDROOT
BRANCH   1   2
ATOM      2  O   UNL     1      -2.062   4.656   4.856  1.00  0.00    -0.374 OA
BRANCH   2   3
ATOM      3  C   UNL     1      -0.674   4.884   4.619  1.00  0.00     0.202 C 
BRANCH   3   4
ATOM      4  C   UNL     1       0.423   4.066   5.393  1.00  0.00     0.260 C 
BRANCH   4   5
ATOM      5  O   UNL     1       0.418   2.628   5.193  1.00  0.00    -0.475 OA
BRANCH   5   6
ATOM      6  C   UNL     1      -0.131   1.838   6.131  1.00  0.00     0.229 C 
ATOM      7  C   UNL     1      -0.333  -0.222   4.506  1.00  0.00     0.029 C 
ATOM      8  C   UNL     1      -0.487   0.464   5.671  1.00  0.00     0.103 C 
ATOM      9  C   UNL     1      -1.177  -0.328   6.753  1.00  0.00     0.262 C 
ATOM     10  O   UNL     1      -1.563  -1.487   6.629  1.00  0.00    -0.269 OA
ATOM     11  N   UNL     1      -1.354   0.318   7.945  1.00  0.00    -0.297 N 
ATOM     12  N   UNL     1      -0.315   2.316   7.313  1.00  0.00    -0.184 NA
ATOM     13  C   UNL     1      -0.935   1.576   8.265  1.00  0.00     0.203 C 
ATOM     14  H   UNL     1      -1.835  -0.177   8.647  1.00  0.00     0.172 HD
ATOM     15  S   UNL     1      -1.230   2.136   9.818  1.00  0.00    -0.038 S 
BRANCH   7  16
ATOM     16  C   UNL     1       0.237   0.052   3.205  1.00  0.00    -0.003 A 
ATOM     17  C   UNL     1       1.238  -0.814  -0.314  1.00  0.00     0.065 C 
ATOM     18  C   UNL     1       0.936  -0.277   1.034  1.00  0.00     0.020 A 
ATOM     19  C   UNL     1       0.566  -0.927   2.212  1.00  0.00     0.031 A 
ATOM     20  N   UNL     1       1.033   1.059   1.343  1.00  0.00    -0.318 N 
ATOM     21  C   UNL     1       0.319   1.231   2.506  1.00  0.00     0.027 A 
ATOM     22  C   UNL     1      -0.341   2.516   2.684  1.00  0.00     0.065 C 
BRANCH  20  23
ATOM     23  C   UNL     1       1.447   2.181   0.569  1.00  0.00     0.046 A 
ATOM     24  C   UNL     1       2.281   3.128   1.194  1.00  0.00     0.026 A 
ATOM     25  C   UNL     1       0.742   2.525  -0.584  1.00  0.00     0.036 A 
ATOM     26  C   UNL     1       2.400   4.418   0.677  1.00  0.00     0.003 A 
ATOM     27  C   UNL     1       0.887   3.817  -1.117  1.00  0.00    -0.001 A 
ATOM     28  C   UNL     1       1.704   4.761  -0.478  1.00  0.00     0.010 A 
BRANCH  27  29
ATOM     29  C   UNL     1       0.161   4.235  -2.334  1.00  0.00     0.072 C 
ATOM     30  O   UNL     1       0.330   5.299  -2.923  1.00  0.00    -0.545 OA
ATOM     31  O   UNL     1      -0.698   3.289  -2.722  1.00  0.00    -0.545 OA
ENDBRANCH  27  29
ENDBRANCH  20  23
ENDBRANCH   7  16
ENDBRANCH   5   6
ENDBRANCH   4   5
ENDBRANCH   3   4
ENDBRANCH   2   3
ENDBRANCH   1   2
BRANCH   1  32
ATOM     32  C   UNL     1      -3.554   4.085   2.599  1.00  0.00     0.261 C 
BRANCH  32  33
ATOM     33  O   UNL     1      -3.045   4.064   1.137  1.00  0.00    -0.460 OA
BRANCH  33  34
ATOM     34  C   UNL     1      -2.948   5.240   0.332  1.00  0.00     0.338 C 
ATOM     35  O   UNL     1      -2.666   6.295   0.896  1.00  0.00    -0.246 OA
BRANCH  34  36
ATOM     36  C   UNL     1      -3.148   5.241  -1.324  1.00  0.00     0.060 A 
ATOM     37  C   UNL     1      -2.686   6.185  -2.326  1.00  0.00     0.016 A 
ATOM     38  C   UNL     1      -3.842   4.298  -2.005  1.00  0.00     0.016 A 
ATOM     39  C   UNL     1      -2.853   6.159  -3.973  1.00  0.00     0.010 A 
ATOM     40  C   UNL     1      -3.951   4.330  -3.535  1.00  0.00     0.010 A 
ATOM     41  C   UNL     1      -3.558   5.199  -4.754  1.00  0.00    -0.014 A 
BRANCH  41  42
ATOM     42  C   UNL     1      -3.243   4.575  -6.543  1.00  0.00     0.031 A 
ATOM     43  C   UNL     1      -1.957   3.862  -6.202  1.00  0.00     0.074 A 
ATOM     44  C   UNL     1      -3.804   4.059  -7.966  1.00  0.00     0.049 A 
ATOM     45  N   UNL     1      -2.010   3.401  -4.965  1.00  0.00    -0.248 NA
ATOM     46  C   UNL     1      -1.298   2.865  -7.026  1.00  0.00     0.031 C 
ATOM     47  C   UNL     1      -5.159   4.206  -8.687  1.00  0.00     0.029 A 
ATOM     48  N   UNL     1      -3.254   3.058  -9.138  1.00  0.00    -0.354 N 
ATOM     49  C   UNL     1      -2.713   2.266  -5.287  1.00  0.00     0.074 A 
ATOM     50  C   UNL     1      -1.713   1.805  -6.302  1.00  0.00     0.031 C 
ATOM     51  C   UNL     1      -5.379   3.461  -9.838  1.00  0.00     0.029 A 
ATOM     52  C   UNL     1      -4.260   2.599 -10.304  1.00  0.00     0.049 A 
ATOM     53  H   UNL     1      -2.322   2.742  -9.129  1.00  0.00     0.167 HD
ATOM     54  C   UNL     1      -4.123   2.094  -5.384  1.00  0.00     0.031 A 
ATOM     55  C   UNL     1      -4.216   1.563 -11.419  1.00  0.00     0.031 A 
ATOM     56  C   UNL     1      -4.358   0.877  -6.001  1.00  0.00     0.049 A 
ATOM     57  C   UNL     1      -4.928   0.545 -10.587  1.00  0.00     0.074 A 
ATOM     58  C   UNL     1      -3.700  -0.302  -6.183  1.00  0.00     0.029 A 
ATOM     59  N   UNL     1      -5.317   0.993  -6.921  1.00  0.00    -0.354 N 
ATOM     60  N   UNL     1      -6.226   0.492 -10.447  1.00  0.00    -0.248 NA
ATOM     61  C   UNL     1      -4.202  -0.698 -10.251  1.00  0.00     0.031 C 
ATOM     62  C   UNL     1      -4.335  -0.831  -7.304  1.00  0.00     0.029 A 
ATOM     63  C   UNL     1      -5.584  -0.200  -7.464  1.00  0.00     0.049 A 
ATOM     64  H   UNL     1      -5.763   1.836  -7.166  1.00  0.00     0.167 HD
ATOM     65  C   UNL     1      -6.388  -0.570  -9.588  1.00  0.00     0.074 A 
ATOM     66  C   UNL     1      -5.236  -1.435  -9.819  1.00  0.00     0.031 C 
ATOM     67  C   UNL     1      -6.731  -0.159  -8.341  1.00  0.00     0.031 A 
BRANCH  54  68
ATOM     68  C   UNL     1      -5.612   2.998  -5.119  1.00  0.00    -0.014 A 
ATOM     69  C   UNL     1      -5.965   4.288  -5.637  1.00  0.00     0.010 A 
ATOM     70  C   UNL     1      -6.550   2.564  -4.161  1.00  0.00     0.010 A 
ATOM     71  C   UNL     1      -6.875   5.203  -5.065  1.00  0.00     0.020 A 
ATOM     72  C   UNL     1      -7.507   3.466  -3.575  1.00  0.00     0.020 A 
ATOM     73  C   UNL     1      -7.573   4.813  -3.954  1.00  0.00     0.054 A 
BRANCH  73  74
ATOM     74  S   UNL     1      -8.409   6.086  -2.951  1.00  0.00     0.124 S 
ATOM     75  O   UNL     1      -7.435   6.309  -1.881  1.00  0.00    -0.237 OA
ATOM     76  O   UNL     1      -8.570   7.216  -3.864  1.00  0.00    -0.237 OA
ATOM     77  O   UNL     1      -9.643   5.431  -2.534  1.00  0.00    -0.744 OA
ENDBRANCH  73  74
ENDBRANCH  54  68
BRANCH  55  78
ATOM     78  C   UNL     1      -4.617   0.612 -12.930  1.00  0.00    -0.014 A 
ATOM     79  C   UNL     1      -4.431   0.882 -14.310  1.00  0.00     0.010 A 
ATOM     80  C   UNL     1      -4.995  -0.818 -12.887  1.00  0.00     0.010 A 
ATOM     81  C   UNL     1      -4.428  -0.179 -15.396  1.00  0.00     0.020 A 
ATOM     82  C   UNL     1      -4.907  -1.869 -13.860  1.00  0.00     0.020 A 
ATOM     83  C   UNL     1      -4.575  -1.555 -15.140  1.00  0.00     0.054 A 
BRANCH  83  84
ATOM     84  S   UNL     1      -4.256  -2.941 -16.324  1.00  0.00     0.124 S 
ATOM     85  O   UNL     1      -5.511  -3.069 -17.058  1.00  0.00    -0.237 OA
ATOM     86  O   UNL     1      -3.118  -2.458 -17.101  1.00  0.00    -0.237 OA
ATOM     87  O   UNL     1      -3.945  -4.079 -15.453  1.00  0.00    -0.744 OA
ENDBRANCH  83  84
ENDBRANCH  55  78
BRANCH  67  88
ATOM     88  C   UNL     1      -7.919   0.845  -8.315  1.00  0.00    -0.014 A 
ATOM     89  C   UNL     1      -9.115   0.454  -8.940  1.00  0.00     0.010 A 
ATOM     90  C   UNL     1      -7.920   2.170  -7.814  1.00  0.00     0.010 A 
ATOM     91  C   UNL     1     -10.203   1.335  -9.091  1.00  0.00     0.020 A 
ATOM     92  C   UNL     1      -8.987   3.068  -7.966  1.00  0.00     0.020 A 
ATOM     93  C   UNL     1     -10.128   2.643  -8.615  1.00  0.00     0.054 A 
BRANCH  93  94
ATOM     94  S   UNL     1     -11.466   3.818  -8.940  1.00  0.00     0.124 S 
ATOM     95  O   UNL     1     -11.971   3.385 -10.242  1.00  0.00    -0.237 OA
ATOM     96  O   UNL     1     -12.365   3.580  -7.815  1.00  0.00    -0.237 OA
ATOM     97  O   UNL     1     -10.789   5.113  -8.956  1.00  0.00    -0.744 OA
ENDBRANCH  93  94
ENDBRANCH  67  88
ENDBRANCH  41  42
ENDBRANCH  34  36
ENDBRANCH  33  34
ENDBRANCH  32  33
ENDBRANCH   1  32
TORSDOF 19
