REMARK SMILES Cc1noc(C)c1CNc1ccc(Cl)c(C(=O)OCCOCCOC(=O)c2ccc(-c3c4nc(c(-c5ccc(S(=O)(=O)[O-])cc5)c5ccc([nH]5)c(-c5ccc(S(=O)(=O)[O-])cc5)c5nc(c(-c6ccc(S(=O)(=O)[O-])cc6)c6ccc3[nH]6)C=C5)C=C4)cc2)n1
REMARK SMILES IDX 21 1 20 2 19 3 18 4 16 5 17 6 15 7 10 8 11 9 87 10 12 11
REMARK SMILES IDX 13 12 14 13 9 14 8 16 7 17 1 18 2 19 3 20 4 21 5 22 6 23
REMARK SMILES IDX 22 24 23 25 24 26 25 27 26 28 27 29 28 30 86 31 29 32 85 33
REMARK SMILES IDX 30 34 31 35 32 36 79 37 33 38 84 39 78 40 80 41 34 42 83 43
REMARK SMILES IDX 77 44 76 45 35 47 65 48 46 49 64 50 47 51 50 52 63 53 81 54
REMARK SMILES IDX 48 55 49 56 62 58 82 59 51 60 36 61 37 62 45 63 38 64 44 65
REMARK SMILES IDX 39 66 40 67 41 68 42 69 43 70 66 71 67 72 75 73 68 74 74 75
REMARK SMILES IDX 69 76 70 77 71 78 72 79 73 80 52 81 53 82 61 83 54 84 60 85
REMARK SMILES IDX 55 86 56 87 57 88 58 89 59 90
REMARK H PARENT 9 15 80 46 50 57
REMARK Flexibility Score: inf
ROOT
ATOM      1  O   UNL     1      -6.190   3.778  -4.939  1.00  0.00    -0.374 OA
ENDROOT
BRANCH   1   2
ATOM      2  C   UNL     1      -7.344   4.096  -4.157  1.00  0.00     0.202 C 
BRANCH   2   3
ATOM      3  C   UNL     1      -7.353   3.521  -2.739  1.00  0.00     0.261 C 
BRANCH   3   4
ATOM      4  O   UNL     1      -6.342   4.168  -1.948  1.00  0.00    -0.458 OA
BRANCH   4   5
ATOM      5  C   UNL     1      -5.516   3.341  -1.264  1.00  0.00     0.358 C 
ATOM      6  O   UNL     1      -5.647   2.135  -1.119  1.00  0.00    -0.244 OA
BRANCH   5   7
ATOM      7  C   UNL     1      -4.289   4.075  -0.859  1.00  0.00     0.169 A 
ATOM      8  C   UNL     1      -1.969   3.922  -0.797  1.00  0.00     0.127 A 
ATOM      9  C   UNL     1      -1.894   5.091  -0.055  1.00  0.00     0.048 A 
ATOM     10  N   UNL     1      -3.139   3.429  -1.219  1.00  0.00    -0.222 NA
ATOM     11  C   UNL     1      -3.071   5.777   0.260  1.00  0.00     0.027 A 
ATOM     12  C   UNL     1      -4.303   5.260  -0.137  1.00  0.00     0.074 A 
ATOM     13  Cl  UNL     1      -5.730   6.091   0.340  1.00  0.00    -0.082 Cl
BRANCH   8  14
ATOM     14  N   UNL     1      -0.866   3.160  -1.119  1.00  0.00    -0.366 N 
ATOM     15  H   UNL     1      -0.611   3.006  -2.057  1.00  0.00     0.162 HD
BRANCH  14  16
ATOM     16  C   UNL     1      -0.093   2.591  -0.025  1.00  0.00     0.156 C 
BRANCH  16  17
ATOM     17  C   UNL     1      -0.014   1.099  -0.009  1.00  0.00     0.037 A 
ATOM     18  C   UNL     1      -2.547   0.402   0.011  1.00  0.00     0.071 C 
ATOM     19  C   UNL     1      -1.084   0.155   0.017  1.00  0.00     0.086 A 
ATOM     20  N   UNL     1      -0.624  -1.102   0.035  1.00  0.00    -0.085 NA
ATOM     21  O   UNL     1       0.750  -1.004   0.020  1.00  0.00    -0.361 OA
ATOM     22  C   UNL     1       1.113   0.304  -0.007  1.00  0.00     0.138 A 
ATOM     23  C   UNL     1       2.563   0.572  -0.026  1.00  0.00     0.091 C 
ENDBRANCH  16  17
ENDBRANCH  14  16
ENDBRANCH   8  14
ENDBRANCH   5   7
ENDBRANCH   4   5
ENDBRANCH   3   4
ENDBRANCH   2   3
ENDBRANCH   1   2
BRANCH   1  24
ATOM     24  C   UNL     1      -4.990   4.498  -4.655  1.00  0.00     0.202 C 
BRANCH  24  25
ATOM     25  C   UNL     1      -4.888   5.905  -5.256  1.00  0.00     0.261 C 
BRANCH  25  26
ATOM     26  O   UNL     1      -5.872   6.809  -4.722  1.00  0.00    -0.460 OA
BRANCH  26  27
ATOM     27  C   UNL     1      -6.863   7.142  -5.584  1.00  0.00     0.338 C 
ATOM     28  O   UNL     1      -6.960   6.808  -6.759  1.00  0.00    -0.246 OA
BRANCH  27  29
ATOM     29  C   UNL     1      -7.943   7.853  -4.877  1.00  0.00     0.060 A 
ATOM     30  C   UNL     1      -9.248   7.365  -5.028  1.00  0.00     0.016 A 
ATOM     31  C   UNL     1      -7.705   9.017  -4.141  1.00  0.00     0.016 A 
ATOM     32  C   UNL     1     -10.323   8.062  -4.480  1.00  0.00     0.010 A 
ATOM     33  C   UNL     1      -8.788   9.719  -3.599  1.00  0.00     0.010 A 
ATOM     34  C   UNL     1     -10.105   9.262  -3.791  1.00  0.00    -0.014 A 
BRANCH  34  35
ATOM     35  C   UNL     1     -11.264  10.090  -3.373  1.00  0.00     0.031 A 
ATOM     36  C   UNL     1     -11.662  11.277  -4.211  1.00  0.00     0.074 A 
ATOM     37  C   UNL     1     -11.973   9.772  -2.274  1.00  0.00     0.049 A 
ATOM     38  N   UNL     1     -12.635  12.132  -4.022  1.00  0.00    -0.248 NA
ATOM     39  C   UNL     1     -10.861  11.535  -5.419  1.00  0.00     0.031 C 
ATOM     40  C   UNL     1     -11.710   8.630  -1.398  1.00  0.00     0.029 A 
ATOM     41  N   UNL     1     -13.061  10.386  -1.705  1.00  0.00    -0.354 N 
ATOM     42  C   UNL     1     -12.557  13.034  -5.077  1.00  0.00     0.074 A 
ATOM     43  C   UNL     1     -11.431  12.636  -5.893  1.00  0.00     0.031 C 
ATOM     44  C   UNL     1     -12.611   8.628  -0.400  1.00  0.00     0.029 A 
ATOM     45  C   UNL     1     -13.493   9.783  -0.547  1.00  0.00     0.049 A 
ATOM     46  H   UNL     1     -13.491  11.184  -2.090  1.00  0.00     0.167 HD
ATOM     47  C   UNL     1     -13.353  14.097  -5.343  1.00  0.00     0.031 A 
ATOM     48  C   UNL     1     -14.476  10.134   0.306  1.00  0.00     0.031 A 
ATOM     49  C   UNL     1     -14.477  14.491  -4.535  1.00  0.00     0.049 A 
ATOM     50  C   UNL     1     -15.308  11.357   0.015  1.00  0.00     0.074 A 
ATOM     51  C   UNL     1     -15.366  15.530  -4.751  1.00  0.00     0.029 A 
ATOM     52  N   UNL     1     -14.862  13.874  -3.356  1.00  0.00    -0.354 N 
ATOM     53  N   UNL     1     -15.249  12.170  -1.013  1.00  0.00    -0.248 NA
ATOM     54  C   UNL     1     -16.343  11.706   0.999  1.00  0.00     0.031 C 
ATOM     55  C   UNL     1     -16.255  15.576  -3.672  1.00  0.00     0.029 A 
ATOM     56  C   UNL     1     -15.954  14.530  -2.815  1.00  0.00     0.049 A 
ATOM     57  H   UNL     1     -14.423  13.085  -2.962  1.00  0.00     0.167 HD
ATOM     58  C   UNL     1     -16.260  13.106  -0.813  1.00  0.00     0.074 A 
ATOM     59  C   UNL     1     -16.922  12.751   0.424  1.00  0.00     0.031 C 
ATOM     60  C   UNL     1     -16.609  14.164  -1.586  1.00  0.00     0.031 A 
BRANCH  47  61
ATOM     61  C   UNL     1     -13.027  14.939  -6.548  1.00  0.00    -0.014 A 
ATOM     62  C   UNL     1     -13.303  14.487  -7.850  1.00  0.00     0.010 A 
ATOM     63  C   UNL     1     -12.516  16.237  -6.365  1.00  0.00     0.010 A 
ATOM     64  C   UNL     1     -13.059  15.314  -8.950  1.00  0.00     0.020 A 
ATOM     65  C   UNL     1     -12.291  17.075  -7.461  1.00  0.00     0.020 A 
ATOM     66  C   UNL     1     -12.557  16.604  -8.748  1.00  0.00     0.054 A 
BRANCH  66  67
ATOM     67  S   UNL     1     -12.305  17.676 -10.190  1.00  0.00     0.124 S 
ATOM     68  O   UNL     1     -11.126  17.077 -10.809  1.00  0.00    -0.237 OA
ATOM     69  O   UNL     1     -13.553  17.516 -10.931  1.00  0.00    -0.237 OA
ATOM     70  O   UNL     1     -12.096  18.999  -9.606  1.00  0.00    -0.744 OA
ENDBRANCH  66  67
ENDBRANCH  47  61
BRANCH  48  71
ATOM     71  C   UNL     1     -14.720   9.339   1.542  1.00  0.00    -0.014 A 
ATOM     72  C   UNL     1     -15.906   8.601   1.701  1.00  0.00     0.010 A 
ATOM     73  C   UNL     1     -13.780   9.355   2.588  1.00  0.00     0.010 A 
ATOM     74  C   UNL     1     -16.165   7.925   2.897  1.00  0.00     0.020 A 
ATOM     75  C   UNL     1     -14.021   8.656   3.774  1.00  0.00     0.020 A 
ATOM     76  C   UNL     1     -15.222   7.962   3.929  1.00  0.00     0.054 A 
BRANCH  76  77
ATOM     77  S   UNL     1     -15.569   7.069   5.470  1.00  0.00     0.124 S 
ATOM     78  O   UNL     1     -16.538   7.948   6.116  1.00  0.00    -0.237 OA
ATOM     79  O   UNL     1     -16.092   5.794   4.987  1.00  0.00    -0.237 OA
ATOM     80  O   UNL     1     -14.262   6.991   6.119  1.00  0.00    -0.744 OA
ENDBRANCH  76  77
ENDBRANCH  48  71
BRANCH  60  81
ATOM     81  C   UNL     1     -17.784  14.993  -1.141  1.00  0.00    -0.014 A 
ATOM     82  C   UNL     1     -17.691  15.858  -0.036  1.00  0.00     0.010 A 
ATOM     83  C   UNL     1     -18.986  14.941  -1.871  1.00  0.00     0.010 A 
ATOM     84  C   UNL     1     -18.791  16.630   0.350  1.00  0.00     0.020 A 
ATOM     85  C   UNL     1     -20.078  15.732  -1.504  1.00  0.00     0.020 A 
ATOM     86  C   UNL     1     -19.978  16.560  -0.385  1.00  0.00     0.054 A 
BRANCH  86  87
ATOM     87  S   UNL     1     -21.379  17.599   0.114  1.00  0.00     0.124 S 
ATOM     88  O   UNL     1     -21.871  16.897   1.297  1.00  0.00    -0.237 OA
ATOM     89  O   UNL     1     -20.748  18.891   0.368  1.00  0.00    -0.237 OA
ATOM     90  O   UNL     1     -22.267  17.563  -1.046  1.00  0.00    -0.744 OA
ENDBRANCH  86  87
ENDBRANCH  60  81
ENDBRANCH  34  35
ENDBRANCH  27  29
ENDBRANCH  26  27
ENDBRANCH  25  26
ENDBRANCH  24  25
ENDBRANCH   1  24
TORSDOF 20
