REMARK SMILES O=C(OCCOCCOC(=O)c1cccc(Nc2ccnc3ccc(Cl)cc23)c1)c1ccc(-c2c3nc(c(-c4ccc(S(=O)(=O)[O-])cc4)c4ccc([nH]4)c(-c4ccc(S(=O)(=O)[O-])cc4)c4nc(c(-c5ccc(S(=O)(=O)[O-])cc5)c5ccc2[nH]5)C=C4)C=C3)cc1
REMARK SMILES IDX 5 1 4 2 3 3 2 4 1 5 30 6 31 7 89 8 32 9 88 10 33 11 34 12
REMARK SMILES IDX 35 13 82 14 36 15 87 16 81 17 83 18 37 19 86 20 80 21 79 22
REMARK SMILES IDX 38 24 68 25 49 26 67 27 50 28 53 29 66 30 84 31 51 32 52 33
REMARK SMILES IDX 65 35 85 36 54 37 39 38 40 39 48 40 41 41 47 42 42 43 43 44
REMARK SMILES IDX 44 45 45 46 46 47 69 48 70 49 78 50 71 51 77 52 72 53 73 54
REMARK SMILES IDX 74 55 75 56 76 57 55 58 56 59 64 60 57 61 63 62 58 63 59 64
REMARK SMILES IDX 60 65 61 66 62 67 6 68 7 69 8 70 9 71 10 72 11 73 12 74
REMARK SMILES IDX 13 75 29 76 14 77 16 78 15 79 17 80 18 82 19 83 28 84 20 85
REMARK SMILES IDX 22 86 27 87 21 88 23 89 25 90 24 91 26 92
REMARK H PARENT 83 23 53 34 17 81
REMARK Flexibility Score: inf
ROOT
ATOM      1  C   UNL     1       4.146   1.317   1.116  1.00  0.00     0.202 C 
ENDROOT
BRANCH   1   2
ATOM      2  C   UNL     1       3.765   1.221  -0.358  1.00  0.00     0.261 C 
BRANCH   2   3
ATOM      3  O   UNL     1       2.388   0.846  -0.490  1.00  0.00    -0.460 OA
BRANCH   3   4
ATOM      4  C   UNL     1       1.913  -0.296  -1.038  1.00  0.00     0.338 C 
ATOM      5  O   UNL     1       0.714  -0.382  -1.289  1.00  0.00    -0.246 OA
BRANCH   4   6
ATOM      6  C   UNL     1       2.792  -1.463  -1.341  1.00  0.00     0.060 A 
ATOM      7  C   UNL     1       3.934  -1.794  -0.610  1.00  0.00     0.016 A 
ATOM      8  C   UNL     1       2.380  -2.334  -2.360  1.00  0.00     0.016 A 
ATOM      9  C   UNL     1       4.697  -2.907  -0.923  1.00  0.00     0.010 A 
ATOM     10  C   UNL     1       3.102  -3.500  -2.634  1.00  0.00     0.010 A 
ATOM     11  C   UNL     1       4.268  -3.784  -1.915  1.00  0.00    -0.014 A 
BRANCH  11  12
ATOM     12  C   UNL     1       5.069  -4.996  -2.164  1.00  0.00     0.031 A 
ATOM     13  C   UNL     1       5.900  -5.080  -3.405  1.00  0.00     0.074 A 
ATOM     14  C   UNL     1       5.107  -5.953  -1.216  1.00  0.00     0.049 A 
ATOM     15  N   UNL     1       6.645  -6.065  -3.827  1.00  0.00    -0.248 NA
ATOM     16  C   UNL     1       5.907  -3.897  -4.282  1.00  0.00     0.031 C 
ATOM     17  C   UNL     1       4.399  -5.897   0.070  1.00  0.00     0.029 A 
ATOM     18  N   UNL     1       5.785  -7.141  -1.165  1.00  0.00    -0.354 N 
ATOM     19  C   UNL     1       7.184  -5.635  -5.032  1.00  0.00     0.074 A 
ATOM     20  C   UNL     1       6.689  -4.299  -5.274  1.00  0.00     0.031 C 
ATOM     21  C   UNL     1       4.706  -6.987   0.790  1.00  0.00     0.029 A 
ATOM     22  C   UNL     1       5.565  -7.851  -0.008  1.00  0.00     0.049 A 
ATOM     23  H   UNL     1       6.374  -7.456  -1.889  1.00  0.00     0.167 HD
ATOM     24  C   UNL     1       8.008  -6.313  -5.863  1.00  0.00     0.031 A 
ATOM     25  C   UNL     1       5.982  -9.082   0.345  1.00  0.00     0.031 A 
ATOM     26  C   UNL     1       8.474  -7.647  -5.596  1.00  0.00     0.049 A 
ATOM     27  C   UNL     1       6.827  -9.842  -0.640  1.00  0.00     0.074 A 
ATOM     28  C   UNL     1       9.271  -8.456  -6.383  1.00  0.00     0.029 A 
ATOM     29  N   UNL     1       8.178  -8.366  -4.445  1.00  0.00    -0.354 N 
ATOM     30  N   UNL     1       7.296  -9.443  -1.800  1.00  0.00    -0.248 NA
ATOM     31  C   UNL     1       7.182 -11.221  -0.285  1.00  0.00     0.031 C 
ATOM     32  C   UNL     1       9.416  -9.685  -5.729  1.00  0.00     0.029 A 
ATOM     33  C   UNL     1       8.755  -9.620  -4.511  1.00  0.00     0.049 A 
ATOM     34  H   UNL     1       7.638  -8.031  -3.693  1.00  0.00     0.167 HD
ATOM     35  C   UNL     1       8.008 -10.520  -2.311  1.00  0.00     0.074 A 
ATOM     36  C   UNL     1       7.933 -11.575  -1.319  1.00  0.00     0.031 C 
ATOM     37  C   UNL     1       8.656 -10.637  -3.495  1.00  0.00     0.031 A 
BRANCH  24  38
ATOM     38  C   UNL     1       8.386  -5.654  -7.159  1.00  0.00    -0.014 A 
ATOM     39  C   UNL     1       9.328  -4.611  -7.208  1.00  0.00     0.010 A 
ATOM     40  C   UNL     1       7.797  -6.104  -8.355  1.00  0.00     0.010 A 
ATOM     41  C   UNL     1       9.656  -4.015  -8.430  1.00  0.00     0.020 A 
ATOM     42  C   UNL     1       8.138  -5.524  -9.580  1.00  0.00     0.020 A 
ATOM     43  C   UNL     1       9.057  -4.474  -9.608  1.00  0.00     0.054 A 
BRANCH  43  44
ATOM     44  S   UNL     1       9.522  -3.703 -11.183  1.00  0.00     0.124 S 
ATOM     45  O   UNL     1       8.860  -2.404 -11.088  1.00  0.00    -0.237 OA
ATOM     46  O   UNL     1      10.980  -3.671 -11.106  1.00  0.00    -0.237 OA
ATOM     47  O   UNL     1       8.973  -4.609 -12.189  1.00  0.00    -0.744 OA
ENDBRANCH  43  44
ENDBRANCH  24  38
BRANCH  25  48
ATOM     48  C   UNL     1       5.539  -9.697   1.628  1.00  0.00    -0.014 A 
ATOM     49  C   UNL     1       6.462 -10.028   2.635  1.00  0.00     0.010 A 
ATOM     50  C   UNL     1       4.176  -9.987   1.836  1.00  0.00     0.010 A 
ATOM     51  C   UNL     1       6.037 -10.666   3.807  1.00  0.00     0.020 A 
ATOM     52  C   UNL     1       3.743 -10.594   3.018  1.00  0.00     0.020 A 
ATOM     53  C   UNL     1       4.680 -10.951   3.987  1.00  0.00     0.054 A 
BRANCH  53  54
ATOM     54  S   UNL     1       4.144 -11.779   5.510  1.00  0.00     0.124 S 
ATOM     55  O   UNL     1       4.560 -13.156   5.268  1.00  0.00    -0.237 OA
ATOM     56  O   UNL     1       4.892 -11.064   6.542  1.00  0.00    -0.237 OA
ATOM     57  O   UNL     1       2.700 -11.554   5.530  1.00  0.00    -0.744 OA
ENDBRANCH  53  54
ENDBRANCH  25  48
BRANCH  37  58
ATOM     58  C   UNL     1       9.348 -11.943  -3.763  1.00  0.00    -0.014 A 
ATOM     59  C   UNL     1       8.613 -13.092  -4.101  1.00  0.00     0.010 A 
ATOM     60  C   UNL     1      10.752 -12.000  -3.734  1.00  0.00     0.010 A 
ATOM     61  C   UNL     1       9.274 -14.288  -4.384  1.00  0.00     0.020 A 
ATOM     62  C   UNL     1      11.417 -13.188  -4.043  1.00  0.00     0.020 A 
ATOM     63  C   UNL     1      10.672 -14.327  -4.355  1.00  0.00     0.054 A 
BRANCH  63  64
ATOM     64  S   UNL     1      11.509 -15.877  -4.782  1.00  0.00     0.124 S 
ATOM     65  O   UNL     1      11.310 -16.672  -3.574  1.00  0.00    -0.237 OA
ATOM     66  O   UNL     1      10.772 -16.326  -5.961  1.00  0.00    -0.237 OA
ATOM     67  O   UNL     1      12.888 -15.464  -5.038  1.00  0.00    -0.744 OA
ENDBRANCH  63  64
ENDBRANCH  37  58
ENDBRANCH  11  12
ENDBRANCH   4   6
ENDBRANCH   3   4
ENDBRANCH   2   3
ENDBRANCH   1   2
BRANCH   1  68
ATOM     68  O   UNL     1       3.972   0.135   1.907  1.00  0.00    -0.374 OA
BRANCH  68  69
ATOM     69  C   UNL     1       2.637  -0.102   2.377  1.00  0.00     0.202 C 
BRANCH  69  70
ATOM     70  C   UNL     1       2.658  -0.626   3.822  1.00  0.00     0.261 C 
BRANCH  70  71
ATOM     71  O   UNL     1       3.150   0.417   4.682  1.00  0.00    -0.460 OA
BRANCH  71  72
ATOM     72  C   UNL     1       4.478   0.341   4.973  1.00  0.00     0.338 C 
ATOM     73  O   UNL     1       5.208  -0.615   4.939  1.00  0.00    -0.246 OA
BRANCH  72  74
ATOM     74  C   UNL     1       4.932   1.741   4.981  1.00  0.00     0.062 A 
ATOM     75  C   UNL     1       5.577   2.161   3.815  1.00  0.00     0.016 A 
ATOM     76  C   UNL     1       4.720   2.613   6.048  1.00  0.00     0.041 A 
ATOM     77  C   UNL     1       5.732   3.511   3.570  1.00  0.00     0.003 A 
ATOM     78  C   UNL     1       5.162   3.924   5.893  1.00  0.00     0.039 A 
ATOM     79  C   UNL     1       5.439   4.401   4.593  1.00  0.00     0.026 A 
BRANCH  78  80
ATOM     80  N   UNL     1       5.668   4.659   7.008  1.00  0.00    -0.355 N 
ATOM     81  H   UNL     1       5.076   4.857   7.770  1.00  0.00     0.167 HD
BRANCH  80  82
ATOM     82  C   UNL     1       7.056   5.119   7.029  1.00  0.00     0.050 A 
ATOM     83  C   UNL     1       7.936   4.334   6.285  1.00  0.00     0.047 A 
ATOM     84  C   UNL     1       7.304   6.498   6.976  1.00  0.00     0.025 A 
ATOM     85  C   UNL     1       8.454   4.918   5.144  1.00  0.00     0.114 A 
ATOM     86  C   UNL     1       7.692   7.001   5.729  1.00  0.00     0.072 A 
ATOM     87  C   UNL     1       7.467   7.322   8.103  1.00  0.00     0.033 A 
ATOM     88  N   UNL     1       8.204   6.201   4.784  1.00  0.00    -0.256 NA
ATOM     89  C   UNL     1       7.703   8.370   5.539  1.00  0.00     0.030 A 
ATOM     90  C   UNL     1       7.806   8.661   7.917  1.00  0.00     0.041 A 
ATOM     91  C   UNL     1       7.789   9.216   6.641  1.00  0.00     0.023 A 
ATOM     92  Cl  UNL     1       8.370   9.605   9.240  1.00  0.00    -0.084 Cl
ENDBRANCH  80  82
ENDBRANCH  78  80
ENDBRANCH  72  74
ENDBRANCH  71  72
ENDBRANCH  70  71
ENDBRANCH  69  70
ENDBRANCH  68  69
ENDBRANCH   1  68
TORSDOF 19
