REMARK SMILES CCOC(=O)c1noc(C)c1C(=O)OCCOCCOC(=O)c1ccc(-c2c3nc(c(-c4ccc(S(=O)(=O)[O-])cc4)c4ccc([nH]4)c(-c4ccc(S(=O)(=O)[O-])cc4)c4nc(c(-c5ccc(S(=O)(=O)[O-])cc5)c5ccc2[nH]5)C=C4)C=C3)cc1
REMARK SMILES IDX 17 1 16 2 15 3 14 4 12 5 13 6 11 7 6 8 7 9 8 10 9 11 10 12
REMARK SMILES IDX 4 13 5 14 3 15 2 16 1 17 18 18 19 19 20 20 21 21 22 22 23 23
REMARK SMILES IDX 24 24 82 25 25 26 81 27 26 28 27 29 28 30 75 31 29 32 80 33
REMARK SMILES IDX 74 34 76 35 30 36 79 37 73 38 72 39 31 41 61 42 42 43 60 44
REMARK SMILES IDX 43 45 46 46 59 47 77 48 44 49 45 50 58 52 78 53 47 54 32 55
REMARK SMILES IDX 33 56 41 57 34 58 40 59 35 60 36 61 37 62 38 63 39 64 62 65
REMARK SMILES IDX 63 66 71 67 64 68 70 69 65 70 66 71 67 72 68 73 69 74 48 75
REMARK SMILES IDX 49 76 57 77 50 78 56 79 51 80 52 81 53 82 54 83 55 84
REMARK H PARENT 76 40 46 51
REMARK Flexibility Score: inf
ROOT
ATOM      1  O   UNL     1      -1.205   3.994  -3.493  1.00  0.00    -0.374 OA
ENDROOT
BRANCH   1   2
ATOM      2  C   UNL     1      -0.873   5.168  -4.242  1.00  0.00     0.202 C 
BRANCH   2   3
ATOM      3  C   UNL     1       0.488   5.766  -3.875  1.00  0.00     0.261 C 
BRANCH   3   4
ATOM      4  O   UNL     1       1.534   4.918  -4.384  1.00  0.00    -0.459 OA
BRANCH   4   5
ATOM      5  C   UNL     1       2.236   4.221  -3.453  1.00  0.00     0.344 C 
ATOM      6  O   UNL     1       2.203   4.434  -2.248  1.00  0.00    -0.246 OA
BRANCH   5   7
ATOM      7  C   UNL     1       2.958   3.103  -4.013  1.00  0.00     0.137 A 
ATOM      8  C   UNL     1       3.337   1.931  -3.299  1.00  0.00     0.206 A 
ATOM      9  N   UNL     1       4.022   1.084  -4.082  1.00  0.00    -0.072 NA
ATOM     10  O   UNL     1       4.039   1.667  -5.335  1.00  0.00    -0.360 OA
ATOM     11  C   UNL     1       3.381   2.860  -5.302  1.00  0.00     0.149 A 
ATOM     12  C   UNL     1       3.298   3.564  -6.598  1.00  0.00     0.092 C 
BRANCH   8  13
ATOM     13  C   UNL     1       2.959   1.585  -1.935  1.00  0.00     0.361 C 
ATOM     14  O   UNL     1       3.751   1.319  -1.040  1.00  0.00    -0.244 OA
BRANCH  13  15
ATOM     15  O   UNL     1       1.597   1.573  -1.806  1.00  0.00    -0.461 OA
BRANCH  15  16
ATOM     16  C   UNL     1       1.076   1.359  -0.489  1.00  0.00     0.230 C 
ATOM     17  C   UNL     1       1.126  -0.109  -0.105  1.00  0.00     0.049 C 
ENDBRANCH  15  16
ENDBRANCH  13  15
ENDBRANCH   8  13
ENDBRANCH   5   7
ENDBRANCH   4   5
ENDBRANCH   3   4
ENDBRANCH   2   3
ENDBRANCH   1   2
BRANCH   1  18
ATOM     18  C   UNL     1      -0.772   2.750  -4.049  1.00  0.00     0.202 C 
BRANCH  18  19
ATOM     19  C   UNL     1      -1.736   2.125  -5.062  1.00  0.00     0.261 C 
BRANCH  19  20
ATOM     20  O   UNL     1      -1.760   2.890  -6.278  1.00  0.00    -0.460 OA
BRANCH  20  21
ATOM     21  C   UNL     1      -2.884   3.623  -6.469  1.00  0.00     0.338 C 
ATOM     22  O   UNL     1      -3.897   3.606  -5.790  1.00  0.00    -0.246 OA
BRANCH  21  23
ATOM     23  C   UNL     1      -2.645   4.617  -7.534  1.00  0.00     0.060 A 
ATOM     24  C   UNL     1      -3.072   5.930  -7.294  1.00  0.00     0.016 A 
ATOM     25  C   UNL     1      -2.035   4.281  -8.746  1.00  0.00     0.016 A 
ATOM     26  C   UNL     1      -2.922   6.903  -8.279  1.00  0.00     0.010 A 
ATOM     27  C   UNL     1      -1.896   5.257  -9.737  1.00  0.00     0.010 A 
ATOM     28  C   UNL     1      -2.361   6.565  -9.517  1.00  0.00    -0.014 A 
BRANCH  28  29
ATOM     29  C   UNL     1      -2.374   7.551 -10.621  1.00  0.00     0.031 A 
ATOM     30  C   UNL     1      -3.486   7.502 -11.632  1.00  0.00     0.074 A 
ATOM     31  C   UNL     1      -1.414   8.489 -10.712  1.00  0.00     0.049 A 
ATOM     32  N   UNL     1      -3.678   8.254 -12.684  1.00  0.00    -0.248 NA
ATOM     33  C   UNL     1      -4.516   6.471 -11.427  1.00  0.00     0.031 C 
ATOM     34  C   UNL     1      -0.305   8.660  -9.773  1.00  0.00     0.029 A 
ATOM     35  N   UNL     1      -1.219   9.473 -11.647  1.00  0.00    -0.354 N 
ATOM     36  C   UNL     1      -4.848   7.787 -13.271  1.00  0.00     0.074 A 
ATOM     37  C   UNL     1      -5.310   6.674 -12.469  1.00  0.00     0.031 C 
ATOM     38  C   UNL     1       0.464   9.680 -10.190  1.00  0.00     0.029 A 
ATOM     39  C   UNL     1      -0.083  10.216 -11.435  1.00  0.00     0.049 A 
ATOM     40  H   UNL     1      -1.834   9.632 -12.400  1.00  0.00     0.167 HD
ATOM     41  C   UNL     1      -5.482   8.246 -14.375  1.00  0.00     0.031 A 
ATOM     42  C   UNL     1       0.465  11.202 -12.173  1.00  0.00     0.031 A 
ATOM     43  C   UNL     1      -5.013   9.339 -15.183  1.00  0.00     0.049 A 
ATOM     44  C   UNL     1      -0.221  11.648 -13.437  1.00  0.00     0.074 A 
ATOM     45  C   UNL     1      -5.595   9.887 -16.312  1.00  0.00     0.029 A 
ATOM     46  N   UNL     1      -3.841  10.043 -14.954  1.00  0.00    -0.354 N 
ATOM     47  N   UNL     1      -1.343  11.216 -13.961  1.00  0.00    -0.248 NA
ATOM     48  C   UNL     1       0.434  12.715 -14.206  1.00  0.00     0.031 C 
ATOM     49  C   UNL     1      -4.750  10.893 -16.794  1.00  0.00     0.029 A 
ATOM     50  C   UNL     1      -3.666  11.002 -15.936  1.00  0.00     0.049 A 
ATOM     51  H   UNL     1      -3.224   9.884 -14.203  1.00  0.00     0.167 HD
ATOM     52  C   UNL     1      -1.538  11.972 -15.112  1.00  0.00     0.074 A 
ATOM     53  C   UNL     1      -0.426  12.896 -15.200  1.00  0.00     0.031 C 
ATOM     54  C   UNL     1      -2.549  11.908 -16.014  1.00  0.00     0.031 A 
BRANCH  41  55
ATOM     55  C   UNL     1      -6.741   7.537 -14.791  1.00  0.00    -0.014 A 
ATOM     56  C   UNL     1      -7.943   7.716 -14.084  1.00  0.00     0.010 A 
ATOM     57  C   UNL     1      -6.727   6.699 -15.921  1.00  0.00     0.010 A 
ATOM     58  C   UNL     1      -9.101   7.042 -14.478  1.00  0.00     0.020 A 
ATOM     59  C   UNL     1      -7.889   6.039 -16.331  1.00  0.00     0.020 A 
ATOM     60  C   UNL     1      -9.065   6.202 -15.596  1.00  0.00     0.054 A 
BRANCH  60  61
ATOM     61  S   UNL     1     -10.585   5.348 -16.096  1.00  0.00     0.124 S 
ATOM     62  O   UNL     1     -10.676   4.288 -15.095  1.00  0.00    -0.237 OA
ATOM     63  O   UNL     1     -11.595   6.398 -15.991  1.00  0.00    -0.237 OA
ATOM     64  O   UNL     1     -10.298   4.898 -17.456  1.00  0.00    -0.744 OA
ENDBRANCH  60  61
ENDBRANCH  41  55
BRANCH  42  65
ATOM     65  C   UNL     1       1.751  11.816 -11.749  1.00  0.00    -0.014 A 
ATOM     66  C   UNL     1       1.788  13.124 -11.237  1.00  0.00     0.010 A 
ATOM     67  C   UNL     1       2.949  11.086 -11.853  1.00  0.00     0.010 A 
ATOM     68  C   UNL     1       3.002  13.696 -10.846  1.00  0.00     0.020 A 
ATOM     69  C   UNL     1       4.161  11.645 -11.443  1.00  0.00     0.020 A 
ATOM     70  C   UNL     1       4.181  12.951 -10.950  1.00  0.00     0.054 A 
BRANCH  70  71
ATOM     71  S   UNL     1       5.740  13.686 -10.381  1.00  0.00     0.124 S 
ATOM     72  O   UNL     1       6.075  14.579 -11.485  1.00  0.00    -0.237 OA
ATOM     73  O   UNL     1       5.346  14.338  -9.134  1.00  0.00    -0.237 OA
ATOM     74  O   UNL     1       6.619  12.530 -10.218  1.00  0.00    -0.744 OA
ENDBRANCH  70  71
ENDBRANCH  42  65
BRANCH  54  75
ATOM     75  C   UNL     1      -2.510  12.875 -17.165  1.00  0.00    -0.014 A 
ATOM     76  C   UNL     1      -1.623  12.688 -18.239  1.00  0.00     0.010 A 
ATOM     77  C   UNL     1      -3.413  13.954 -17.198  1.00  0.00     0.010 A 
ATOM     78  C   UNL     1      -1.621  13.578 -19.316  1.00  0.00     0.020 A 
ATOM     79  C   UNL     1      -3.429  14.833 -18.284  1.00  0.00     0.020 A 
ATOM     80  C   UNL     1      -2.523  14.647 -19.330  1.00  0.00     0.054 A 
BRANCH  80  81
ATOM     81  S   UNL     1      -2.536  15.764 -20.760  1.00  0.00     0.124 S 
ATOM     82  O   UNL     1      -1.363  16.596 -20.504  1.00  0.00    -0.237 OA
ATOM     83  O   UNL     1      -2.420  14.846 -21.890  1.00  0.00    -0.237 OA
ATOM     84  O   UNL     1      -3.822  16.449 -20.651  1.00  0.00    -0.744 OA
ENDBRANCH  80  81
ENDBRANCH  54  75
ENDBRANCH  28  29
ENDBRANCH  21  23
ENDBRANCH  20  21
ENDBRANCH  19  20
ENDBRANCH  18  19
ENDBRANCH   1  18
TORSDOF 20
