REMARK SMILES CC1=C2C(=O)CC(C)(C)CC2=N[C@@H]1C(=O)OCCOCCOC(=O)c1ccc(-c2c3nc(c(-c4ccc(S(=O)(=O)[O-])cc4)c4ccc([nH]4)c(-c4ccc(S(=O)(=O)[O-])cc4)c4nc(c(-c5ccc(S(=O)(=O)[O-])cc5)c5ccc2[nH]5)C=C4)C=C3)cc1
REMARK SMILES IDX 20 1 19 2 18 3 17 4 16 5 14 6 15 7 13 8 1 9 2 10 3 11 4 12
REMARK SMILES IDX 11 13 12 14 5 15 6 16 10 17 7 18 8 19 9 20 21 21 22 22 23 23
REMARK SMILES IDX 24 24 25 25 26 26 84 27 27 28 83 29 28 30 29 31 30 32 77 33
REMARK SMILES IDX 31 34 82 35 76 36 78 37 32 38 81 39 75 40 74 41 33 43 63 44
REMARK SMILES IDX 44 45 62 46 45 47 48 48 61 49 79 50 46 51 47 52 60 54 80 55
REMARK SMILES IDX 49 56 34 57 35 58 43 59 36 60 42 61 37 62 38 63 39 64 40 65
REMARK SMILES IDX 41 66 64 67 65 68 73 69 66 70 72 71 67 72 68 73 69 74 70 75
REMARK SMILES IDX 71 76 50 77 51 78 59 79 52 80 58 81 53 82 54 83 55 84 56 85
REMARK SMILES IDX 57 86
REMARK H PARENT 78 42 48 53
REMARK Flexibility Score: inf
ROOT
ATOM      1  C   UNL     1       3.736   1.292  -0.363  1.00  0.00     0.202 C 
ENDROOT
BRANCH   1   2
ATOM      2  O   UNL     1       4.599   2.030  -1.215  1.00  0.00    -0.374 OA
BRANCH   2   3
ATOM      3  C   UNL     1       4.254   3.330  -1.677  1.00  0.00     0.202 C 
BRANCH   3   4
ATOM      4  C   UNL     1       3.022   3.562  -2.564  1.00  0.00     0.261 C 
BRANCH   4   5
ATOM      5  O   UNL     1       1.773   3.006  -2.112  1.00  0.00    -0.461 OA
BRANCH   5   6
ATOM      6  C   UNL     1       1.560   1.775  -2.647  1.00  0.00     0.335 C 
ATOM      7  O   UNL     1       2.455   1.127  -3.193  1.00  0.00    -0.249 OA
BRANCH   6   8
ATOM      8  C   UNL     1       0.084   1.263  -2.558  1.00  0.00     0.242 C 
ATOM      9  C   UNL     1      -0.360   0.697   0.025  1.00  0.00     0.043 C 
ATOM     10  C   UNL     1      -0.347   0.344  -1.418  1.00  0.00    -0.025 C 
ATOM     11  C   UNL     1      -0.598  -0.887  -1.877  1.00  0.00     0.040 C 
ATOM     12  C   UNL     1      -0.943  -2.205  -1.328  1.00  0.00     0.165 C 
ATOM     13  C   UNL     1       0.160  -0.801  -3.100  1.00  0.00     0.048 C 
ATOM     14  N   UNL     1       0.073   0.320  -3.754  1.00  0.00    -0.269 NA
ATOM     15  O   UNL     1      -2.049  -2.420  -0.843  1.00  0.00    -0.294 OA
ATOM     16  C   UNL     1       0.093  -3.302  -1.528  1.00  0.00     0.088 C 
ATOM     17  C   UNL     1       1.204  -1.859  -3.331  1.00  0.00     0.063 C 
ATOM     18  C   UNL     1       1.443  -2.753  -2.059  1.00  0.00    -0.023 C 
ATOM     19  C   UNL     1       2.161  -2.047  -0.876  1.00  0.00     0.012 C 
ATOM     20  C   UNL     1       2.379  -3.897  -2.485  1.00  0.00     0.012 C 
ENDBRANCH   6   8
ENDBRANCH   5   6
ENDBRANCH   4   5
ENDBRANCH   3   4
ENDBRANCH   2   3
ENDBRANCH   1   2
BRANCH   1  21
ATOM     21  C   UNL     1       3.329   1.858   0.982  1.00  0.00     0.261 C 
BRANCH  21  22
ATOM     22  O   UNL     1       2.825   3.173   0.878  1.00  0.00    -0.460 OA
BRANCH  22  23
ATOM     23  C   UNL     1       3.708   4.093   1.334  1.00  0.00     0.338 C 
ATOM     24  O   UNL     1       4.915   3.978   1.412  1.00  0.00    -0.246 OA
BRANCH  23  25
ATOM     25  C   UNL     1       2.941   5.173   1.952  1.00  0.00     0.060 A 
ATOM     26  C   UNL     1       3.692   6.061   2.718  1.00  0.00     0.016 A 
ATOM     27  C   UNL     1       1.548   5.050   2.074  1.00  0.00     0.016 A 
ATOM     28  C   UNL     1       3.075   6.654   3.788  1.00  0.00     0.010 A 
ATOM     29  C   UNL     1       0.939   5.624   3.157  1.00  0.00     0.010 A 
ATOM     30  C   UNL     1       1.731   6.349   4.040  1.00  0.00    -0.014 A 
BRANCH  30  31
ATOM     31  C   UNL     1       1.109   6.998   5.166  1.00  0.00     0.031 A 
ATOM     32  C   UNL     1       0.899   8.434   4.882  1.00  0.00     0.074 A 
ATOM     33  C   UNL     1       0.698   6.341   6.263  1.00  0.00     0.049 A 
ATOM     34  N   UNL     1       1.587   9.425   5.339  1.00  0.00    -0.248 NA
ATOM     35  C   UNL     1       0.013   8.780   3.754  1.00  0.00     0.031 C 
ATOM     36  C   UNL     1       0.613   4.898   6.496  1.00  0.00     0.029 A 
ATOM     37  N   UNL     1       0.157   6.858   7.391  1.00  0.00    -0.354 N 
ATOM     38  C   UNL     1       1.027  10.548   4.747  1.00  0.00     0.074 A 
ATOM     39  C   UNL     1       0.279  10.078   3.611  1.00  0.00     0.031 C 
ATOM     40  C   UNL     1      -0.182   4.671   7.570  1.00  0.00     0.029 A 
ATOM     41  C   UNL     1      -0.542   5.947   8.171  1.00  0.00     0.049 A 
ATOM     42  H   UNL     1       0.251   7.806   7.639  1.00  0.00     0.167 HD
ATOM     43  C   UNL     1       0.925  11.717   5.434  1.00  0.00     0.031 A 
ATOM     44  C   UNL     1      -1.413   6.258   9.169  1.00  0.00     0.031 A 
ATOM     45  C   UNL     1       1.824  11.749   6.561  1.00  0.00     0.049 A 
ATOM     46  C   UNL     1      -1.125   7.664   9.568  1.00  0.00     0.074 A 
ATOM     47  C   UNL     1       3.191  11.605   6.706  1.00  0.00     0.029 A 
ATOM     48  N   UNL     1       1.284  11.507   7.804  1.00  0.00    -0.354 N 
ATOM     49  N   UNL     1      -0.011   8.031  10.137  1.00  0.00    -0.248 NA
ATOM     50  C   UNL     1      -1.855   8.723   8.885  1.00  0.00     0.031 C 
ATOM     51  C   UNL     1       3.356  10.820   7.884  1.00  0.00     0.029 A 
ATOM     52  C   UNL     1       2.096  10.604   8.444  1.00  0.00     0.049 A 
ATOM     53  H   UNL     1       0.462  11.909   8.168  1.00  0.00     0.167 HD
ATOM     54  C   UNL     1       0.322   9.233   9.527  1.00  0.00     0.074 A 
ATOM     55  C   UNL     1      -0.890   9.646   8.817  1.00  0.00     0.031 C 
ATOM     56  C   UNL     1       1.623   9.635   9.412  1.00  0.00     0.031 A 
BRANCH  43  57
ATOM     57  C   UNL     1      -0.306  12.584   5.340  1.00  0.00    -0.014 A 
ATOM     58  C   UNL     1      -0.338  13.800   6.044  1.00  0.00     0.010 A 
ATOM     59  C   UNL     1      -1.531  12.126   4.803  1.00  0.00     0.010 A 
ATOM     60  C   UNL     1      -1.542  14.491   6.239  1.00  0.00     0.020 A 
ATOM     61  C   UNL     1      -2.724  12.826   4.949  1.00  0.00     0.020 A 
ATOM     62  C   UNL     1      -2.727  13.994   5.692  1.00  0.00     0.054 A 
BRANCH  62  63
ATOM     63  S   UNL     1      -4.284  14.855   6.002  1.00  0.00     0.124 S 
ATOM     64  O   UNL     1      -4.444  14.676   7.441  1.00  0.00    -0.237 OA
ATOM     65  O   UNL     1      -3.975  16.211   5.559  1.00  0.00    -0.237 OA
ATOM     66  O   UNL     1      -5.244  14.136   5.167  1.00  0.00    -0.744 OA
ENDBRANCH  62  63
ENDBRANCH  43  57
BRANCH  44  67
ATOM     67  C   UNL     1      -2.702   5.594   9.508  1.00  0.00    -0.014 A 
ATOM     68  C   UNL     1      -3.428   5.980  10.653  1.00  0.00     0.010 A 
ATOM     69  C   UNL     1      -3.372   4.808   8.549  1.00  0.00     0.010 A 
ATOM     70  C   UNL     1      -4.793   5.667  10.790  1.00  0.00     0.020 A 
ATOM     71  C   UNL     1      -4.729   4.484   8.683  1.00  0.00     0.020 A 
ATOM     72  C   UNL     1      -5.442   4.943   9.788  1.00  0.00     0.054 A 
BRANCH  72  73
ATOM     73  S   UNL     1      -7.247   4.728   9.862  1.00  0.00     0.124 S 
ATOM     74  O   UNL     1      -7.404   3.786  10.966  1.00  0.00    -0.237 OA
ATOM     75  O   UNL     1      -7.720   6.085  10.117  1.00  0.00    -0.237 OA
ATOM     76  O   UNL     1      -7.584   4.197   8.541  1.00  0.00    -0.744 OA
ENDBRANCH  72  73
ENDBRANCH  44  67
BRANCH  56  77
ATOM     77  C   UNL     1       2.683   8.893  10.199  1.00  0.00    -0.014 A 
ATOM     78  C   UNL     1       2.959   7.516  10.072  1.00  0.00     0.010 A 
ATOM     79  C   UNL     1       3.527   9.668  11.013  1.00  0.00     0.010 A 
ATOM     80  C   UNL     1       4.027   6.930  10.774  1.00  0.00     0.020 A 
ATOM     81  C   UNL     1       4.601   9.096  11.698  1.00  0.00     0.020 A 
ATOM     82  C   UNL     1       4.838   7.727  11.588  1.00  0.00     0.054 A 
BRANCH  82  83
ATOM     83  S   UNL     1       6.222   6.976  12.492  1.00  0.00     0.124 S 
ATOM     84  O   UNL     1       5.542   6.116  13.457  1.00  0.00    -0.237 OA
ATOM     85  O   UNL     1       6.959   6.281  11.439  1.00  0.00    -0.237 OA
ATOM     86  O   UNL     1       6.921   8.121  13.073  1.00  0.00    -0.744 OA
ENDBRANCH  82  83
ENDBRANCH  56  77
ENDBRANCH  30  31
ENDBRANCH  23  25
ENDBRANCH  22  23
ENDBRANCH  21  22
ENDBRANCH   1  21
TORSDOF 17
