REMARK SMILES CC(C)(C(=O)OCCOCCOC(=O)c1ccc(-c2c3nc(c(-c4ccc(S(=O)(=O)[O-])cc4)c4ccc([nH]4)c(-c4ccc(S(=O)(=O)[O-])cc4)c4nc(c(-c5ccc(S(=O)(=O)[O-])cc5)c5ccc2[nH]5)C=C4)C=C3)cc1)c1ccc(C(=O)CCCCl)cc1
REMARK SMILES IDX 8 1 7 2 6 3 4 4 5 5 2 6 1 7 3 8 75 9 76 10 86 11 77 12 85 13
REMARK SMILES IDX 78 14 79 15 80 16 81 17 82 18 83 19 84 20 9 21 10 22 11 23
REMARK SMILES IDX 12 24 13 25 14 26 15 27 16 28 74 29 17 30 73 31 18 32 19 33
REMARK SMILES IDX 20 34 67 35 21 36 72 37 66 38 68 39 22 40 71 41 65 42 64 43
REMARK SMILES IDX 23 45 53 46 34 47 52 48 35 49 38 50 51 51 69 52 36 53 37 54
REMARK SMILES IDX 50 56 70 57 39 58 24 59 25 60 33 61 26 62 32 63 27 64 28 65
REMARK SMILES IDX 29 66 30 67 31 68 54 69 55 70 63 71 56 72 62 73 57 74 58 75
REMARK SMILES IDX 59 76 60 77 61 78 40 79 41 80 49 81 42 82 48 83 43 84 44 85
REMARK SMILES IDX 45 86 46 87 47 88
REMARK H PARENT 68 44 38 55
REMARK Flexibility Score: inf
ROOT
ATOM      1  C   UNL     1      -3.964  -0.173   0.750  1.00  0.00     0.202 C 
ENDROOT
BRANCH   1   2
ATOM      2  C   UNL     1      -3.146   0.332   1.939  1.00  0.00     0.261 C 
BRANCH   2   3
ATOM      3  O   UNL     1      -1.751   0.426   1.599  1.00  0.00    -0.463 OA
BRANCH   3   4
ATOM      4  C   UNL     1      -0.906  -0.233   2.435  1.00  0.00     0.316 C 
ATOM      5  O   UNL     1      -1.251  -0.745   3.496  1.00  0.00    -0.251 OA
BRANCH   4   6
ATOM      6  C   UNL     1       0.550  -0.273   1.917  1.00  0.00     0.087 C 
ATOM      7  C   UNL     1       0.725   0.218   0.460  1.00  0.00     0.028 C 
ATOM      8  C   UNL     1       1.321   0.745   2.789  1.00  0.00     0.028 C 
BRANCH   6   9
ATOM      9  C   UNL     1       1.057  -1.726   2.092  1.00  0.00    -0.031 A 
ATOM     10  C   UNL     1       0.906  -2.696   1.082  1.00  0.00     0.005 A 
ATOM     11  C   UNL     1       1.555  -2.163   3.332  1.00  0.00     0.005 A 
ATOM     12  C   UNL     1       1.273  -4.030   1.292  1.00  0.00     0.012 A 
ATOM     13  C   UNL     1       1.915  -3.495   3.550  1.00  0.00     0.012 A 
ATOM     14  C   UNL     1       1.807  -4.425   2.519  1.00  0.00     0.018 A 
BRANCH  14  15
ATOM     15  C   UNL     1       2.307  -5.818   2.660  1.00  0.00     0.162 C 
ATOM     16  O   UNL     1       1.819  -6.711   1.970  1.00  0.00    -0.294 OA
BRANCH  15  17
ATOM     17  C   UNL     1       3.490  -6.088   3.572  1.00  0.00     0.082 C 
BRANCH  17  18
ATOM     18  C   UNL     1       4.824  -5.723   2.913  1.00  0.00     0.024 C 
BRANCH  18  19
ATOM     19  C   UNL     1       5.192  -4.240   2.905  1.00  0.00     0.110 C 
ATOM     20  Cl  UNL     1       5.376  -3.590   4.550  1.00  0.00    -0.127 Cl
ENDBRANCH  18  19
ENDBRANCH  17  18
ENDBRANCH  15  17
ENDBRANCH  14  15
ENDBRANCH   6   9
ENDBRANCH   4   6
ENDBRANCH   3   4
ENDBRANCH   2   3
ENDBRANCH   1   2
BRANCH   1  21
ATOM     21  O   UNL     1      -3.727  -1.518   0.328  1.00  0.00    -0.374 OA
BRANCH  21  22
ATOM     22  C   UNL     1      -2.501  -1.788  -0.346  1.00  0.00     0.202 C 
BRANCH  22  23
ATOM     23  C   UNL     1      -2.396  -1.354  -1.815  1.00  0.00     0.261 C 
BRANCH  23  24
ATOM     24  O   UNL     1      -2.568   0.062  -1.994  1.00  0.00    -0.460 OA
BRANCH  24  25
ATOM     25  C   UNL     1      -3.728   0.412  -2.600  1.00  0.00     0.338 C 
ATOM     26  O   UNL     1      -4.562  -0.342  -3.088  1.00  0.00    -0.246 OA
BRANCH  25  27
ATOM     27  C   UNL     1      -3.979   1.854  -2.428  1.00  0.00     0.060 A 
ATOM     28  C   UNL     1      -5.190   2.226  -1.828  1.00  0.00     0.016 A 
ATOM     29  C   UNL     1      -3.090   2.824  -2.894  1.00  0.00     0.016 A 
ATOM     30  C   UNL     1      -5.536   3.571  -1.730  1.00  0.00     0.010 A 
ATOM     31  C   UNL     1      -3.447   4.174  -2.809  1.00  0.00     0.010 A 
ATOM     32  C   UNL     1      -4.686   4.551  -2.258  1.00  0.00    -0.014 A 
BRANCH  32  33
ATOM     33  C   UNL     1      -5.172   5.947  -2.361  1.00  0.00     0.031 A 
ATOM     34  C   UNL     1      -5.740   6.425  -3.670  1.00  0.00     0.074 A 
ATOM     35  C   UNL     1      -5.156   6.761  -1.290  1.00  0.00     0.049 A 
ATOM     36  N   UNL     1      -6.224   7.598  -3.982  1.00  0.00    -0.248 NA
ATOM     37  C   UNL     1      -5.769   5.448  -4.773  1.00  0.00     0.031 C 
ATOM     38  C   UNL     1      -4.676   6.397   0.043  1.00  0.00     0.029 A 
ATOM     39  N   UNL     1      -5.559   8.067  -1.157  1.00  0.00    -0.354 N 
ATOM     40  C   UNL     1      -6.611   7.506  -5.314  1.00  0.00     0.074 A 
ATOM     41  C   UNL     1      -6.282   6.169  -5.760  1.00  0.00     0.031 C 
ATOM     42  C   UNL     1      -4.807   7.458   0.859  1.00  0.00     0.029 A 
ATOM     43  C   UNL     1      -5.350   8.583   0.100  1.00  0.00     0.049 A 
ATOM     44  H   UNL     1      -5.959   8.584  -1.892  1.00  0.00     0.167 HD
ATOM     45  C   UNL     1      -7.191   8.447  -6.095  1.00  0.00     0.031 A 
ATOM     46  C   UNL     1      -5.555   9.826   0.577  1.00  0.00     0.031 A 
ATOM     47  C   UNL     1      -7.509   9.778  -5.651  1.00  0.00     0.049 A 
ATOM     48  C   UNL     1      -6.136  10.878  -0.333  1.00  0.00     0.074 A 
ATOM     49  C   UNL     1      -8.111  10.801  -6.364  1.00  0.00     0.029 A 
ATOM     50  N   UNL     1      -7.244  10.275  -4.384  1.00  0.00    -0.354 N 
ATOM     51  N   UNL     1      -6.518  10.766  -1.583  1.00  0.00    -0.248 NA
ATOM     52  C   UNL     1      -6.320  12.221   0.235  1.00  0.00     0.031 C 
ATOM     53  C   UNL     1      -8.159  11.933  -5.544  1.00  0.00     0.029 A 
ATOM     54  C   UNL     1      -7.644  11.597  -4.302  1.00  0.00     0.049 A 
ATOM     55  H   UNL     1      -6.833   9.762  -3.651  1.00  0.00     0.167 HD
ATOM     56  C   UNL     1      -7.012  12.016  -1.942  1.00  0.00     0.074 A 
ATOM     57  C   UNL     1      -6.894  12.864  -0.773  1.00  0.00     0.031 C 
ATOM     58  C   UNL     1      -7.519  12.426  -3.131  1.00  0.00     0.031 A 
BRANCH  45  59
ATOM     59  C   UNL     1      -7.493   8.083  -7.524  1.00  0.00    -0.014 A 
ATOM     60  C   UNL     1      -8.548   7.210  -7.848  1.00  0.00     0.010 A 
ATOM     61  C   UNL     1      -6.744   8.667  -8.562  1.00  0.00     0.010 A 
ATOM     62  C   UNL     1      -8.831   6.909  -9.183  1.00  0.00     0.020 A 
ATOM     63  C   UNL     1      -7.039   8.387  -9.899  1.00  0.00     0.020 A 
ATOM     64  C   UNL     1      -8.074   7.500 -10.200  1.00  0.00     0.054 A 
BRANCH  64  65
ATOM     65  S   UNL     1      -8.489   7.122 -11.925  1.00  0.00     0.124 S 
ATOM     66  O   UNL     1      -8.009   5.748 -12.056  1.00  0.00    -0.237 OA
ATOM     67  O   UNL     1      -9.940   7.285 -11.950  1.00  0.00    -0.237 OA
ATOM     68  O   UNL     1      -7.739   8.117 -12.688  1.00  0.00    -0.744 OA
ENDBRANCH  64  65
ENDBRANCH  45  59
BRANCH  46  69
ATOM     69  C   UNL     1      -5.182  10.159   1.980  1.00  0.00    -0.014 A 
ATOM     70  C   UNL     1      -6.166  10.448   2.941  1.00  0.00     0.010 A 
ATOM     71  C   UNL     1      -3.826  10.202   2.356  1.00  0.00     0.010 A 
ATOM     72  C   UNL     1      -5.800  10.796   4.246  1.00  0.00     0.020 A 
ATOM     73  C   UNL     1      -3.458  10.521   3.665  1.00  0.00     0.020 A 
ATOM     74  C   UNL     1      -4.448  10.831   4.599  1.00  0.00     0.054 A 
BRANCH  74  75
ATOM     75  S   UNL     1      -3.996  11.247   6.306  1.00  0.00     0.124 S 
ATOM     76  O   UNL     1      -4.222  12.688   6.337  1.00  0.00    -0.237 OA
ATOM     77  O   UNL     1      -4.932  10.441   7.086  1.00  0.00    -0.237 OA
ATOM     78  O   UNL     1      -2.599  10.829   6.400  1.00  0.00    -0.744 OA
ENDBRANCH  74  75
ENDBRANCH  46  69
BRANCH  58  79
ATOM     79  C   UNL     1      -8.019  13.844  -3.221  1.00  0.00    -0.014 A 
ATOM     80  C   UNL     1      -7.127  14.931  -3.255  1.00  0.00     0.010 A 
ATOM     81  C   UNL     1      -9.400  14.086  -3.332  1.00  0.00     0.010 A 
ATOM     82  C   UNL     1      -7.611  16.237  -3.365  1.00  0.00     0.020 A 
ATOM     83  C   UNL     1      -9.886  15.389  -3.470  1.00  0.00     0.020 A 
ATOM     84  C   UNL     1      -8.988  16.458  -3.471  1.00  0.00     0.054 A 
BRANCH  84  85
ATOM     85  S   UNL     1      -9.589  18.160  -3.655  1.00  0.00     0.124 S 
ATOM     86  O   UNL     1      -9.421  18.688  -2.304  1.00  0.00    -0.237 OA
ATOM     87  O   UNL     1      -8.687  18.712  -4.663  1.00  0.00    -0.237 OA
ATOM     88  O   UNL     1     -10.974  17.993  -4.090  1.00  0.00    -0.744 OA
ENDBRANCH  84  85
ENDBRANCH  58  79
ENDBRANCH  32  33
ENDBRANCH  25  27
ENDBRANCH  24  25
ENDBRANCH  23  24
ENDBRANCH  22  23
ENDBRANCH  21  22
ENDBRANCH   1  21
TORSDOF 22
