REMARK SMILES COc1ccc(Nc2cc(C(=O)OCCOCCOC(=O)c3ccc(-c4c5nc(c(-c6ccc(S(=O)(=O)[O-])cc6)c6ccc([nH]6)c(-c6ccc(S(=O)(=O)[O-])cc6)c6nc(c(-c7ccc(S(=O)(=O)[O-])cc7)c7ccc4[nH]7)C=C6)C=C5)cc3)ccn2)cc1
REMARK SMILES IDX 16 1 15 2 14 3 13 4 11 5 12 6 10 7 8 8 9 9 84 10 83 11 82 12
REMARK SMILES IDX 7 13 6 15 3 16 4 17 86 18 5 19 85 20 2 21 1 22 17 23 18 24
REMARK SMILES IDX 19 25 20 26 21 27 22 28 23 29 81 30 24 31 80 32 25 33 26 34
REMARK SMILES IDX 27 35 74 36 28 37 79 38 73 39 75 40 29 41 78 42 72 43 71 44
REMARK SMILES IDX 30 46 60 47 41 48 59 49 42 50 45 51 58 52 76 53 43 54 44 55
REMARK SMILES IDX 57 57 77 58 46 59 31 60 32 61 40 62 33 63 39 64 34 65 35 66
REMARK SMILES IDX 36 67 37 68 38 69 61 70 62 71 70 72 63 73 69 74 64 75 65 76
REMARK SMILES IDX 66 77 67 78 68 79 47 80 48 81 56 82 49 83 55 84 50 85 51 86
REMARK SMILES IDX 52 87 53 88 54 89
REMARK H PARENT 7 14 75 45 45 56
REMARK Flexibility Score: inf
ROOT
ATOM      1  O   UNL     1      -3.765  -8.140   6.457  1.00  0.00    -0.374 OA
ENDROOT
BRANCH   1   2
ATOM      2  C   UNL     1      -4.128  -7.527   5.218  1.00  0.00     0.202 C 
BRANCH   2   3
ATOM      3  C   UNL     1      -4.180  -5.995   5.223  1.00  0.00     0.261 C 
BRANCH   3   4
ATOM      4  O   UNL     1      -2.868  -5.440   5.415  1.00  0.00    -0.460 OA
BRANCH   4   5
ATOM      5  C   UNL     1      -2.640  -4.867   6.617  1.00  0.00     0.338 C 
ATOM      6  O   UNL     1      -3.460  -4.647   7.501  1.00  0.00    -0.246 OA
BRANCH   5   7
ATOM      7  C   UNL     1      -1.188  -4.674   6.813  1.00  0.00     0.065 A 
ATOM      8  C   UNL     1       1.001  -4.139   6.013  1.00  0.00     0.131 A 
ATOM      9  C   UNL     1      -0.334  -4.418   5.747  1.00  0.00     0.062 A 
ATOM     10  N   UNL     1       1.524  -4.274   7.250  1.00  0.00    -0.239 NA
ATOM     11  C   UNL     1       0.680  -4.565   8.265  1.00  0.00     0.114 A 
ATOM     12  C   UNL     1      -0.678  -4.741   8.105  1.00  0.00     0.036 A 
BRANCH   8  13
ATOM     13  N   UNL     1       1.844  -3.616   5.027  1.00  0.00    -0.340 N 
ATOM     14  H   UNL     1       2.765  -3.965   5.026  1.00  0.00     0.168 HD
BRANCH  13  15
ATOM     15  C   UNL     1       1.557  -2.658   4.034  1.00  0.00     0.040 A 
ATOM     16  C   UNL     1       0.989  -0.814   1.972  1.00  0.00     0.119 A 
ATOM     17  C   UNL     1       0.082  -1.013   3.004  1.00  0.00     0.048 A 
ATOM     18  C   UNL     1       2.192  -1.519   1.972  1.00  0.00     0.048 A 
ATOM     19  C   UNL     1       0.364  -1.922   4.021  1.00  0.00     0.030 A 
ATOM     20  C   UNL     1       2.469  -2.441   2.994  1.00  0.00     0.030 A 
BRANCH  16  21
ATOM     21  O   UNL     1       0.614   0.127   1.057  1.00  0.00    -0.497 OA
ATOM     22  C   UNL     1       1.125  -0.053  -0.258  1.00  0.00     0.278 C 
ENDBRANCH  16  21
ENDBRANCH  13  15
ENDBRANCH   8  13
ENDBRANCH   5   7
ENDBRANCH   4   5
ENDBRANCH   3   4
ENDBRANCH   2   3
ENDBRANCH   1   2
BRANCH   1  23
ATOM     23  C   UNL     1      -2.371  -8.213   6.757  1.00  0.00     0.202 C 
BRANCH  23  24
ATOM     24  C   UNL     1      -1.591  -9.363   6.111  1.00  0.00     0.261 C 
BRANCH  24  25
ATOM     25  O   UNL     1      -1.518  -9.226   4.682  1.00  0.00    -0.460 OA
BRANCH  25  26
ATOM     26  C   UNL     1      -2.297 -10.092   3.993  1.00  0.00     0.338 C 
ATOM     27  O   UNL     1      -2.977 -10.998   4.454  1.00  0.00    -0.246 OA
BRANCH  26  28
ATOM     28  C   UNL     1      -2.364  -9.696   2.574  1.00  0.00     0.060 A 
ATOM     29  C   UNL     1      -3.634  -9.604   1.992  1.00  0.00     0.016 A 
ATOM     30  C   UNL     1      -1.215  -9.486   1.808  1.00  0.00     0.016 A 
ATOM     31  C   UNL     1      -3.760  -9.355   0.627  1.00  0.00     0.010 A 
ATOM     32  C   UNL     1      -1.343  -9.242   0.436  1.00  0.00     0.010 A 
ATOM     33  C   UNL     1      -2.614  -9.212  -0.166  1.00  0.00    -0.014 A 
BRANCH  33  34
ATOM     34  C   UNL     1      -2.747  -9.165  -1.642  1.00  0.00     0.031 A 
ATOM     35  C   UNL     1      -2.487 -10.414  -2.441  1.00  0.00     0.074 A 
ATOM     36  C   UNL     1      -3.122  -8.031  -2.262  1.00  0.00     0.049 A 
ATOM     37  N   UNL     1      -2.527 -10.590  -3.736  1.00  0.00    -0.248 NA
ATOM     38  C   UNL     1      -2.134 -11.623  -1.679  1.00  0.00     0.031 C 
ATOM     39  C   UNL     1      -3.439  -6.769  -1.595  1.00  0.00     0.029 A 
ATOM     40  N   UNL     1      -3.295  -7.761  -3.596  1.00  0.00    -0.354 N 
ATOM     41  C   UNL     1      -2.193 -11.923  -3.947  1.00  0.00     0.074 A 
ATOM     42  C   UNL     1      -1.931 -12.504  -2.648  1.00  0.00     0.031 C 
ATOM     43  C   UNL     1      -3.760  -5.854  -2.527  1.00  0.00     0.029 A 
ATOM     44  C   UNL     1      -3.641  -6.457  -3.853  1.00  0.00     0.049 A 
ATOM     45  H   UNL     1      -3.182  -8.438  -4.302  1.00  0.00     0.167 HD
ATOM     46  C   UNL     1      -2.117 -12.603  -5.115  1.00  0.00     0.031 A 
ATOM     47  C   UNL     1      -3.821  -5.815  -5.025  1.00  0.00     0.031 A 
ATOM     48  C   UNL     1      -2.370 -12.021  -6.407  1.00  0.00     0.049 A 
ATOM     49  C   UNL     1      -3.672  -6.577  -6.315  1.00  0.00     0.074 A 
ATOM     50  C   UNL     1      -2.341 -12.634  -7.647  1.00  0.00     0.029 A 
ATOM     51  N   UNL     1      -2.690 -10.690  -6.627  1.00  0.00    -0.354 N 
ATOM     52  N   UNL     1      -3.385  -7.845  -6.495  1.00  0.00    -0.248 NA
ATOM     53  C   UNL     1      -3.879  -5.823  -7.560  1.00  0.00     0.031 C 
ATOM     54  C   UNL     1      -2.587 -11.662  -8.621  1.00  0.00     0.029 A 
ATOM     55  C   UNL     1      -2.832 -10.455  -7.984  1.00  0.00     0.049 A 
ATOM     56  H   UNL     1      -2.800 -10.011  -5.921  1.00  0.00     0.167 HD
ATOM     57  C   UNL     1      -3.402  -8.045  -7.872  1.00  0.00     0.074 A 
ATOM     58  C   UNL     1      -3.740  -6.773  -8.476  1.00  0.00     0.031 C 
ATOM     59  C   UNL     1      -3.164  -9.182  -8.572  1.00  0.00     0.031 A 
BRANCH  46  60
ATOM     60  C   UNL     1      -1.706 -14.050  -5.053  1.00  0.00    -0.014 A 
ATOM     61  C   UNL     1      -2.574 -15.036  -4.553  1.00  0.00     0.010 A 
ATOM     62  C   UNL     1      -0.444 -14.434  -5.543  1.00  0.00     0.010 A 
ATOM     63  C   UNL     1      -2.174 -16.375  -4.510  1.00  0.00     0.020 A 
ATOM     64  C   UNL     1      -0.050 -15.775  -5.526  1.00  0.00     0.020 A 
ATOM     65  C   UNL     1      -0.913 -16.735  -4.994  1.00  0.00     0.054 A 
BRANCH  65  66
ATOM     66  S   UNL     1      -0.428 -18.483  -4.948  1.00  0.00     0.124 S 
ATOM     67  O   UNL     1      -0.180 -18.689  -3.523  1.00  0.00    -0.237 OA
ATOM     68  O   UNL     1      -1.607 -19.157  -5.484  1.00  0.00    -0.237 OA
ATOM     69  O   UNL     1       0.758 -18.537  -5.800  1.00  0.00    -0.744 OA
ENDBRANCH  65  66
ENDBRANCH  46  60
BRANCH  47  70
ATOM     70  C   UNL     1      -4.143  -4.362  -5.029  1.00  0.00    -0.014 A 
ATOM     71  C   UNL     1      -5.416  -3.907  -5.412  1.00  0.00     0.010 A 
ATOM     72  C   UNL     1      -3.170  -3.424  -4.637  1.00  0.00     0.010 A 
ATOM     73  C   UNL     1      -5.707  -2.539  -5.414  1.00  0.00     0.020 A 
ATOM     74  C   UNL     1      -3.465  -2.059  -4.611  1.00  0.00     0.020 A 
ATOM     75  C   UNL     1      -4.730  -1.624  -5.010  1.00  0.00     0.054 A 
BRANCH  75  76
ATOM     76  S   UNL     1      -5.147   0.141  -4.964  1.00  0.00     0.124 S 
ATOM     77  O   UNL     1      -5.165   0.486  -6.382  1.00  0.00    -0.237 OA
ATOM     78  O   UNL     1      -6.445   0.141  -4.295  1.00  0.00    -0.237 OA
ATOM     79  O   UNL     1      -4.056   0.729  -4.189  1.00  0.00    -0.744 OA
ENDBRANCH  75  76
ENDBRANCH  47  70
BRANCH  59  80
ATOM     80  C   UNL     1      -3.289  -9.116 -10.072  1.00  0.00    -0.014 A 
ATOM     81  C   UNL     1      -2.323  -8.463 -10.857  1.00  0.00     0.010 A 
ATOM     82  C   UNL     1      -4.361  -9.771 -10.707  1.00  0.00     0.010 A 
ATOM     83  C   UNL     1      -2.443  -8.441 -12.250  1.00  0.00     0.020 A 
ATOM     84  C   UNL     1      -4.469  -9.775 -12.100  1.00  0.00     0.020 A 
ATOM     85  C   UNL     1      -3.515  -9.097 -12.862  1.00  0.00     0.054 A 
BRANCH  85  86
ATOM     86  S   UNL     1      -3.624  -9.093 -14.673  1.00  0.00     0.124 S 
ATOM     87  O   UNL     1      -4.059  -7.726 -14.948  1.00  0.00    -0.237 OA
ATOM     88  O   UNL     1      -2.257  -9.411 -15.078  1.00  0.00    -0.237 OA
ATOM     89  O   UNL     1      -4.611 -10.131 -14.964  1.00  0.00    -0.744 OA
ENDBRANCH  85  86
ENDBRANCH  59  80
ENDBRANCH  33  34
ENDBRANCH  26  28
ENDBRANCH  25  26
ENDBRANCH  24  25
ENDBRANCH  23  24
ENDBRANCH   1  23
TORSDOF 20
