REMARK SMILES COc1ccc(-c2noc(C[N@H+]3CCCC[C@@H]3C(=O)OCCOCCOC(=O)c3ccc(-c4c5nc(c(-c6ccc(S(=O)(=O)[O-])cc6)c6ccc([nH]6)c(-c6ccc(S(=O)(=O)[O-])cc6)c6nc(c(-c7ccc(S(=O)(=O)[O-])cc7)c7ccc4[nH]7)C=C6)C=C5)cc3)n2)cc1OC
REMARK SMILES IDX 22 1 21 2 20 3 18 4 19 5 17 6 12 7 13 8 14 10 16 11 15 12
REMARK SMILES IDX 11 13 10 14 7 15 8 16 89 17 9 18 6 19 3 20 4 21 91 22 5 23
REMARK SMILES IDX 90 24 2 25 1 26 92 27 93 28 23 29 24 30 25 31 26 32 27 33
REMARK SMILES IDX 28 34 29 35 30 36 88 37 31 38 87 39 32 40 33 41 34 42 81 43
REMARK SMILES IDX 35 44 86 45 80 46 82 47 36 48 85 49 79 50 78 51 37 53 67 54
REMARK SMILES IDX 48 55 66 56 49 57 52 58 65 59 83 60 50 61 51 62 64 64 84 65
REMARK SMILES IDX 53 66 38 67 39 68 47 69 40 70 46 71 41 72 42 73 43 74 44 75
REMARK SMILES IDX 45 76 68 77 69 78 77 79 70 80 76 81 71 82 72 83 73 84 74 85
REMARK SMILES IDX 75 86 54 87 55 88 63 89 56 90 62 91 57 92 58 93 59 94 60 95
REMARK SMILES IDX 61 96
REMARK H PARENT 12 9 82 52 52 63
REMARK Flexibility Score: inf
ROOT
ATOM      1  C   UNL     1       5.344  12.649  -2.704  1.00  0.00     0.202 C 
ENDROOT
BRANCH   1   2
ATOM      2  C   UNL     1       5.841  11.529  -3.623  1.00  0.00     0.261 C 
BRANCH   2   3
ATOM      3  O   UNL     1       4.844  11.066  -4.545  1.00  0.00    -0.459 OA
BRANCH   3   4
ATOM      4  C   UNL     1       4.229   9.918  -4.159  1.00  0.00     0.365 C 
ATOM      5  O   UNL     1       4.493   9.314  -3.121  1.00  0.00    -0.245 OA
BRANCH   4   6
ATOM      6  C   UNL     1       3.145   9.429  -5.139  1.00  0.00     0.295 C 
ATOM      7  N   UNL     1       3.609   8.253  -5.925  1.00  0.00    -0.315 N 
ATOM      8  C   UNL     1       2.539   7.707  -6.776  1.00  0.00     0.263 C 
ATOM      9  H   UNL     1       4.353   8.614  -6.522  1.00  0.00     0.349 HD
ATOM     10  C   UNL     1       1.944   8.762  -7.708  1.00  0.00     0.062 C 
ATOM     11  C   UNL     1       2.605  10.526  -6.071  1.00  0.00     0.078 C 
ATOM     12  C   UNL     1       1.468   9.980  -6.930  1.00  0.00     0.013 C 
BRANCH   7  13
ATOM     13  C   UNL     1       4.219   7.177  -5.101  1.00  0.00     0.364 C 
BRANCH  13  14
ATOM     14  C   UNL     1       3.324   6.478  -4.128  1.00  0.00     0.282 A 
ATOM     15  C   UNL     1       2.168   5.156  -2.995  1.00  0.00     0.202 A 
ATOM     16  N   UNL     1       1.841   6.348  -2.483  1.00  0.00    -0.057 NA
ATOM     17  N   UNL     1       3.064   5.196  -4.033  1.00  0.00    -0.186 NA
ATOM     18  O   UNL     1       2.643   7.227  -3.211  1.00  0.00    -0.333 OA
BRANCH  15  19
ATOM     19  C   UNL     1       1.723   3.892  -2.466  1.00  0.00     0.027 A 
ATOM     20  C   UNL     1       1.007   1.349  -1.578  1.00  0.00     0.160 A 
ATOM     21  C   UNL     1       0.021   2.251  -2.014  1.00  0.00     0.051 A 
ATOM     22  C   UNL     1       2.357   1.716  -1.584  1.00  0.00     0.161 A 
ATOM     23  C   UNL     1       0.376   3.532  -2.444  1.00  0.00     0.016 A 
ATOM     24  C   UNL     1       2.699   2.990  -2.034  1.00  0.00     0.062 A 
BRANCH  20  25
ATOM     25  O   UNL     1       0.628   0.073  -1.258  1.00  0.00    -0.493 OA
ATOM     26  C   UNL     1      -0.125   0.033  -0.048  1.00  0.00     0.278 C 
ENDBRANCH  20  25
BRANCH  22  27
ATOM     27  O   UNL     1       3.452   0.977  -1.236  1.00  0.00    -0.493 OA
ATOM     28  C   UNL     1       3.254  -0.164  -0.421  1.00  0.00     0.278 C 
ENDBRANCH  22  27
ENDBRANCH  15  19
ENDBRANCH  13  14
ENDBRANCH   7  13
ENDBRANCH   4   6
ENDBRANCH   3   4
ENDBRANCH   2   3
ENDBRANCH   1   2
BRANCH   1  29
ATOM     29  O   UNL     1       4.172  12.415  -1.929  1.00  0.00    -0.374 OA
BRANCH  29  30
ATOM     30  C   UNL     1       2.902  12.454  -2.578  1.00  0.00     0.202 C 
BRANCH  30  31
ATOM     31  C   UNL     1       2.425  13.793  -3.154  1.00  0.00     0.261 C 
BRANCH  31  32
ATOM     32  O   UNL     1       3.197  14.201  -4.298  1.00  0.00    -0.460 OA
BRANCH  32  33
ATOM     33  C   UNL     1       3.887  15.355  -4.132  1.00  0.00     0.338 C 
ATOM     34  O   UNL     1       3.871  16.088  -3.151  1.00  0.00    -0.246 OA
BRANCH  33  35
ATOM     35  C   UNL     1       4.850  15.535  -5.231  1.00  0.00     0.060 A 
ATOM     36  C   UNL     1       6.200  15.704  -4.894  1.00  0.00     0.016 A 
ATOM     37  C   UNL     1       4.429  15.641  -6.557  1.00  0.00     0.016 A 
ATOM     38  C   UNL     1       7.130  16.037  -5.875  1.00  0.00     0.010 A 
ATOM     39  C   UNL     1       5.360  15.990  -7.539  1.00  0.00     0.010 A 
ATOM     40  C   UNL     1       6.704  16.229  -7.195  1.00  0.00    -0.014 A 
BRANCH  40  41
ATOM     41  C   UNL     1       7.614  16.865  -8.177  1.00  0.00     0.031 A 
ATOM     42  C   UNL     1       7.474  18.341  -8.434  1.00  0.00     0.074 A 
ATOM     43  C   UNL     1       8.555  16.149  -8.817  1.00  0.00     0.049 A 
ATOM     44  N   UNL     1       8.092  19.092  -9.306  1.00  0.00    -0.248 NA
ATOM     45  C   UNL     1       6.505  19.065  -7.593  1.00  0.00     0.031 C 
ATOM     46  C   UNL     1       8.833  14.730  -8.602  1.00  0.00     0.029 A 
ATOM     47  N   UNL     1       9.446  16.524  -9.790  1.00  0.00    -0.354 N 
ATOM     48  C   UNL     1       7.578  20.372  -9.132  1.00  0.00     0.074 A 
ATOM     49  C   UNL     1       6.583  20.292  -8.085  1.00  0.00     0.031 C 
ATOM     50  C   UNL     1       9.821  14.350  -9.431  1.00  0.00     0.029 A 
ATOM     51  C   UNL     1      10.214  15.487 -10.262  1.00  0.00     0.049 A 
ATOM     52  H   UNL     1       9.528  17.449 -10.119  1.00  0.00     0.167 HD
ATOM     53  C   UNL     1       7.906  21.512  -9.785  1.00  0.00     0.031 A 
ATOM     54  C   UNL     1      11.108  15.453 -11.270  1.00  0.00     0.031 A 
ATOM     55  C   UNL     1       8.885  21.582 -10.835  1.00  0.00     0.049 A 
ATOM     56  C   UNL     1      11.390  16.713 -12.047  1.00  0.00     0.074 A 
ATOM     57  C   UNL     1       9.289  22.687 -11.563  1.00  0.00     0.029 A 
ATOM     58  N   UNL     1       9.612  20.500 -11.309  1.00  0.00    -0.354 N 
ATOM     59  N   UNL     1      10.895  17.916 -11.874  1.00  0.00    -0.248 NA
ATOM     60  C   UNL     1      12.351  16.611 -13.156  1.00  0.00     0.031 C 
ATOM     61  C   UNL     1      10.222  22.263 -12.514  1.00  0.00     0.029 A 
ATOM     62  C   UNL     1      10.445  20.906 -12.336  1.00  0.00     0.049 A 
ATOM     63  H   UNL     1       9.545  19.580 -10.966  1.00  0.00     0.167 HD
ATOM     64  C   UNL     1      11.511  18.721 -12.828  1.00  0.00     0.074 A 
ATOM     65  C   UNL     1      12.414  17.869 -13.575  1.00  0.00     0.031 C 
ATOM     66  C   UNL     1      11.349  20.047 -13.059  1.00  0.00     0.031 A 
BRANCH  53  67
ATOM     67  C   UNL     1       7.163  22.766  -9.407  1.00  0.00    -0.014 A 
ATOM     68  C   UNL     1       7.392  23.408  -8.177  1.00  0.00     0.010 A 
ATOM     69  C   UNL     1       6.236  23.322 -10.308  1.00  0.00     0.010 A 
ATOM     70  C   UNL     1       6.676  24.559  -7.837  1.00  0.00     0.020 A 
ATOM     71  C   UNL     1       5.538  24.488  -9.983  1.00  0.00     0.020 A 
ATOM     72  C   UNL     1       5.748  25.088  -8.740  1.00  0.00     0.054 A 
BRANCH  72  73
ATOM     73  S   UNL     1       4.838  26.587  -8.277  1.00  0.00     0.124 S 
ATOM     74  O   UNL     1       3.896  26.071  -7.287  1.00  0.00    -0.237 OA
ATOM     75  O   UNL     1       5.890  27.453  -7.751  1.00  0.00    -0.237 OA
ATOM     76  O   UNL     1       4.239  27.031  -9.533  1.00  0.00    -0.744 OA
ENDBRANCH  72  73
ENDBRANCH  53  67
BRANCH  54  77
ATOM     77  C   UNL     1      11.787  14.175 -11.618  1.00  0.00    -0.014 A 
ATOM     78  C   UNL     1      13.159  14.002 -11.369  1.00  0.00     0.010 A 
ATOM     79  C   UNL     1      11.058  13.119 -12.197  1.00  0.00     0.010 A 
ATOM     80  C   UNL     1      13.793  12.801 -11.705  1.00  0.00     0.020 A 
ATOM     81  C   UNL     1      11.683  11.909 -12.509  1.00  0.00     0.020 A 
ATOM     82  C   UNL     1      13.050  11.761 -12.270  1.00  0.00     0.054 A 
BRANCH  82  83
ATOM     83  S   UNL     1      13.883  10.194 -12.648  1.00  0.00     0.124 S 
ATOM     84  O   UNL     1      14.666  10.543 -13.829  1.00  0.00    -0.237 OA
ATOM     85  O   UNL     1      14.651   9.944 -11.430  1.00  0.00    -0.237 OA
ATOM     86  O   UNL     1      12.778   9.267 -12.880  1.00  0.00    -0.744 OA
ENDBRANCH  82  83
ENDBRANCH  54  77
BRANCH  66  87
ATOM     87  C   UNL     1      12.198  20.684 -14.126  1.00  0.00    -0.014 A 
ATOM     88  C   UNL     1      11.924  20.493 -15.491  1.00  0.00     0.010 A 
ATOM     89  C   UNL     1      13.226  21.570 -13.748  1.00  0.00     0.010 A 
ATOM     90  C   UNL     1      12.670  21.169 -16.460  1.00  0.00     0.020 A 
ATOM     91  C   UNL     1      13.956  22.266 -14.714  1.00  0.00     0.020 A 
ATOM     92  C   UNL     1      13.678  22.056 -16.065  1.00  0.00     0.054 A 
BRANCH  92  93
ATOM     93  S   UNL     1      14.575  22.984 -17.340  1.00  0.00     0.124 S 
ATOM     94  O   UNL     1      15.438  21.955 -17.914  1.00  0.00    -0.237 OA
ATOM     95  O   UNL     1      13.500  23.459 -18.208  1.00  0.00    -0.237 OA
ATOM     96  O   UNL     1      15.267  24.028 -16.587  1.00  0.00    -0.744 OA
ENDBRANCH  92  93
ENDBRANCH  66  87
ENDBRANCH  40  41
ENDBRANCH  33  35
ENDBRANCH  32  33
ENDBRANCH  31  32
ENDBRANCH  30  31
ENDBRANCH  29  30
ENDBRANCH   1  29
TORSDOF 22
