REMARK SMILES Cc1ccccc1C(=O)Nc1ccc(OCC(=O)OCCOCCOC(=O)c2ccc(-c3c4nc(c(-c5ccc(S(=O)(=O)[O-])cc5)c5ccc([nH]5)c(-c5ccc(S(=O)(=O)[O-])cc5)c5nc(c(-c6ccc(S(=O)(=O)[O-])cc6)c6ccc3[nH]6)C=C5)C=C4)cc2)c(-c2nc3ccccc3s2)c1
REMARK SMILES IDX 21 1 20 2 19 3 17 4 18 5 16 6 15 7 14 8 11 9 12 10 98 11
REMARK SMILES IDX 13 12 88 13 10 14 8 15 9 16 7 18 1 19 2 20 3 21 4 22 6 23
REMARK SMILES IDX 5 24 89 25 90 26 97 27 91 28 96 29 92 30 95 31 93 32 94 33
REMARK SMILES IDX 22 34 23 35 24 36 25 37 26 38 27 39 28 40 29 41 87 42 30 43
REMARK SMILES IDX 86 44 31 45 32 46 33 47 80 48 34 49 85 50 79 51 81 52 35 53
REMARK SMILES IDX 84 54 78 55 77 56 36 58 66 59 47 60 65 61 48 62 51 63 64 64
REMARK SMILES IDX 82 65 49 66 50 67 63 69 83 70 52 71 37 72 38 73 46 74 39 75
REMARK SMILES IDX 45 76 40 77 41 78 42 79 43 80 44 81 67 82 68 83 76 84 69 85
REMARK SMILES IDX 75 86 70 87 71 88 72 89 73 90 74 91 53 92 54 93 62 94 55 95
REMARK SMILES IDX 61 96 56 97 57 98 58 99 59 100 60 101
REMARK H PARENT 10 17 81 57 51 68
REMARK Flexibility Score: inf
ROOT
ATOM      1  C   UNL     1       1.290  -2.525  -1.199  1.00  0.00     0.202 C 
ENDROOT
BRANCH   1   2
ATOM      2  C   UNL     1       2.362  -3.577  -1.430  1.00  0.00     0.261 C 
BRANCH   2   3
ATOM      3  O   UNL     1       3.618  -2.913  -1.503  1.00  0.00    -0.461 OA
BRANCH   3   4
ATOM      4  C   UNL     1       4.713  -3.546  -1.936  1.00  0.00     0.344 C 
ATOM      5  O   UNL     1       4.757  -4.626  -2.507  1.00  0.00    -0.248 OA
BRANCH   4   6
ATOM      6  C   UNL     1       5.929  -2.667  -1.643  1.00  0.00     0.352 C 
BRANCH   6   7
ATOM      7  O   UNL     1       6.051  -1.251  -1.644  1.00  0.00    -0.481 OA
BRANCH   7   8
ATOM      8  C   UNL     1       5.059  -0.313  -1.572  1.00  0.00     0.130 A 
ATOM      9  C   UNL     1       3.422   2.004  -1.163  1.00  0.00     0.042 A 
ATOM     10  C   UNL     1       4.574   1.809  -0.409  1.00  0.00     0.030 A 
ATOM     11  C   UNL     1       3.132   1.077  -2.160  1.00  0.00     0.041 A 
ATOM     12  C   UNL     1       5.337   0.643  -0.572  1.00  0.00     0.049 A 
ATOM     13  C   UNL     1       3.982  -0.051  -2.449  1.00  0.00     0.055 A 
BRANCH   9  14
ATOM     14  N   UNL     1       2.667   3.168  -0.911  1.00  0.00    -0.322 N 
ATOM     15  C   UNL     1       1.315   3.451  -0.961  1.00  0.00     0.255 C 
ATOM     16  O   UNL     1       0.968   4.630  -1.088  1.00  0.00    -0.269 OA
ATOM     17  H   UNL     1       3.217   3.939  -0.643  1.00  0.00     0.170 HD
BRANCH  15  18
ATOM     18  C   UNL     1       0.251   2.434  -0.701  1.00  0.00     0.043 A 
ATOM     19  C   UNL     1       1.437   1.445   1.319  1.00  0.00     0.045 C 
ATOM     20  C   UNL     1       0.344   1.449   0.294  1.00  0.00    -0.038 A 
ATOM     21  C   UNL     1      -0.698   0.513   0.441  1.00  0.00     0.004 A 
ATOM     22  C   UNL     1      -1.903   0.670  -0.236  1.00  0.00     0.000 A 
ATOM     23  C   UNL     1      -1.002   2.633  -1.313  1.00  0.00     0.014 A 
ATOM     24  C   UNL     1      -2.078   1.772  -1.063  1.00  0.00     0.001 A 
ENDBRANCH  15  18
ENDBRANCH   9  14
BRANCH  13  25
ATOM     25  C   UNL     1       3.579  -0.809  -3.658  1.00  0.00     0.128 A 
ATOM     26  N   UNL     1       2.426  -0.617  -4.280  1.00  0.00    -0.236 NA
ATOM     27  S   UNL     1       4.533  -1.979  -4.487  1.00  0.00    -0.114 S 
ATOM     28  C   UNL     1       2.084  -1.755  -4.980  1.00  0.00     0.082 A 
ATOM     29  C   UNL     1       3.066  -2.743  -4.994  1.00  0.00     0.055 A 
ATOM     30  C   UNL     1       0.837  -2.019  -5.571  1.00  0.00     0.030 A 
ATOM     31  C   UNL     1       2.786  -4.057  -5.396  1.00  0.00     0.021 A 
ATOM     32  C   UNL     1       0.555  -3.313  -6.015  1.00  0.00     0.002 A 
ATOM     33  C   UNL     1       1.500  -4.328  -5.881  1.00  0.00     0.002 A 
ENDBRANCH  13  25
ENDBRANCH   7   8
ENDBRANCH   6   7
ENDBRANCH   4   6
ENDBRANCH   3   4
ENDBRANCH   2   3
ENDBRANCH   1   2
BRANCH   1  34
ATOM     34  O   UNL     1       1.681  -1.437  -0.357  1.00  0.00    -0.374 OA
BRANCH  34  35
ATOM     35  C   UNL     1       2.530  -1.709   0.758  1.00  0.00     0.202 C 
BRANCH  35  36
ATOM     36  C   UNL     1       1.830  -2.088   2.046  1.00  0.00     0.261 C 
BRANCH  36  37
ATOM     37  O   UNL     1       0.988  -3.222   1.903  1.00  0.00    -0.460 OA
BRANCH  37  38
ATOM     38  C   UNL     1      -0.234  -3.156   2.525  1.00  0.00     0.338 C 
ATOM     39  O   UNL     1      -0.813  -2.236   3.006  1.00  0.00    -0.246 OA
BRANCH  38  40
ATOM     40  C   UNL     1      -0.801  -4.493   2.231  1.00  0.00     0.060 A 
ATOM     41  C   UNL     1      -0.129  -5.596   2.770  1.00  0.00     0.016 A 
ATOM     42  C   UNL     1      -1.404  -4.543   0.976  1.00  0.00     0.016 A 
ATOM     43  C   UNL     1       0.266  -6.600   1.901  1.00  0.00     0.010 A 
ATOM     44  C   UNL     1      -0.973  -5.525   0.109  1.00  0.00     0.010 A 
ATOM     45  C   UNL     1       0.028  -6.405   0.536  1.00  0.00    -0.014 A 
BRANCH  45  46
ATOM     46  C   UNL     1       1.031  -6.804  -0.463  1.00  0.00     0.031 A 
ATOM     47  C   UNL     1       0.568  -7.347  -1.732  1.00  0.00     0.074 A 
ATOM     48  C   UNL     1       2.352  -6.572  -0.301  1.00  0.00     0.049 A 
ATOM     49  N   UNL     1       0.309  -8.592  -1.943  1.00  0.00    -0.248 NA
ATOM     50  C   UNL     1       0.289  -6.448  -2.853  1.00  0.00     0.031 C 
ATOM     51  C   UNL     1       3.445  -6.939  -1.193  1.00  0.00     0.029 A 
ATOM     52  N   UNL     1       2.998  -5.986   0.779  1.00  0.00    -0.354 N 
ATOM     53  C   UNL     1       0.153  -8.673  -3.308  1.00  0.00     0.074 A 
ATOM     54  C   UNL     1      -0.120  -7.320  -3.775  1.00  0.00     0.031 C 
ATOM     55  C   UNL     1       4.604  -6.840  -0.511  1.00  0.00     0.029 A 
ATOM     56  C   UNL     1       4.320  -6.405   0.854  1.00  0.00     0.049 A 
ATOM     57  H   UNL     1       2.575  -5.357   1.408  1.00  0.00     0.167 HD
ATOM     58  C   UNL     1       0.853  -9.569  -4.063  1.00  0.00     0.031 A 
ATOM     59  C   UNL     1       4.744  -7.027   1.990  1.00  0.00     0.031 A 
ATOM     60  C   UNL     1       2.077 -10.008  -3.383  1.00  0.00     0.049 A 
ATOM     61  C   UNL     1       4.538  -8.527   1.825  1.00  0.00     0.074 A 
ATOM     62  C   UNL     1       3.417  -9.757  -3.635  1.00  0.00     0.029 A 
ATOM     63  N   UNL     1       2.029 -10.539  -2.093  1.00  0.00    -0.354 N 
ATOM     64  N   UNL     1       4.008  -9.047   0.747  1.00  0.00    -0.248 NA
ATOM     65  C   UNL     1       4.928  -9.563   2.776  1.00  0.00     0.031 C 
ATOM     66  C   UNL     1       4.161 -10.077  -2.465  1.00  0.00     0.029 A 
ATOM     67  C   UNL     1       3.284 -10.553  -1.505  1.00  0.00     0.049 A 
ATOM     68  H   UNL     1       1.208 -10.863  -1.656  1.00  0.00     0.167 HD
ATOM     69  C   UNL     1       3.979 -10.404   0.820  1.00  0.00     0.074 A 
ATOM     70  C   UNL     1       4.567 -10.687   2.120  1.00  0.00     0.031 C 
ATOM     71  C   UNL     1       3.488 -11.176  -0.195  1.00  0.00     0.031 A 
BRANCH  58  72
ATOM     72  C   UNL     1       0.566  -9.651  -5.547  1.00  0.00    -0.014 A 
ATOM     73  C   UNL     1       1.509 -10.139  -6.465  1.00  0.00     0.010 A 
ATOM     74  C   UNL     1      -0.706  -9.300  -6.069  1.00  0.00     0.010 A 
ATOM     75  C   UNL     1       1.224 -10.209  -7.840  1.00  0.00     0.020 A 
ATOM     76  C   UNL     1      -0.989  -9.329  -7.440  1.00  0.00     0.020 A 
ATOM     77  C   UNL     1      -0.020  -9.794  -8.320  1.00  0.00     0.054 A 
BRANCH  77  78
ATOM     78  S   UNL     1      -0.369  -9.894 -10.097  1.00  0.00     0.124 S 
ATOM     79  O   UNL     1       0.770  -9.193 -10.683  1.00  0.00    -0.237 OA
ATOM     80  O   UNL     1      -0.409 -11.336 -10.323  1.00  0.00    -0.237 OA
ATOM     81  O   UNL     1      -1.652  -9.206 -10.236  1.00  0.00    -0.744 OA
ENDBRANCH  77  78
ENDBRANCH  58  72
BRANCH  59  82
ATOM     82  C   UNL     1       4.629  -6.121   3.183  1.00  0.00    -0.014 A 
ATOM     83  C   UNL     1       5.562  -5.053   3.217  1.00  0.00     0.010 A 
ATOM     84  C   UNL     1       3.470  -5.984   3.971  1.00  0.00     0.010 A 
ATOM     85  C   UNL     1       5.299  -3.852   3.893  1.00  0.00     0.020 A 
ATOM     86  C   UNL     1       3.196  -4.770   4.649  1.00  0.00     0.020 A 
ATOM     87  C   UNL     1       4.102  -3.702   4.585  1.00  0.00     0.054 A 
BRANCH  87  88
ATOM     88  S   UNL     1       3.637  -2.027   5.173  1.00  0.00     0.124 S 
ATOM     89  O   UNL     1       4.305  -1.950   6.466  1.00  0.00    -0.237 OA
ATOM     90  O   UNL     1       4.180  -1.158   4.128  1.00  0.00    -0.237 OA
ATOM     91  O   UNL     1       2.179  -2.091   5.213  1.00  0.00    -0.744 OA
ENDBRANCH  87  88
ENDBRANCH  59  82
BRANCH  71  92
ATOM     92  C   UNL     1       3.221 -12.654  -0.099  1.00  0.00    -0.014 A 
ATOM     93  C   UNL     1       2.866 -13.299   1.093  1.00  0.00     0.010 A 
ATOM     94  C   UNL     1       3.151 -13.407  -1.297  1.00  0.00     0.010 A 
ATOM     95  C   UNL     1       2.486 -14.646   1.091  1.00  0.00     0.020 A 
ATOM     96  C   UNL     1       2.724 -14.732  -1.315  1.00  0.00     0.020 A 
ATOM     97  C   UNL     1       2.412 -15.351  -0.113  1.00  0.00     0.054 A 
BRANCH  97  98
ATOM     98  S   UNL     1       1.829 -17.063  -0.110  1.00  0.00     0.124 S 
ATOM     99  O   UNL     1       3.056 -17.794   0.193  1.00  0.00    -0.237 OA
ATOM    100  O   UNL     1       0.822 -17.061   0.950  1.00  0.00    -0.237 OA
ATOM    101  O   UNL     1       1.303 -17.249  -1.459  1.00  0.00    -0.744 OA
ENDBRANCH  97  98
ENDBRANCH  71  92
ENDBRANCH  45  46
ENDBRANCH  38  40
ENDBRANCH  37  38
ENDBRANCH  36  37
ENDBRANCH  35  36
ENDBRANCH  34  35
ENDBRANCH   1  34
TORSDOF 22
