REMARK SMILES Cc1cc(NCc2ccco2)cc(C(=O)OCCOCCOC(=O)c2ccc(-c3c4nc(c(-c5ccc(S(=O)(=O)[O-])cc5)c5ccc([nH]5)c(-c5ccc(S(=O)(=O)[O-])cc5)c5nc(c(-c6ccc(S(=O)(=O)[O-])cc6)c6ccc3[nH]6)C=C5)C=C4)cc2)c1N
REMARK SMILES IDX 19 1 18 2 17 3 16 4 14 5 15 6 13 7 1 8 2 9 3 10 85 11 4 12
REMARK SMILES IDX 12 13 86 14 5 17 6 19 7 20 8 21 11 22 9 23 10 24 20 25 21 26
REMARK SMILES IDX 22 27 23 28 24 29 25 30 26 31 84 32 27 33 83 34 28 35 29 36
REMARK SMILES IDX 30 37 77 38 31 39 82 40 76 41 78 42 32 43 81 44 75 45 74 46
REMARK SMILES IDX 33 48 63 49 44 50 62 51 45 52 48 53 61 54 79 55 46 56 47 57
REMARK SMILES IDX 60 59 80 60 49 61 34 62 35 63 43 64 36 65 42 66 37 67 38 68
REMARK SMILES IDX 39 69 40 70 41 71 64 72 65 73 73 74 66 75 72 76 67 77 68 78
REMARK SMILES IDX 69 79 70 80 71 81 50 82 51 83 59 84 52 85 58 86 53 87 54 88
REMARK SMILES IDX 55 89 56 90 57 91
REMARK H PARENT 86 15 86 16 5 18 78 47 48 58
REMARK Flexibility Score: inf
ROOT
ATOM      1  O   UNL     1       0.234  -4.956  -1.174  1.00  0.00    -0.374 OA
ENDROOT
BRANCH   1   2
ATOM      2  C   UNL     1      -0.944  -5.424  -0.513  1.00  0.00     0.202 C 
BRANCH   2   3
ATOM      3  C   UNL     1      -1.208  -4.832   0.874  1.00  0.00     0.261 C 
BRANCH   3   4
ATOM      4  O   UNL     1      -1.433  -3.414   0.795  1.00  0.00    -0.460 OA
BRANCH   4   5
ATOM      5  C   UNL     1      -0.448  -2.650   1.329  1.00  0.00     0.340 C 
ATOM      6  O   UNL     1       0.497  -3.053   1.993  1.00  0.00    -0.246 OA
BRANCH   5   7
ATOM      7  C   UNL     1      -0.564  -1.243   0.860  1.00  0.00     0.085 A 
ATOM      8  C   UNL     1       1.725   1.643  -0.140  1.00  0.00     0.047 C 
ATOM      9  C   UNL     1       0.513   0.811   0.177  1.00  0.00    -0.025 A 
ATOM     10  C   UNL     1      -0.763   1.383   0.021  1.00  0.00     0.031 A 
ATOM     11  C   UNL     1       0.625  -0.522   0.599  1.00  0.00     0.049 A 
ATOM     12  C   UNL     1      -1.949   0.673   0.265  1.00  0.00     0.036 A 
ATOM     13  C   UNL     1      -1.830  -0.653   0.682  1.00  0.00     0.043 A 
BRANCH  11  14
ATOM     14  N   UNL     1       1.868  -1.165   0.563  1.00  0.00    -0.398 N 
ATOM     15  H   UNL     1       2.685  -0.646   0.379  1.00  0.00     0.156 HD
ATOM     16  H   UNL     1       1.926  -2.135   0.722  1.00  0.00     0.156 HD
ENDBRANCH  11  14
BRANCH  12  17
ATOM     17  N   UNL     1      -3.144   1.299  -0.023  1.00  0.00    -0.378 N 
ATOM     18  H   UNL     1      -3.092   2.238  -0.314  1.00  0.00     0.161 HD
BRANCH  17  19
ATOM     19  C   UNL     1      -4.473   0.714   0.059  1.00  0.00     0.188 C 
BRANCH  19  20
ATOM     20  C   UNL     1      -5.164   0.907   1.362  1.00  0.00     0.122 A 
ATOM     21  C   UNL     1      -5.765   0.043   2.252  1.00  0.00     0.047 A 
ATOM     22  O   UNL     1      -5.291   2.195   1.805  1.00  0.00    -0.467 OA
ATOM     23  C   UNL     1      -6.285   0.843   3.298  1.00  0.00     0.042 A 
ATOM     24  C   UNL     1      -5.967   2.142   2.981  1.00  0.00     0.195 A 
ENDBRANCH  19  20
ENDBRANCH  17  19
ENDBRANCH  12  17
ENDBRANCH   5   7
ENDBRANCH   4   5
ENDBRANCH   3   4
ENDBRANCH   2   3
ENDBRANCH   1   2
BRANCH   1  25
ATOM     25  C   UNL     1       0.122  -3.716  -1.879  1.00  0.00     0.202 C 
BRANCH  25  26
ATOM     26  C   UNL     1      -0.515  -3.792  -3.272  1.00  0.00     0.261 C 
BRANCH  26  27
ATOM     27  O   UNL     1      -1.919  -4.104  -3.203  1.00  0.00    -0.460 OA
BRANCH  27  28
ATOM     28  C   UNL     1      -2.251  -5.346  -3.626  1.00  0.00     0.338 C 
ATOM     29  O   UNL     1      -1.509  -6.174  -4.137  1.00  0.00    -0.246 OA
BRANCH  28  30
ATOM     30  C   UNL     1      -3.633  -5.664  -3.218  1.00  0.00     0.060 A 
ATOM     31  C   UNL     1      -3.847  -6.882  -2.560  1.00  0.00     0.016 A 
ATOM     32  C   UNL     1      -4.707  -4.822  -3.516  1.00  0.00     0.016 A 
ATOM     33  C   UNL     1      -5.142  -7.288  -2.243  1.00  0.00     0.010 A 
ATOM     34  C   UNL     1      -6.008  -5.235  -3.204  1.00  0.00     0.010 A 
ATOM     35  C   UNL     1      -6.233  -6.484  -2.599  1.00  0.00    -0.014 A 
BRANCH  35  36
ATOM     36  C   UNL     1      -7.610  -7.020  -2.465  1.00  0.00     0.031 A 
ATOM     37  C   UNL     1      -8.295  -7.583  -3.681  1.00  0.00     0.074 A 
ATOM     38  C   UNL     1      -8.232  -7.034  -1.272  1.00  0.00     0.049 A 
ATOM     39  N   UNL     1      -9.500  -8.080  -3.796  1.00  0.00    -0.248 NA
ATOM     40  C   UNL     1      -7.519  -7.586  -4.932  1.00  0.00     0.031 C 
ATOM     41  C   UNL     1      -7.659  -6.556  -0.013  1.00  0.00     0.029 A 
ATOM     42  N   UNL     1      -9.488  -7.465  -0.927  1.00  0.00    -0.354 N 
ATOM     43  C   UNL     1      -9.628  -8.452  -5.129  1.00  0.00     0.074 A 
ATOM     44  C   UNL     1      -8.391  -8.095  -5.790  1.00  0.00     0.031 C 
ATOM     45  C   UNL     1      -8.567  -6.713   0.966  1.00  0.00     0.029 A 
ATOM     46  C   UNL     1      -9.793  -7.272   0.399  1.00  0.00     0.049 A 
ATOM     47  H   UNL     1     -10.112  -7.874  -1.569  1.00  0.00     0.167 HD
ATOM     48  C   UNL     1     -10.678  -9.043  -5.748  1.00  0.00     0.031 A 
ATOM     49  C   UNL     1     -10.937  -7.501   1.075  1.00  0.00     0.031 A 
ATOM     50  C   UNL     1     -11.914  -9.383  -5.094  1.00  0.00     0.049 A 
ATOM     51  C   UNL     1     -12.117  -8.094   0.350  1.00  0.00     0.074 A 
ATOM     52  C   UNL     1     -13.034  -9.990  -5.633  1.00  0.00     0.029 A 
ATOM     53  N   UNL     1     -12.194  -9.142  -3.757  1.00  0.00    -0.354 N 
ATOM     54  N   UNL     1     -12.216  -8.456  -0.907  1.00  0.00    -0.248 NA
ATOM     55  C   UNL     1     -13.337  -8.318   1.139  1.00  0.00     0.031 C 
ATOM     56  C   UNL     1     -14.011 -10.070  -4.635  1.00  0.00     0.029 A 
ATOM     57  C   UNL     1     -13.478  -9.566  -3.460  1.00  0.00     0.049 A 
ATOM     58  H   UNL     1     -11.572  -8.731  -3.115  1.00  0.00     0.167 HD
ATOM     59  C   UNL     1     -13.500  -8.973  -1.053  1.00  0.00     0.074 A 
ATOM     60  C   UNL     1     -14.134  -8.889   0.247  1.00  0.00     0.031 C 
ATOM     61  C   UNL     1     -14.098  -9.475  -2.162  1.00  0.00     0.031 A 
BRANCH  48  62
ATOM     62  C   UNL     1     -10.545  -9.332  -7.219  1.00  0.00    -0.014 A 
ATOM     63  C   UNL     1      -9.707 -10.362  -7.684  1.00  0.00     0.010 A 
ATOM     64  C   UNL     1     -11.296  -8.588  -8.147  1.00  0.00     0.010 A 
ATOM     65  C   UNL     1      -9.596 -10.619  -9.053  1.00  0.00     0.020 A 
ATOM     66  C   UNL     1     -11.207  -8.859  -9.515  1.00  0.00     0.020 A 
ATOM     67  C   UNL     1     -10.345  -9.863  -9.961  1.00  0.00     0.054 A 
BRANCH  67  68
ATOM     68  S   UNL     1     -10.199 -10.232 -11.731  1.00  0.00     0.124 S 
ATOM     69  O   UNL     1      -8.878  -9.691 -12.043  1.00  0.00    -0.237 OA
ATOM     70  O   UNL     1     -10.306 -11.688 -11.765  1.00  0.00    -0.237 OA
ATOM     71  O   UNL     1     -11.322  -9.514 -12.329  1.00  0.00    -0.744 OA
ENDBRANCH  67  68
ENDBRANCH  48  62
BRANCH  49  72
ATOM     72  C   UNL     1     -11.030  -7.143   2.516  1.00  0.00    -0.014 A 
ATOM     73  C   UNL     1     -11.106  -8.140   3.504  1.00  0.00     0.010 A 
ATOM     74  C   UNL     1     -11.045  -5.791   2.907  1.00  0.00     0.010 A 
ATOM     75  C   UNL     1     -11.210  -7.792   4.854  1.00  0.00     0.020 A 
ATOM     76  C   UNL     1     -11.122  -5.440   4.256  1.00  0.00     0.020 A 
ATOM     77  C   UNL     1     -11.216  -6.443   5.222  1.00  0.00     0.054 A 
BRANCH  77  78
ATOM     78  S   UNL     1     -11.296  -6.012   6.983  1.00  0.00     0.124 S 
ATOM     79  O   UNL     1     -12.697  -6.276   7.296  1.00  0.00    -0.237 OA
ATOM     80  O   UNL     1     -10.329  -6.931   7.578  1.00  0.00    -0.237 OA
ATOM     81  O   UNL     1     -10.902  -4.605   7.006  1.00  0.00    -0.744 OA
ENDBRANCH  77  78
ENDBRANCH  49  72
BRANCH  61  82
ATOM     82  C   UNL     1     -15.500 -10.004  -2.017  1.00  0.00    -0.014 A 
ATOM     83  C   UNL     1     -16.595  -9.137  -1.857  1.00  0.00     0.010 A 
ATOM     84  C   UNL     1     -15.729 -11.390  -2.101  1.00  0.00     0.010 A 
ATOM     85  C   UNL     1     -17.891  -9.649  -1.753  1.00  0.00     0.020 A 
ATOM     86  C   UNL     1     -17.026 -11.903  -2.024  1.00  0.00     0.020 A 
ATOM     87  C   UNL     1     -18.099 -11.029  -1.836  1.00  0.00     0.054 A 
BRANCH  87  88
ATOM     88  S   UNL     1     -19.795 -11.666  -1.742  1.00  0.00     0.124 S 
ATOM     89  O   UNL     1     -20.094 -11.525  -0.320  1.00  0.00    -0.237 OA
ATOM     90  O   UNL     1     -20.526 -10.766  -2.630  1.00  0.00    -0.237 OA
ATOM     91  O   UNL     1     -19.676 -13.041  -2.220  1.00  0.00    -0.744 OA
ENDBRANCH  87  88
ENDBRANCH  61  82
ENDBRANCH  35  36
ENDBRANCH  28  30
ENDBRANCH  27  28
ENDBRANCH  26  27
ENDBRANCH  25  26
ENDBRANCH   1  25
TORSDOF 21
