REMARK SMILES Cc1cccc(-c2cc(C(=O)OCCOCCOC(=O)c3ccc(-c4c5nc(c(-c6ccc(S(=O)(=O)[O-])cc6)c6ccc([nH]6)c(-c6ccc(S(=O)(=O)[O-])cc6)c6nc(c(-c7ccc(S(=O)(=O)[O-])cc7)c7ccc4[nH]7)C=C6)C=C5)cc3)ccn2)c1
REMARK SMILES IDX 16 1 15 2 14 3 13 4 12 5 10 6 11 7 9 8 7 9 8 10 83 11 82 12
REMARK SMILES IDX 81 13 6 14 1 15 2 16 3 17 84 18 4 19 5 20 17 21 18 22 19 23
REMARK SMILES IDX 20 24 21 25 22 26 80 27 23 28 79 29 24 30 25 31 26 32 73 33
REMARK SMILES IDX 27 34 78 35 72 36 74 37 28 38 77 39 71 40 70 41 29 43 59 44
REMARK SMILES IDX 40 45 58 46 41 47 44 48 57 49 75 50 42 51 43 52 56 54 76 55
REMARK SMILES IDX 45 56 30 57 31 58 39 59 32 60 38 61 33 62 34 63 35 64 36 65
REMARK SMILES IDX 37 66 60 67 61 68 69 69 62 70 68 71 63 72 64 73 65 74 66 75
REMARK SMILES IDX 67 76 46 77 47 78 55 79 48 80 54 81 49 82 50 83 51 84 52 85
REMARK SMILES IDX 53 86
REMARK H PARENT 74 42 44 53
REMARK Flexibility Score: inf
ROOT
ATOM      1  C   UNL     1      -5.121   5.166  -3.739  1.00  0.00     0.202 C 
ENDROOT
BRANCH   1   2
ATOM      2  O   UNL     1      -3.727   5.328  -3.724  1.00  0.00    -0.374 OA
BRANCH   2   3
ATOM      3  C   UNL     1      -2.963   4.273  -4.282  1.00  0.00     0.202 C 
BRANCH   3   4
ATOM      4  C   UNL     1      -1.573   4.509  -3.790  1.00  0.00     0.261 C 
BRANCH   4   5
ATOM      5  O   UNL     1      -1.484   4.428  -2.346  1.00  0.00    -0.460 OA
BRANCH   5   6
ATOM      6  C   UNL     1      -2.158   5.168  -1.426  1.00  0.00     0.338 C 
ATOM      7  O   UNL     1      -2.654   6.266  -1.500  1.00  0.00    -0.246 OA
BRANCH   6   8
ATOM      8  C   UNL     1      -2.304   4.274  -0.255  1.00  0.00     0.063 A 
ATOM      9  C   UNL     1      -1.884   2.126   0.719  1.00  0.00     0.071 A 
ATOM     10  C   UNL     1      -1.586   3.087  -0.225  1.00  0.00     0.044 A 
ATOM     11  N   UNL     1      -2.843   2.310   1.653  1.00  0.00    -0.256 NA
ATOM     12  C   UNL     1      -3.476   3.515   1.653  1.00  0.00     0.112 A 
ATOM     13  C   UNL     1      -3.245   4.525   0.732  1.00  0.00     0.036 A 
BRANCH   9  14
ATOM     14  C   UNL     1      -1.159   0.857   0.636  1.00  0.00     0.000 A 
ATOM     15  C   UNL     1       2.464  -0.183   0.034  1.00  0.00     0.044 C 
ATOM     16  C   UNL     1       0.978  -0.267   0.205  1.00  0.00    -0.050 A 
ATOM     17  C   UNL     1       0.294  -1.473   0.041  1.00  0.00     0.003 A 
ATOM     18  C   UNL     1       0.246   0.878   0.525  1.00  0.00     0.013 A 
ATOM     19  C   UNL     1      -1.098  -1.521   0.170  1.00  0.00     0.001 A 
ATOM     20  C   UNL     1      -1.822  -0.362   0.463  1.00  0.00     0.010 A 
ENDBRANCH   9  14
ENDBRANCH   6   8
ENDBRANCH   5   6
ENDBRANCH   4   5
ENDBRANCH   3   4
ENDBRANCH   2   3
ENDBRANCH   1   2
BRANCH   1  21
ATOM     21  C   UNL     1      -5.655   5.109  -5.167  1.00  0.00     0.261 C 
BRANCH  21  22
ATOM     22  O   UNL     1      -5.508   6.386  -5.830  1.00  0.00    -0.460 OA
BRANCH  22  23
ATOM     23  C   UNL     1      -4.409   6.521  -6.635  1.00  0.00     0.338 C 
ATOM     24  O   UNL     1      -4.325   6.038  -7.750  1.00  0.00    -0.246 OA
BRANCH  23  25
ATOM     25  C   UNL     1      -3.354   7.334  -5.958  1.00  0.00     0.060 A 
ATOM     26  C   UNL     1      -2.003   7.265  -6.350  1.00  0.00     0.016 A 
ATOM     27  C   UNL     1      -3.695   7.979  -4.775  1.00  0.00     0.016 A 
ATOM     28  C   UNL     1      -0.985   7.702  -5.479  1.00  0.00     0.010 A 
ATOM     29  C   UNL     1      -2.696   8.277  -3.878  1.00  0.00     0.010 A 
ATOM     30  C   UNL     1      -1.334   8.136  -4.205  1.00  0.00    -0.014 A 
BRANCH  30  31
ATOM     31  C   UNL     1      -0.445   8.474  -3.084  1.00  0.00     0.031 A 
ATOM     32  C   UNL     1      -0.575   9.847  -2.534  1.00  0.00     0.074 A 
ATOM     33  C   UNL     1       0.129   7.500  -2.333  1.00  0.00     0.049 A 
ATOM     34  N   UNL     1       0.062  10.278  -1.507  1.00  0.00    -0.248 NA
ATOM     35  C   UNL     1      -1.452  10.872  -3.108  1.00  0.00     0.031 C 
ATOM     36  C   UNL     1       0.393   7.496  -0.891  1.00  0.00     0.029 A 
ATOM     37  N   UNL     1       0.609   6.254  -2.726  1.00  0.00    -0.354 N 
ATOM     38  C   UNL     1      -0.561  11.425  -1.076  1.00  0.00     0.074 A 
ATOM     39  C   UNL     1      -1.429  11.811  -2.157  1.00  0.00     0.031 C 
ATOM     40  C   UNL     1       1.185   6.455  -0.572  1.00  0.00     0.029 A 
ATOM     41  C   UNL     1       1.579   5.815  -1.816  1.00  0.00     0.049 A 
ATOM     42  H   UNL     1       0.312   5.757  -3.522  1.00  0.00     0.167 HD
ATOM     43  C   UNL     1      -0.349  11.815   0.211  1.00  0.00     0.031 A 
ATOM     44  C   UNL     1       2.840   5.544  -2.250  1.00  0.00     0.031 A 
ATOM     45  C   UNL     1       0.698  10.987   0.828  1.00  0.00     0.049 A 
ATOM     46  C   UNL     1       3.740   6.606  -1.678  1.00  0.00     0.074 A 
ATOM     47  C   UNL     1       0.682   9.966   1.762  1.00  0.00     0.029 A 
ATOM     48  N   UNL     1       1.946  10.929   0.208  1.00  0.00    -0.354 N 
ATOM     49  N   UNL     1       3.290   7.774  -1.303  1.00  0.00    -0.248 NA
ATOM     50  C   UNL     1       5.145   6.411  -1.337  1.00  0.00     0.031 C 
ATOM     51  C   UNL     1       1.895   9.228   1.615  1.00  0.00     0.029 A 
ATOM     52  C   UNL     1       2.659   9.818   0.617  1.00  0.00     0.049 A 
ATOM     53  H   UNL     1       2.277  11.594  -0.438  1.00  0.00     0.167 HD
ATOM     54  C   UNL     1       4.240   8.414  -0.575  1.00  0.00     0.074 A 
ATOM     55  C   UNL     1       5.410   7.554  -0.677  1.00  0.00     0.031 C 
ATOM     56  C   UNL     1       4.004   9.573   0.102  1.00  0.00     0.031 A 
BRANCH  43  57
ATOM     57  C   UNL     1      -1.207  12.799   0.980  1.00  0.00    -0.014 A 
ATOM     58  C   UNL     1      -1.034  12.913   2.376  1.00  0.00     0.010 A 
ATOM     59  C   UNL     1      -2.226  13.599   0.424  1.00  0.00     0.010 A 
ATOM     60  C   UNL     1      -1.832  13.757   3.165  1.00  0.00     0.020 A 
ATOM     61  C   UNL     1      -3.031  14.451   1.199  1.00  0.00     0.020 A 
ATOM     62  C   UNL     1      -2.829  14.524   2.570  1.00  0.00     0.054 A 
BRANCH  62  63
ATOM     63  S   UNL     1      -3.837  15.620   3.602  1.00  0.00     0.124 S 
ATOM     64  O   UNL     1      -4.484  14.682   4.516  1.00  0.00    -0.237 OA
ATOM     65  O   UNL     1      -2.836  16.496   4.202  1.00  0.00    -0.237 OA
ATOM     66  O   UNL     1      -4.735  16.269   2.648  1.00  0.00    -0.744 OA
ENDBRANCH  62  63
ENDBRANCH  43  57
BRANCH  44  67
ATOM     67  C   UNL     1       2.841   4.900  -3.610  1.00  0.00    -0.014 A 
ATOM     68  C   UNL     1       2.455   3.536  -3.663  1.00  0.00     0.010 A 
ATOM     69  C   UNL     1       2.663   5.676  -4.772  1.00  0.00     0.010 A 
ATOM     70  C   UNL     1       1.751   3.018  -4.765  1.00  0.00     0.020 A 
ATOM     71  C   UNL     1       1.942   5.164  -5.870  1.00  0.00     0.020 A 
ATOM     72  C   UNL     1       1.445   3.856  -5.838  1.00  0.00     0.054 A 
BRANCH  72  73
ATOM     73  S   UNL     1       0.160   3.328  -7.034  1.00  0.00     0.124 S 
ATOM     74  O   UNL     1       0.916   2.495  -7.960  1.00  0.00    -0.237 OA
ATOM     75  O   UNL     1      -0.803   2.613  -6.195  1.00  0.00    -0.237 OA
ATOM     76  O   UNL     1      -0.334   4.593  -7.569  1.00  0.00    -0.744 OA
ENDBRANCH  72  73
ENDBRANCH  44  67
BRANCH  56  77
ATOM     77  C   UNL     1       5.090  10.566   0.389  1.00  0.00    -0.014 A 
ATOM     78  C   UNL     1       6.324  10.549  -0.279  1.00  0.00     0.010 A 
ATOM     79  C   UNL     1       4.816  11.670   1.227  1.00  0.00     0.010 A 
ATOM     80  C   UNL     1       7.285  11.528  -0.040  1.00  0.00     0.020 A 
ATOM     81  C   UNL     1       5.743  12.692   1.417  1.00  0.00     0.020 A 
ATOM     82  C   UNL     1       6.990  12.588   0.814  1.00  0.00     0.054 A 
BRANCH  82  83
ATOM     83  S   UNL     1       8.253  13.839   1.109  1.00  0.00     0.124 S 
ATOM     84  O   UNL     1       9.109  13.166   2.083  1.00  0.00    -0.237 OA
ATOM     85  O   UNL     1       8.838  14.025  -0.216  1.00  0.00    -0.237 OA
ATOM     86  O   UNL     1       7.497  14.980   1.618  1.00  0.00    -0.744 OA
ENDBRANCH  82  83
ENDBRANCH  56  77
ENDBRANCH  30  31
ENDBRANCH  23  25
ENDBRANCH  22  23
ENDBRANCH  21  22
ENDBRANCH   1  21
TORSDOF 18
