REMARK SMILES CCn1ccc([C@@H](C)NC(=O)[C@H](C)n2ccc(C(=O)OCCOCCOC(=O)c3ccc(-c4c5nc(c(-c6ccc(S(=O)(=O)[O-])cc6)c6ccc([nH]6)c(-c6ccc(S(=O)(=O)[O-])cc6)c6nc(c(-c7ccc(S(=O)(=O)[O-])cc7)c7ccc4[nH]7)C=C6)C=C5)cc3)n2)n1
REMARK SMILES IDX 22 1 21 2 20 3 18 4 19 5 17 6 14 7 15 8 89 9 16 10 12 11
REMARK SMILES IDX 13 12 10 13 9 14 11 16 7 17 8 18 6 19 3 20 4 21 90 22 5 23
REMARK SMILES IDX 2 24 1 25 23 26 24 27 25 28 26 29 27 30 28 31 29 32 30 33
REMARK SMILES IDX 88 34 31 35 87 36 32 37 33 38 34 39 81 40 35 41 86 42 80 43
REMARK SMILES IDX 82 44 36 45 85 46 79 47 78 48 37 50 67 51 48 52 66 53 49 54
REMARK SMILES IDX 52 55 65 56 83 57 50 58 51 59 64 61 84 62 53 63 38 64 39 65
REMARK SMILES IDX 47 66 40 67 46 68 41 69 42 70 43 71 44 72 45 73 68 74 69 75
REMARK SMILES IDX 77 76 70 77 76 78 71 79 72 80 73 81 74 82 75 83 54 84 55 85
REMARK SMILES IDX 63 86 56 87 62 88 57 89 58 90 59 91 60 92 61 93
REMARK H PARENT 9 15 82 49 52 60
REMARK Flexibility Score: inf
ROOT
ATOM      1  C   UNL     1       7.057  -8.068   7.957  1.00  0.00     0.202 C 
ENDROOT
BRANCH   1   2
ATOM      2  C   UNL     1       5.886  -7.900   8.932  1.00  0.00     0.261 C 
BRANCH   2   3
ATOM      3  O   UNL     1       4.897  -6.950   8.509  1.00  0.00    -0.458 OA
BRANCH   3   4
ATOM      4  C   UNL     1       4.894  -5.776   9.214  1.00  0.00     0.358 C 
ATOM      5  O   UNL     1       5.627  -5.549  10.173  1.00  0.00    -0.244 OA
BRANCH   4   6
ATOM      6  C   UNL     1       4.059  -4.720   8.625  1.00  0.00     0.170 A 
ATOM      7  N   UNL     1       2.466  -3.655   7.666  1.00  0.00    -0.260 N 
ATOM      8  C   UNL     1       3.350  -2.691   8.069  1.00  0.00     0.110 A 
ATOM      9  N   UNL     1       2.882  -4.906   7.995  1.00  0.00    -0.165 NA
ATOM     10  C   UNL     1       4.396  -3.344   8.662  1.00  0.00     0.057 A 
BRANCH   7  11
ATOM     11  C   UNL     1       1.136  -3.462   7.090  1.00  0.00     0.193 C 
ATOM     12  C   UNL     1       0.434  -2.138   7.420  1.00  0.00     0.044 C 
BRANCH  11  13
ATOM     13  C   UNL     1       1.056  -3.786   5.604  1.00  0.00     0.245 C 
ATOM     14  N   UNL     1       1.651  -3.040   4.636  1.00  0.00    -0.346 N 
ATOM     15  H   UNL     1       1.396  -3.292   3.719  1.00  0.00     0.164 HD
ATOM     16  O   UNL     1       0.327  -4.705   5.211  1.00  0.00    -0.273 OA
BRANCH  14  17
ATOM     17  C   UNL     1       2.599  -1.935   4.709  1.00  0.00     0.130 C 
ATOM     18  C   UNL     1       2.026  -0.690   4.039  1.00  0.00     0.038 C 
BRANCH  17  19
ATOM     19  C   UNL     1       3.901  -2.367   4.083  1.00  0.00     0.084 A 
ATOM     20  N   UNL     1       5.988  -2.744   3.904  1.00  0.00    -0.273 N 
ATOM     21  C   UNL     1       5.460  -3.152   2.714  1.00  0.00     0.109 A 
ATOM     22  N   UNL     1       5.058  -2.269   4.760  1.00  0.00    -0.176 NA
ATOM     23  C   UNL     1       4.112  -2.902   2.787  1.00  0.00     0.047 A 
BRANCH  20  24
ATOM     24  C   UNL     1       7.351  -2.928   4.361  1.00  0.00     0.141 C 
ATOM     25  C   UNL     1       8.431  -2.433   3.420  1.00  0.00     0.029 C 
ENDBRANCH  20  24
ENDBRANCH  17  19
ENDBRANCH  14  17
ENDBRANCH  11  13
ENDBRANCH   7  11
ENDBRANCH   4   6
ENDBRANCH   3   4
ENDBRANCH   2   3
ENDBRANCH   1   2
BRANCH   1  26
ATOM     26  O   UNL     1       7.816  -6.920   7.586  1.00  0.00    -0.374 OA
BRANCH  26  27
ATOM     27  C   UNL     1       7.194  -5.875   6.852  1.00  0.00     0.202 C 
BRANCH  27  28
ATOM     28  C   UNL     1       6.587  -6.174   5.492  1.00  0.00     0.261 C 
BRANCH  28  29
ATOM     29  O   UNL     1       5.792  -7.338   5.450  1.00  0.00    -0.460 OA
BRANCH  29  30
ATOM     30  C   UNL     1       6.414  -8.347   4.801  1.00  0.00     0.338 C 
ATOM     31  O   UNL     1       7.611  -8.575   4.773  1.00  0.00    -0.246 OA
BRANCH  30  32
ATOM     32  C   UNL     1       5.433  -8.996   3.936  1.00  0.00     0.060 A 
ATOM     33  C   UNL     1       5.895 -10.071   3.177  1.00  0.00     0.016 A 
ATOM     34  C   UNL     1       4.206  -8.361   3.680  1.00  0.00     0.016 A 
ATOM     35  C   UNL     1       5.194 -10.412   2.047  1.00  0.00     0.010 A 
ATOM     36  C   UNL     1       3.520  -8.686   2.539  1.00  0.00     0.010 A 
ATOM     37  C   UNL     1       4.060  -9.664   1.710  1.00  0.00    -0.014 A 
BRANCH  37  38
ATOM     38  C   UNL     1       3.381 -10.013   0.491  1.00  0.00     0.031 A 
ATOM     39  C   UNL     1       2.569 -11.238   0.616  1.00  0.00     0.074 A 
ATOM     40  C   UNL     1       3.410  -9.235  -0.601  1.00  0.00     0.049 A 
ATOM     41  N   UNL     1       2.815 -12.401   0.117  1.00  0.00    -0.248 NA
ATOM     42  C   UNL     1       1.453 -11.206   1.575  1.00  0.00     0.031 C 
ATOM     43  C   UNL     1       3.890  -7.858  -0.728  1.00  0.00     0.029 A 
ATOM     44  N   UNL     1       2.879  -9.497  -1.819  1.00  0.00    -0.354 N 
ATOM     45  C   UNL     1       1.762 -13.205   0.531  1.00  0.00     0.074 A 
ATOM     46  C   UNL     1       1.092 -12.487   1.586  1.00  0.00     0.031 C 
ATOM     47  C   UNL     1       3.404  -7.334  -1.877  1.00  0.00     0.029 A 
ATOM     48  C   UNL     1       2.700  -8.376  -2.609  1.00  0.00     0.049 A 
ATOM     49  H   UNL     1       2.641 -10.405  -2.115  1.00  0.00     0.167 HD
ATOM     50  C   UNL     1       1.347 -14.274  -0.200  1.00  0.00     0.031 A 
ATOM     51  C   UNL     1       1.923  -8.312  -3.719  1.00  0.00     0.031 A 
ATOM     52  C   UNL     1       2.318 -14.659  -1.191  1.00  0.00     0.049 A 
ATOM     53  C   UNL     1       1.707  -9.709  -4.189  1.00  0.00     0.074 A 
ATOM     54  C   UNL     1       3.635 -15.072  -1.144  1.00  0.00     0.029 A 
ATOM     55  N   UNL     1       2.094 -14.247  -2.485  1.00  0.00    -0.354 N 
ATOM     56  N   UNL     1       2.663 -10.472  -4.644  1.00  0.00    -0.248 NA
ATOM     57  C   UNL     1       0.521 -10.417  -3.727  1.00  0.00     0.031 C 
ATOM     58  C   UNL     1       4.256 -14.457  -2.270  1.00  0.00     0.029 A 
ATOM     59  C   UNL     1       3.277 -13.750  -2.972  1.00  0.00     0.049 A 
ATOM     60  H   UNL     1       1.240 -14.300  -2.973  1.00  0.00     0.167 HD
ATOM     61  C   UNL     1       2.384 -11.740  -4.147  1.00  0.00     0.074 A 
ATOM     62  C   UNL     1       1.003 -11.663  -3.675  1.00  0.00     0.031 C 
ATOM     63  C   UNL     1       3.378 -12.649  -3.910  1.00  0.00     0.031 A 
BRANCH  50  64
ATOM     64  C   UNL     1      -0.099 -14.688  -0.277  1.00  0.00    -0.014 A 
ATOM     65  C   UNL     1      -0.439 -15.860  -0.977  1.00  0.00     0.010 A 
ATOM     66  C   UNL     1      -1.158 -13.827   0.086  1.00  0.00     0.010 A 
ATOM     67  C   UNL     1      -1.765 -16.120  -1.347  1.00  0.00     0.020 A 
ATOM     68  C   UNL     1      -2.486 -14.101  -0.233  1.00  0.00     0.020 A 
ATOM     69  C   UNL     1      -2.776 -15.229  -0.983  1.00  0.00     0.054 A 
BRANCH  69  70
ATOM     70  S   UNL     1      -4.465 -15.508  -1.564  1.00  0.00     0.124 S 
ATOM     71  O   UNL     1      -4.323 -15.296  -3.001  1.00  0.00    -0.237 OA
ATOM     72  O   UNL     1      -4.713 -16.884  -1.145  1.00  0.00    -0.237 OA
ATOM     73  O   UNL     1      -5.243 -14.495  -0.853  1.00  0.00    -0.744 OA
ENDBRANCH  69  70
ENDBRANCH  50  64
BRANCH  51  74
ATOM     74  C   UNL     1       1.065  -7.172  -4.127  1.00  0.00    -0.014 A 
ATOM     75  C   UNL     1       0.472  -7.128  -5.401  1.00  0.00     0.010 A 
ATOM     76  C   UNL     1       0.614  -6.244  -3.163  1.00  0.00     0.010 A 
ATOM     77  C   UNL     1      -0.568  -6.225  -5.681  1.00  0.00     0.020 A 
ATOM     78  C   UNL     1      -0.412  -5.335  -3.437  1.00  0.00     0.020 A 
ATOM     79  C   UNL     1      -1.015  -5.345  -4.691  1.00  0.00     0.054 A 
BRANCH  79  80
ATOM     80  S   UNL     1      -2.466  -4.298  -5.006  1.00  0.00     0.124 S 
ATOM     81  O   UNL     1      -1.949  -3.337  -5.976  1.00  0.00    -0.237 OA
ATOM     82  O   UNL     1      -3.442  -5.255  -5.520  1.00  0.00    -0.237 OA
ATOM     83  O   UNL     1      -2.780  -3.742  -3.691  1.00  0.00    -0.744 OA
ENDBRANCH  79  80
ENDBRANCH  51  74
BRANCH  63  84
ATOM     84  C   UNL     1       4.760 -12.365  -4.458  1.00  0.00    -0.014 A 
ATOM     85  C   UNL     1       5.528 -11.241  -4.095  1.00  0.00     0.010 A 
ATOM     86  C   UNL     1       5.367 -13.362  -5.244  1.00  0.00     0.010 A 
ATOM     87  C   UNL     1       6.856 -11.107  -4.529  1.00  0.00     0.020 A 
ATOM     88  C   UNL     1       6.694 -13.244  -5.664  1.00  0.00     0.020 A 
ATOM     89  C   UNL     1       7.431 -12.113  -5.312  1.00  0.00     0.054 A 
BRANCH  89  90
ATOM     90  S   UNL     1       9.165 -11.960  -5.828  1.00  0.00     0.124 S 
ATOM     91  O   UNL     1       9.116 -10.858  -6.784  1.00  0.00    -0.237 OA
ATOM     92  O   UNL     1       9.855 -11.673  -4.572  1.00  0.00    -0.237 OA
ATOM     93  O   UNL     1       9.472 -13.267  -6.408  1.00  0.00    -0.744 OA
ENDBRANCH  89  90
ENDBRANCH  63  84
ENDBRANCH  37  38
ENDBRANCH  30  32
ENDBRANCH  29  30
ENDBRANCH  28  29
ENDBRANCH  27  28
ENDBRANCH  26  27
ENDBRANCH   1  26
TORSDOF 22
