REMARK SMILES Cc1c(C(=O)Nc2ccc(C(=O)Nc3ccccc3C(=O)OCCOCCOC(=O)c3ccc(-c4c5nc(c(-c6ccc(S(=O)(=O)[O-])cc6)c6ccc([nH]6)c(-c6ccc(S(=O)(=O)[O-])cc6)c6nc(c(-c7ccc(S(=O)(=O)[O-])cc7)c7ccc4[nH]7)C=C6)C=C5)cc3)cc2)cccc1[N+](=O)[O-]
REMARK SMILES IDX 24 1 23 2 22 3 20 4 21 5 19 6 14 7 15 8 16 9 18 10 17 11
REMARK SMILES IDX 13 12 11 13 12 14 10 16 7 17 8 18 92 19 9 20 91 21 6 22 4 23
REMARK SMILES IDX 5 24 3 26 1 27 2 28 96 29 93 30 95 31 94 32 97 33 98 34
REMARK SMILES IDX 99 35 25 36 26 37 27 38 28 39 29 40 30 41 31 42 32 43 90 44
REMARK SMILES IDX 33 45 89 46 34 47 35 48 36 49 83 50 37 51 88 52 82 53 84 54
REMARK SMILES IDX 38 55 87 56 81 57 80 58 39 60 69 61 50 62 68 63 51 64 54 65
REMARK SMILES IDX 67 66 85 67 52 68 53 69 66 71 86 72 55 73 40 74 41 75 49 76
REMARK SMILES IDX 42 77 48 78 43 79 44 80 45 81 46 82 47 83 70 84 71 85 79 86
REMARK SMILES IDX 72 87 78 88 73 89 74 90 75 91 76 92 77 93 56 94 57 95 65 96
REMARK SMILES IDX 58 97 64 98 59 99 60 100 61 101 62 102 63 103
REMARK H PARENT 13 15 6 25 84 59 54 70
REMARK Flexibility Score: inf
ROOT
ATOM      1  C   UNL     1       4.333  -1.500   1.799  1.00  0.00     0.202 C 
ENDROOT
BRANCH   1   2
ATOM      2  C   UNL     1       3.573  -0.769   2.900  1.00  0.00     0.261 C 
BRANCH   2   3
ATOM      3  O   UNL     1       3.314   0.649   2.821  1.00  0.00    -0.460 OA
BRANCH   3   4
ATOM      4  C   UNL     1       4.211   1.639   2.558  1.00  0.00     0.340 C 
ATOM      5  O   UNL     1       5.329   1.589   2.148  1.00  0.00    -0.246 OA
BRANCH   4   6
ATOM      6  C   UNL     1       3.408   2.893   2.682  1.00  0.00     0.083 A 
ATOM      7  C   UNL     1       3.438   3.891   1.691  1.00  0.00     0.056 A 
ATOM      8  C   UNL     1       2.552   4.975   1.784  1.00  0.00     0.027 A 
ATOM      9  C   UNL     1       1.593   5.030   2.796  1.00  0.00     0.002 A 
ATOM     10  C   UNL     1       2.494   3.009   3.749  1.00  0.00     0.018 A 
ATOM     11  C   UNL     1       1.571   4.054   3.786  1.00  0.00     0.001 A 
BRANCH   7  12
ATOM     12  N   UNL     1       4.225   3.884   0.531  1.00  0.00    -0.321 N 
ATOM     13  C   UNL     1       4.260   3.033  -0.553  1.00  0.00     0.255 C 
ATOM     14  O   UNL     1       5.013   3.336  -1.484  1.00  0.00    -0.269 OA
ATOM     15  H   UNL     1       4.872   4.624   0.481  1.00  0.00     0.170 HD
BRANCH  13  16
ATOM     16  C   UNL     1       3.414   1.810  -0.713  1.00  0.00     0.040 A 
ATOM     17  C   UNL     1       2.128  -0.691  -0.972  1.00  0.00     0.041 A 
ATOM     18  C   UNL     1       1.782   0.187   0.049  1.00  0.00     0.027 A 
ATOM     19  C   UNL     1       3.120  -0.320  -1.876  1.00  0.00     0.027 A 
ATOM     20  C   UNL     1       2.350   1.458   0.111  1.00  0.00     0.016 A 
ATOM     21  C   UNL     1       3.752   0.924  -1.751  1.00  0.00     0.016 A 
BRANCH  17  22
ATOM     22  N   UNL     1       1.436  -1.892  -1.189  1.00  0.00    -0.322 N 
ATOM     23  C   UNL     1       0.072  -2.119  -1.087  1.00  0.00     0.256 C 
ATOM     24  O   UNL     1      -0.400  -3.240  -1.256  1.00  0.00    -0.269 OA
ATOM     25  H   UNL     1       1.985  -2.668  -1.444  1.00  0.00     0.170 HD
BRANCH  23  26
ATOM     26  C   UNL     1      -0.861  -0.979  -0.826  1.00  0.00     0.049 A 
ATOM     27  C   UNL     1      -0.031   0.415  -2.784  1.00  0.00     0.053 C 
ATOM     28  C   UNL     1      -0.750   0.282  -1.465  1.00  0.00     0.039 A 
ATOM     29  C   UNL     1      -1.336   1.381  -0.801  1.00  0.00     0.273 A 
ATOM     30  C   UNL     1      -1.784  -1.178   0.212  1.00  0.00     0.014 A 
ATOM     31  C   UNL     1      -2.245   1.179   0.254  1.00  0.00     0.086 A 
ATOM     32  C   UNL     1      -2.518  -0.108   0.712  1.00  0.00     0.008 A 
BRANCH  29  33
ATOM     33  N   UNL     1      -0.906   2.776  -1.052  1.00  0.00     0.063 N 
ATOM     34  O   UNL     1      -1.147   3.611  -0.165  1.00  0.00    -0.258 OA
ATOM     35  O   UNL     1      -0.319   3.047  -2.105  1.00  0.00    -0.258 OA
ENDBRANCH  29  33
ENDBRANCH  23  26
ENDBRANCH  17  22
ENDBRANCH  13  16
ENDBRANCH   7  12
ENDBRANCH   4   6
ENDBRANCH   3   4
ENDBRANCH   2   3
ENDBRANCH   1   2
BRANCH   1  36
ATOM     36  O   UNL     1       5.671  -1.069   1.670  1.00  0.00    -0.374 OA
BRANCH  36  37
ATOM     37  C   UNL     1       6.037  -0.695   0.359  1.00  0.00     0.202 C 
BRANCH  37  38
ATOM     38  C   UNL     1       6.057  -1.799  -0.711  1.00  0.00     0.261 C 
BRANCH  38  39
ATOM     39  O   UNL     1       6.073  -3.222  -0.399  1.00  0.00    -0.460 OA
BRANCH  39  40
ATOM     40  C   UNL     1       6.918  -3.975   0.348  1.00  0.00     0.338 C 
ATOM     41  O   UNL     1       7.012  -5.188   0.218  1.00  0.00    -0.246 OA
BRANCH  40  42
ATOM     42  C   UNL     1       7.728  -3.264   1.332  1.00  0.00     0.060 A 
ATOM     43  C   UNL     1       7.439  -3.369   2.694  1.00  0.00     0.016 A 
ATOM     44  C   UNL     1       8.630  -2.332   0.864  1.00  0.00     0.016 A 
ATOM     45  C   UNL     1       7.831  -2.332   3.545  1.00  0.00     0.010 A 
ATOM     46  C   UNL     1       8.964  -1.292   1.710  1.00  0.00     0.010 A 
ATOM     47  C   UNL     1       8.434  -1.190   3.009  1.00  0.00    -0.014 A 
BRANCH  47  48
ATOM     48  C   UNL     1       8.350   0.149   3.653  1.00  0.00     0.031 A 
ATOM     49  C   UNL     1       9.503   1.067   3.587  1.00  0.00     0.074 A 
ATOM     50  C   UNL     1       7.278   0.632   4.321  1.00  0.00     0.049 A 
ATOM     51  N   UNL     1      10.250   1.390   4.601  1.00  0.00    -0.248 NA
ATOM     52  C   UNL     1       9.982   1.575   2.297  1.00  0.00     0.031 C 
ATOM     53  C   UNL     1       7.099   1.996   4.822  1.00  0.00     0.029 A 
ATOM     54  N   UNL     1       6.117   0.001   4.728  1.00  0.00    -0.354 N 
ATOM     55  C   UNL     1      11.136   2.305   4.069  1.00  0.00     0.074 A 
ATOM     56  C   UNL     1      11.198   1.955   2.674  1.00  0.00     0.031 C 
ATOM     57  C   UNL     1       6.016   2.030   5.619  1.00  0.00     0.029 A 
ATOM     58  C   UNL     1       5.546   0.665   5.804  1.00  0.00     0.049 A 
ATOM     59  H   UNL     1       5.746  -0.810   4.310  1.00  0.00     0.167 HD
ATOM     60  C   UNL     1      11.327   3.550   4.610  1.00  0.00     0.031 A 
ATOM     61  C   UNL     1       5.256   0.083   7.006  1.00  0.00     0.031 A 
ATOM     62  C   UNL     1      10.459   3.784   5.774  1.00  0.00     0.049 A 
ATOM     63  C   UNL     1       6.197   0.600   8.083  1.00  0.00     0.074 A 
ATOM     64  C   UNL     1       9.407   4.661   5.994  1.00  0.00     0.029 A 
ATOM     65  N   UNL     1      10.423   2.874   6.826  1.00  0.00    -0.354 N 
ATOM     66  N   UNL     1       7.137   1.472   7.842  1.00  0.00    -0.248 NA
ATOM     67  C   UNL     1       6.211   0.169   9.480  1.00  0.00     0.031 C 
ATOM     68  C   UNL     1       8.701   4.230   7.151  1.00  0.00     0.029 A 
ATOM     69  C   UNL     1       9.343   3.115   7.660  1.00  0.00     0.049 A 
ATOM     70  H   UNL     1      11.079   2.153   6.961  1.00  0.00     0.167 HD
ATOM     71  C   UNL     1       7.954   1.601   8.922  1.00  0.00     0.074 A 
ATOM     72  C   UNL     1       7.293   0.820   9.952  1.00  0.00     0.031 C 
ATOM     73  C   UNL     1       9.134   2.282   8.842  1.00  0.00     0.031 A 
BRANCH  60  74
ATOM     74  C   UNL     1      12.053   4.682   3.867  1.00  0.00    -0.014 A 
ATOM     75  C   UNL     1      12.090   5.986   4.397  1.00  0.00     0.010 A 
ATOM     76  C   UNL     1      12.750   4.526   2.648  1.00  0.00     0.010 A 
ATOM     77  C   UNL     1      12.745   7.049   3.735  1.00  0.00     0.020 A 
ATOM     78  C   UNL     1      13.367   5.571   1.954  1.00  0.00     0.020 A 
ATOM     79  C   UNL     1      13.377   6.833   2.511  1.00  0.00     0.054 A 
BRANCH  79  80
ATOM     80  S   UNL     1      14.275   8.166   1.681  1.00  0.00     0.124 S 
ATOM     81  O   UNL     1      13.227   9.157   1.452  1.00  0.00    -0.237 OA
ATOM     82  O   UNL     1      15.285   8.526   2.672  1.00  0.00    -0.237 OA
ATOM     83  O   UNL     1      14.799   7.534   0.470  1.00  0.00    -0.744 OA
ENDBRANCH  79  80
ENDBRANCH  60  74
BRANCH  61  84
ATOM     84  C   UNL     1       4.664  -1.284   6.917  1.00  0.00    -0.014 A 
ATOM     85  C   UNL     1       3.280  -1.367   6.646  1.00  0.00     0.010 A 
ATOM     86  C   UNL     1       5.470  -2.399   6.631  1.00  0.00     0.010 A 
ATOM     87  C   UNL     1       2.754  -2.447   5.923  1.00  0.00     0.020 A 
ATOM     88  C   UNL     1       4.952  -3.470   5.882  1.00  0.00     0.020 A 
ATOM     89  C   UNL     1       3.612  -3.455   5.480  1.00  0.00     0.054 A 
BRANCH  89  90
ATOM     90  S   UNL     1       3.052  -4.538   4.120  1.00  0.00     0.124 S 
ATOM     91  O   UNL     1       2.318  -5.577   4.829  1.00  0.00    -0.237 OA
ATOM     92  O   UNL     1       2.238  -3.631   3.310  1.00  0.00    -0.237 OA
ATOM     93  O   UNL     1       4.305  -4.946   3.494  1.00  0.00    -0.744 OA
ENDBRANCH  89  90
ENDBRANCH  61  84
BRANCH  73  94
ATOM     94  C   UNL     1      10.212   2.247   9.889  1.00  0.00    -0.014 A 
ATOM     95  C   UNL     1      10.414   1.165  10.759  1.00  0.00     0.010 A 
ATOM     96  C   UNL     1      11.169   3.288   9.913  1.00  0.00     0.010 A 
ATOM     97  C   UNL     1      11.478   1.160  11.668  1.00  0.00     0.020 A 
ATOM     98  C   UNL     1      12.262   3.269  10.780  1.00  0.00     0.020 A 
ATOM     99  C   UNL     1      12.388   2.218  11.680  1.00  0.00     0.054 A 
BRANCH  99 100
ATOM    100  S   UNL     1      13.762   2.196  12.855  1.00  0.00     0.124 S 
ATOM    101  O   UNL     1      13.133   2.740  14.056  1.00  0.00    -0.237 OA
ATOM    102  O   UNL     1      14.115   0.779  12.921  1.00  0.00    -0.237 OA
ATOM    103  O   UNL     1      14.765   3.053  12.229  1.00  0.00    -0.744 OA
ENDBRANCH  99 100
ENDBRANCH  73  94
ENDBRANCH  47  48
ENDBRANCH  40  42
ENDBRANCH  39  40
ENDBRANCH  38  39
ENDBRANCH  37  38
ENDBRANCH  36  37
ENDBRANCH   1  36
TORSDOF 22
