REMARK SMILES O=C(OCCOCCOC(=O)C1([C@H]2CS(=O)(=O)C[C@H]2O)CCCC1)c1ccc(-c2c3nc(c(-c4ccc(S(=O)(=O)[O-])cc4)c4ccc([nH]4)c(-c4ccc(S(=O)(=O)[O-])cc4)c4nc(c(-c5ccc(S(=O)(=O)[O-])cc5)c5ccc2[nH]5)C=C4)C=C3)cc1
REMARK SMILES IDX 5 1 4 2 3 3 2 4 1 5 25 6 26 7 84 8 27 9 83 10 28 11 29 12
REMARK SMILES IDX 30 13 77 14 31 15 82 16 76 17 78 18 32 19 81 20 75 21 74 22
REMARK SMILES IDX 33 24 63 25 44 26 62 27 45 28 48 29 61 30 79 31 46 32 47 33
REMARK SMILES IDX 60 35 80 36 49 37 34 38 35 39 43 40 36 41 42 42 37 43 38 44
REMARK SMILES IDX 39 45 40 46 41 47 64 48 65 49 73 50 66 51 72 52 67 53 68 54
REMARK SMILES IDX 69 55 70 56 71 57 50 58 51 59 59 60 52 61 58 62 53 63 54 64
REMARK SMILES IDX 55 65 56 66 57 67 6 68 7 69 8 70 9 71 10 72 11 73 12 74
REMARK SMILES IDX 21 75 24 76 22 77 23 78 13 79 14 80 19 81 15 82 18 83 16 84
REMARK SMILES IDX 17 85 20 86
REMARK H PARENT 78 23 48 34 20 87
REMARK Flexibility Score: inf
ROOT
ATOM      1  C   UNL     1       7.128   0.334   1.963  1.00  0.00     0.202 C 
ENDROOT
BRANCH   1   2
ATOM      2  C   UNL     1       8.227  -0.437   2.683  1.00  0.00     0.261 C 
BRANCH   2   3
ATOM      3  O   UNL     1       8.280  -1.813   2.281  1.00  0.00    -0.460 OA
BRANCH   3   4
ATOM      4  C   UNL     1       7.804  -2.844   3.033  1.00  0.00     0.338 C 
ATOM      5  O   UNL     1       8.065  -4.004   2.737  1.00  0.00    -0.246 OA
BRANCH   4   6
ATOM      6  C   UNL     1       6.979  -2.557   4.232  1.00  0.00     0.060 A 
ATOM      7  C   UNL     1       5.985  -1.594   4.187  1.00  0.00     0.016 A 
ATOM      8  C   UNL     1       7.127  -3.278   5.411  1.00  0.00     0.016 A 
ATOM      9  C   UNL     1       5.351  -1.124   5.301  1.00  0.00     0.010 A 
ATOM     10  C   UNL     1       6.283  -2.993   6.494  1.00  0.00     0.010 A 
ATOM     11  C   UNL     1       5.397  -1.902   6.436  1.00  0.00    -0.014 A 
BRANCH  11  12
ATOM     12  C   UNL     1       4.476  -1.508   7.513  1.00  0.00     0.031 A 
ATOM     13  C   UNL     1       5.064  -1.073   8.810  1.00  0.00     0.074 A 
ATOM     14  C   UNL     1       3.154  -1.408   7.247  1.00  0.00     0.049 A 
ATOM     15  N   UNL     1       4.457  -0.804   9.928  1.00  0.00    -0.248 NA
ATOM     16  C   UNL     1       6.530  -0.921   8.858  1.00  0.00     0.031 C 
ATOM     17  C   UNL     1       2.518  -1.666   5.942  1.00  0.00     0.029 A 
ATOM     18  N   UNL     1       2.107  -1.015   8.034  1.00  0.00    -0.354 N 
ATOM     19  C   UNL     1       5.467  -0.508  10.829  1.00  0.00     0.074 A 
ATOM     20  C   UNL     1       6.726  -0.632  10.134  1.00  0.00     0.031 C 
ATOM     21  C   UNL     1       1.212  -1.371   6.012  1.00  0.00     0.029 A 
ATOM     22  C   UNL     1       0.891  -1.036   7.387  1.00  0.00     0.049 A 
ATOM     23  H   UNL     1       2.212  -0.742   8.975  1.00  0.00     0.167 HD
ATOM     24  C   UNL     1       5.333  -0.174  12.130  1.00  0.00     0.031 A 
ATOM     25  C   UNL     1      -0.352  -0.869   7.874  1.00  0.00     0.031 A 
ATOM     26  C   UNL     1       4.054  -0.058  12.771  1.00  0.00     0.049 A 
ATOM     27  C   UNL     1      -0.467  -0.615   9.351  1.00  0.00     0.074 A 
ATOM     28  C   UNL     1       3.772   0.194  14.099  1.00  0.00     0.029 A 
ATOM     29  N   UNL     1       2.836  -0.176  12.112  1.00  0.00    -0.354 N 
ATOM     30  N   UNL     1       0.493  -0.445  10.232  1.00  0.00    -0.248 NA
ATOM     31  C   UNL     1      -1.821  -0.551   9.906  1.00  0.00     0.031 C 
ATOM     32  C   UNL     1       2.382   0.176  14.252  1.00  0.00     0.029 A 
ATOM     33  C   UNL     1       1.797  -0.017  13.008  1.00  0.00     0.049 A 
ATOM     34  H   UNL     1       2.729  -0.347  11.149  1.00  0.00     0.167 HD
ATOM     35  C   UNL     1      -0.142  -0.238  11.447  1.00  0.00     0.074 A 
ATOM     36  C   UNL     1      -1.568  -0.268  11.176  1.00  0.00     0.031 C 
ATOM     37  C   UNL     1       0.393  -0.052  12.679  1.00  0.00     0.031 A 
BRANCH  24  38
ATOM     38  C   UNL     1       6.592   0.001  12.925  1.00  0.00    -0.014 A 
ATOM     39  C   UNL     1       7.434   1.112  12.736  1.00  0.00     0.010 A 
ATOM     40  C   UNL     1       6.945  -0.976  13.873  1.00  0.00     0.010 A 
ATOM     41  C   UNL     1       8.617   1.231  13.469  1.00  0.00     0.020 A 
ATOM     42  C   UNL     1       8.113  -0.846  14.627  1.00  0.00     0.020 A 
ATOM     43  C   UNL     1       8.946   0.254  14.414  1.00  0.00     0.054 A 
BRANCH  43  44
ATOM     44  S   UNL     1      10.458   0.465  15.391  1.00  0.00     0.124 S 
ATOM     45  O   UNL     1      11.499   0.238  14.391  1.00  0.00    -0.237 OA
ATOM     46  O   UNL     1      10.336   1.840  15.870  1.00  0.00    -0.237 OA
ATOM     47  O   UNL     1      10.352  -0.563  16.423  1.00  0.00    -0.744 OA
ENDBRANCH  43  44
ENDBRANCH  24  38
BRANCH  25  48
ATOM     48  C   UNL     1      -1.556  -1.049   7.010  1.00  0.00    -0.014 A 
ATOM     49  C   UNL     1      -2.482  -0.008   6.822  1.00  0.00     0.010 A 
ATOM     50  C   UNL     1      -1.810  -2.294   6.399  1.00  0.00     0.010 A 
ATOM     51  C   UNL     1      -3.654  -0.221   6.086  1.00  0.00     0.020 A 
ATOM     52  C   UNL     1      -2.959  -2.499   5.629  1.00  0.00     0.020 A 
ATOM     53  C   UNL     1      -3.888  -1.468   5.499  1.00  0.00     0.054 A 
BRANCH  53  54
ATOM     54  S   UNL     1      -5.420  -1.727   4.562  1.00  0.00     0.124 S 
ATOM     55  O   UNL     1      -6.422  -1.764   5.623  1.00  0.00    -0.237 OA
ATOM     56  O   UNL     1      -5.461  -0.555   3.692  1.00  0.00    -0.237 OA
ATOM     57  O   UNL     1      -5.191  -2.997   3.875  1.00  0.00    -0.744 OA
ENDBRANCH  53  54
ENDBRANCH  25  48
BRANCH  37  58
ATOM     58  C   UNL     1      -0.578   0.174  13.801  1.00  0.00    -0.014 A 
ATOM     59  C   UNL     1      -1.388  -0.867  14.284  1.00  0.00     0.010 A 
ATOM     60  C   UNL     1      -0.647   1.445  14.400  1.00  0.00     0.010 A 
ATOM     61  C   UNL     1      -2.287  -0.628  15.322  1.00  0.00     0.020 A 
ATOM     62  C   UNL     1      -1.516   1.676  15.463  1.00  0.00     0.020 A 
ATOM     63  C   UNL     1      -2.345   0.642  15.905  1.00  0.00     0.054 A 
BRANCH  63  64
ATOM     64  S   UNL     1      -3.498   0.918  17.273  1.00  0.00     0.124 S 
ATOM     65  O   UNL     1      -4.785   0.933  16.585  1.00  0.00    -0.237 OA
ATOM     66  O   UNL     1      -3.256  -0.239  18.132  1.00  0.00    -0.237 OA
ATOM     67  O   UNL     1      -3.074   2.200  17.831  1.00  0.00    -0.744 OA
ENDBRANCH  63  64
ENDBRANCH  37  58
ENDBRANCH  11  12
ENDBRANCH   4   6
ENDBRANCH   3   4
ENDBRANCH   2   3
ENDBRANCH   1   2
BRANCH   1  68
ATOM     68  O   UNL     1       5.918  -0.314   1.625  1.00  0.00    -0.374 OA
BRANCH  68  69
ATOM     69  C   UNL     1       5.883  -1.189   0.513  1.00  0.00     0.202 C 
BRANCH  69  70
ATOM     70  C   UNL     1       4.886  -0.599  -0.478  1.00  0.00     0.261 C 
BRANCH  70  71
ATOM     71  O   UNL     1       5.457   0.608  -1.019  1.00  0.00    -0.463 OA
BRANCH  71  72
ATOM     72  C   UNL     1       5.345   1.757  -0.280  1.00  0.00     0.312 C 
ATOM     73  O   UNL     1       4.562   1.938   0.640  1.00  0.00    -0.252 OA
BRANCH  72  74
ATOM     74  C   UNL     1       6.346   2.822  -0.793  1.00  0.00     0.074 C 
ATOM     75  C   UNL     1       7.717   2.173  -1.090  1.00  0.00     0.019 C 
ATOM     76  C   UNL     1       5.783   3.186  -2.189  1.00  0.00     0.019 C 
ATOM     77  C   UNL     1       8.175   2.703  -2.432  1.00  0.00     0.001 C 
ATOM     78  C   UNL     1       6.914   3.044  -3.200  1.00  0.00     0.001 C 
BRANCH  74  79
ATOM     79  C   UNL     1       6.389   4.068   0.198  1.00  0.00     0.051 C 
ATOM     80  C   UNL     1       6.928   3.820   1.625  1.00  0.00     0.144 C 
ATOM     81  C   UNL     1       7.124   5.370  -0.207  1.00  0.00     0.134 C 
ATOM     82  S   UNL     1       8.592   4.458   1.737  1.00  0.00     0.153 S 
ATOM     83  C   UNL     1       8.595   5.267   0.167  1.00  0.00     0.169 C 
ATOM     84  O   UNL     1       8.646   5.476   2.769  1.00  0.00    -0.229 OA
ATOM     85  O   UNL     1       9.528   3.358   1.695  1.00  0.00    -0.229 OA
BRANCH  81  86
ATOM     86  O   UNL     1       6.928   5.753  -1.551  1.00  0.00    -0.392 OA
ATOM     87  H   UNL     1       7.305   5.078  -2.138  1.00  0.00     0.211 HD
ENDBRANCH  81  86
ENDBRANCH  74  79
ENDBRANCH  72  74
ENDBRANCH  71  72
ENDBRANCH  70  71
ENDBRANCH  69  70
ENDBRANCH  68  69
ENDBRANCH   1  68
TORSDOF 19
