REMARK SMILES O=C(OCCOCCOC(=O)[C@@H]1CCCN(C(=O)/C=C/c2c(F)cccc2Cl)C1)c1ccc(-c2c3nc(c(-c4ccc(S(=O)(=O)[O-])cc4)c4ccc([nH]4)c(-c4ccc(S(=O)(=O)[O-])cc4)c4nc(c(-c5ccc(S(=O)(=O)[O-])cc5)c5ccc2[nH]5)C=C4)C=C3)cc1
REMARK SMILES IDX 6 1 5 2 4 3 3 4 2 5 1 6 30 7 31 8 89 9 32 10 88 11 33 12
REMARK SMILES IDX 34 13 35 14 82 15 36 16 87 17 81 18 83 19 37 20 86 21 80 22
REMARK SMILES IDX 79 23 38 25 68 26 49 27 67 28 50 29 53 30 66 31 84 32 51 33
REMARK SMILES IDX 52 34 65 36 85 37 54 38 39 39 40 40 48 41 41 42 47 43 42 44
REMARK SMILES IDX 43 45 44 46 45 47 46 48 69 49 70 50 78 51 71 52 77 53 72 54
REMARK SMILES IDX 73 55 74 56 75 57 76 58 55 59 56 60 64 61 57 62 63 63 58 64
REMARK SMILES IDX 59 65 60 66 61 67 62 68 7 69 8 70 9 71 10 72 11 73 12 74
REMARK SMILES IDX 13 75 29 76 14 77 16 78 15 79 17 80 18 81 19 82 20 83 21 84
REMARK SMILES IDX 22 85 27 86 23 87 24 88 26 89 28 90 25 91
REMARK H PARENT 83 24 53 35
REMARK Flexibility Score: inf
ROOT
ATOM      1  O   UNL     1       3.644   0.870   1.159  1.00  0.00    -0.374 OA
ENDROOT
BRANCH   1   2
ATOM      2  C   UNL     1       4.016   1.566  -0.032  1.00  0.00     0.202 C 
BRANCH   2   3
ATOM      3  C   UNL     1       3.899   0.720  -1.302  1.00  0.00     0.261 C 
BRANCH   3   4
ATOM      4  O   UNL     1       2.572   0.197  -1.442  1.00  0.00    -0.460 OA
BRANCH   4   5
ATOM      5  C   UNL     1       2.083  -0.961  -0.937  1.00  0.00     0.338 C 
ATOM      6  O   UNL     1       0.870  -1.158  -1.011  1.00  0.00    -0.246 OA
BRANCH   5   7
ATOM      7  C   UNL     1       2.930  -2.038  -0.333  1.00  0.00     0.060 A 
ATOM      8  C   UNL     1       4.147  -1.846   0.324  1.00  0.00     0.016 A 
ATOM      9  C   UNL     1       2.404  -3.342  -0.366  1.00  0.00     0.016 A 
ATOM     10  C   UNL     1       4.838  -2.896   0.902  1.00  0.00     0.010 A 
ATOM     11  C   UNL     1       3.083  -4.408   0.231  1.00  0.00     0.010 A 
ATOM     12  C   UNL     1       4.310  -4.179   0.859  1.00  0.00    -0.014 A 
BRANCH  12  13
ATOM     13  C   UNL     1       5.151  -5.259   1.391  1.00  0.00     0.031 A 
ATOM     14  C   UNL     1       5.936  -6.079   0.417  1.00  0.00     0.074 A 
ATOM     15  C   UNL     1       5.331  -5.350   2.721  1.00  0.00     0.049 A 
ATOM     16  N   UNL     1       6.756  -7.065   0.647  1.00  0.00    -0.248 NA
ATOM     17  C   UNL     1       5.799  -5.723  -1.008  1.00  0.00     0.031 C 
ATOM     18  C   UNL     1       4.710  -4.471   3.719  1.00  0.00     0.029 A 
ATOM     19  N   UNL     1       6.120  -6.185   3.462  1.00  0.00    -0.354 N 
ATOM     20  C   UNL     1       7.217  -7.463  -0.602  1.00  0.00     0.074 A 
ATOM     21  C   UNL     1       6.587  -6.616  -1.587  1.00  0.00     0.031 C 
ATOM     22  C   UNL     1       5.164  -4.801   4.939  1.00  0.00     0.029 A 
ATOM     23  C   UNL     1       6.048  -5.953   4.815  1.00  0.00     0.049 A 
ATOM     24  H   UNL     1       6.687  -6.885   3.064  1.00  0.00     0.167 HD
ATOM     25  C   UNL     1       8.083  -8.460  -0.887  1.00  0.00     0.031 A 
ATOM     26  C   UNL     1       6.609  -6.630   5.834  1.00  0.00     0.031 A 
ATOM     27  C   UNL     1       8.670  -9.293   0.125  1.00  0.00     0.049 A 
ATOM     28  C   UNL     1       7.471  -7.814   5.484  1.00  0.00     0.074 A 
ATOM     29  C   UNL     1       9.488 -10.396  -0.027  1.00  0.00     0.029 A 
ATOM     30  N   UNL     1       8.494  -9.104   1.490  1.00  0.00    -0.354 N 
ATOM     31  N   UNL     1       7.835  -8.243   4.296  1.00  0.00    -0.248 NA
ATOM     32  C   UNL     1       7.984  -8.614   6.601  1.00  0.00     0.031 C 
ATOM     33  C   UNL     1       9.766 -10.903   1.247  1.00  0.00     0.029 A 
ATOM     34  C   UNL     1       9.172 -10.080   2.194  1.00  0.00     0.049 A 
ATOM     35  H   UNL     1       7.964  -8.381   1.897  1.00  0.00     0.167 HD
ATOM     36  C   UNL     1       8.629  -9.359   4.523  1.00  0.00     0.074 A 
ATOM     37  C   UNL     1       8.717  -9.517   5.963  1.00  0.00     0.031 C 
ATOM     38  C   UNL     1       9.226 -10.190   3.631  1.00  0.00     0.031 A 
BRANCH  25  39
ATOM     39  C   UNL     1       8.363  -8.737  -2.337  1.00  0.00    -0.014 A 
ATOM     40  C   UNL     1       9.164  -7.878  -3.110  1.00  0.00     0.010 A 
ATOM     41  C   UNL     1       7.798  -9.875  -2.942  1.00  0.00     0.010 A 
ATOM     42  C   UNL     1       9.372  -8.138  -4.469  1.00  0.00     0.020 A 
ATOM     43  C   UNL     1       8.022 -10.150  -4.293  1.00  0.00     0.020 A 
ATOM     44  C   UNL     1       8.798  -9.272  -5.052  1.00  0.00     0.054 A 
BRANCH  44  45
ATOM     45  S   UNL     1       9.100  -9.596  -6.811  1.00  0.00     0.124 S 
ATOM     46  O   UNL     1       8.297  -8.558  -7.452  1.00  0.00    -0.237 OA
ATOM     47  O   UNL     1      10.546  -9.429  -6.923  1.00  0.00    -0.237 OA
ATOM     48  O   UNL     1       8.617 -10.962  -7.001  1.00  0.00    -0.744 OA
ENDBRANCH  44  45
ENDBRANCH  25  39
BRANCH  26  49
ATOM     49  C   UNL     1       6.308  -6.270   7.249  1.00  0.00    -0.014 A 
ATOM     50  C   UNL     1       7.319  -5.849   8.130  1.00  0.00     0.010 A 
ATOM     51  C   UNL     1       4.991  -6.379   7.736  1.00  0.00     0.010 A 
ATOM     52  C   UNL     1       7.026  -5.580   9.473  1.00  0.00     0.020 A 
ATOM     53  C   UNL     1       4.687  -6.079   9.066  1.00  0.00     0.020 A 
ATOM     54  C   UNL     1       5.712  -5.702   9.934  1.00  0.00     0.054 A 
BRANCH  54  55
ATOM     55  S   UNL     1       5.350  -5.350  11.677  1.00  0.00     0.124 S 
ATOM     56  O   UNL     1       5.910  -6.521  12.345  1.00  0.00    -0.237 OA
ATOM     57  O   UNL     1       6.059  -4.093  11.901  1.00  0.00    -0.237 OA
ATOM     58  O   UNL     1       3.892  -5.249  11.711  1.00  0.00    -0.744 OA
ENDBRANCH  54  55
ENDBRANCH  26  49
BRANCH  38  59
ATOM     59  C   UNL     1      10.041 -11.314   4.201  1.00  0.00    -0.014 A 
ATOM     60  C   UNL     1       9.424 -12.424   4.802  1.00  0.00     0.010 A 
ATOM     61  C   UNL     1      11.442 -11.276   4.086  1.00  0.00     0.010 A 
ATOM     62  C   UNL     1      10.200 -13.465   5.314  1.00  0.00     0.020 A 
ATOM     63  C   UNL     1      12.219 -12.329   4.568  1.00  0.00     0.020 A 
ATOM     64  C   UNL     1      11.593 -13.409   5.193  1.00  0.00     0.054 A 
BRANCH  64  65
ATOM     65  S   UNL     1      12.577 -14.791   5.829  1.00  0.00     0.124 S 
ATOM     66  O   UNL     1      12.517 -14.568   7.270  1.00  0.00    -0.237 OA
ATOM     67  O   UNL     1      11.845 -15.958   5.341  1.00  0.00    -0.237 OA
ATOM     68  O   UNL     1      13.890 -14.589   5.220  1.00  0.00    -0.744 OA
ENDBRANCH  64  65
ENDBRANCH  38  59
ENDBRANCH  12  13
ENDBRANCH   5   7
ENDBRANCH   4   5
ENDBRANCH   3   4
ENDBRANCH   2   3
ENDBRANCH   1   2
BRANCH   1  69
ATOM     69  C   UNL     1       2.285   1.040   1.581  1.00  0.00     0.202 C 
BRANCH  69  70
ATOM     70  C   UNL     1       2.247   1.838   2.881  1.00  0.00     0.261 C 
BRANCH  70  71
ATOM     71  O   UNL     1       3.025   3.024   2.682  1.00  0.00    -0.463 OA
BRANCH  71  72
ATOM     72  C   UNL     1       4.334   2.930   3.038  1.00  0.00     0.310 C 
ATOM     73  O   UNL     1       4.803   2.074   3.780  1.00  0.00    -0.252 OA
BRANCH  72  74
ATOM     74  C   UNL     1       5.180   3.951   2.289  1.00  0.00     0.119 C 
ATOM     75  C   UNL     1       6.464   4.268   3.065  1.00  0.00     0.019 C 
ATOM     76  C   UNL     1       4.411   5.236   1.986  1.00  0.00     0.135 C 
ATOM     77  C   UNL     1       6.167   5.085   4.324  1.00  0.00     0.022 C 
ATOM     78  N   UNL     1       4.124   5.939   3.229  1.00  0.00    -0.338 N 
ATOM     79  C   UNL     1       5.312   6.310   4.000  1.00  0.00     0.120 C 
BRANCH  78  80
ATOM     80  C   UNL     1       2.801   6.165   3.563  1.00  0.00     0.246 C 
ATOM     81  O   UNL     1       1.873   6.064   2.762  1.00  0.00    -0.270 OA
BRANCH  80  82
ATOM     82  C   UNL     1       2.470   6.581   4.944  1.00  0.00     0.072 C 
ATOM     83  C   UNL     1       2.887   5.899   6.021  1.00  0.00     0.018 C 
BRANCH  83  84
ATOM     84  C   UNL     1       2.492   6.304   7.374  1.00  0.00     0.029 A 
ATOM     85  C   UNL     1       1.313   5.788   7.925  1.00  0.00     0.131 A 
ATOM     86  C   UNL     1       3.241   7.208   8.144  1.00  0.00     0.051 A 
ATOM     87  F   UNL     1       0.561   4.926   7.224  1.00  0.00    -0.206 F 
ATOM     88  C   UNL     1       0.883   6.153   9.199  1.00  0.00     0.040 A 
ATOM     89  C   UNL     1       2.813   7.579   9.424  1.00  0.00     0.021 A 
ATOM     90  Cl  UNL     1       4.712   7.912   7.568  1.00  0.00    -0.084 Cl
ATOM     91  C   UNL     1       1.634   7.052   9.952  1.00  0.00     0.005 A 
ENDBRANCH  83  84
ENDBRANCH  80  82
ENDBRANCH  78  80
ENDBRANCH  72  74
ENDBRANCH  71  72
ENDBRANCH  70  71
ENDBRANCH  69  70
ENDBRANCH   1  69
TORSDOF 20
