REMARK SMILES COc1ccc2c(CC(=O)OCCOCCOC(=O)c3ccc(-c4c5nc(c(-c6ccc(S(=O)(=O)[O-])cc6)c6ccc([nH]6)c(-c6ccc(S(=O)(=O)[O-])cc6)c6nc(c(-c7ccc(S(=O)(=O)[O-])cc7)c7ccc4[nH]7)C=C6)C=C5)cc3)c(C(=O)c3cc(C)ccn3)[nH]c2c1
REMARK SMILES IDX 14 1 13 2 12 3 11 4 9 5 10 6 8 7 7 8 3 9 4 10 92 11 5 12
REMARK SMILES IDX 91 13 6 14 90 15 80 16 2 18 1 19 81 20 82 21 83 22 84 23
REMARK SMILES IDX 89 24 85 25 88 26 86 27 87 28 15 29 16 30 17 31 18 32 19 33
REMARK SMILES IDX 20 34 21 35 79 36 22 37 78 38 23 39 24 40 25 41 72 42 26 43
REMARK SMILES IDX 77 44 71 45 73 46 27 47 76 48 70 49 69 50 28 52 58 53 39 54
REMARK SMILES IDX 57 55 40 56 43 57 56 58 74 59 41 60 42 61 55 63 75 64 44 65
REMARK SMILES IDX 29 66 30 67 38 68 31 69 37 70 32 71 33 72 34 73 35 74 36 75
REMARK SMILES IDX 59 76 60 77 68 78 61 79 67 80 62 81 63 82 64 83 65 84 66 85
REMARK SMILES IDX 45 86 46 87 54 88 47 89 53 90 48 91 49 92 50 93 51 94 52 95
REMARK H PARENT 90 17 73 51 43 62
REMARK Flexibility Score: inf
ROOT
ATOM      1  O   UNL     1       2.893   3.657  10.341  1.00  0.00    -0.374 OA
ENDROOT
BRANCH   1   2
ATOM      2  C   UNL     1       3.590   4.360   9.316  1.00  0.00     0.202 C 
BRANCH   2   3
ATOM      3  C   UNL     1       4.243   3.542   8.189  1.00  0.00     0.261 C 
BRANCH   3   4
ATOM      4  O   UNL     1       3.373   2.576   7.559  1.00  0.00    -0.463 OA
BRANCH   4   5
ATOM      5  C   UNL     1       3.842   1.298   7.544  1.00  0.00     0.310 C 
ATOM      6  O   UNL     1       4.953   0.970   7.964  1.00  0.00    -0.252 OA
BRANCH   5   7
ATOM      7  C   UNL     1       2.880   0.239   7.047  1.00  0.00     0.161 C 
BRANCH   7   8
ATOM      8  C   UNL     1       1.650   0.648   6.279  1.00  0.00     0.000 A 
ATOM      9  C   UNL     1       0.869   1.079   2.163  1.00  0.00     0.120 A 
ATOM     10  C   UNL     1       2.211   0.919   2.497  1.00  0.00     0.047 A 
ATOM     11  C   UNL     1      -0.102   1.229   3.157  1.00  0.00     0.073 A 
ATOM     12  C   UNL     1       2.603   0.820   3.840  1.00  0.00     0.014 A 
ATOM     13  C   UNL     1       0.304   1.091   4.492  1.00  0.00     0.050 A 
ATOM     14  C   UNL     1       1.626   0.864   4.858  1.00  0.00     0.004 A 
ATOM     15  N   UNL     1      -0.431   1.125   5.651  1.00  0.00    -0.351 N 
ATOM     16  C   UNL     1       0.318   0.673   6.721  1.00  0.00     0.093 A 
ATOM     17  H   UNL     1      -1.365   1.431   5.712  1.00  0.00     0.167 HD
BRANCH   9  18
ATOM     18  O   UNL     1       0.417   1.147   0.870  1.00  0.00    -0.497 OA
ATOM     19  C   UNL     1       0.943   0.118   0.032  1.00  0.00     0.278 C 
ENDBRANCH   9  18
BRANCH  16  20
ATOM     20  C   UNL     1      -0.235   0.293   8.024  1.00  0.00     0.227 C 
ATOM     21  O   UNL     1       0.418  -0.291   8.887  1.00  0.00    -0.285 OA
BRANCH  20  22
ATOM     22  C   UNL     1      -1.647   0.654   8.367  1.00  0.00     0.113 A 
ATOM     23  C   UNL     1      -2.731   0.004   7.794  1.00  0.00     0.036 A 
ATOM     24  N   UNL     1      -1.777   1.657   9.272  1.00  0.00    -0.253 NA
ATOM     25  C   UNL     1      -4.016   0.435   8.149  1.00  0.00    -0.047 A 
ATOM     26  C   UNL     1      -3.018   2.075   9.575  1.00  0.00     0.112 A 
ATOM     27  C   UNL     1      -5.248  -0.227   7.610  1.00  0.00     0.044 C 
ATOM     28  C   UNL     1      -4.155   1.503   9.043  1.00  0.00     0.023 A 
ENDBRANCH  20  22
ENDBRANCH  16  20
ENDBRANCH   7   8
ENDBRANCH   5   7
ENDBRANCH   4   5
ENDBRANCH   3   4
ENDBRANCH   2   3
ENDBRANCH   1   2
BRANCH   1  29
ATOM     29  C   UNL     1       1.778   2.867   9.947  1.00  0.00     0.202 C 
BRANCH  29  30
ATOM     30  C   UNL     1       0.597   3.577   9.282  1.00  0.00     0.261 C 
BRANCH  30  31
ATOM     31  O   UNL     1       0.926   4.529   8.274  1.00  0.00    -0.460 OA
BRANCH  31  32
ATOM     32  C   UNL     1       0.381   5.749   8.457  1.00  0.00     0.338 C 
ATOM     33  O   UNL     1      -0.336   6.137   9.367  1.00  0.00    -0.246 OA
BRANCH  32  34
ATOM     34  C   UNL     1       0.853   6.614   7.379  1.00  0.00     0.060 A 
ATOM     35  C   UNL     1       1.778   7.614   7.686  1.00  0.00     0.016 A 
ATOM     36  C   UNL     1       0.321   6.475   6.096  1.00  0.00     0.016 A 
ATOM     37  C   UNL     1       2.142   8.527   6.704  1.00  0.00     0.010 A 
ATOM     38  C   UNL     1       0.688   7.389   5.114  1.00  0.00     0.010 A 
ATOM     39  C   UNL     1       1.569   8.439   5.427  1.00  0.00    -0.014 A 
BRANCH  39  40
ATOM     40  C   UNL     1       1.777   9.526   4.451  1.00  0.00     0.031 A 
ATOM     41  C   UNL     1       0.690  10.546   4.267  1.00  0.00     0.074 A 
ATOM     42  C   UNL     1       2.920   9.588   3.747  1.00  0.00     0.049 A 
ATOM     43  N   UNL     1       0.625  11.542   3.425  1.00  0.00    -0.248 NA
ATOM     44  C   UNL     1      -0.486  10.422   5.147  1.00  0.00     0.031 C 
ATOM     45  C   UNL     1       4.047   8.665   3.884  1.00  0.00     0.029 A 
ATOM     46  N   UNL     1       3.316  10.463   2.770  1.00  0.00    -0.354 N 
ATOM     47  C   UNL     1      -0.599  12.156   3.662  1.00  0.00     0.074 A 
ATOM     48  C   UNL     1      -1.257  11.405   4.708  1.00  0.00     0.031 C 
ATOM     49  C   UNL     1       5.007   9.019   3.014  1.00  0.00     0.029 A 
ATOM     50  C   UNL     1       4.546  10.165   2.236  1.00  0.00     0.049 A 
ATOM     51  H   UNL     1       2.772  11.230   2.479  1.00  0.00     0.167 HD
ATOM     52  C   UNL     1      -1.122  13.250   3.060  1.00  0.00     0.031 A 
ATOM     53  C   UNL     1       5.209  10.742   1.215  1.00  0.00     0.031 A 
ATOM     54  C   UNL     1      -0.456  13.971   2.009  1.00  0.00     0.049 A 
ATOM     55  C   UNL     1       4.580  11.919   0.519  1.00  0.00     0.074 A 
ATOM     56  C   UNL     1      -0.885  15.097   1.330  1.00  0.00     0.029 A 
ATOM     57  N   UNL     1       0.782  13.631   1.482  1.00  0.00    -0.354 N 
ATOM     58  N   UNL     1       3.429  12.501   0.762  1.00  0.00    -0.248 NA
ATOM     59  C   UNL     1       5.340  12.523  -0.583  1.00  0.00     0.031 C 
ATOM     60  C   UNL     1       0.070  15.405   0.356  1.00  0.00     0.029 A 
ATOM     61  C   UNL     1       1.124  14.511   0.472  1.00  0.00     0.049 A 
ATOM     62  H   UNL     1       1.335  12.874   1.783  1.00  0.00     0.167 HD
ATOM     63  C   UNL     1       3.342  13.560  -0.133  1.00  0.00     0.074 A 
ATOM     64  C   UNL     1       4.559  13.541  -0.920  1.00  0.00     0.031 C 
ATOM     65  C   UNL     1       2.349  14.472  -0.288  1.00  0.00     0.031 A 
BRANCH  52  66
ATOM     66  C   UNL     1      -2.490  13.702   3.500  1.00  0.00    -0.014 A 
ATOM     67  C   UNL     1      -2.698  14.278   4.766  1.00  0.00     0.010 A 
ATOM     68  C   UNL     1      -3.582  13.569   2.623  1.00  0.00     0.010 A 
ATOM     69  C   UNL     1      -3.978  14.675   5.162  1.00  0.00     0.020 A 
ATOM     70  C   UNL     1      -4.859  13.991   3.004  1.00  0.00     0.020 A 
ATOM     71  C   UNL     1      -5.052  14.525   4.280  1.00  0.00     0.054 A 
BRANCH  71  72
ATOM     72  S   UNL     1      -6.701  15.062   4.813  1.00  0.00     0.124 S 
ATOM     73  O   UNL     1      -7.056  14.027   5.782  1.00  0.00    -0.237 OA
ATOM     74  O   UNL     1      -6.442  16.385   5.375  1.00  0.00    -0.237 OA
ATOM     75  O   UNL     1      -7.485  15.054   3.580  1.00  0.00    -0.744 OA
ENDBRANCH  71  72
ENDBRANCH  52  66
BRANCH  53  76
ATOM     76  C   UNL     1       6.530  10.205   0.792  1.00  0.00    -0.014 A 
ATOM     77  C   UNL     1       7.708  10.936   1.020  1.00  0.00     0.010 A 
ATOM     78  C   UNL     1       6.618   8.941   0.179  1.00  0.00     0.010 A 
ATOM     79  C   UNL     1       8.948  10.419   0.630  1.00  0.00     0.020 A 
ATOM     80  C   UNL     1       7.858   8.409  -0.187  1.00  0.00     0.020 A 
ATOM     81  C   UNL     1       9.015   9.158   0.032  1.00  0.00     0.054 A 
BRANCH  81  82
ATOM     82  S   UNL     1      10.640   8.486  -0.416  1.00  0.00     0.124 S 
ATOM     83  O   UNL     1      10.991   9.292  -1.581  1.00  0.00    -0.237 OA
ATOM     84  O   UNL     1      11.428   8.736   0.789  1.00  0.00    -0.237 OA
ATOM     85  O   UNL     1      10.364   7.077  -0.689  1.00  0.00    -0.744 OA
ENDBRANCH  81  82
ENDBRANCH  53  76
BRANCH  65  86
ATOM     86  C   UNL     1       2.557  15.556  -1.310  1.00  0.00    -0.014 A 
ATOM     87  C   UNL     1       2.462  15.291  -2.687  1.00  0.00     0.010 A 
ATOM     88  C   UNL     1       2.773  16.877  -0.875  1.00  0.00     0.010 A 
ATOM     89  C   UNL     1       2.600  16.328  -3.613  1.00  0.00     0.020 A 
ATOM     90  C   UNL     1       2.883  17.919  -1.797  1.00  0.00     0.020 A 
ATOM     91  C   UNL     1       2.806  17.637  -3.162  1.00  0.00     0.054 A 
BRANCH  91  92
ATOM     92  S   UNL     1       2.917  18.974  -4.381  1.00  0.00     0.124 S 
ATOM     93  O   UNL     1       4.240  18.751  -4.956  1.00  0.00    -0.237 OA
ATOM     94  O   UNL     1       1.790  18.693  -5.268  1.00  0.00    -0.237 OA
ATOM     95  O   UNL     1       2.782  20.187  -3.579  1.00  0.00    -0.744 OA
ENDBRANCH  91  92
ENDBRANCH  65  86
ENDBRANCH  39  40
ENDBRANCH  32  34
ENDBRANCH  31  32
ENDBRANCH  30  31
ENDBRANCH  29  30
ENDBRANCH   1  29
TORSDOF 21
