REMARK SMILES Cc1ccc(C(=O)N2C[C@@H](C(=O)OCCOCCOC(=O)c3ccc(-c4c5nc(c(-c6ccc(S(=O)(=O)[O-])cc6)c6ccc([nH]6)c(-c6ccc(S(=O)(=O)[O-])cc6)c6nc(c(-c7ccc(S(=O)(=O)[O-])cc7)c7ccc4[nH]7)C=C6)C=C5)cc3)C[C@H](C(=O)N3CCOCC3)C2)cc1F
REMARK SMILES IDX 17 1 16 2 15 3 14 4 13 5 11 6 12 7 10 8 8 9 9 10 92 11 83 12
REMARK SMILES IDX 82 13 6 14 7 15 5 16 1 17 2 18 3 19 94 20 4 21 93 22 95 23
REMARK SMILES IDX 84 24 85 25 86 26 87 27 91 28 88 29 90 30 89 31 18 32 19 33
REMARK SMILES IDX 20 34 21 35 22 36 23 37 81 38 24 39 80 40 25 41 26 42 27 43
REMARK SMILES IDX 74 44 28 45 79 46 73 47 75 48 29 49 78 50 72 51 71 52 30 54
REMARK SMILES IDX 60 55 41 56 59 57 42 58 45 59 58 60 76 61 43 62 44 63 57 65
REMARK SMILES IDX 77 66 46 67 31 68 32 69 40 70 33 71 39 72 34 73 35 74 36 75
REMARK SMILES IDX 37 76 38 77 61 78 62 79 70 80 63 81 69 82 64 83 65 84 66 85
REMARK SMILES IDX 67 86 68 87 47 88 48 89 56 90 49 91 55 92 50 93 51 94 52 95
REMARK SMILES IDX 53 96 54 97
REMARK H PARENT 75 53 45 64
REMARK Flexibility Score: inf
ROOT
ATOM      1  C   UNL     1      -9.915  -3.226   1.073  1.00  0.00     0.202 C 
ENDROOT
BRANCH   1   2
ATOM      2  O   UNL     1     -10.259  -3.334   2.452  1.00  0.00    -0.374 OA
BRANCH   2   3
ATOM      3  C   UNL     1     -10.299  -2.137   3.223  1.00  0.00     0.202 C 
BRANCH   3   4
ATOM      4  C   UNL     1      -8.965  -1.478   3.600  1.00  0.00     0.261 C 
BRANCH   4   5
ATOM      5  O   UNL     1      -8.117  -1.175   2.478  1.00  0.00    -0.463 OA
BRANCH   5   6
ATOM      6  C   UNL     1      -7.029  -1.980   2.365  1.00  0.00     0.310 C 
ATOM      7  O   UNL     1      -6.762  -2.912   3.115  1.00  0.00    -0.252 OA
BRANCH   6   8
ATOM      8  C   UNL     1      -6.152  -1.644   1.187  1.00  0.00     0.119 C 
ATOM      9  N   UNL     1      -4.175  -0.484   0.465  1.00  0.00    -0.337 N 
ATOM     10  C   UNL     1      -5.196  -0.523   1.506  1.00  0.00     0.135 C 
ATOM     11  C   UNL     1      -4.637  -0.281  -0.912  1.00  0.00     0.133 C 
ATOM     12  C   UNL     1      -5.839  -1.184  -1.296  1.00  0.00     0.099 C 
ATOM     13  C   UNL     1      -6.845  -1.374  -0.152  1.00  0.00     0.032 C 
BRANCH   9  14
ATOM     14  C   UNL     1      -2.933  -1.035   0.750  1.00  0.00     0.254 C 
ATOM     15  O   UNL     1      -2.790  -2.002   1.493  1.00  0.00    -0.269 OA
BRANCH  14  16
ATOM     16  C   UNL     1      -1.729  -0.319   0.256  1.00  0.00     0.042 A 
ATOM     17  C   UNL     1       1.947   1.832  -0.335  1.00  0.00     0.047 C 
ATOM     18  C   UNL     1       0.653   1.089  -0.203  1.00  0.00    -0.015 A 
ATOM     19  C   UNL     1      -0.566   1.772  -0.145  1.00  0.00     0.007 A 
ATOM     20  C   UNL     1       0.654  -0.304  -0.070  1.00  0.00     0.126 A 
ATOM     21  C   UNL     1      -1.752   1.072   0.086  1.00  0.00     0.014 A 
ATOM     22  C   UNL     1      -0.519  -1.012   0.165  1.00  0.00     0.053 A 
ATOM     23  F   UNL     1       1.815  -0.974  -0.121  1.00  0.00    -0.207 F 
ENDBRANCH  14  16
ENDBRANCH   9  14
BRANCH  12  24
ATOM     24  C   UNL     1      -5.337  -2.420  -2.066  1.00  0.00     0.227 C 
ATOM     25  O   UNL     1      -5.157  -2.310  -3.285  1.00  0.00    -0.275 OA
ATOM     26  N   UNL     1      -4.862  -3.528  -1.395  1.00  0.00    -0.338 N 
ATOM     27  C   UNL     1      -5.676  -4.436  -0.575  1.00  0.00     0.148 C 
ATOM     28  C   UNL     1      -3.695  -4.209  -1.958  1.00  0.00     0.148 C 
ATOM     29  C   UNL     1      -4.813  -5.116   0.499  1.00  0.00     0.181 C 
ATOM     30  C   UNL     1      -2.889  -4.892  -0.849  1.00  0.00     0.181 C 
ATOM     31  O   UNL     1      -3.711  -5.812  -0.111  1.00  0.00    -0.378 OA
ENDBRANCH  12  24
ENDBRANCH   6   8
ENDBRANCH   5   6
ENDBRANCH   4   5
ENDBRANCH   3   4
ENDBRANCH   2   3
ENDBRANCH   1   2
BRANCH   1  32
ATOM     32  C   UNL     1     -10.876  -2.461   0.154  1.00  0.00     0.261 C 
BRANCH  32  33
ATOM     33  O   UNL     1     -10.929  -1.054   0.461  1.00  0.00    -0.460 OA
BRANCH  33  34
ATOM     34  C   UNL     1     -12.179  -0.583   0.703  1.00  0.00     0.338 C 
ATOM     35  O   UNL     1     -13.228  -1.194   0.600  1.00  0.00    -0.246 OA
BRANCH  34  36
ATOM     36  C   UNL     1     -12.114   0.760   1.307  1.00  0.00     0.060 A 
ATOM     37  C   UNL     1     -12.620   0.909   2.605  1.00  0.00     0.016 A 
ATOM     38  C   UNL     1     -11.687   1.872   0.579  1.00  0.00     0.016 A 
ATOM     39  C   UNL     1     -12.740   2.179   3.164  1.00  0.00     0.010 A 
ATOM     40  C   UNL     1     -11.819   3.149   1.140  1.00  0.00     0.010 A 
ATOM     41  C   UNL     1     -12.379   3.311   2.420  1.00  0.00    -0.014 A 
BRANCH  41  42
ATOM     42  C   UNL     1     -12.713   4.655   2.952  1.00  0.00     0.031 A 
ATOM     43  C   UNL     1     -13.966   5.345   2.483  1.00  0.00     0.074 A 
ATOM     44  C   UNL     1     -11.941   5.227   3.894  1.00  0.00     0.049 A 
ATOM     45  N   UNL     1     -14.474   6.488   2.870  1.00  0.00    -0.248 NA
ATOM     46  C   UNL     1     -14.753   4.655   1.448  1.00  0.00     0.031 C 
ATOM     47  C   UNL     1     -10.722   4.646   4.454  1.00  0.00     0.029 A 
ATOM     48  N   UNL     1     -12.079   6.423   4.553  1.00  0.00    -0.354 N 
ATOM     49  C   UNL     1     -15.640   6.653   2.130  1.00  0.00     0.074 A 
ATOM     50  C   UNL     1     -15.747   5.509   1.250  1.00  0.00     0.031 C 
ATOM     51  C   UNL     1     -10.224   5.486   5.378  1.00  0.00     0.029 A 
ATOM     52  C   UNL     1     -11.077   6.670   5.460  1.00  0.00     0.049 A 
ATOM     53  H   UNL     1     -12.825   7.044   4.392  1.00  0.00     0.167 HD
ATOM     54  C   UNL     1     -16.545   7.660   2.184  1.00  0.00     0.031 A 
ATOM     55  C   UNL     1     -10.867   7.733   6.261  1.00  0.00     0.031 A 
ATOM     56  C   UNL     1     -16.432   8.808   3.046  1.00  0.00     0.049 A 
ATOM     57  C   UNL     1     -11.857   8.866   6.263  1.00  0.00     0.074 A 
ATOM     58  C   UNL     1     -17.304   9.875   3.179  1.00  0.00     0.029 A 
ATOM     59  N   UNL     1     -15.379   9.043   3.916  1.00  0.00    -0.354 N 
ATOM     60  N   UNL     1     -12.967   8.992   5.576  1.00  0.00    -0.248 NA
ATOM     61  C   UNL     1     -11.569   9.994   7.160  1.00  0.00     0.031 C 
ATOM     62  C   UNL     1     -16.753  10.780   4.094  1.00  0.00     0.029 A 
ATOM     63  C   UNL     1     -15.565  10.250   4.570  1.00  0.00     0.049 A 
ATOM     64  H   UNL     1     -14.611   8.441   4.049  1.00  0.00     0.167 HD
ATOM     65  C   UNL     1     -13.521  10.205   5.973  1.00  0.00     0.074 A 
ATOM     66  C   UNL     1     -12.633  10.763   6.972  1.00  0.00     0.031 C 
ATOM     67  C   UNL     1     -14.664  10.802   5.550  1.00  0.00     0.031 A 
BRANCH  54  68
ATOM     68  C   UNL     1     -17.727   7.578   1.255  1.00  0.00    -0.014 A 
ATOM     69  C   UNL     1     -18.769   6.661   1.485  1.00  0.00     0.010 A 
ATOM     70  C   UNL     1     -17.811   8.450   0.155  1.00  0.00     0.010 A 
ATOM     71  C   UNL     1     -19.856   6.593   0.608  1.00  0.00     0.020 A 
ATOM     72  C   UNL     1     -18.908   8.400  -0.711  1.00  0.00     0.020 A 
ATOM     73  C   UNL     1     -19.915   7.459  -0.488  1.00  0.00     0.054 A 
BRANCH  73  74
ATOM     74  S   UNL     1     -21.343   7.360  -1.603  1.00  0.00     0.124 S 
ATOM     75  O   UNL     1     -21.056   6.137  -2.349  1.00  0.00    -0.237 OA
ATOM     76  O   UNL     1     -22.470   7.282  -0.677  1.00  0.00    -0.237 OA
ATOM     77  O   UNL     1     -21.263   8.596  -2.378  1.00  0.00    -0.744 OA
ENDBRANCH  73  74
ENDBRANCH  54  68
BRANCH  55  78
ATOM     78  C   UNL     1      -9.658   7.777   7.127  1.00  0.00    -0.014 A 
ATOM     79  C   UNL     1      -9.765   7.637   8.521  1.00  0.00     0.010 A 
ATOM     80  C   UNL     1      -8.387   7.955   6.551  1.00  0.00     0.010 A 
ATOM     81  C   UNL     1      -8.623   7.685   9.326  1.00  0.00     0.020 A 
ATOM     82  C   UNL     1      -7.241   7.979   7.350  1.00  0.00     0.020 A 
ATOM     83  C   UNL     1      -7.367   7.854   8.734  1.00  0.00     0.054 A 
BRANCH  83  84
ATOM     84  S   UNL     1      -5.890   7.850   9.788  1.00  0.00     0.124 S 
ATOM     85  O   UNL     1      -5.939   9.182  10.382  1.00  0.00    -0.237 OA
ATOM     86  O   UNL     1      -6.154   6.739  10.699  1.00  0.00    -0.237 OA
ATOM     87  O   UNL     1      -4.800   7.623   8.842  1.00  0.00    -0.744 OA
ENDBRANCH  83  84
ENDBRANCH  55  78
BRANCH  67  88
ATOM     88  C   UNL     1     -15.025  12.119   6.184  1.00  0.00    -0.014 A 
ATOM     89  C   UNL     1     -14.310  13.292   5.881  1.00  0.00     0.010 A 
ATOM     90  C   UNL     1     -16.106  12.187   7.081  1.00  0.00     0.010 A 
ATOM     91  C   UNL     1     -14.641  14.500   6.501  1.00  0.00     0.020 A 
ATOM     92  C   UNL     1     -16.456  13.399   7.683  1.00  0.00     0.020 A 
ATOM     93  C   UNL     1     -15.707  14.544   7.405  1.00  0.00     0.054 A 
BRANCH  93  94
ATOM     94  S   UNL     1     -16.125  16.124   8.193  1.00  0.00     0.124 S 
ATOM     95  O   UNL     1     -15.086  16.237   9.213  1.00  0.00    -0.237 OA
ATOM     96  O   UNL     1     -16.025  17.073   7.087  1.00  0.00    -0.237 OA
ATOM     97  O   UNL     1     -17.478  15.909   8.700  1.00  0.00    -0.744 OA
ENDBRANCH  93  94
ENDBRANCH  67  88
ENDBRANCH  41  42
ENDBRANCH  34  36
ENDBRANCH  33  34
ENDBRANCH  32  33
ENDBRANCH   1  32
TORSDOF 20
