REMARK SMILES [NH3+][C@@]1(C(=O)OCCOCCOC(=O)c2ccc(-c3c4nc(c(-c5ccc(S(=O)(=O)[O-])cc5)c5ccc([nH]5)c(-c5ccc(S(=O)(=O)[O-])cc5)c5nc(c(-c6ccc(S(=O)(=O)[O-])cc6)c6ccc3[nH]6)C=C5)C=C4)cc2)CCC[C@H]1CCOC1CCCCCC1
REMARK SMILES IDX 6 1 5 2 3 3 4 4 2 5 74 6 77 7 75 8 76 9 1 10 78 14 79 15
REMARK SMILES IDX 80 16 81 17 82 18 83 19 84 20 87 22 86 23 85 24 7 26 8 27
REMARK SMILES IDX 9 28 10 29 11 30 12 31 13 32 14 33 15 34 73 35 16 36 72 37
REMARK SMILES IDX 17 38 18 39 19 40 66 41 20 42 71 43 65 44 67 45 21 46 70 47
REMARK SMILES IDX 64 48 63 49 22 51 52 52 33 53 51 54 34 55 37 56 50 57 68 58
REMARK SMILES IDX 35 59 36 60 49 62 69 63 38 64 23 65 24 66 32 67 25 68 31 69
REMARK SMILES IDX 26 70 27 71 28 72 29 73 30 74 53 75 54 76 62 77 55 78 61 79
REMARK SMILES IDX 56 80 57 81 58 82 59 83 60 84 39 85 40 86 48 87 41 88 47 89
REMARK SMILES IDX 42 90 43 91 44 92 45 93 46 94
REMARK H PARENT 1 11 1 12 1 13 67 50 37 61
REMARK Flexibility Score: 90.00
ROOT
ATOM      1  C   UNL     1       1.642  -1.738  -3.792  1.00  0.00     0.261 C 
ENDROOT
BRANCH   1   2
ATOM      2  O   UNL     1       1.393  -2.180  -2.397  1.00  0.00    -0.459 OA
BRANCH   2   3
ATOM      3  C   UNL     1       1.979  -1.481  -1.376  1.00  0.00     0.368 C 
ATOM      4  O   UNL     1       2.684  -0.491  -1.591  1.00  0.00    -0.245 OA
BRANCH   3   5
ATOM      5  C   UNL     1       1.781  -2.023   0.162  1.00  0.00     0.195 C 
ATOM      6  C   UNL     1       2.426  -3.426   0.272  1.00  0.00     0.081 C 
ATOM      7  C   UNL     1       0.366  -2.210   0.880  1.00  0.00     0.065 C 
ATOM      8  C   UNL     1       1.265  -4.390   0.474  1.00  0.00     0.008 C 
ATOM      9  C   UNL     1       0.383  -3.641   1.447  1.00  0.00     0.011 C 
BRANCH   5  10
ATOM     10  N   UNL     1       2.606  -1.090   0.995  1.00  0.00    -0.343 N 
ATOM     11  H   UNL     1       3.516  -0.956   0.554  1.00  0.00     0.345 HD
ATOM     12  H   UNL     1       2.735  -1.489   1.925  1.00  0.00     0.345 HD
ATOM     13  H   UNL     1       2.130  -0.192   1.073  1.00  0.00     0.345 HD
ENDBRANCH   5  10
BRANCH   7  14
ATOM     14  C   UNL     1      -0.129  -1.246   2.016  1.00  0.00     0.039 C 
BRANCH  14  15
ATOM     15  C   UNL     1      -0.526   0.219   1.726  1.00  0.00     0.161 C 
BRANCH  15  16
ATOM     16  O   UNL     1      -1.926   0.459   1.581  1.00  0.00    -0.378 OA
BRANCH  16  17
ATOM     17  C   UNL     1      -2.610   0.405   0.322  1.00  0.00     0.118 C 
BRANCH  17  18
ATOM     18  C   UNL     1      -1.807   0.724  -0.934  1.00  0.00     0.032 C 
BRANCH  18  19
ATOM     19  C   UNL     1      -0.863  -0.367  -1.353  1.00  0.00     0.003 C 
BRANCH  19  20
ATOM     20  C   UNL     1      -1.421  -1.658  -1.946  1.00  0.00     0.000 CG0
ATOM     21  G   UNL     1      -2.607  -2.398  -1.382  1.00  0.00     0.000 G0
ENDBRANCH  19  20
ENDBRANCH  18  19
ENDBRANCH  17  18
BRANCH  17  22
ATOM     22  C   UNL     1      -3.517  -0.833   0.303  1.00  0.00     0.032 C 
BRANCH  22  23
ATOM     23  C   UNL     1      -3.764  -1.495  -1.044  1.00  0.00     0.003 C 
BRANCH  23  24
ATOM     24  C   UNL     1      -2.607  -2.398  -1.382  1.00  0.00     0.000 CG0
ATOM     25  G   UNL     1      -1.421  -1.658  -1.946  1.00  0.00     0.000 G0
ENDBRANCH  23  24
ENDBRANCH  22  23
ENDBRANCH  17  22
ENDBRANCH  16  17
ENDBRANCH  15  16
ENDBRANCH  14  15
ENDBRANCH   7  14
ENDBRANCH   3   5
ENDBRANCH   2   3
ENDBRANCH   1   2
BRANCH   1  26
ATOM     26  C   UNL     1       0.401  -1.663  -4.753  1.00  0.00     0.202 C 
BRANCH  26  27
ATOM     27  O   UNL     1       0.121  -0.400  -5.392  1.00  0.00    -0.374 OA
BRANCH  27  28
ATOM     28  C   UNL     1      -0.638   0.593  -4.706  1.00  0.00     0.202 C 
BRANCH  28  29
ATOM     29  C   UNL     1      -2.180   0.559  -4.793  1.00  0.00     0.261 C 
BRANCH  29  30
ATOM     30  O   UNL     1      -2.744  -0.749  -4.678  1.00  0.00    -0.460 OA
BRANCH  30  31
ATOM     31  C   UNL     1      -3.099  -1.302  -5.856  1.00  0.00     0.338 C 
ATOM     32  O   UNL     1      -3.118  -0.754  -6.942  1.00  0.00    -0.246 OA
BRANCH  31  33
ATOM     33  C   UNL     1      -3.333  -2.748  -5.689  1.00  0.00     0.060 A 
ATOM     34  C   UNL     1      -2.770  -3.568  -6.667  1.00  0.00     0.016 A 
ATOM     35  C   UNL     1      -4.149  -3.288  -4.689  1.00  0.00     0.016 A 
ATOM     36  C   UNL     1      -3.101  -4.914  -6.716  1.00  0.00     0.010 A 
ATOM     37  C   UNL     1      -4.455  -4.655  -4.718  1.00  0.00     0.010 A 
ATOM     38  C   UNL     1      -3.986  -5.456  -5.774  1.00  0.00    -0.014 A 
BRANCH  38  39
ATOM     39  C   UNL     1      -4.558  -6.799  -6.044  1.00  0.00     0.031 A 
ATOM     40  C   UNL     1      -5.976  -6.896  -6.546  1.00  0.00     0.074 A 
ATOM     41  C   UNL     1      -3.788  -7.899  -5.962  1.00  0.00     0.049 A 
ATOM     42  N   UNL     1      -6.653  -7.952  -6.916  1.00  0.00    -0.248 NA
ATOM     43  C   UNL     1      -6.732  -5.635  -6.650  1.00  0.00     0.031 C 
ATOM     44  C   UNL     1      -2.384  -7.919  -5.546  1.00  0.00     0.029 A 
ATOM     45  N   UNL     1      -4.070  -9.210  -6.251  1.00  0.00    -0.354 N 
ATOM     46  C   UNL     1      -7.910  -7.485  -7.285  1.00  0.00     0.074 A 
ATOM     47  C   UNL     1      -7.919  -6.059  -7.055  1.00  0.00     0.031 C 
ATOM     48  C   UNL     1      -1.923  -9.178  -5.628  1.00  0.00     0.029 A 
ATOM     49  C   UNL     1      -3.005 -10.058  -6.062  1.00  0.00     0.049 A 
ATOM     50  H   UNL     1      -4.952  -9.515  -6.564  1.00  0.00     0.167 HD
ATOM     51  C   UNL     1      -8.960  -8.178  -7.787  1.00  0.00     0.031 A 
ATOM     52  C   UNL     1      -2.917 -11.395  -6.213  1.00  0.00     0.031 A 
ATOM     53  C   UNL     1      -8.943  -9.597  -8.017  1.00  0.00     0.049 A 
ATOM     54  C   UNL     1      -4.121 -12.156  -6.702  1.00  0.00     0.074 A 
ATOM     55  C   UNL     1      -9.950 -10.397  -8.526  1.00  0.00     0.029 A 
ATOM     56  N   UNL     1      -7.864 -10.428  -7.754  1.00  0.00    -0.354 N 
ATOM     57  N   UNL     1      -5.299 -11.697  -7.053  1.00  0.00    -0.248 NA
ATOM     58  C   UNL     1      -3.982 -13.613  -6.824  1.00  0.00     0.031 C 
ATOM     59  C   UNL     1      -9.502 -11.721  -8.512  1.00  0.00     0.029 A 
ATOM     60  C   UNL     1      -8.189 -11.736  -8.065  1.00  0.00     0.049 A 
ATOM     61  H   UNL     1      -6.995 -10.130  -7.398  1.00  0.00     0.167 HD
ATOM     62  C   UNL     1      -6.029 -12.805  -7.472  1.00  0.00     0.074 A 
ATOM     63  C   UNL     1      -5.157 -13.953  -7.338  1.00  0.00     0.031 C 
ATOM     64  C   UNL     1      -7.303 -12.865  -7.933  1.00  0.00     0.031 A 
BRANCH  51  65
ATOM     65  C   UNL     1     -10.224  -7.415  -8.084  1.00  0.00    -0.014 A 
ATOM     66  C   UNL     1     -10.297  -6.498  -9.148  1.00  0.00     0.010 A 
ATOM     67  C   UNL     1     -11.371  -7.644  -7.301  1.00  0.00     0.010 A 
ATOM     68  C   UNL     1     -11.480  -5.796  -9.399  1.00  0.00     0.020 A 
ATOM     69  C   UNL     1     -12.565  -6.967  -7.567  1.00  0.00     0.020 A 
ATOM     70  C   UNL     1     -12.606  -6.035  -8.605  1.00  0.00     0.054 A 
BRANCH  70  71
ATOM     71  S   UNL     1     -14.134  -5.126  -8.966  1.00  0.00     0.124 S 
ATOM     72  O   UNL     1     -13.791  -3.775  -8.528  1.00  0.00    -0.237 OA
ATOM     73  O   UNL     1     -14.276  -5.301 -10.409  1.00  0.00    -0.237 OA
ATOM     74  O   UNL     1     -15.142  -5.805  -8.156  1.00  0.00    -0.744 OA
ENDBRANCH  70  71
ENDBRANCH  51  65
BRANCH  52  75
ATOM     75  C   UNL     1      -1.647 -12.098  -5.880  1.00  0.00    -0.014 A 
ATOM     76  C   UNL     1      -0.875 -12.715  -6.880  1.00  0.00     0.010 A 
ATOM     77  C   UNL     1      -1.202 -12.151  -4.545  1.00  0.00     0.010 A 
ATOM     78  C   UNL     1       0.306 -13.388  -6.549  1.00  0.00     0.020 A 
ATOM     79  C   UNL     1      -0.007 -12.795  -4.215  1.00  0.00     0.020 A 
ATOM     80  C   UNL     1       0.734 -13.421  -5.218  1.00  0.00     0.054 A 
BRANCH  80  81
ATOM     81  S   UNL     1       2.291 -14.261  -4.818  1.00  0.00     0.124 S 
ATOM     82  O   UNL     1       1.932 -15.665  -4.990  1.00  0.00    -0.237 OA
ATOM     83  O   UNL     1       3.208 -13.713  -5.814  1.00  0.00    -0.237 OA
ATOM     84  O   UNL     1       2.559 -13.847  -3.442  1.00  0.00    -0.744 OA
ENDBRANCH  80  81
ENDBRANCH  52  75
BRANCH  64  85
ATOM     85  C   UNL     1      -7.823 -14.206  -8.379  1.00  0.00    -0.014 A 
ATOM     86  C   UNL     1      -8.130 -15.220  -7.455  1.00  0.00     0.010 A 
ATOM     87  C   UNL     1      -8.081 -14.422  -9.746  1.00  0.00     0.010 A 
ATOM     88  C   UNL     1      -8.664 -16.435  -7.894  1.00  0.00     0.020 A 
ATOM     89  C   UNL     1      -8.643 -15.622 -10.185  1.00  0.00     0.020 A 
ATOM     90  C   UNL     1      -8.920 -16.627  -9.256  1.00  0.00     0.054 A 
BRANCH  90  91
ATOM     91  S   UNL     1      -9.668 -18.190  -9.792  1.00  0.00     0.124 S 
ATOM     92  O   UNL     1      -8.561 -19.128  -9.627  1.00  0.00    -0.237 OA
ATOM     93  O   UNL     1     -10.775 -18.353  -8.853  1.00  0.00    -0.237 OA
ATOM     94  O   UNL     1     -10.064 -17.930 -11.174  1.00  0.00    -0.744 OA
ENDBRANCH  90  91
ENDBRANCH  64  85
ENDBRANCH  38  39
ENDBRANCH  31  33
ENDBRANCH  30  31
ENDBRANCH  29  30
ENDBRANCH  28  29
ENDBRANCH  27  28
ENDBRANCH  26  27
ENDBRANCH   1  26
TORSDOF 22
