REMARK SMILES CSCC[C@H](NC(=O)c1nc(C(C)C)n[nH]1)C(=O)OCCOCCOC(=O)c1ccc(-c2c3nc(c(-c4ccc(S(=O)(=O)[O-])cc4)c4ccc([nH]4)c(-c4ccc(S(=O)(=O)[O-])cc4)c4nc(c(-c5ccc(S(=O)(=O)[O-])cc5)c5ccc2[nH]5)C=C4)C=C3)cc1
REMARK SMILES IDX 22 1 21 2 20 3 19 4 17 5 18 6 5 7 4 8 3 9 2 10 1 11 6 12
REMARK SMILES IDX 7 13 8 15 9 16 10 17 16 18 11 19 15 20 12 22 13 23 14 24
REMARK SMILES IDX 23 25 24 26 25 27 26 28 27 29 28 30 29 31 87 32 30 33 86 34
REMARK SMILES IDX 31 35 32 36 33 37 80 38 34 39 85 40 79 41 81 42 35 43 84 44
REMARK SMILES IDX 78 45 77 46 36 48 66 49 47 50 65 51 48 52 51 53 64 54 82 55
REMARK SMILES IDX 49 56 50 57 63 59 83 60 52 61 37 62 38 63 46 64 39 65 45 66
REMARK SMILES IDX 40 67 41 68 42 69 43 70 44 71 67 72 68 73 76 74 69 75 75 76
REMARK SMILES IDX 70 77 71 78 72 79 73 80 74 81 53 82 54 83 62 84 55 85 61 86
REMARK SMILES IDX 56 87 57 88 58 89 59 90 60 91
REMARK H PARENT 6 14 16 21 81 47 51 58
REMARK Flexibility Score: inf
ROOT
ATOM      1  O   UNL     1      -1.640  -2.374   4.879  1.00  0.00    -0.374 OA
ENDROOT
BRANCH   1   2
ATOM      2  C   UNL     1      -0.779  -2.330   6.017  1.00  0.00     0.202 C 
BRANCH   2   3
ATOM      3  C   UNL     1       0.728  -2.249   5.745  1.00  0.00     0.261 C 
BRANCH   3   4
ATOM      4  O   UNL     1       1.058  -1.116   4.926  1.00  0.00    -0.462 OA
BRANCH   4   5
ATOM      5  C   UNL     1       1.720  -1.403   3.769  1.00  0.00     0.328 C 
ATOM      6  O   UNL     1       2.196  -2.499   3.493  1.00  0.00    -0.250 OA
BRANCH   5   7
ATOM      7  C   UNL     1       1.625  -0.248   2.745  1.00  0.00     0.193 C 
BRANCH   7   8
ATOM      8  C   UNL     1       2.855  -0.226   1.822  1.00  0.00     0.048 C 
BRANCH   8   9
ATOM      9  C   UNL     1       2.824  -1.279   0.708  1.00  0.00     0.072 C 
BRANCH   9  10
ATOM     10  S   UNL     1       2.346  -0.616  -0.923  1.00  0.00    -0.165 SA
ATOM     11  C   UNL     1       0.615  -0.220  -0.606  1.00  0.00     0.085 C 
ENDBRANCH   9  10
ENDBRANCH   8   9
ENDBRANCH   7   8
BRANCH   7  12
ATOM     12  N   UNL     1       1.161   1.050   3.288  1.00  0.00    -0.336 N 
ATOM     13  C   UNL     1       1.739   1.906   4.205  1.00  0.00     0.289 C 
ATOM     14  H   UNL     1       0.294   1.354   2.936  1.00  0.00     0.164 HD
ATOM     15  O   UNL     1       1.031   2.780   4.697  1.00  0.00    -0.266 OA
BRANCH  13  16
ATOM     16  C   UNL     1       3.112   1.714   4.572  1.00  0.00     0.214 A 
ATOM     17  N   UNL     1       4.037   1.220   3.788  1.00  0.00    -0.207 NA
ATOM     18  N   UNL     1       3.679   2.010   5.776  1.00  0.00    -0.255 N 
ATOM     19  C   UNL     1       5.125   1.088   4.592  1.00  0.00     0.153 A 
ATOM     20  N   UNL     1       4.956   1.571   5.828  1.00  0.00    -0.158 NA
ATOM     21  H   UNL     1       3.220   2.480   6.510  1.00  0.00     0.192 HD
BRANCH  19  22
ATOM     22  C   UNL     1       6.298   0.300   4.112  1.00  0.00     0.053 C 
ATOM     23  C   UNL     1       7.609   1.068   4.191  1.00  0.00     0.016 C 
ATOM     24  C   UNL     1       6.375  -1.050   4.822  1.00  0.00     0.016 C 
ENDBRANCH  19  22
ENDBRANCH  13  16
ENDBRANCH   7  12
ENDBRANCH   5   7
ENDBRANCH   4   5
ENDBRANCH   3   4
ENDBRANCH   2   3
ENDBRANCH   1   2
BRANCH   1  25
ATOM     25  C   UNL     1      -1.819  -1.178   4.122  1.00  0.00     0.202 C 
BRANCH  25  26
ATOM     26  C   UNL     1      -2.570  -0.011   4.774  1.00  0.00     0.261 C 
BRANCH  26  27
ATOM     27  O   UNL     1      -1.883   0.528   5.916  1.00  0.00    -0.460 OA
BRANCH  27  28
ATOM     28  C   UNL     1      -2.561   0.403   7.082  1.00  0.00     0.338 C 
ATOM     29  O   UNL     1      -3.685  -0.062   7.232  1.00  0.00    -0.246 OA
BRANCH  28  30
ATOM     30  C   UNL     1      -1.695   0.724   8.229  1.00  0.00     0.060 A 
ATOM     31  C   UNL     1      -1.559  -0.257   9.220  1.00  0.00     0.016 A 
ATOM     32  C   UNL     1      -1.131   1.990   8.399  1.00  0.00     0.016 A 
ATOM     33  C   UNL     1      -0.916   0.046  10.416  1.00  0.00     0.010 A 
ATOM     34  C   UNL     1      -0.493   2.295   9.608  1.00  0.00     0.010 A 
ATOM     35  C   UNL     1      -0.425   1.339  10.639  1.00  0.00    -0.014 A 
BRANCH  35  36
ATOM     36  C   UNL     1      -0.007   1.715  12.012  1.00  0.00     0.031 A 
ATOM     37  C   UNL     1      -0.977   2.460  12.892  1.00  0.00     0.074 A 
ATOM     38  C   UNL     1       1.187   1.330  12.498  1.00  0.00     0.049 A 
ATOM     39  N   UNL     1      -0.846   2.833  14.139  1.00  0.00    -0.248 NA
ATOM     40  C   UNL     1      -2.268   2.828  12.287  1.00  0.00     0.031 C 
ATOM     41  C   UNL     1       2.193   0.567  11.761  1.00  0.00     0.029 A 
ATOM     42  N   UNL     1       1.747   1.521  13.735  1.00  0.00    -0.354 N 
ATOM     43  C   UNL     1      -2.032   3.481  14.467  1.00  0.00     0.074 A 
ATOM     44  C   UNL     1      -2.857   3.479  13.279  1.00  0.00     0.031 C 
ATOM     45  C   UNL     1       3.249   0.350  12.564  1.00  0.00     0.029 A 
ATOM     46  C   UNL     1       3.003   0.978  13.861  1.00  0.00     0.049 A 
ATOM     47  H   UNL     1       1.293   2.002  14.464  1.00  0.00     0.167 HD
ATOM     48  C   UNL     1      -2.406   4.019  15.652  1.00  0.00     0.031 A 
ATOM     49  C   UNL     1       3.859   0.990  14.902  1.00  0.00     0.031 A 
ATOM     50  C   UNL     1      -1.581   4.031  16.831  1.00  0.00     0.049 A 
ATOM     51  C   UNL     1       3.444   1.647  16.192  1.00  0.00     0.074 A 
ATOM     52  C   UNL     1      -1.874   4.546  18.082  1.00  0.00     0.029 A 
ATOM     53  N   UNL     1      -0.298   3.509  16.904  1.00  0.00    -0.354 N 
ATOM     54  N   UNL     1       2.309   2.234  16.492  1.00  0.00    -0.248 NA
ATOM     55  C   UNL     1       4.421   1.627  17.290  1.00  0.00     0.031 C 
ATOM     56  C   UNL     1      -0.748   4.381  18.897  1.00  0.00     0.029 A 
ATOM     57  C   UNL     1       0.223   3.709  18.171  1.00  0.00     0.049 A 
ATOM     58  H   UNL     1       0.172   3.062  16.164  1.00  0.00     0.167 HD
ATOM     59  C   UNL     1       2.427   2.628  17.822  1.00  0.00     0.074 A 
ATOM     60  C   UNL     1       3.736   2.199  18.270  1.00  0.00     0.031 C 
ATOM     61  C   UNL     1       1.530   3.282  18.602  1.00  0.00     0.031 A 
BRANCH  48  62
ATOM     62  C   UNL     1      -3.762   4.673  15.720  1.00  0.00    -0.014 A 
ATOM     63  C   UNL     1      -4.942   3.908  15.699  1.00  0.00     0.010 A 
ATOM     64  C   UNL     1      -3.855   6.072  15.834  1.00  0.00     0.010 A 
ATOM     65  C   UNL     1      -6.191   4.534  15.750  1.00  0.00     0.020 A 
ATOM     66  C   UNL     1      -5.101   6.700  15.911  1.00  0.00     0.020 A 
ATOM     67  C   UNL     1      -6.263   5.927  15.851  1.00  0.00     0.054 A 
BRANCH  67  68
ATOM     68  S   UNL     1      -7.895   6.713  15.931  1.00  0.00     0.124 S 
ATOM     69  O   UNL     1      -8.361   6.578  14.552  1.00  0.00    -0.237 OA
ATOM     70  O   UNL     1      -8.599   5.894  16.914  1.00  0.00    -0.237 OA
ATOM     71  O   UNL     1      -7.603   8.079  16.358  1.00  0.00    -0.744 OA
ENDBRANCH  67  68
ENDBRANCH  48  62
BRANCH  49  72
ATOM     72  C   UNL     1       5.201   0.360  14.766  1.00  0.00    -0.014 A 
ATOM     73  C   UNL     1       5.518  -0.820  15.462  1.00  0.00     0.010 A 
ATOM     74  C   UNL     1       6.173   0.944  13.933  1.00  0.00     0.010 A 
ATOM     75  C   UNL     1       6.787  -1.394  15.340  1.00  0.00     0.020 A 
ATOM     76  C   UNL     1       7.433   0.359  13.788  1.00  0.00     0.020 A 
ATOM     77  C   UNL     1       7.736  -0.802  14.502  1.00  0.00     0.054 A 
BRANCH  77  78
ATOM     78  S   UNL     1       9.359  -1.592  14.319  1.00  0.00     0.124 S 
ATOM     79  O   UNL     1      10.001  -1.266  15.589  1.00  0.00    -0.237 OA
ATOM     80  O   UNL     1       9.006  -2.997  14.131  1.00  0.00    -0.237 OA
ATOM     81  O   UNL     1       9.927  -0.938  13.143  1.00  0.00    -0.744 OA
ENDBRANCH  77  78
ENDBRANCH  49  72
BRANCH  61  82
ATOM     82  C   UNL     1       1.920   3.542  20.034  1.00  0.00    -0.014 A 
ATOM     83  C   UNL     1       2.898   4.497  20.365  1.00  0.00     0.010 A 
ATOM     84  C   UNL     1       1.268   2.843  21.067  1.00  0.00     0.010 A 
ATOM     85  C   UNL     1       3.250   4.714  21.700  1.00  0.00     0.020 A 
ATOM     86  C   UNL     1       1.597   3.079  22.404  1.00  0.00     0.020 A 
ATOM     87  C   UNL     1       2.600   3.999  22.712  1.00  0.00     0.054 A 
BRANCH  87  88
ATOM     88  S   UNL     1       3.059   4.312  24.439  1.00  0.00     0.124 S 
ATOM     89  O   UNL     1       4.341   3.620  24.541  1.00  0.00    -0.237 OA
ATOM     90  O   UNL     1       3.125   5.770  24.496  1.00  0.00    -0.237 OA
ATOM     91  O   UNL     1       1.965   3.714  25.201  1.00  0.00    -0.744 OA
ENDBRANCH  87  88
ENDBRANCH  61  82
ENDBRANCH  35  36
ENDBRANCH  28  30
ENDBRANCH  27  28
ENDBRANCH  26  27
ENDBRANCH  25  26
ENDBRANCH   1  25
TORSDOF 23
