REMARK SMILES C[C@H](C(=O)OCCOCCOC(=O)c1ccc(-c2c3nc(c(-c4ccc(S(=O)(=O)[O-])cc4)c4ccc([nH]4)c(-c4ccc(S(=O)(=O)[O-])cc4)c4nc(c(-c5ccc(S(=O)(=O)[O-])cc5)c5ccc2[nH]5)C=C4)C=C3)cc1)[C@@H](C)[N@@H+](C)C[C@H]1C[C@H](O)C1
REMARK SMILES IDX 7 1 6 2 5 3 3 4 4 5 2 6 1 7 74 8 75 9 76 10 77 11 78 13
REMARK SMILES IDX 79 14 83 15 80 16 81 17 82 18 8 20 9 21 10 22 11 23 12 24
REMARK SMILES IDX 13 25 14 26 15 27 73 28 16 29 72 30 17 31 18 32 19 33 66 34
REMARK SMILES IDX 20 35 71 36 65 37 67 38 21 39 70 40 64 41 63 42 22 44 52 45
REMARK SMILES IDX 33 46 51 47 34 48 37 49 50 50 68 51 35 52 36 53 49 55 69 56
REMARK SMILES IDX 38 57 23 58 24 59 32 60 25 61 31 62 26 63 27 64 28 65 29 66
REMARK SMILES IDX 30 67 53 68 54 69 62 70 55 71 61 72 56 73 57 74 58 75 59 76
REMARK SMILES IDX 60 77 39 78 40 79 48 80 41 81 47 82 42 83 43 84 44 85 45 86
REMARK SMILES IDX 46 87
REMARK H PARENT 76 12 82 19 67 43 37 54
REMARK Flexibility Score: inf
ROOT
ATOM      1  C   UNL     1       1.984  -2.272   1.604  1.00  0.00     0.202 C 
ENDROOT
BRANCH   1   2
ATOM      2  C   UNL     1       1.650  -0.827   1.971  1.00  0.00     0.261 C 
BRANCH   2   3
ATOM      3  O   UNL     1       0.861  -0.222   0.929  1.00  0.00    -0.463 OA
BRANCH   3   4
ATOM      4  C   UNL     1       1.337   0.929   0.404  1.00  0.00     0.314 C 
ATOM      5  O   UNL     1       2.360   1.495   0.779  1.00  0.00    -0.252 OA
BRANCH   4   6
ATOM      6  C   UNL     1       0.531   1.441  -0.778  1.00  0.00     0.154 C 
ATOM      7  C   UNL     1       1.278   1.090  -2.075  1.00  0.00     0.026 C 
BRANCH   6   8
ATOM      8  C   UNL     1      -0.971   1.039  -0.879  1.00  0.00     0.194 C 
ATOM      9  C   UNL     1      -1.712   0.988   0.469  1.00  0.00     0.076 C 
BRANCH   8  10
ATOM     10  N   UNL     1      -1.665   1.840  -1.923  1.00  0.00    -0.334 N 
ATOM     11  C   UNL     1      -2.993   1.359  -2.285  1.00  0.00     0.332 C 
ATOM     12  H   UNL     1      -1.045   1.628  -2.704  1.00  0.00     0.348 HD
BRANCH  10  13
ATOM     13  C   UNL     1      -1.565   3.307  -1.893  1.00  0.00     0.265 C 
BRANCH  13  14
ATOM     14  C   UNL     1      -1.894   3.974  -0.564  1.00  0.00     0.049 C 
ATOM     15  C   UNL     1      -3.356   3.984  -0.044  1.00  0.00     0.041 C 
ATOM     16  C   UNL     1      -1.987   5.521  -0.598  1.00  0.00     0.041 C 
ATOM     17  C   UNL     1      -3.095   5.415   0.474  1.00  0.00     0.115 C 
BRANCH  17  18
ATOM     18  O   UNL     1      -2.669   5.544   1.845  1.00  0.00    -0.393 OA
ATOM     19  H   UNL     1      -1.921   4.948   2.009  1.00  0.00     0.210 HD
ENDBRANCH  17  18
ENDBRANCH  13  14
ENDBRANCH  10  13
ENDBRANCH   8  10
ENDBRANCH   6   8
ENDBRANCH   4   6
ENDBRANCH   3   4
ENDBRANCH   2   3
ENDBRANCH   1   2
BRANCH   1  20
ATOM     20  O   UNL     1       2.898  -2.426   0.515  1.00  0.00    -0.374 OA
BRANCH  20  21
ATOM     21  C   UNL     1       2.372  -2.225  -0.796  1.00  0.00     0.202 C 
BRANCH  21  22
ATOM     22  C   UNL     1       1.666  -3.426  -1.430  1.00  0.00     0.261 C 
BRANCH  22  23
ATOM     23  O   UNL     1       0.453  -3.767  -0.737  1.00  0.00    -0.460 OA
BRANCH  23  24
ATOM     24  C   UNL     1       0.546  -4.866   0.048  1.00  0.00     0.338 C 
ATOM     25  O   UNL     1       1.516  -5.604   0.167  1.00  0.00    -0.246 OA
BRANCH  24  26
ATOM     26  C   UNL     1      -0.646  -4.987   0.906  1.00  0.00     0.060 A 
ATOM     27  C   UNL     1      -0.433  -5.229   2.269  1.00  0.00     0.016 A 
ATOM     28  C   UNL     1      -1.942  -4.947   0.386  1.00  0.00     0.016 A 
ATOM     29  C   UNL     1      -1.512  -5.497   3.107  1.00  0.00     0.010 A 
ATOM     30  C   UNL     1      -3.025  -5.222   1.229  1.00  0.00     0.010 A 
ATOM     31  C   UNL     1      -2.810  -5.541   2.582  1.00  0.00    -0.014 A 
BRANCH  31  32
ATOM     32  C   UNL     1      -3.912  -6.077   3.417  1.00  0.00     0.031 A 
ATOM     33  C   UNL     1      -4.337  -7.509   3.227  1.00  0.00     0.074 A 
ATOM     34  C   UNL     1      -4.493  -5.316   4.361  1.00  0.00     0.049 A 
ATOM     35  N   UNL     1      -5.271  -8.184   3.846  1.00  0.00    -0.248 NA
ATOM     36  C   UNL     1      -3.612  -8.283   2.205  1.00  0.00     0.031 C 
ATOM     37  C   UNL     1      -4.136  -3.931   4.669  1.00  0.00     0.029 A 
ATOM     38  N   UNL     1      -5.509  -5.605   5.237  1.00  0.00    -0.354 N 
ATOM     39  C   UNL     1      -5.252  -9.456   3.285  1.00  0.00     0.074 A 
ATOM     40  C   UNL     1      -4.234  -9.451   2.258  1.00  0.00     0.031 C 
ATOM     41  C   UNL     1      -4.924  -3.490   5.665  1.00  0.00     0.029 A 
ATOM     42  C   UNL     1      -5.859  -4.549   6.043  1.00  0.00     0.049 A 
ATOM     43  H   UNL     1      -5.945  -6.487   5.284  1.00  0.00     0.167 HD
ATOM     44  C   UNL     1      -6.009 -10.533   3.602  1.00  0.00     0.031 A 
ATOM     45  C   UNL     1      -6.833  -4.443   6.968  1.00  0.00     0.031 A 
ATOM     46  C   UNL     1      -7.028 -10.531   4.618  1.00  0.00     0.049 A 
ATOM     47  C   UNL     1      -7.709  -5.634   7.255  1.00  0.00     0.074 A 
ATOM     48  C   UNL     1      -7.840 -11.576   5.024  1.00  0.00     0.029 A 
ATOM     49  N   UNL     1      -7.380  -9.430   5.383  1.00  0.00    -0.354 N 
ATOM     50  N   UNL     1      -7.663  -6.836   6.732  1.00  0.00    -0.248 NA
ATOM     51  C   UNL     1      -8.763  -5.455   8.263  1.00  0.00     0.031 C 
ATOM     52  C   UNL     1      -8.720 -11.090   5.997  1.00  0.00     0.029 A 
ATOM     53  C   UNL     1      -8.415  -9.760   6.240  1.00  0.00     0.049 A 
ATOM     54  H   UNL     1      -6.955  -8.543   5.325  1.00  0.00     0.167 HD
ATOM     55  C   UNL     1      -8.664  -7.565   7.367  1.00  0.00     0.074 A 
ATOM     56  C   UNL     1      -9.290  -6.671   8.320  1.00  0.00     0.031 C 
ATOM     57  C   UNL     1      -9.029  -8.857   7.181  1.00  0.00     0.031 A 
BRANCH  44  58
ATOM     58  C   UNL     1      -5.787 -11.796   2.812  1.00  0.00    -0.014 A 
ATOM     59  C   UNL     1      -4.626 -12.571   2.985  1.00  0.00     0.010 A 
ATOM     60  C   UNL     1      -6.771 -12.230   1.905  1.00  0.00     0.010 A 
ATOM     61  C   UNL     1      -4.435 -13.736   2.236  1.00  0.00     0.020 A 
ATOM     62  C   UNL     1      -6.596 -13.409   1.174  1.00  0.00     0.020 A 
ATOM     63  C   UNL     1      -5.420 -14.145   1.332  1.00  0.00     0.054 A 
BRANCH  63  64
ATOM     64  S   UNL     1      -5.156 -15.670   0.386  1.00  0.00     0.124 S 
ATOM     65  O   UNL     1      -4.141 -15.253  -0.579  1.00  0.00    -0.237 OA
ATOM     66  O   UNL     1      -4.702 -16.608   1.409  1.00  0.00    -0.237 OA
ATOM     67  O   UNL     1      -6.471 -15.959  -0.181  1.00  0.00    -0.744 OA
ENDBRANCH  63  64
ENDBRANCH  44  58
BRANCH  45  68
ATOM     68  C   UNL     1      -7.041  -3.153   7.681  1.00  0.00    -0.014 A 
ATOM     69  C   UNL     1      -6.735  -3.028   9.047  1.00  0.00     0.010 A 
ATOM     70  C   UNL     1      -7.546  -2.037   6.988  1.00  0.00     0.010 A 
ATOM     71  C   UNL     1      -6.941  -1.815   9.710  1.00  0.00     0.020 A 
ATOM     72  C   UNL     1      -7.728  -0.815   7.641  1.00  0.00     0.020 A 
ATOM     73  C   UNL     1      -7.434  -0.715   9.002  1.00  0.00     0.054 A 
BRANCH  73  74
ATOM     74  S   UNL     1      -7.641   0.866   9.869  1.00  0.00     0.124 S 
ATOM     75  O   UNL     1      -8.829   0.615  10.678  1.00  0.00    -0.237 OA
ATOM     76  O   UNL     1      -6.386   0.987  10.607  1.00  0.00    -0.237 OA
ATOM     77  O   UNL     1      -7.811   1.829   8.784  1.00  0.00    -0.744 OA
ENDBRANCH  73  74
ENDBRANCH  45  68
BRANCH  57  78
ATOM     78  C   UNL     1     -10.137  -9.398   8.047  1.00  0.00    -0.014 A 
ATOM     79  C   UNL     1     -11.475  -9.019   7.840  1.00  0.00     0.010 A 
ATOM     80  C   UNL     1      -9.837 -10.344   9.045  1.00  0.00     0.010 A 
ATOM     81  C   UNL     1     -12.490  -9.555   8.638  1.00  0.00     0.020 A 
ATOM     82  C   UNL     1     -10.852 -10.901   9.825  1.00  0.00     0.020 A 
ATOM     83  C   UNL     1     -12.172 -10.492   9.626  1.00  0.00     0.054 A 
BRANCH  83  84
ATOM     84  S   UNL     1     -13.513 -11.205  10.619  1.00  0.00     0.124 S 
ATOM     85  O   UNL     1     -13.846 -10.101  11.515  1.00  0.00    -0.237 OA
ATOM     86  O   UNL     1     -14.522 -11.525   9.613  1.00  0.00    -0.237 OA
ATOM     87  O   UNL     1     -12.892 -12.362  11.260  1.00  0.00    -0.744 OA
ENDBRANCH  83  84
ENDBRANCH  57  78
ENDBRANCH  31  32
ENDBRANCH  24  26
ENDBRANCH  23  24
ENDBRANCH  22  23
ENDBRANCH  21  22
ENDBRANCH  20  21
ENDBRANCH   1  20
TORSDOF 22
