REMARK SMILES Cc1cc(C)n(C)c(=O)c1C(=O)[NH+]1CCC2(CC1)C[NH2+][C@@H](C(=O)OCCOCCOC(=O)c1ccc(-c3c4nc(c(-c5ccc(S(=O)(=O)[O-])cc5)c5ccc([nH]5)c(-c5ccc(S(=O)(=O)[O-])cc5)c5nc(c(-c6ccc(S(=O)(=O)[O-])cc6)c6ccc3[nH]6)C=C5)C=C4)cc1)C2
REMARK SMILES IDX 28 1 27 2 26 3 25 4 24 5 22 6 23 7 21 8 13 9 14 10 18 11
REMARK SMILES IDX 15 13 17 14 16 15 19 16 93 17 20 18 11 21 12 22 10 23 1 24
REMARK SMILES IDX 2 25 3 26 4 27 8 28 5 29 6 30 9 31 7 32 29 33 30 34 31 35
REMARK SMILES IDX 32 36 33 37 34 38 92 39 35 40 91 41 36 42 37 43 38 44 85 45
REMARK SMILES IDX 39 46 90 47 84 48 86 49 40 50 89 51 83 52 82 53 41 55 71 56
REMARK SMILES IDX 52 57 70 58 53 59 56 60 69 61 87 62 54 63 55 64 68 66 88 67
REMARK SMILES IDX 57 68 42 69 43 70 51 71 44 72 50 73 45 74 46 75 47 76 48 77
REMARK SMILES IDX 49 78 72 79 73 80 81 81 74 82 80 83 75 84 76 85 77 86 78 87
REMARK SMILES IDX 79 88 58 89 59 90 67 91 60 92 66 93 61 94 62 95 63 96 64 97
REMARK SMILES IDX 65 98
REMARK H PARENT 13 12 20 19 20 20 86 54 56 65
REMARK Flexibility Score: inf
ROOT
ATOM      1  C   UNL     1       2.639   3.006  -7.394  1.00  0.00     0.202 C 
ENDROOT
BRANCH   1   2
ATOM      2  O   UNL     1       2.593   2.523  -8.735  1.00  0.00    -0.374 OA
BRANCH   2   3
ATOM      3  C   UNL     1       1.628   1.513  -9.036  1.00  0.00     0.202 C 
BRANCH   3   4
ATOM      4  C   UNL     1       1.957   0.090  -8.579  1.00  0.00     0.261 C 
BRANCH   4   5
ATOM      5  O   UNL     1       2.038   0.021  -7.147  1.00  0.00    -0.459 OA
BRANCH   5   6
ATOM      6  C   UNL     1       3.248  -0.327  -6.638  1.00  0.00     0.364 C 
ATOM      7  O   UNL     1       4.211  -0.709  -7.298  1.00  0.00    -0.245 OA
BRANCH   6   8
ATOM      8  C   UNL     1       3.310  -0.205  -5.117  1.00  0.00     0.294 C 
ATOM      9  N   UNL     1       1.443   2.052  -0.750  1.00  0.00    -0.267 N 
ATOM     10  C   UNL     1       2.626   2.437  -1.506  1.00  0.00     0.271 C 
ATOM     11  C   UNL     1       0.367   1.537  -1.587  1.00  0.00     0.271 C 
ATOM     12  H   UNL     1       0.642   2.199  -0.198  1.00  0.00     0.357 HD
ATOM     13  C   UNL     1       3.261   1.163  -2.041  1.00  0.00     0.075 C 
ATOM     14  C   UNL     1       0.816   0.389  -2.513  1.00  0.00     0.075 C 
ATOM     15  C   UNL     1       2.312   0.362  -2.967  1.00  0.00     0.036 C 
ATOM     16  C   UNL     1       2.832  -1.103  -3.051  1.00  0.00     0.268 C 
ATOM     17  C   UNL     1       2.455   0.861  -4.432  1.00  0.00     0.090 C 
ATOM     18  N   UNL     1       2.835  -1.436  -4.469  1.00  0.00    -0.334 N 
ATOM     19  H   UNL     1       1.896  -1.675  -4.788  1.00  0.00     0.347 HD
ATOM     20  H   UNL     1       3.418  -2.245  -4.684  1.00  0.00     0.347 HD
BRANCH   9  21
ATOM     21  C   UNL     1       1.470   2.221   0.631  1.00  0.00     0.350 C 
ATOM     22  O   UNL     1       2.344   2.916   1.161  1.00  0.00    -0.225 OA
BRANCH  21  23
ATOM     23  C   UNL     1       0.545   1.469   1.545  1.00  0.00     0.147 A 
ATOM     24  C   UNL     1       1.113  -0.837   0.594  1.00  0.00     0.045 C 
ATOM     25  C   UNL     1       0.456   0.120   1.540  1.00  0.00    -0.027 A 
ATOM     26  C   UNL     1      -0.219  -0.576   2.616  1.00  0.00     0.026 A 
ATOM     27  C   UNL     1      -0.564   0.042   3.753  1.00  0.00     0.018 A 
ATOM     28  C   UNL     1      -0.009   2.204   2.747  1.00  0.00     0.267 A 
ATOM     29  C   UNL     1      -1.095  -0.789   4.890  1.00  0.00     0.064 C 
ATOM     30  N   UNL     1      -0.421   1.422   3.845  1.00  0.00    -0.315 N 
ATOM     31  O   UNL     1      -0.075   3.433   2.751  1.00  0.00    -0.268 OA
ATOM     32  C   UNL     1      -0.732   2.113   5.090  1.00  0.00     0.153 C 
ENDBRANCH  21  23
ENDBRANCH   9  21
ENDBRANCH   6   8
ENDBRANCH   5   6
ENDBRANCH   4   5
ENDBRANCH   3   4
ENDBRANCH   2   3
ENDBRANCH   1   2
BRANCH   1  33
ATOM     33  C   UNL     1       1.525   3.962  -6.948  1.00  0.00     0.261 C 
BRANCH  33  34
ATOM     34  O   UNL     1       0.231   3.334  -6.924  1.00  0.00    -0.460 OA
BRANCH  34  35
ATOM     35  C   UNL     1      -0.631   3.786  -7.867  1.00  0.00     0.338 C 
ATOM     36  O   UNL     1      -0.442   4.701  -8.659  1.00  0.00    -0.246 OA
BRANCH  35  37
ATOM     37  C   UNL     1      -1.799   2.895  -7.963  1.00  0.00     0.060 A 
ATOM     38  C   UNL     1      -2.065   2.313  -9.209  1.00  0.00     0.016 A 
ATOM     39  C   UNL     1      -2.670   2.702  -6.888  1.00  0.00     0.016 A 
ATOM     40  C   UNL     1      -3.228   1.573  -9.401  1.00  0.00     0.010 A 
ATOM     41  C   UNL     1      -3.846   1.969  -7.087  1.00  0.00     0.010 A 
ATOM     42  C   UNL     1      -4.147   1.434  -8.353  1.00  0.00    -0.014 A 
BRANCH  42  43
ATOM     43  C   UNL     1      -5.489   0.874  -8.642  1.00  0.00     0.031 A 
ATOM     44  C   UNL     1      -6.631   1.821  -8.897  1.00  0.00     0.074 A 
ATOM     45  C   UNL     1      -5.677  -0.455  -8.743  1.00  0.00     0.049 A 
ATOM     46  N   UNL     1      -7.879   1.553  -9.182  1.00  0.00    -0.248 NA
ATOM     47  C   UNL     1      -6.324   3.259  -8.829  1.00  0.00     0.031 C 
ATOM     48  C   UNL     1      -4.636  -1.470  -8.583  1.00  0.00     0.029 A 
ATOM     49  N   UNL     1      -6.812  -1.176  -9.018  1.00  0.00    -0.354 N 
ATOM     50  C   UNL     1      -8.504   2.786  -9.331  1.00  0.00     0.074 A 
ATOM     51  C   UNL     1      -7.508   3.802  -9.072  1.00  0.00     0.031 C 
ATOM     52  C   UNL     1      -5.181  -2.684  -8.770  1.00  0.00     0.029 A 
ATOM     53  C   UNL     1      -6.612  -2.535  -9.029  1.00  0.00     0.049 A 
ATOM     54  H   UNL     1      -7.686  -0.758  -9.190  1.00  0.00     0.167 HD
ATOM     55  C   UNL     1      -9.790   3.050  -9.665  1.00  0.00     0.031 A 
ATOM     56  C   UNL     1      -7.486  -3.545  -9.216  1.00  0.00     0.031 A 
ATOM     57  C   UNL     1     -10.784   2.039  -9.907  1.00  0.00     0.049 A 
ATOM     58  C   UNL     1      -8.934  -3.228  -9.484  1.00  0.00     0.074 A 
ATOM     59  C   UNL     1     -12.116   2.207 -10.245  1.00  0.00     0.029 A 
ATOM     60  N   UNL     1     -10.559   0.673  -9.832  1.00  0.00    -0.354 N 
ATOM     61  N   UNL     1      -9.510  -2.057  -9.621  1.00  0.00    -0.248 NA
ATOM     62  C   UNL     1      -9.850  -4.370  -9.624  1.00  0.00     0.031 C 
ATOM     63  C   UNL     1     -12.709   0.943 -10.320  1.00  0.00     0.029 A 
ATOM     64  C   UNL     1     -11.733  -0.014 -10.088  1.00  0.00     0.049 A 
ATOM     65  H   UNL     1      -9.693   0.254  -9.626  1.00  0.00     0.167 HD
ATOM     66  C   UNL     1     -10.851  -2.321  -9.882  1.00  0.00     0.074 A 
ATOM     67  C   UNL     1     -10.998  -3.762  -9.899  1.00  0.00     0.031 C 
ATOM     68  C   UNL     1     -11.867  -1.449 -10.091  1.00  0.00     0.031 A 
BRANCH  55  69
ATOM     69  C   UNL     1     -10.201   4.494  -9.763  1.00  0.00    -0.014 A 
ATOM     70  C   UNL     1      -9.781   5.296 -10.839  1.00  0.00     0.010 A 
ATOM     71  C   UNL     1     -11.059   5.043  -8.792  1.00  0.00     0.010 A 
ATOM     72  C   UNL     1     -10.187   6.630 -10.927  1.00  0.00     0.020 A 
ATOM     73  C   UNL     1     -11.487   6.370  -8.890  1.00  0.00     0.020 A 
ATOM     74  C   UNL     1     -11.038   7.158  -9.951  1.00  0.00     0.054 A 
BRANCH  74  75
ATOM     75  S   UNL     1     -11.574   8.884 -10.109  1.00  0.00     0.124 S 
ATOM     76  O   UNL     1     -10.340   9.610  -9.818  1.00  0.00    -0.237 OA
ATOM     77  O   UNL     1     -12.030   8.951 -11.494  1.00  0.00    -0.237 OA
ATOM     78  O   UNL     1     -12.624   9.016  -9.102  1.00  0.00    -0.744 OA
ENDBRANCH  74  75
ENDBRANCH  55  69
BRANCH  56  79
ATOM     79  C   UNL     1      -7.015  -4.955  -9.143  1.00  0.00    -0.014 A 
ATOM     80  C   UNL     1      -6.958  -5.752 -10.299  1.00  0.00     0.010 A 
ATOM     81  C   UNL     1      -6.606  -5.503  -7.913  1.00  0.00     0.010 A 
ATOM     82  C   UNL     1      -6.502  -7.072 -10.226  1.00  0.00     0.020 A 
ATOM     83  C   UNL     1      -6.126  -6.814  -7.841  1.00  0.00     0.020 A 
ATOM     84  C   UNL     1      -6.083  -7.593  -8.998  1.00  0.00     0.054 A 
BRANCH  84  85
ATOM     85  S   UNL     1      -5.434  -9.286  -8.942  1.00  0.00     0.124 S 
ATOM     86  O   UNL     1      -6.638 -10.082  -9.156  1.00  0.00    -0.237 OA
ATOM     87  O   UNL     1      -4.470  -9.288 -10.040  1.00  0.00    -0.237 OA
ATOM     88  O   UNL     1      -4.847  -9.384  -7.607  1.00  0.00    -0.744 OA
ENDBRANCH  84  85
ENDBRANCH  56  79
BRANCH  68  89
ATOM     89  C   UNL     1     -13.233  -2.019 -10.368  1.00  0.00    -0.014 A 
ATOM     90  C   UNL     1     -13.996  -2.602  -9.342  1.00  0.00     0.010 A 
ATOM     91  C   UNL     1     -13.793  -1.895 -11.654  1.00  0.00     0.010 A 
ATOM     92  C   UNL     1     -15.287  -3.070  -9.601  1.00  0.00     0.020 A 
ATOM     93  C   UNL     1     -15.093  -2.338 -11.911  1.00  0.00     0.020 A 
ATOM     94  C   UNL     1     -15.829  -2.932 -10.883  1.00  0.00     0.054 A 
BRANCH  94  95
ATOM     95  S   UNL     1     -17.528  -3.497 -11.176  1.00  0.00     0.124 S 
ATOM     96  O   UNL     1     -17.379  -4.949 -11.126  1.00  0.00    -0.237 OA
ATOM     97  O   UNL     1     -18.259  -2.901 -10.060  1.00  0.00    -0.237 OA
ATOM     98  O   UNL     1     -17.855  -2.950 -12.491  1.00  0.00    -0.744 OA
ENDBRANCH  94  95
ENDBRANCH  68  89
ENDBRANCH  42  43
ENDBRANCH  35  37
ENDBRANCH  34  35
ENDBRANCH  33  34
ENDBRANCH   1  33
TORSDOF 19
