REMARK SMILES Cc1cc(Cl)ccc1-c1ccc(C(=O)OCCOCCOC(=O)c2ccc(-c3c4nc(c(-c5ccc(S(=O)(=O)[O-])cc5)c5ccc([nH]5)c(-c5ccc(S(=O)(=O)[O-])cc5)c5nc(c(-c6ccc(S(=O)(=O)[O-])cc6)c6ccc3[nH]6)C=C5)C=C4)cc2)c(Cl)c1
REMARK SMILES IDX 19 1 18 2 17 3 16 4 15 5 13 6 14 7 12 8 9 9 10 10 86 11
REMARK SMILES IDX 11 12 84 13 85 14 8 15 1 16 2 17 3 18 4 19 7 20 5 21 6 22
REMARK SMILES IDX 20 23 21 24 22 25 23 26 24 27 25 28 83 29 26 30 82 31 27 32
REMARK SMILES IDX 28 33 29 34 76 35 30 36 81 37 75 38 77 39 31 40 80 41 74 42
REMARK SMILES IDX 73 43 32 45 62 46 43 47 61 48 44 49 47 50 60 51 78 52 45 53
REMARK SMILES IDX 46 54 59 56 79 57 48 58 33 59 34 60 42 61 35 62 41 63 36 64
REMARK SMILES IDX 37 65 38 66 39 67 40 68 63 69 64 70 72 71 65 72 71 73 66 74
REMARK SMILES IDX 67 75 68 76 69 77 70 78 49 79 50 80 58 81 51 82 57 83 52 84
REMARK SMILES IDX 53 85 54 86 55 87 56 88
REMARK H PARENT 77 44 47 55
REMARK Flexibility Score: inf
ROOT
ATOM      1  C   UNL     1      -9.039  -0.712   0.268  1.00  0.00     0.202 C 
ENDROOT
BRANCH   1   2
ATOM      2  O   UNL     1     -10.110  -1.579  -0.107  1.00  0.00    -0.374 OA
BRANCH   2   3
ATOM      3  C   UNL     1     -10.216  -2.823   0.591  1.00  0.00     0.202 C 
BRANCH   3   4
ATOM      4  C   UNL     1      -9.241  -3.913   0.141  1.00  0.00     0.261 C 
BRANCH   4   5
ATOM      5  O   UNL     1      -7.892  -3.521   0.445  1.00  0.00    -0.460 OA
BRANCH   5   6
ATOM      6  C   UNL     1      -7.028  -3.534  -0.590  1.00  0.00     0.339 C 
ATOM      7  O   UNL     1      -7.243  -3.956  -1.720  1.00  0.00    -0.246 OA
BRANCH   6   8
ATOM      8  C   UNL     1      -5.806  -2.768  -0.268  1.00  0.00     0.078 A 
ATOM      9  C   UNL     1      -3.369  -1.370   0.024  1.00  0.00    -0.017 A 
ATOM     10  C   UNL     1      -4.152  -1.201  -1.124  1.00  0.00     0.010 A 
ATOM     11  C   UNL     1      -3.862  -2.196   1.052  1.00  0.00     0.030 A 
ATOM     12  C   UNL     1      -5.356  -1.892  -1.269  1.00  0.00     0.018 A 
ATOM     13  C   UNL     1      -5.069  -2.899   0.911  1.00  0.00     0.056 A 
ATOM     14  Cl  UNL     1      -5.510  -3.964   2.195  1.00  0.00    -0.083 Cl
BRANCH   9  15
ATOM     15  C   UNL     1      -2.002  -0.825   0.083  1.00  0.00    -0.015 A 
ATOM     16  C   UNL     1      -2.736   1.638   0.114  1.00  0.00     0.045 C 
ATOM     17  C   UNL     1      -1.693   0.552   0.098  1.00  0.00    -0.042 A 
ATOM     18  C   UNL     1      -0.342   0.956   0.067  1.00  0.00     0.024 A 
ATOM     19  C   UNL     1       0.688   0.017   0.042  1.00  0.00     0.041 A 
ATOM     20  C   UNL     1      -0.936  -1.752   0.067  1.00  0.00     0.010 A 
ATOM     21  Cl  UNL     1       2.326   0.538  -0.008  1.00  0.00    -0.084 Cl
ATOM     22  C   UNL     1       0.396  -1.339   0.048  1.00  0.00     0.021 A 
ENDBRANCH   9  15
ENDBRANCH   6   8
ENDBRANCH   5   6
ENDBRANCH   4   5
ENDBRANCH   3   4
ENDBRANCH   2   3
ENDBRANCH   1   2
BRANCH   1  23
ATOM     23  C   UNL     1      -9.247   0.119   1.539  1.00  0.00     0.261 C 
BRANCH  23  24
ATOM     24  O   UNL     1      -9.330  -0.699   2.719  1.00  0.00    -0.460 OA
BRANCH  24  25
ATOM     25  C   UNL     1     -10.569  -0.775   3.260  1.00  0.00     0.338 C 
ATOM     26  O   UNL     1     -11.567  -0.165   2.894  1.00  0.00    -0.246 OA
BRANCH  25  27
ATOM     27  C   UNL     1     -10.631  -1.840   4.278  1.00  0.00     0.060 A 
ATOM     28  C   UNL     1     -11.706  -2.734   4.198  1.00  0.00     0.016 A 
ATOM     29  C   UNL     1      -9.723  -1.916   5.338  1.00  0.00     0.016 A 
ATOM     30  C   UNL     1     -11.925  -3.654   5.218  1.00  0.00     0.010 A 
ATOM     31  C   UNL     1      -9.947  -2.842   6.365  1.00  0.00     0.010 A 
ATOM     32  C   UNL     1     -11.078  -3.678   6.334  1.00  0.00    -0.014 A 
BRANCH  32  33
ATOM     33  C   UNL     1     -11.501  -4.451   7.529  1.00  0.00     0.031 A 
ATOM     34  C   UNL     1     -12.191  -3.727   8.656  1.00  0.00     0.074 A 
ATOM     35  C   UNL     1     -11.363  -5.788   7.571  1.00  0.00     0.049 A 
ATOM     36  N   UNL     1     -12.744  -4.212   9.737  1.00  0.00    -0.248 NA
ATOM     37  C   UNL     1     -12.273  -2.262   8.543  1.00  0.00     0.031 C 
ATOM     38  C   UNL     1     -10.757  -6.610   6.525  1.00  0.00     0.029 A 
ATOM     39  N   UNL     1     -11.751  -6.691   8.529  1.00  0.00    -0.354 N 
ATOM     40  C   UNL     1     -13.245  -3.115  10.430  1.00  0.00     0.074 A 
ATOM     41  C   UNL     1     -12.890  -1.938   9.668  1.00  0.00     0.031 C 
ATOM     42  C   UNL     1     -10.835  -7.902   6.887  1.00  0.00     0.029 A 
ATOM     43  C   UNL     1     -11.477  -7.996   8.197  1.00  0.00     0.049 A 
ATOM     44  H   UNL     1     -12.184  -6.429   9.373  1.00  0.00     0.167 HD
ATOM     45  C   UNL     1     -13.950  -3.087  11.587  1.00  0.00     0.031 A 
ATOM     46  C   UNL     1     -11.726  -9.138   8.869  1.00  0.00     0.031 A 
ATOM     47  C   UNL     1     -14.281  -4.254  12.360  1.00  0.00     0.049 A 
ATOM     48  C   UNL     1     -12.444  -9.077  10.191  1.00  0.00     0.074 A 
ATOM     49  C   UNL     1     -14.985  -4.331  13.550  1.00  0.00     0.029 A 
ATOM     50  N   UNL     1     -13.924  -5.551  12.023  1.00  0.00    -0.354 N 
ATOM     51  N   UNL     1     -12.926  -8.033  10.823  1.00  0.00    -0.248 NA
ATOM     52  C   UNL     1     -12.665 -10.355  10.881  1.00  0.00     0.031 C 
ATOM     53  C   UNL     1     -15.012  -5.670  13.956  1.00  0.00     0.029 A 
ATOM     54  C   UNL     1     -14.375  -6.434  12.990  1.00  0.00     0.049 A 
ATOM     55  H   UNL     1     -13.424  -5.806  11.215  1.00  0.00     0.167 HD
ATOM     56  C   UNL     1     -13.541  -8.534  11.967  1.00  0.00     0.074 A 
ATOM     57  C   UNL     1     -13.373  -9.973  11.935  1.00  0.00     0.031 C 
ATOM     58  C   UNL     1     -14.195  -7.864  12.950  1.00  0.00     0.031 A 
BRANCH  45  59
ATOM     59  C   UNL     1     -14.370  -1.732  12.097  1.00  0.00    -0.014 A 
ATOM     60  C   UNL     1     -15.364  -0.983  11.441  1.00  0.00     0.010 A 
ATOM     61  C   UNL     1     -13.749  -1.194  13.238  1.00  0.00     0.010 A 
ATOM     62  C   UNL     1     -15.685   0.305  11.879  1.00  0.00     0.020 A 
ATOM     63  C   UNL     1     -14.088   0.083  13.697  1.00  0.00     0.020 A 
ATOM     64  C   UNL     1     -15.035   0.834  12.998  1.00  0.00     0.054 A 
BRANCH  64  65
ATOM     65  S   UNL     1     -15.448   2.518  13.534  1.00  0.00     0.124 S 
ATOM     66  O   UNL     1     -14.757   3.328  12.534  1.00  0.00    -0.237 OA
ATOM     67  O   UNL     1     -16.906   2.533  13.455  1.00  0.00    -0.237 OA
ATOM     68  O   UNL     1     -14.899   2.595  14.885  1.00  0.00    -0.744 OA
ENDBRANCH  64  65
ENDBRANCH  45  59
BRANCH  46  69
ATOM     69  C   UNL     1     -11.319 -10.444   8.285  1.00  0.00    -0.014 A 
ATOM     70  C   UNL     1     -12.287 -11.341   7.798  1.00  0.00     0.010 A 
ATOM     71  C   UNL     1      -9.959 -10.795   8.205  1.00  0.00     0.010 A 
ATOM     72  C   UNL     1     -11.903 -12.569   7.251  1.00  0.00     0.020 A 
ATOM     73  C   UNL     1      -9.570 -12.012   7.636  1.00  0.00     0.020 A 
ATOM     74  C   UNL     1     -10.546 -12.895   7.171  1.00  0.00     0.054 A 
BRANCH  74  75
ATOM     75  S   UNL     1     -10.068 -14.467   6.400  1.00  0.00     0.124 S 
ATOM     76  O   UNL     1     -10.435 -15.434   7.429  1.00  0.00    -0.237 OA
ATOM     77  O   UNL     1     -10.887 -14.487   5.191  1.00  0.00    -0.237 OA
ATOM     78  O   UNL     1      -8.634 -14.311   6.170  1.00  0.00    -0.744 OA
ENDBRANCH  74  75
ENDBRANCH  46  69
BRANCH  58  79
ATOM     79  C   UNL     1     -14.818  -8.686  14.048  1.00  0.00    -0.014 A 
ATOM     80  C   UNL     1     -14.032  -9.334  15.017  1.00  0.00     0.010 A 
ATOM     81  C   UNL     1     -16.219  -8.794  14.120  1.00  0.00     0.010 A 
ATOM     82  C   UNL     1     -14.634 -10.115  16.009  1.00  0.00     0.020 A 
ATOM     83  C   UNL     1     -16.826  -9.551  15.125  1.00  0.00     0.020 A 
ATOM     84  C   UNL     1     -16.027 -10.224  16.051  1.00  0.00     0.054 A 
BRANCH  84  85
ATOM     85  S   UNL     1     -16.789 -11.234  17.352  1.00  0.00     0.124 S 
ATOM     86  O   UNL     1     -16.553 -12.589  16.861  1.00  0.00    -0.237 OA
ATOM     87  O   UNL     1     -16.030 -10.855  18.541  1.00  0.00    -0.237 OA
ATOM     88  O   UNL     1     -18.186 -10.805  17.349  1.00  0.00    -0.744 OA
ENDBRANCH  84  85
ENDBRANCH  58  79
ENDBRANCH  32  33
ENDBRANCH  25  27
ENDBRANCH  24  25
ENDBRANCH  23  24
ENDBRANCH   1  23
TORSDOF 18
