REMARK SMILES COc1cccc(-c2c([C@H]3c4ccccc4C(=O)N3CC(=O)OCCOCCOC(=O)c3ccc(-c4c5nc(c(-c6ccc(S(=O)(=O)[O-])cc6)c6ccc([nH]6)c(-c6ccc(S(=O)(=O)[O-])cc6)c6nc(c(-c7ccc(S(=O)(=O)[O-])cc7)c7ccc4[nH]7)C=C6)C=C5)cc3)c3ccccc3n2C)c1
REMARK SMILES IDX 25 1 24 2 23 3 21 4 22 5 20 6 19 7 10 8 11 9 12 10 16 11
REMARK SMILES IDX 17 12 13 13 15 14 18 15 14 16 9 17 8 18 98 19 92 20 97 21
REMARK SMILES IDX 99 22 93 23 96 24 94 25 95 26 7 27 3 28 4 29 100 30 5 31
REMARK SMILES IDX 6 32 2 33 1 34 26 35 27 36 28 37 29 38 30 39 31 40 32 41
REMARK SMILES IDX 33 42 91 43 34 44 90 45 35 46 36 47 37 48 84 49 38 50 89 51
REMARK SMILES IDX 83 52 85 53 39 54 88 55 82 56 81 57 40 59 70 60 51 61 69 62
REMARK SMILES IDX 52 63 55 64 68 65 86 66 53 67 54 68 67 70 87 71 56 72 41 73
REMARK SMILES IDX 42 74 50 75 43 76 49 77 44 78 45 79 46 80 47 81 48 82 71 83
REMARK SMILES IDX 72 84 80 85 73 86 79 87 74 88 75 89 76 90 77 91 78 92 57 93
REMARK SMILES IDX 58 94 66 95 59 96 65 97 60 98 61 99 62 100 63 101 64 102
REMARK H PARENT 85 58 55 69
REMARK Flexibility Score: inf
ROOT
ATOM      1  C   UNL     1       8.971  -0.832   2.042  1.00  0.00     0.202 C 
ENDROOT
BRANCH   1   2
ATOM      2  C   UNL     1       8.856   0.443   1.198  1.00  0.00     0.261 C 
BRANCH   2   3
ATOM      3  O   UNL     1       7.634   0.473   0.445  1.00  0.00    -0.462 OA
BRANCH   3   4
ATOM      4  C   UNL     1       7.790   0.614  -0.891  1.00  0.00     0.325 C 
ATOM      5  O   UNL     1       8.855   0.854  -1.458  1.00  0.00    -0.250 OA
BRANCH   4   6
ATOM      6  C   UNL     1       6.568   0.198  -1.698  1.00  0.00     0.243 C 
BRANCH   6   7
ATOM      7  N   UNL     1       5.185   0.118  -1.200  1.00  0.00    -0.316 N 
ATOM      8  C   UNL     1       4.264  -0.549  -2.124  1.00  0.00     0.150 C 
ATOM      9  C   UNL     1       3.718   0.627  -2.882  1.00  0.00    -0.008 A 
ATOM     10  C   UNL     1       3.436   0.745  -4.234  1.00  0.00     0.007 A 
ATOM     11  C   UNL     1       3.844   1.771  -2.091  1.00  0.00     0.045 A 
ATOM     12  C   UNL     1       4.675   1.406  -0.930  1.00  0.00     0.255 C 
ATOM     13  C   UNL     1       3.267   2.030  -4.762  1.00  0.00     0.000 A 
ATOM     14  C   UNL     1       3.649   3.048  -2.582  1.00  0.00     0.014 A 
ATOM     15  O   UNL     1       5.055   2.184  -0.074  1.00  0.00    -0.269 OA
ATOM     16  C   UNL     1       3.356   3.170  -3.941  1.00  0.00     0.001 A 
BRANCH   8  17
ATOM     17  C   UNL     1       3.062  -1.278  -1.534  1.00  0.00     0.013 A 
ATOM     18  C   UNL     1       2.262  -2.179  -2.259  1.00  0.00     0.055 A 
ATOM     19  N   UNL     1       1.153  -2.471  -1.492  1.00  0.00    -0.343 N 
ATOM     20  C   UNL     1       2.553  -1.334  -0.187  1.00  0.00     0.006 A 
ATOM     21  C   UNL     1       1.383  -2.102  -0.186  1.00  0.00     0.049 A 
ATOM     22  C   UNL     1      -0.061  -3.107  -1.957  1.00  0.00     0.150 C 
ATOM     23  C   UNL     1       2.986  -0.830   1.052  1.00  0.00     0.011 A 
ATOM     24  C   UNL     1       0.655  -2.375   0.990  1.00  0.00     0.027 A 
ATOM     25  C   UNL     1       2.283  -1.111   2.232  1.00  0.00     0.001 A 
ATOM     26  C   UNL     1       1.129  -1.875   2.199  1.00  0.00     0.002 A 
BRANCH  18  27
ATOM     27  C   UNL     1       2.563  -2.766  -3.567  1.00  0.00     0.002 A 
ATOM     28  C   UNL     1       4.261  -3.802  -4.971  1.00  0.00     0.119 A 
ATOM     29  C   UNL     1       3.424  -3.642  -6.073  1.00  0.00     0.046 A 
ATOM     30  C   UNL     1       3.799  -3.421  -3.715  1.00  0.00     0.056 A 
ATOM     31  C   UNL     1       2.159  -3.064  -5.927  1.00  0.00     0.005 A 
ATOM     32  C   UNL     1       1.738  -2.604  -4.679  1.00  0.00     0.010 A 
BRANCH  28  33
ATOM     33  O   UNL     1       5.505  -4.307  -5.234  1.00  0.00    -0.497 OA
ATOM     34  C   UNL     1       6.482  -4.152  -4.206  1.00  0.00     0.278 C 
ENDBRANCH  28  33
ENDBRANCH  18  27
ENDBRANCH   8  17
ENDBRANCH   6   7
ENDBRANCH   4   6
ENDBRANCH   3   4
ENDBRANCH   2   3
ENDBRANCH   1   2
BRANCH   1  35
ATOM     35  O   UNL     1       8.856  -2.074   1.343  1.00  0.00    -0.374 OA
BRANCH  35  36
ATOM     36  C   UNL     1       7.589  -2.412   0.776  1.00  0.00     0.202 C 
BRANCH  36  37
ATOM     37  C   UNL     1       6.374  -2.432   1.710  1.00  0.00     0.261 C 
BRANCH  37  38
ATOM     38  O   UNL     1       6.047  -1.124   2.214  1.00  0.00    -0.460 OA
BRANCH  38  39
ATOM     39  C   UNL     1       5.829  -1.074   3.549  1.00  0.00     0.338 C 
ATOM     40  O   UNL     1       5.821  -2.023   4.318  1.00  0.00    -0.246 OA
BRANCH  39  41
ATOM     41  C   UNL     1       5.729   0.314   4.041  1.00  0.00     0.060 A 
ATOM     42  C   UNL     1       6.521   0.653   5.143  1.00  0.00     0.016 A 
ATOM     43  C   UNL     1       4.775   1.214   3.563  1.00  0.00     0.016 A 
ATOM     44  C   UNL     1       6.295   1.850   5.818  1.00  0.00     0.010 A 
ATOM     45  C   UNL     1       4.521   2.394   4.259  1.00  0.00     0.010 A 
ATOM     46  C   UNL     1       5.254   2.692   5.411  1.00  0.00    -0.014 A 
BRANCH  46  47
ATOM     47  C   UNL     1       4.902   3.863   6.234  1.00  0.00     0.031 A 
ATOM     48  C   UNL     1       3.956   3.704   7.387  1.00  0.00     0.074 A 
ATOM     49  C   UNL     1       5.427   5.059   5.926  1.00  0.00     0.049 A 
ATOM     50  N   UNL     1       3.662   4.556   8.333  1.00  0.00    -0.248 NA
ATOM     51  C   UNL     1       3.242   2.421   7.484  1.00  0.00     0.031 C 
ATOM     52  C   UNL     1       6.298   5.324   4.781  1.00  0.00     0.029 A 
ATOM     53  N   UNL     1       5.296   6.270   6.546  1.00  0.00    -0.354 N 
ATOM     54  C   UNL     1       2.748   3.907   9.154  1.00  0.00     0.074 A 
ATOM     55  C   UNL     1       2.504   2.605   8.570  1.00  0.00     0.031 C 
ATOM     56  C   UNL     1       6.617   6.628   4.774  1.00  0.00     0.029 A 
ATOM     57  C   UNL     1       5.989   7.276   5.922  1.00  0.00     0.049 A 
ATOM     58  H   UNL     1       4.758   6.407   7.359  1.00  0.00     0.167 HD
ATOM     59  C   UNL     1       2.175   4.362  10.295  1.00  0.00     0.031 A 
ATOM     60  C   UNL     1       6.117   8.573   6.255  1.00  0.00     0.031 A 
ATOM     61  C   UNL     1       2.398   5.683  10.823  1.00  0.00     0.049 A 
ATOM     62  C   UNL     1       5.506   9.050   7.540  1.00  0.00     0.074 A 
ATOM     63  C   UNL     1       1.931   6.235  12.002  1.00  0.00     0.029 A 
ATOM     64  N   UNL     1       3.135   6.672  10.184  1.00  0.00    -0.354 N 
ATOM     65  N   UNL     1       4.761   8.386   8.393  1.00  0.00    -0.248 NA
ATOM     66  C   UNL     1       5.791  10.435   7.932  1.00  0.00     0.031 C 
ATOM     67  C   UNL     1       2.345   7.573  12.052  1.00  0.00     0.029 A 
ATOM     68  C   UNL     1       3.114   7.838  10.929  1.00  0.00     0.049 A 
ATOM     69  H   UNL     1       3.605   6.559   9.326  1.00  0.00     0.167 HD
ATOM     70  C   UNL     1       4.506   9.265   9.438  1.00  0.00     0.074 A 
ATOM     71  C   UNL     1       5.189  10.503   9.113  1.00  0.00     0.031 C 
ATOM     72  C   UNL     1       3.784   9.065  10.569  1.00  0.00     0.031 A 
BRANCH  59  73
ATOM     73  C   UNL     1       1.246   3.429  11.029  1.00  0.00    -0.014 A 
ATOM     74  C   UNL     1       1.738   2.291  11.695  1.00  0.00     0.010 A 
ATOM     75  C   UNL     1      -0.132   3.706  11.081  1.00  0.00     0.010 A 
ATOM     76  C   UNL     1       0.865   1.424  12.360  1.00  0.00     0.020 A 
ATOM     77  C   UNL     1      -1.006   2.853  11.765  1.00  0.00     0.020 A 
ATOM     78  C   UNL     1      -0.504   1.707  12.384  1.00  0.00     0.054 A 
BRANCH  78  79
ATOM     79  S   UNL     1      -1.617   0.571  13.259  1.00  0.00     0.124 S 
ATOM     80  O   UNL     1      -1.690  -0.554  12.329  1.00  0.00    -0.237 OA
ATOM     81  O   UNL     1      -0.898   0.309  14.504  1.00  0.00    -0.237 OA
ATOM     82  O   UNL     1      -2.851   1.338  13.406  1.00  0.00    -0.744 OA
ENDBRANCH  78  79
ENDBRANCH  59  73
BRANCH  60  83
ATOM     83  C   UNL     1       6.916   9.463   5.376  1.00  0.00    -0.014 A 
ATOM     84  C   UNL     1       8.227   9.826   5.727  1.00  0.00     0.010 A 
ATOM     85  C   UNL     1       6.400   9.867   4.131  1.00  0.00     0.010 A 
ATOM     86  C   UNL     1       9.011  10.575   4.844  1.00  0.00     0.020 A 
ATOM     87  C   UNL     1       7.188  10.598   3.239  1.00  0.00     0.020 A 
ATOM     88  C   UNL     1       8.489  10.949   3.602  1.00  0.00     0.054 A 
BRANCH  88  89
ATOM     89  S   UNL     1       9.560  11.831   2.432  1.00  0.00     0.124 S 
ATOM     90  O   UNL     1       9.578  13.178   2.992  1.00  0.00    -0.237 OA
ATOM     91  O   UNL     1      10.815  11.088   2.528  1.00  0.00    -0.237 OA
ATOM     92  O   UNL     1       8.860  11.691   1.156  1.00  0.00    -0.744 OA
ENDBRANCH  88  89
ENDBRANCH  60  83
BRANCH  72  93
ATOM     93  C   UNL     1       3.710  10.213  11.538  1.00  0.00    -0.014 A 
ATOM     94  C   UNL     1       2.934  11.352  11.258  1.00  0.00     0.010 A 
ATOM     95  C   UNL     1       4.413  10.141  12.754  1.00  0.00     0.010 A 
ATOM     96  C   UNL     1       2.901  12.420  12.157  1.00  0.00     0.020 A 
ATOM     97  C   UNL     1       4.362  11.197  13.666  1.00  0.00     0.020 A 
ATOM     98  C   UNL     1       3.623  12.339  13.352  1.00  0.00     0.054 A 
BRANCH  98  99
ATOM     99  S   UNL     1       3.559  13.733  14.511  1.00  0.00     0.124 S 
ATOM    100  O   UNL     1       4.476  14.684  13.890  1.00  0.00    -0.237 OA
ATOM    101  O   UNL     1       2.148  14.111  14.485  1.00  0.00    -0.237 OA
ATOM    102  O   UNL     1       4.019  13.154  15.771  1.00  0.00    -0.744 OA
ENDBRANCH  98  99
ENDBRANCH  72  93
ENDBRANCH  46  47
ENDBRANCH  39  41
ENDBRANCH  38  39
ENDBRANCH  37  38
ENDBRANCH  36  37
ENDBRANCH  35  36
ENDBRANCH   1  35
TORSDOF 21
