REMARK SMILES O=C(C[C@H]1c2ccccc2CCN1C(=O)Nc1ccccc1Br)OCCOCCOC(=O)c1ccc(-c2c3nc(c(-c4ccc(S(=O)(=O)[O-])cc4)c4ccc([nH]4)c(-c4ccc(S(=O)(=O)[O-])cc4)c4nc(c(-c5ccc(S(=O)(=O)[O-])cc5)c5ccc2[nH]5)C=C4)C=C3)cc1
REMARK SMILES IDX 27 1 26 2 25 3 24 4 2 5 1 6 3 7 4 8 5 9 13 10 6 11 10 12
REMARK SMILES IDX 12 13 7 14 9 15 11 16 8 17 14 18 15 19 16 20 17 22 18 23
REMARK SMILES IDX 22 24 19 25 21 26 23 27 20 28 28 29 29 30 30 31 31 32 32 33
REMARK SMILES IDX 33 34 34 35 92 36 35 37 91 38 36 39 37 40 38 41 85 42 39 43
REMARK SMILES IDX 90 44 84 45 86 46 40 47 89 48 83 49 82 50 41 52 71 53 52 54
REMARK SMILES IDX 70 55 53 56 56 57 69 58 87 59 54 60 55 61 68 63 88 64 57 65
REMARK SMILES IDX 42 66 43 67 51 68 44 69 50 70 45 71 46 72 47 73 48 74 49 75
REMARK SMILES IDX 72 76 73 77 81 78 74 79 80 80 75 81 76 82 77 83 78 84 79 85
REMARK SMILES IDX 58 86 59 87 67 88 60 89 66 90 61 91 62 92 63 93 64 94 65 95
REMARK H PARENT 16 21 86 51 56 62
REMARK Flexibility Score: inf
ROOT
ATOM      1  O   UNL     1       4.026   1.009  -1.299  1.00  0.00    -0.374 OA
ENDROOT
BRANCH   1   2
ATOM      2  C   UNL     1       4.258  -0.368  -1.592  1.00  0.00     0.202 C 
BRANCH   2   3
ATOM      3  C   UNL     1       3.734  -1.372  -0.574  1.00  0.00     0.261 C 
BRANCH   3   4
ATOM      4  O   UNL     1       2.399  -1.112  -0.149  1.00  0.00    -0.463 OA
BRANCH   4   5
ATOM      5  C   UNL     1       2.146  -0.539   1.051  1.00  0.00     0.308 C 
ATOM      6  O   UNL     1       1.055  -0.735   1.584  1.00  0.00    -0.252 OA
BRANCH   5   7
ATOM      7  C   UNL     1       3.107   0.495   1.596  1.00  0.00     0.152 C 
BRANCH   7   8
ATOM      8  C   UNL     1       4.283   0.031   2.492  1.00  0.00     0.128 C 
ATOM      9  C   UNL     1       5.656   0.154   1.797  1.00  0.00    -0.022 A 
ATOM     10  N   UNL     1       4.253   0.885   3.717  1.00  0.00    -0.317 N 
ATOM     11  C   UNL     1       6.426  -0.945   1.399  1.00  0.00     0.006 A 
ATOM     12  C   UNL     1       6.197   1.439   1.599  1.00  0.00    -0.041 A 
ATOM     13  C   UNL     1       5.263   1.960   3.764  1.00  0.00     0.127 C 
ATOM     14  C   UNL     1       7.611  -0.757   0.678  1.00  0.00     0.000 A 
ATOM     15  C   UNL     1       7.359   1.633   0.848  1.00  0.00     0.004 A 
ATOM     16  C   UNL     1       5.569   2.554   2.381  1.00  0.00     0.057 C 
ATOM     17  C   UNL     1       8.056   0.529   0.372  1.00  0.00     0.000 A 
BRANCH  10  18
ATOM     18  C   UNL     1       3.304   0.536   4.649  1.00  0.00     0.322 C 
ATOM     19  O   UNL     1       2.662  -0.514   4.543  1.00  0.00    -0.248 OA
ATOM     20  N   UNL     1       3.037   1.267   5.757  1.00  0.00    -0.307 N 
ATOM     21  H   UNL     1       2.406   0.838   6.380  1.00  0.00     0.171 HD
BRANCH  20  22
ATOM     22  C   UNL     1       3.491   2.514   6.175  1.00  0.00     0.057 A 
ATOM     23  C   UNL     1       4.385   2.507   7.249  1.00  0.00     0.027 A 
ATOM     24  C   UNL     1       3.179   3.720   5.525  1.00  0.00     0.041 A 
ATOM     25  C   UNL     1       5.072   3.671   7.586  1.00  0.00     0.002 A 
ATOM     26  C   UNL     1       3.864   4.887   5.877  1.00  0.00     0.018 A 
ATOM     27  Br  UNL     1       1.897   3.825   4.129  1.00  0.00    -0.049 Br
ATOM     28  C   UNL     1       4.829   4.853   6.886  1.00  0.00     0.001 A 
ENDBRANCH  20  22
ENDBRANCH  10  18
ENDBRANCH   7   8
ENDBRANCH   5   7
ENDBRANCH   4   5
ENDBRANCH   3   4
ENDBRANCH   2   3
ENDBRANCH   1   2
BRANCH   1  29
ATOM     29  C   UNL     1       2.812   1.534  -1.849  1.00  0.00     0.202 C 
BRANCH  29  30
ATOM     30  C   UNL     1       2.992   2.119  -3.256  1.00  0.00     0.261 C 
BRANCH  30  31
ATOM     31  O   UNL     1       3.448   1.113  -4.174  1.00  0.00    -0.460 OA
BRANCH  31  32
ATOM     32  C   UNL     1       4.790   1.084  -4.385  1.00  0.00     0.338 C 
ATOM     33  O   UNL     1       5.603   1.940  -4.076  1.00  0.00    -0.246 OA
BRANCH  32  34
ATOM     34  C   UNL     1       5.163  -0.274  -4.848  1.00  0.00     0.060 A 
ATOM     35  C   UNL     1       6.320  -0.859  -4.309  1.00  0.00     0.016 A 
ATOM     36  C   UNL     1       4.352  -1.002  -5.723  1.00  0.00     0.016 A 
ATOM     37  C   UNL     1       6.670  -2.168  -4.647  1.00  0.00     0.010 A 
ATOM     38  C   UNL     1       4.713  -2.304  -6.074  1.00  0.00     0.010 A 
ATOM     39  C   UNL     1       5.881  -2.888  -5.552  1.00  0.00    -0.014 A 
BRANCH  39  40
ATOM     40  C   UNL     1       6.335  -4.195  -6.082  1.00  0.00     0.031 A 
ATOM     41  C   UNL     1       7.013  -4.220  -7.423  1.00  0.00     0.074 A 
ATOM     42  C   UNL     1       6.106  -5.338  -5.409  1.00  0.00     0.049 A 
ATOM     43  N   UNL     1       7.373  -5.246  -8.147  1.00  0.00    -0.248 NA
ATOM     44  C   UNL     1       7.318  -2.913  -8.032  1.00  0.00     0.031 C 
ATOM     45  C   UNL     1       5.488  -5.437  -4.087  1.00  0.00     0.029 A 
ATOM     46  N   UNL     1       6.346  -6.643  -5.766  1.00  0.00    -0.354 N 
ATOM     47  C   UNL     1       7.924  -4.712  -9.306  1.00  0.00     0.074 A 
ATOM     48  C   UNL     1       7.846  -3.272  -9.193  1.00  0.00     0.031 C 
ATOM     49  C   UNL     1       5.369  -6.736  -3.757  1.00  0.00     0.029 A 
ATOM     50  C   UNL     1       5.864  -7.559  -4.860  1.00  0.00     0.049 A 
ATOM     51  H   UNL     1       6.818  -6.898  -6.592  1.00  0.00     0.167 HD
ATOM     52  C   UNL     1       8.444  -5.365 -10.370  1.00  0.00     0.031 A 
ATOM     53  C   UNL     1       5.792  -8.904  -4.933  1.00  0.00     0.031 A 
ATOM     54  C   UNL     1       8.517  -6.796 -10.478  1.00  0.00     0.049 A 
ATOM     55  C   UNL     1       6.312  -9.604  -6.166  1.00  0.00     0.074 A 
ATOM     56  C   UNL     1       9.070  -7.551 -11.497  1.00  0.00     0.029 A 
ATOM     57  N   UNL     1       8.008  -7.688  -9.547  1.00  0.00    -0.354 N 
ATOM     58  N   UNL     1       6.886  -9.088  -7.227  1.00  0.00    -0.248 NA
ATOM     59  C   UNL     1       6.171 -11.067  -6.212  1.00  0.00     0.031 C 
ATOM     60  C   UNL     1       8.838  -8.900 -11.213  1.00  0.00     0.029 A 
ATOM     61  C   UNL     1       8.195  -8.986  -9.989  1.00  0.00     0.049 A 
ATOM     62  H   UNL     1       7.579  -7.435  -8.698  1.00  0.00     0.167 HD
ATOM     63  C   UNL     1       7.187 -10.165  -8.057  1.00  0.00     0.074 A 
ATOM     64  C   UNL     1       6.756 -11.361  -7.364  1.00  0.00     0.031 C 
ATOM     65  C   UNL     1       7.762 -10.165  -9.284  1.00  0.00     0.031 A 
BRANCH  52  66
ATOM     66  C   UNL     1       8.948  -4.545 -11.525  1.00  0.00    -0.014 A 
ATOM     67  C   UNL     1      10.160  -3.839 -11.443  1.00  0.00     0.010 A 
ATOM     68  C   UNL     1       8.239  -4.557 -12.740  1.00  0.00     0.010 A 
ATOM     69  C   UNL     1      10.650  -3.151 -12.556  1.00  0.00     0.020 A 
ATOM     70  C   UNL     1       8.737  -3.889 -13.861  1.00  0.00     0.020 A 
ATOM     71  C   UNL     1       9.939  -3.186 -13.760  1.00  0.00     0.054 A 
BRANCH  71  72
ATOM     72  S   UNL     1      10.639  -2.345 -15.207  1.00  0.00     0.124 S 
ATOM     73  O   UNL     1      10.460  -0.939 -14.854  1.00  0.00    -0.237 OA
ATOM     74  O   UNL     1      12.020  -2.820 -15.214  1.00  0.00    -0.237 OA
ATOM     75  O   UNL     1       9.814  -2.818 -16.316  1.00  0.00    -0.744 OA
ENDBRANCH  71  72
ENDBRANCH  52  66
BRANCH  53  76
ATOM     76  C   UNL     1       5.147  -9.688  -3.842  1.00  0.00    -0.014 A 
ATOM     77  C   UNL     1       5.897 -10.576  -3.051  1.00  0.00     0.010 A 
ATOM     78  C   UNL     1       3.760  -9.586  -3.622  1.00  0.00     0.010 A 
ATOM     79  C   UNL     1       5.269 -11.371  -2.086  1.00  0.00     0.020 A 
ATOM     80  C   UNL     1       3.134 -10.355  -2.638  1.00  0.00     0.020 A 
ATOM     81  C   UNL     1       3.890 -11.258  -1.888  1.00  0.00     0.054 A 
BRANCH  81  82
ATOM     82  S   UNL     1       3.098 -12.288  -0.622  1.00  0.00     0.124 S 
ATOM     83  O   UNL     1       3.093 -13.601  -1.260  1.00  0.00    -0.237 OA
ATOM     84  O   UNL     1       4.002 -12.140   0.516  1.00  0.00    -0.237 OA
ATOM     85  O   UNL     1       1.786 -11.669  -0.451  1.00  0.00    -0.744 OA
ENDBRANCH  81  82
ENDBRANCH  53  76
BRANCH  65  86
ATOM     86  C   UNL     1       7.981 -11.495  -9.955  1.00  0.00    -0.014 A 
ATOM     87  C   UNL     1       6.904 -12.220 -10.494  1.00  0.00     0.010 A 
ATOM     88  C   UNL     1       9.289 -11.988 -10.116  1.00  0.00     0.010 A 
ATOM     89  C   UNL     1       7.129 -13.426 -11.163  1.00  0.00     0.020 A 
ATOM     90  C   UNL     1       9.521 -13.178 -10.809  1.00  0.00     0.020 A 
ATOM     91  C   UNL     1       8.437 -13.896 -11.319  1.00  0.00     0.054 A 
BRANCH  91  92
ATOM     92  S   UNL     1       8.707 -15.433 -12.244  1.00  0.00     0.124 S 
ATOM     93  O   UNL     1       8.228 -16.442 -11.303  1.00  0.00    -0.237 OA
ATOM     94  O   UNL     1       7.881 -15.241 -13.433  1.00  0.00    -0.237 OA
ATOM     95  O   UNL     1      10.148 -15.443 -12.488  1.00  0.00    -0.744 OA
ENDBRANCH  91  92
ENDBRANCH  65  86
ENDBRANCH  39  40
ENDBRANCH  32  34
ENDBRANCH  31  32
ENDBRANCH  30  31
ENDBRANCH  29  30
ENDBRANCH   1  29
TORSDOF 20
