REMARK SMILES CC(=O)Oc1ccc2oc(N)c([C@@H]3[NH2+][C@@H](C(=O)OCCOCCOC(=O)c4ccc(-c5c6nc(c(-c7ccc(S(=O)(=O)[O-])cc7)c7ccc([nH]7)c(-c7ccc(S(=O)(=O)[O-])cc7)c7nc(c(-c8ccc(S(=O)(=O)[O-])cc8)c8ccc5[nH]8)C=C7)C=C6)cc4)C(C)(C)S3)c(=O)c2c1
REMARK SMILES IDX 21 1 20 2 19 3 18 4 16 5 17 6 15 7 13 8 14 9 90 10 87 13
REMARK SMILES IDX 88 14 89 15 12 16 5 17 6 18 94 19 7 20 93 21 8 22 91 23 9 24
REMARK SMILES IDX 92 25 10 26 4 27 2 28 1 29 3 30 11 31 22 34 23 35 24 36
REMARK SMILES IDX 25 37 26 38 27 39 28 40 86 41 29 42 85 43 30 44 31 45 32 46
REMARK SMILES IDX 79 47 33 48 84 49 78 50 80 51 34 52 83 53 77 54 76 55 35 57
REMARK SMILES IDX 65 58 46 59 64 60 47 61 50 62 63 63 81 64 48 65 49 66 62 68
REMARK SMILES IDX 82 69 51 70 36 71 37 72 45 73 38 74 44 75 39 76 40 77 41 78
REMARK SMILES IDX 42 79 43 80 66 81 67 82 75 83 68 84 74 85 69 86 70 87 71 88
REMARK SMILES IDX 72 89 73 90 52 91 53 92 61 93 54 94 60 95 55 96 56 97 57 98
REMARK SMILES IDX 58 99 59 100
REMARK H PARENT 14 11 14 12 11 32 11 33 80 56 50 67
REMARK Flexibility Score: inf
ROOT
ATOM      1  O   UNL     1       1.295   1.788  15.248  1.00  0.00    -0.374 OA
ENDROOT
BRANCH   1   2
ATOM      2  C   UNL     1       0.143   2.235  14.533  1.00  0.00     0.202 C 
BRANCH   2   3
ATOM      3  C   UNL     1       0.294   2.494  13.029  1.00  0.00     0.261 C 
BRANCH   3   4
ATOM      4  O   UNL     1       0.521   1.278  12.288  1.00  0.00    -0.459 OA
BRANCH   4   5
ATOM      5  C   UNL     1       1.816   1.056  11.953  1.00  0.00     0.366 C 
ATOM      6  O   UNL     1       2.733   1.837  12.196  1.00  0.00    -0.245 OA
BRANCH   5   7
ATOM      7  C   UNL     1       2.058  -0.275  11.235  1.00  0.00     0.310 C 
ATOM      8  C   UNL     1       2.223  -1.365   9.142  1.00  0.00     0.284 C 
ATOM      9  N   UNL     1       1.814  -0.107   9.781  1.00  0.00    -0.318 N 
ATOM     10  S   UNL     1       1.732  -2.710  10.262  1.00  0.00    -0.081 SA
ATOM     11  H   UNL     1       0.824   0.070   9.609  1.00  0.00     0.348 HD
ATOM     12  H   UNL     1       2.338   0.684   9.408  1.00  0.00     0.348 HD
ATOM     13  C   UNL     1       1.397  -1.598  11.706  1.00  0.00     0.079 C 
ATOM     14  C   UNL     1      -0.123  -1.552  11.897  1.00  0.00     0.030 C 
ATOM     15  C   UNL     1       2.075  -2.267  12.917  1.00  0.00     0.030 C 
BRANCH   8  16
ATOM     16  C   UNL     1       3.690  -1.372   8.750  1.00  0.00     0.128 A 
ATOM     17  C   UNL     1       6.873  -1.495   5.008  1.00  0.00     0.131 A 
ATOM     18  C   UNL     1       7.923  -1.538   5.928  1.00  0.00     0.051 A 
ATOM     19  C   UNL     1       5.552  -1.331   5.419  1.00  0.00     0.063 A 
ATOM     20  C   UNL     1       7.637  -1.477   7.288  1.00  0.00     0.052 A 
ATOM     21  C   UNL     1       5.282  -1.277   6.786  1.00  0.00     0.069 A 
ATOM     22  C   UNL     1       6.313  -1.367   7.707  1.00  0.00     0.140 A 
ATOM     23  C   UNL     1       3.910  -1.153   7.288  1.00  0.00     0.205 A 
ATOM     24  O   UNL     1       6.090  -1.373   9.047  1.00  0.00    -0.440 OA
ATOM     25  O   UNL     1       2.995  -0.941   6.500  1.00  0.00    -0.288 OA
ATOM     26  C   UNL     1       4.799  -1.540   9.513  1.00  0.00     0.205 A 
BRANCH  17  27
ATOM     27  O   UNL     1       7.118  -1.541   3.633  1.00  0.00    -0.427 OA
BRANCH  27  28
ATOM     28  C   UNL     1       7.755  -2.693   3.182  1.00  0.00     0.308 C 
ATOM     29  C   UNL     1       7.965  -2.571   1.704  1.00  0.00     0.139 C 
ATOM     30  O   UNL     1       8.098  -3.659   3.850  1.00  0.00    -0.252 OA
ENDBRANCH  27  28
ENDBRANCH  17  27
BRANCH  26  31
ATOM     31  N   UNL     1       4.824  -1.883  10.831  1.00  0.00    -0.369 N 
ATOM     32  H   UNL     1       5.686  -1.981  11.297  1.00  0.00     0.159 HD
ATOM     33  H   UNL     1       3.981  -2.034  11.317  1.00  0.00     0.159 HD
ENDBRANCH  26  31
ENDBRANCH   8  16
ENDBRANCH   5   7
ENDBRANCH   4   5
ENDBRANCH   3   4
ENDBRANCH   2   3
ENDBRANCH   1   2
BRANCH   1  34
ATOM     34  C   UNL     1       1.623   0.406  15.140  1.00  0.00     0.202 C 
BRANCH  34  35
ATOM     35  C   UNL     1       0.835  -0.579  16.012  1.00  0.00     0.261 C 
BRANCH  35  36
ATOM     36  O   UNL     1      -0.516  -0.720  15.540  1.00  0.00    -0.460 OA
BRANCH  36  37
ATOM     37  C   UNL     1      -1.453  -0.095  16.295  1.00  0.00     0.338 C 
ATOM     38  O   UNL     1      -1.274   0.455  17.371  1.00  0.00    -0.246 OA
BRANCH  37  39
ATOM     39  C   UNL     1      -2.697   0.050  15.508  1.00  0.00     0.060 A 
ATOM     40  C   UNL     1      -3.248  -1.008  14.783  1.00  0.00     0.016 A 
ATOM     41  C   UNL     1      -3.316   1.308  15.505  1.00  0.00     0.016 A 
ATOM     42  C   UNL     1      -4.450  -0.814  14.095  1.00  0.00     0.010 A 
ATOM     43  C   UNL     1      -4.514   1.500  14.819  1.00  0.00     0.010 A 
ATOM     44  C   UNL     1      -5.107   0.432  14.133  1.00  0.00    -0.014 A 
BRANCH  44  45
ATOM     45  C   UNL     1      -6.490   0.574  13.611  1.00  0.00     0.031 A 
ATOM     46  C   UNL     1      -6.792   1.372  12.376  1.00  0.00     0.074 A 
ATOM     47  C   UNL     1      -7.492   0.010  14.316  1.00  0.00     0.049 A 
ATOM     48  N   UNL     1      -7.950   1.579  11.806  1.00  0.00    -0.248 NA
ATOM     49  C   UNL     1      -5.662   2.023  11.696  1.00  0.00     0.031 C 
ATOM     50  C   UNL     1      -7.315  -0.749  15.557  1.00  0.00     0.029 A 
ATOM     51  N   UNL     1      -8.848  -0.017  14.102  1.00  0.00    -0.354 N 
ATOM     52  C   UNL     1      -7.693   2.368  10.692  1.00  0.00     0.074 A 
ATOM     53  C   UNL     1      -6.272   2.641  10.689  1.00  0.00     0.031 C 
ATOM     54  C   UNL     1      -8.510  -1.186  15.979  1.00  0.00     0.029 A 
ATOM     55  C   UNL     1      -9.545  -0.703  15.070  1.00  0.00     0.049 A 
ATOM     56  H   UNL     1      -9.280   0.413  13.329  1.00  0.00     0.167 HD
ATOM     57  C   UNL     1      -8.566   2.803   9.754  1.00  0.00     0.031 A 
ATOM     58  C   UNL     1     -10.868  -0.917  15.223  1.00  0.00     0.031 A 
ATOM     59  C   UNL     1      -9.982   2.522   9.773  1.00  0.00     0.049 A 
ATOM     60  C   UNL     1     -11.816  -0.398  14.177  1.00  0.00     0.074 A 
ATOM     61  C   UNL     1     -10.932   2.881   8.832  1.00  0.00     0.029 A 
ATOM     62  N   UNL     1     -10.652   1.827  10.768  1.00  0.00    -0.354 N 
ATOM     63  N   UNL     1     -11.540   0.268  13.081  1.00  0.00    -0.248 NA
ATOM     64  C   UNL     1     -13.247  -0.672  14.370  1.00  0.00     0.031 C 
ATOM     65  C   UNL     1     -12.184   2.479   9.298  1.00  0.00     0.029 A 
ATOM     66  C   UNL     1     -12.007   1.782  10.482  1.00  0.00     0.049 A 
ATOM     67  H   UNL     1     -10.227   1.426  11.561  1.00  0.00     0.167 HD
ATOM     68  C   UNL     1     -12.759   0.474  12.445  1.00  0.00     0.074 A 
ATOM     69  C   UNL     1     -13.771  -0.161  13.263  1.00  0.00     0.031 C 
ATOM     70  C   UNL     1     -13.013   1.138  11.292  1.00  0.00     0.031 A 
BRANCH  57  71
ATOM     71  C   UNL     1      -8.050   3.601   8.582  1.00  0.00    -0.014 A 
ATOM     72  C   UNL     1      -8.481   4.928   8.395  1.00  0.00     0.010 A 
ATOM     73  C   UNL     1      -7.324   2.967   7.557  1.00  0.00     0.010 A 
ATOM     74  C   UNL     1      -8.260   5.582   7.179  1.00  0.00     0.020 A 
ATOM     75  C   UNL     1      -7.075   3.629   6.351  1.00  0.00     0.020 A 
ATOM     76  C   UNL     1      -7.577   4.918   6.157  1.00  0.00     0.054 A 
BRANCH  76  77
ATOM     77  S   UNL     1      -7.405   5.739   4.547  1.00  0.00     0.124 S 
ATOM     78  O   UNL     1      -8.776   5.723   4.045  1.00  0.00    -0.237 OA
ATOM     79  O   UNL     1      -6.882   7.052   4.917  1.00  0.00    -0.237 OA
ATOM     80  O   UNL     1      -6.466   4.883   3.825  1.00  0.00    -0.744 OA
ENDBRANCH  76  77
ENDBRANCH  57  71
BRANCH  58  81
ATOM     81  C   UNL     1     -11.353  -1.680  16.409  1.00  0.00    -0.014 A 
ATOM     82  C   UNL     1     -11.171  -1.163  17.707  1.00  0.00     0.010 A 
ATOM     83  C   UNL     1     -11.936  -2.950  16.261  1.00  0.00     0.010 A 
ATOM     84  C   UNL     1     -11.511  -1.919  18.831  1.00  0.00     0.020 A 
ATOM     85  C   UNL     1     -12.316  -3.695  17.384  1.00  0.00     0.020 A 
ATOM     86  C   UNL     1     -12.074  -3.186  18.661  1.00  0.00     0.054 A 
BRANCH  86  87
ATOM     87  S   UNL     1     -12.477  -4.161  20.137  1.00  0.00     0.124 S 
ATOM     88  O   UNL     1     -11.153  -4.586  20.584  1.00  0.00    -0.237 OA
ATOM     89  O   UNL     1     -13.146  -3.183  20.991  1.00  0.00    -0.237 OA
ATOM     90  O   UNL     1     -13.335  -5.224  19.620  1.00  0.00    -0.744 OA
ENDBRANCH  86  87
ENDBRANCH  58  81
BRANCH  70  91
ATOM     91  C   UNL     1     -14.440   1.228  10.809  1.00  0.00    -0.014 A 
ATOM     92  C   UNL     1     -14.801   0.634   9.584  1.00  0.00     0.010 A 
ATOM     93  C   UNL     1     -15.380   2.028  11.482  1.00  0.00     0.010 A 
ATOM     94  C   UNL     1     -16.053   0.882   9.015  1.00  0.00     0.020 A 
ATOM     95  C   UNL     1     -16.648   2.247  10.935  1.00  0.00     0.020 A 
ATOM     96  C   UNL     1     -16.964   1.698   9.689  1.00  0.00     0.054 A 
BRANCH  96  97
ATOM     97  S   UNL     1     -18.560   2.057   8.905  1.00  0.00     0.124 S 
ATOM     98  O   UNL     1     -18.178   2.971   7.833  1.00  0.00    -0.237 OA
ATOM     99  O   UNL     1     -19.010   0.735   8.476  1.00  0.00    -0.237 OA
ATOM    100  O   UNL     1     -19.346   2.654   9.983  1.00  0.00    -0.744 OA
ENDBRANCH  96  97
ENDBRANCH  70  91
ENDBRANCH  44  45
ENDBRANCH  37  39
ENDBRANCH  36  37
ENDBRANCH  35  36
ENDBRANCH  34  35
ENDBRANCH   1  34
TORSDOF 21
