REMARK SMILES CN(CC(=O)OCCOCCOC(=O)c1ccc(-c2c3nc(c(-c4ccc(S(=O)(=O)[O-])cc4)c4ccc([nH]4)c(-c4ccc(S(=O)(=O)[O-])cc4)c4nc(c(-c5ccc(S(=O)(=O)[O-])cc5)c5ccc2[nH]5)C=C4)C=C3)cc1)C(=O)N[C@@H]1C[C@H]1c1ccccc1
REMARK SMILES IDX 8 1 7 2 6 3 4 4 5 5 3 6 2 7 1 8 75 9 76 10 77 11 78 13 79 14
REMARK SMILES IDX 80 15 81 16 82 17 86 18 83 19 85 20 84 21 9 22 10 23 11 24
REMARK SMILES IDX 12 25 13 26 14 27 15 28 16 29 74 30 17 31 73 32 18 33 19 34
REMARK SMILES IDX 20 35 67 36 21 37 72 38 66 39 68 40 22 41 71 42 65 43 64 44
REMARK SMILES IDX 23 46 53 47 34 48 52 49 35 50 38 51 51 52 69 53 36 54 37 55
REMARK SMILES IDX 50 57 70 58 39 59 24 60 25 61 33 62 26 63 32 64 27 65 28 66
REMARK SMILES IDX 29 67 30 68 31 69 54 70 55 71 63 72 56 73 62 74 57 75 58 76
REMARK SMILES IDX 59 77 60 78 61 79 40 80 41 81 49 82 42 83 48 84 43 85 44 86
REMARK SMILES IDX 45 87 46 88 47 89
REMARK H PARENT 77 12 68 45 38 56
REMARK Flexibility Score: inf
ROOT
ATOM      1  C   UNL     1      -3.829  -1.904   2.368  1.00  0.00     0.202 C 
ENDROOT
BRANCH   1   2
ATOM      2  C   UNL     1      -3.530  -0.449   1.988  1.00  0.00     0.261 C 
BRANCH   2   3
ATOM      3  O   UNL     1      -2.175  -0.311   1.509  1.00  0.00    -0.462 OA
BRANCH   3   4
ATOM      4  C   UNL     1      -1.806   0.966   1.229  1.00  0.00     0.325 C 
ATOM      5  O   UNL     1      -2.598   1.902   1.151  1.00  0.00    -0.250 OA
BRANCH   4   6
ATOM      6  C   UNL     1      -0.283   1.178   1.214  1.00  0.00     0.243 C 
BRANCH   6   7
ATOM      7  N   UNL     1       0.617   0.023   1.218  1.00  0.00    -0.317 N 
ATOM      8  C   UNL     1       1.115  -0.370  -0.099  1.00  0.00     0.149 C 
BRANCH   7   9
ATOM      9  C   UNL     1       0.984  -0.793   2.244  1.00  0.00     0.317 C 
ATOM     10  O   UNL     1       1.662  -1.809   2.026  1.00  0.00    -0.249 OA
ATOM     11  N   UNL     1       0.649  -0.660   3.543  1.00  0.00    -0.335 N 
ATOM     12  H   UNL     1       0.729  -1.530   3.996  1.00  0.00     0.165 HD
BRANCH  11  13
ATOM     13  C   UNL     1       0.219   0.326   4.474  1.00  0.00     0.092 C 
ATOM     14  C   UNL     1      -1.097   0.193   5.225  1.00  0.00     0.036 C 
ATOM     15  C   UNL     1      -0.848   1.362   4.342  1.00  0.00     0.044 C 
BRANCH  15  16
ATOM     16  C   UNL     1      -0.667   2.755   4.863  1.00  0.00    -0.043 A 
ATOM     17  C   UNL     1      -1.761   3.633   4.803  1.00  0.00     0.004 A 
ATOM     18  C   UNL     1       0.564   3.277   5.290  1.00  0.00     0.004 A 
ATOM     19  C   UNL     1      -1.623   4.986   5.097  1.00  0.00     0.000 A 
ATOM     20  C   UNL     1       0.706   4.629   5.600  1.00  0.00     0.000 A 
ATOM     21  C   UNL     1      -0.385   5.486   5.484  1.00  0.00     0.000 A 
ENDBRANCH  15  16
ENDBRANCH  11  13
ENDBRANCH   7   9
ENDBRANCH   6   7
ENDBRANCH   4   6
ENDBRANCH   3   4
ENDBRANCH   2   3
ENDBRANCH   1   2
BRANCH   1  22
ATOM     22  O   UNL     1      -3.216  -2.417   3.558  1.00  0.00    -0.374 OA
BRANCH  22  23
ATOM     23  C   UNL     1      -1.800  -2.584   3.522  1.00  0.00     0.202 C 
BRANCH  23  24
ATOM     24  C   UNL     1      -1.221  -3.903   3.020  1.00  0.00     0.261 C 
BRANCH  24  25
ATOM     25  O   UNL     1      -1.653  -4.187   1.697  1.00  0.00    -0.460 OA
BRANCH  25  26
ATOM     26  C   UNL     1      -2.774  -4.945   1.654  1.00  0.00     0.338 C 
ATOM     27  O   UNL     1      -3.337  -5.499   2.575  1.00  0.00    -0.246 OA
BRANCH  26  28
ATOM     28  C   UNL     1      -3.341  -4.803   0.306  1.00  0.00     0.060 A 
ATOM     29  C   UNL     1      -4.725  -4.607   0.213  1.00  0.00     0.016 A 
ATOM     30  C   UNL     1      -2.527  -4.827  -0.830  1.00  0.00     0.016 A 
ATOM     31  C   UNL     1      -5.317  -4.510  -1.034  1.00  0.00     0.010 A 
ATOM     32  C   UNL     1      -3.122  -4.739  -2.080  1.00  0.00     0.010 A 
ATOM     33  C   UNL     1      -4.520  -4.640  -2.176  1.00  0.00    -0.014 A 
BRANCH  33  34
ATOM     34  C   UNL     1      -5.163  -4.937  -3.463  1.00  0.00     0.031 A 
ATOM     35  C   UNL     1      -5.225  -6.377  -3.884  1.00  0.00     0.074 A 
ATOM     36  C   UNL     1      -5.676  -3.948  -4.209  1.00  0.00     0.049 A 
ATOM     37  N   UNL     1      -5.672  -6.895  -4.994  1.00  0.00    -0.248 NA
ATOM     38  C   UNL     1      -4.700  -7.367  -2.924  1.00  0.00     0.031 C 
ATOM     39  C   UNL     1      -5.698  -2.533  -3.838  1.00  0.00     0.029 A 
ATOM     40  N   UNL     1      -6.270  -3.988  -5.439  1.00  0.00    -0.354 N 
ATOM     41  C   UNL     1      -5.465  -8.264  -4.874  1.00  0.00     0.074 A 
ATOM     42  C   UNL     1      -4.822  -8.496  -3.602  1.00  0.00     0.031 C 
ATOM     43  C   UNL     1      -6.275  -1.835  -4.831  1.00  0.00     0.029 A 
ATOM     44  C   UNL     1      -6.620  -2.749  -5.916  1.00  0.00     0.049 A 
ATOM     45  H   UNL     1      -6.432  -4.823  -5.935  1.00  0.00     0.167 HD
ATOM     46  C   UNL     1      -5.790  -9.239  -5.753  1.00  0.00     0.031 A 
ATOM     47  C   UNL     1      -7.136  -2.405  -7.110  1.00  0.00     0.031 A 
ATOM     48  C   UNL     1      -6.412  -8.969  -7.019  1.00  0.00     0.049 A 
ATOM     49  C   UNL     1      -7.418  -3.500  -8.105  1.00  0.00     0.074 A 
ATOM     50  C   UNL     1      -6.803  -9.864  -7.996  1.00  0.00     0.029 A 
ATOM     51  N   UNL     1      -6.726  -7.698  -7.484  1.00  0.00    -0.354 N 
ATOM     52  N   UNL     1      -7.242  -4.795  -7.978  1.00  0.00    -0.248 NA
ATOM     53  C   UNL     1      -7.973  -3.090  -9.401  1.00  0.00     0.031 C 
ATOM     54  C   UNL     1      -7.292  -9.130  -9.080  1.00  0.00     0.029 A 
ATOM     55  C   UNL     1      -7.279  -7.782  -8.748  1.00  0.00     0.049 A 
ATOM     56  H   UNL     1      -6.577  -6.862  -6.987  1.00  0.00     0.167 HD
ATOM     57  C   UNL     1      -7.698  -5.360  -9.163  1.00  0.00     0.074 A 
ATOM     58  C   UNL     1      -8.163  -4.263  -9.990  1.00  0.00     0.031 C 
ATOM     59  C   UNL     1      -7.736  -6.663  -9.537  1.00  0.00     0.031 A 
BRANCH  46  60
ATOM     60  C   UNL     1      -5.433 -10.656  -5.389  1.00  0.00    -0.014 A 
ATOM     61  C   UNL     1      -6.068 -11.325  -4.327  1.00  0.00     0.010 A 
ATOM     62  C   UNL     1      -4.449 -11.335  -6.130  1.00  0.00     0.010 A 
ATOM     63  C   UNL     1      -5.696 -12.629  -3.986  1.00  0.00     0.020 A 
ATOM     64  C   UNL     1      -4.097 -12.650  -5.814  1.00  0.00     0.020 A 
ATOM     65  C   UNL     1      -4.712 -13.283  -4.732  1.00  0.00     0.054 A 
BRANCH  65  66
ATOM     66  S   UNL     1      -4.265 -14.982  -4.281  1.00  0.00     0.124 S 
ATOM     67  O   UNL     1      -3.559 -14.783  -3.018  1.00  0.00    -0.237 OA
ATOM     68  O   UNL     1      -5.566 -15.637  -4.177  1.00  0.00    -0.237 OA
ATOM     69  O   UNL     1      -3.432 -15.430  -5.395  1.00  0.00    -0.744 OA
ENDBRANCH  65  66
ENDBRANCH  46  60
BRANCH  47  70
ATOM     70  C   UNL     1      -7.409  -0.976  -7.418  1.00  0.00    -0.014 A 
ATOM     71  C   UNL     1      -8.728  -0.514  -7.558  1.00  0.00     0.010 A 
ATOM     72  C   UNL     1      -6.347  -0.061  -7.548  1.00  0.00     0.010 A 
ATOM     73  C   UNL     1      -8.981   0.832  -7.839  1.00  0.00     0.020 A 
ATOM     74  C   UNL     1      -6.596   1.291  -7.799  1.00  0.00     0.020 A 
ATOM     75  C   UNL     1      -7.913   1.727  -7.954  1.00  0.00     0.054 A 
BRANCH  75  76
ATOM     76  S   UNL     1      -8.271   3.476  -8.273  1.00  0.00     0.124 S 
ATOM     77  O   UNL     1      -8.744   3.442  -9.653  1.00  0.00    -0.237 OA
ATOM     78  O   UNL     1      -9.283   3.778  -7.264  1.00  0.00    -0.237 OA
ATOM     79  O   UNL     1      -6.982   4.133  -8.069  1.00  0.00    -0.744 OA
ENDBRANCH  75  76
ENDBRANCH  47  70
BRANCH  59  80
ATOM     80  C   UNL     1      -8.342  -6.980 -10.876  1.00  0.00    -0.014 A 
ATOM     81  C   UNL     1      -7.668  -6.681 -12.072  1.00  0.00     0.010 A 
ATOM     82  C   UNL     1      -9.567  -7.671 -10.928  1.00  0.00     0.010 A 
ATOM     83  C   UNL     1      -8.221  -7.050 -13.300  1.00  0.00     0.020 A 
ATOM     84  C   UNL     1     -10.105  -8.071 -12.151  1.00  0.00     0.020 A 
ATOM     85  C   UNL     1      -9.433  -7.749 -13.331  1.00  0.00     0.054 A 
BRANCH  85  86
ATOM     86  S   UNL     1     -10.090  -8.279 -14.934  1.00  0.00     0.124 S 
ATOM     87  O   UNL     1     -10.517  -7.012 -15.522  1.00  0.00    -0.237 OA
ATOM     88  O   UNL     1      -8.929  -8.905 -15.563  1.00  0.00    -0.237 OA
ATOM     89  O   UNL     1     -11.170  -9.197 -14.581  1.00  0.00    -0.744 OA
ENDBRANCH  85  86
ENDBRANCH  59  80
ENDBRANCH  33  34
ENDBRANCH  26  28
ENDBRANCH  25  26
ENDBRANCH  24  25
ENDBRANCH  23  24
ENDBRANCH  22  23
ENDBRANCH   1  22
TORSDOF 21
