REMARK SMILES CC1(C)CCCC[C@@]1(C(=O)OCCOCCOC(=O)c1ccc(-c2c3nc(c(-c4ccc(S(=O)(=O)[O-])cc4)c4ccc([nH]4)c(-c4ccc(S(=O)(=O)[O-])cc4)c4nc(c(-c5ccc(S(=O)(=O)[O-])cc5)c5ccc2[nH]5)C=C4)C=C3)cc1)[NH+]1CC[NH2+]CC1
REMARK SMILES IDX 15 1 14 2 13 3 12 4 11 5 9 6 10 7 8 8 1 9 2 10 3 11 4 12
REMARK SMILES IDX 5 13 7 14 6 15 80 16 81 17 85 18 82 20 84 21 83 22 16 25
REMARK SMILES IDX 17 26 18 27 19 28 20 29 21 30 79 31 22 32 78 33 23 34 24 35
REMARK SMILES IDX 25 36 72 37 26 38 77 39 71 40 73 41 27 42 76 43 70 44 69 45
REMARK SMILES IDX 28 47 58 48 39 49 57 50 40 51 43 52 56 53 74 54 41 55 42 56
REMARK SMILES IDX 55 58 75 59 44 60 29 61 30 62 38 63 31 64 37 65 32 66 33 67
REMARK SMILES IDX 34 68 35 69 36 70 59 71 60 72 68 73 61 74 67 75 62 76 63 77
REMARK SMILES IDX 64 78 65 79 66 80 45 81 46 82 54 83 47 84 53 85 48 86 49 87
REMARK SMILES IDX 50 88 51 89 52 90
REMARK H PARENT 80 19 83 23 83 24 73 46 43 57
REMARK Flexibility Score: inf
ROOT
ATOM      1  C   UNL     1      -1.839  -3.686   2.177  1.00  0.00     0.202 C 
ENDROOT
BRANCH   1   2
ATOM      2  O   UNL     1      -2.940  -4.343   1.555  1.00  0.00    -0.374 OA
BRANCH   2   3
ATOM      3  C   UNL     1      -2.624  -5.415   0.670  1.00  0.00     0.202 C 
BRANCH   3   4
ATOM      4  C   UNL     1      -2.012  -5.067  -0.688  1.00  0.00     0.261 C 
BRANCH   4   5
ATOM      5  O   UNL     1      -0.795  -4.293  -0.606  1.00  0.00    -0.459 OA
BRANCH   5   6
ATOM      6  C   UNL     1      -0.896  -3.039  -1.133  1.00  0.00     0.368 C 
ATOM      7  O   UNL     1      -1.981  -2.594  -1.505  1.00  0.00    -0.245 OA
BRANCH   6   8
ATOM      8  C   UNL     1       0.477  -2.206  -1.250  1.00  0.00     0.201 C 
ATOM      9  C   UNL     1       1.565   0.101  -0.348  1.00  0.00     0.018 C 
ATOM     10  C   UNL     1       0.509  -1.038  -0.127  1.00  0.00     0.031 C 
ATOM     11  C   UNL     1       0.763  -1.600   1.295  1.00  0.00     0.018 C 
ATOM     12  C   UNL     1      -0.853  -0.289  -0.160  1.00  0.00     0.013 C 
ATOM     13  C   UNL     1      -1.128   0.360  -1.521  1.00  0.00     0.001 C 
ATOM     14  C   UNL     1       0.362  -1.503  -2.642  1.00  0.00     0.082 C 
ATOM     15  C   UNL     1      -0.773  -0.464  -2.765  1.00  0.00     0.007 C 
BRANCH   8  16
ATOM     16  N   UNL     1       1.658  -3.163  -1.189  1.00  0.00    -0.311 N 
ATOM     17  C   UNL     1       2.996  -2.552  -1.084  1.00  0.00     0.325 C 
ATOM     18  C   UNL     1       1.689  -4.212  -2.236  1.00  0.00     0.325 C 
ATOM     19  H   UNL     1       1.456  -3.607  -0.293  1.00  0.00     0.349 HD
ATOM     20  C   UNL     1       4.187  -3.542  -1.030  1.00  0.00     0.322 C 
ATOM     21  C   UNL     1       2.838  -5.226  -2.016  1.00  0.00     0.322 C 
ATOM     22  N   UNL     1       4.158  -4.578  -2.063  1.00  0.00    -0.337 N 
ATOM     23  H   UNL     1       4.889  -5.267  -1.884  1.00  0.00     0.346 HD
ATOM     24  H   UNL     1       4.319  -4.168  -2.983  1.00  0.00     0.346 HD
ENDBRANCH   8  16
ENDBRANCH   6   8
ENDBRANCH   5   6
ENDBRANCH   4   5
ENDBRANCH   3   4
ENDBRANCH   2   3
ENDBRANCH   1   2
BRANCH   1  25
ATOM     25  C   UNL     1      -1.124  -4.428   3.312  1.00  0.00     0.261 C 
BRANCH  25  26
ATOM     26  O   UNL     1      -0.459  -5.619   2.853  1.00  0.00    -0.460 OA
BRANCH  26  27
ATOM     27  C   UNL     1      -1.000  -6.776   3.309  1.00  0.00     0.338 C 
ATOM     28  O   UNL     1      -1.891  -6.893   4.134  1.00  0.00    -0.246 OA
BRANCH  27  29
ATOM     29  C   UNL     1      -0.513  -7.919   2.509  1.00  0.00     0.060 A 
ATOM     30  C   UNL     1      -1.482  -8.788   1.990  1.00  0.00     0.016 A 
ATOM     31  C   UNL     1       0.846  -8.181   2.325  1.00  0.00     0.016 A 
ATOM     32  C   UNL     1      -1.098  -9.963   1.352  1.00  0.00     0.010 A 
ATOM     33  C   UNL     1       1.232  -9.370   1.695  1.00  0.00     0.010 A 
ATOM     34  C   UNL     1       0.261 -10.288   1.252  1.00  0.00    -0.014 A 
BRANCH  34  35
ATOM     35  C   UNL     1       0.636 -11.672   0.875  1.00  0.00     0.031 A 
ATOM     36  C   UNL     1       0.933 -12.659   1.973  1.00  0.00     0.074 A 
ATOM     37  C   UNL     1       0.641 -12.065  -0.411  1.00  0.00     0.049 A 
ATOM     38  N   UNL     1       1.254 -13.924   1.886  1.00  0.00    -0.248 NA
ATOM     39  C   UNL     1       0.853 -12.152   3.354  1.00  0.00     0.031 C 
ATOM     40  C   UNL     1       0.315 -11.217  -1.557  1.00  0.00     0.029 A 
ATOM     41  N   UNL     1       0.924 -13.287  -0.966  1.00  0.00    -0.354 N 
ATOM     42  C   UNL     1       1.418 -14.361   3.196  1.00  0.00     0.074 A 
ATOM     43  C   UNL     1       1.190 -13.222   4.057  1.00  0.00     0.031 C 
ATOM     44  C   UNL     1       0.421 -11.946  -2.682  1.00  0.00     0.029 A 
ATOM     45  C   UNL     1       0.847 -13.302  -2.337  1.00  0.00     0.049 A 
ATOM     46  H   UNL     1       1.161 -14.080  -0.431  1.00  0.00     0.167 HD
ATOM     47  C   UNL     1       1.726 -15.602   3.643  1.00  0.00     0.031 A 
ATOM     48  C   UNL     1       1.104 -14.292  -3.215  1.00  0.00     0.031 A 
ATOM     49  C   UNL     1       1.965 -16.730   2.784  1.00  0.00     0.049 A 
ATOM     50  C   UNL     1       1.516 -15.646  -2.698  1.00  0.00     0.074 A 
ATOM     51  C   UNL     1       2.279 -18.030   3.138  1.00  0.00     0.029 A 
ATOM     52  N   UNL     1       1.924 -16.690   1.399  1.00  0.00    -0.354 N 
ATOM     53  N   UNL     1       1.652 -16.047  -1.457  1.00  0.00    -0.248 NA
ATOM     54  C   UNL     1       1.800 -16.682  -3.701  1.00  0.00     0.031 C 
ATOM     55  C   UNL     1       2.478 -18.765   1.965  1.00  0.00     0.029 A 
ATOM     56  C   UNL     1       2.232 -17.936   0.881  1.00  0.00     0.049 A 
ATOM     57  H   UNL     1       1.708 -15.893   0.863  1.00  0.00     0.167 HD
ATOM     58  C   UNL     1       2.014 -17.389  -1.529  1.00  0.00     0.074 A 
ATOM     59  C   UNL     1       2.064 -17.732  -2.936  1.00  0.00     0.031 C 
ATOM     60  C   UNL     1       2.279 -18.259  -0.523  1.00  0.00     0.031 A 
BRANCH  47  61
ATOM     61  C   UNL     1       1.859 -15.789   5.131  1.00  0.00    -0.014 A 
ATOM     62  C   UNL     1       0.731 -15.782   5.971  1.00  0.00     0.010 A 
ATOM     63  C   UNL     1       3.131 -15.997   5.694  1.00  0.00     0.010 A 
ATOM     64  C   UNL     1       0.877 -15.941   7.352  1.00  0.00     0.020 A 
ATOM     65  C   UNL     1       3.279 -16.181   7.071  1.00  0.00     0.020 A 
ATOM     66  C   UNL     1       2.151 -16.135   7.894  1.00  0.00     0.054 A 
BRANCH  66  67
ATOM     67  S   UNL     1       2.313 -16.354   9.688  1.00  0.00     0.124 S 
ATOM     68  O   UNL     1       2.092 -14.995  10.178  1.00  0.00    -0.237 OA
ATOM     69  O   UNL     1       1.252 -17.311   9.992  1.00  0.00    -0.237 OA
ATOM     70  O   UNL     1       3.673 -16.862   9.854  1.00  0.00    -0.744 OA
ENDBRANCH  66  67
ENDBRANCH  47  61
BRANCH  48  71
ATOM     71  C   UNL     1       0.998 -14.032  -4.677  1.00  0.00    -0.014 A 
ATOM     72  C   UNL     1      -0.034 -14.607  -5.439  1.00  0.00     0.010 A 
ATOM     73  C   UNL     1       1.932 -13.194  -5.313  1.00  0.00     0.010 A 
ATOM     74  C   UNL     1      -0.124 -14.355  -6.812  1.00  0.00     0.020 A 
ATOM     75  C   UNL     1       1.831 -12.920  -6.680  1.00  0.00     0.020 A 
ATOM     76  C   UNL     1       0.808 -13.511  -7.423  1.00  0.00     0.054 A 
BRANCH  76  77
ATOM     77  S   UNL     1       0.635 -13.146  -9.192  1.00  0.00     0.124 S 
ATOM     78  O   UNL     1       1.105 -14.384  -9.805  1.00  0.00    -0.237 OA
ATOM     79  O   UNL     1      -0.795 -12.877  -9.322  1.00  0.00    -0.237 OA
ATOM     80  O   UNL     1       1.499 -11.983  -9.386  1.00  0.00    -0.744 OA
ENDBRANCH  76  77
ENDBRANCH  48  71
BRANCH  60  81
ATOM     81  C   UNL     1       2.615 -19.677  -0.900  1.00  0.00    -0.014 A 
ATOM     82  C   UNL     1       3.863 -20.005  -1.458  1.00  0.00     0.010 A 
ATOM     83  C   UNL     1       1.690 -20.703  -0.634  1.00  0.00     0.010 A 
ATOM     84  C   UNL     1       4.168 -21.333  -1.771  1.00  0.00     0.020 A 
ATOM     85  C   UNL     1       2.001 -22.034  -0.922  1.00  0.00     0.020 A 
ATOM     86  C   UNL     1       3.234 -22.339  -1.502  1.00  0.00     0.054 A 
BRANCH  86  87
ATOM     87  S   UNL     1       3.670 -24.060  -1.875  1.00  0.00     0.124 S 
ATOM     88  O   UNL     1       3.543 -24.096  -3.329  1.00  0.00    -0.237 OA
ATOM     89  O   UNL     1       5.034 -24.166  -1.361  1.00  0.00    -0.237 OA
ATOM     90  O   UNL     1       2.673 -24.836  -1.142  1.00  0.00    -0.744 OA
ENDBRANCH  86  87
ENDBRANCH  60  81
ENDBRANCH  34  35
ENDBRANCH  27  29
ENDBRANCH  26  27
ENDBRANCH  25  26
ENDBRANCH   1  25
TORSDOF 18
