REMARK SMILES C[C@H](CNC(=O)N1C[C@H]2CCCC[N@@H+]2C[C@@H]1C)C(=O)OCCOCCOC(=O)c1ccc(-c2c3nc(c(-c4ccc(S(=O)(=O)[O-])cc4)c4ccc([nH]4)c(-c4ccc(S(=O)(=O)[O-])cc4)c4nc(c(-c5ccc(S(=O)(=O)[O-])cc5)c5ccc2[nH]5)C=C4)C=C3)cc1
REMARK SMILES IDX 23 1 22 2 21 3 20 4 18 5 19 6 2 7 1 8 3 9 4 10 5 11 6 13
REMARK SMILES IDX 7 14 8 15 16 16 9 17 15 18 17 19 10 20 14 21 11 22 13 23
REMARK SMILES IDX 12 25 24 26 25 27 26 28 27 29 28 30 29 31 30 32 88 33 31 34
REMARK SMILES IDX 87 35 32 36 33 37 34 38 81 39 35 40 86 41 80 42 82 43 36 44
REMARK SMILES IDX 85 45 79 46 78 47 37 49 67 50 48 51 66 52 49 53 52 54 65 55
REMARK SMILES IDX 83 56 50 57 51 58 64 60 84 61 53 62 38 63 39 64 47 65 40 66
REMARK SMILES IDX 46 67 41 68 42 69 43 70 44 71 45 72 68 73 69 74 77 75 70 76
REMARK SMILES IDX 76 77 71 78 72 79 73 80 74 81 75 82 54 83 55 84 63 85 56 86
REMARK SMILES IDX 62 87 57 88 58 89 59 90 60 91 61 92
REMARK H PARENT 4 12 14 24 82 48 52 59
REMARK Flexibility Score: inf
ROOT
ATOM      1  O   UNL     1      -3.352  -1.808   0.119  1.00  0.00    -0.374 OA
ENDROOT
BRANCH   1   2
ATOM      2  C   UNL     1      -3.728  -0.596   0.775  1.00  0.00     0.202 C 
BRANCH   2   3
ATOM      3  C   UNL     1      -3.004  -0.281   2.088  1.00  0.00     0.261 C 
BRANCH   3   4
ATOM      4  O   UNL     1      -1.628   0.067   1.851  1.00  0.00    -0.463 OA
BRANCH   4   5
ATOM      5  C   UNL     1      -0.693  -0.780   2.351  1.00  0.00     0.310 C 
ATOM      6  O   UNL     1      -0.932  -1.740   3.076  1.00  0.00    -0.252 OA
BRANCH   5   7
ATOM      7  C   UNL     1       0.719  -0.428   1.909  1.00  0.00     0.115 C 
ATOM      8  C   UNL     1       1.421   0.323   3.029  1.00  0.00     0.022 C 
BRANCH   7   9
ATOM      9  C   UNL     1       0.793   0.202   0.505  1.00  0.00     0.132 C 
BRANCH   9  10
ATOM     10  N   UNL     1       1.546   1.438   0.381  1.00  0.00    -0.337 N 
ATOM     11  C   UNL     1       2.871   1.666   0.191  1.00  0.00     0.318 C 
ATOM     12  H   UNL     1       0.999   2.254   0.446  1.00  0.00     0.165 HD
ATOM     13  O   UNL     1       3.296   2.809   0.335  1.00  0.00    -0.249 OA
BRANCH  11  14
ATOM     14  N   UNL     1       3.674   0.588  -0.080  1.00  0.00    -0.311 N 
ATOM     15  C   UNL     1       3.467  -0.132  -1.336  1.00  0.00     0.186 C 
ATOM     16  C   UNL     1       5.084   0.591   0.349  1.00  0.00     0.139 C 
ATOM     17  C   UNL     1       3.876  -1.599  -1.157  1.00  0.00     0.203 C 
ATOM     18  C   UNL     1       5.719  -0.838   0.254  1.00  0.00     0.287 C 
ATOM     19  C   UNL     1       5.279   1.066   1.799  1.00  0.00     0.037 C 
ATOM     20  C   UNL     1       3.517  -2.427  -2.396  1.00  0.00     0.067 C 
ATOM     21  N   UNL     1       5.329  -1.700  -0.887  1.00  0.00    -0.329 N 
ATOM     22  C   UNL     1       3.878  -3.893  -2.173  1.00  0.00     0.012 C 
ATOM     23  C   UNL     1       5.698  -3.097  -0.601  1.00  0.00     0.262 C 
ATOM     24  H   UNL     1       5.826  -1.381  -1.719  1.00  0.00     0.348 HD
ATOM     25  C   UNL     1       5.339  -4.033  -1.756  1.00  0.00     0.062 C 
ENDBRANCH  11  14
ENDBRANCH   9  10
ENDBRANCH   7   9
ENDBRANCH   5   7
ENDBRANCH   4   5
ENDBRANCH   3   4
ENDBRANCH   2   3
ENDBRANCH   1   2
BRANCH   1  26
ATOM     26  C   UNL     1      -2.135  -1.812  -0.622  1.00  0.00     0.202 C 
BRANCH  26  27
ATOM     27  C   UNL     1      -2.144  -1.096  -1.980  1.00  0.00     0.261 C 
BRANCH  27  28
ATOM     28  O   UNL     1      -2.349   0.324  -1.860  1.00  0.00    -0.460 OA
BRANCH  28  29
ATOM     29  C   UNL     1      -3.527   0.768  -2.361  1.00  0.00     0.338 C 
ATOM     30  O   UNL     1      -4.374   0.102  -2.946  1.00  0.00    -0.246 OA
BRANCH  29  31
ATOM     31  C   UNL     1      -3.774   2.163  -1.953  1.00  0.00     0.060 A 
ATOM     32  C   UNL     1      -4.981   2.439  -1.298  1.00  0.00     0.016 A 
ATOM     33  C   UNL     1      -2.893   3.198  -2.278  1.00  0.00     0.016 A 
ATOM     34  C   UNL     1      -5.338   3.755  -1.010  1.00  0.00     0.010 A 
ATOM     35  C   UNL     1      -3.258   4.521  -1.995  1.00  0.00     0.010 A 
ATOM     36  C   UNL     1      -4.497   4.808  -1.393  1.00  0.00    -0.014 A 
BRANCH  36  37
ATOM     37  C   UNL     1      -4.987   6.206  -1.291  1.00  0.00     0.031 A 
ATOM     38  C   UNL     1      -5.528   6.884  -2.522  1.00  0.00     0.074 A 
ATOM     39  C   UNL     1      -4.993   6.852  -0.111  1.00  0.00     0.049 A 
ATOM     40  N   UNL     1      -6.000   8.096  -2.659  1.00  0.00    -0.248 NA
ATOM     41  C   UNL     1      -5.539   6.089  -3.761  1.00  0.00     0.031 C 
ATOM     42  C   UNL     1      -4.542   6.291   1.163  1.00  0.00     0.029 A 
ATOM     43  N   UNL     1      -5.394   8.126   0.206  1.00  0.00    -0.354 N 
ATOM     44  C   UNL     1      -6.358   8.214  -3.998  1.00  0.00     0.074 A 
ATOM     45  C   UNL     1      -6.024   6.959  -4.636  1.00  0.00     0.031 C 
ATOM     46  C   UNL     1      -4.688   7.220   2.124  1.00  0.00     0.029 A 
ATOM     47  C   UNL     1      -5.211   8.449   1.529  1.00  0.00     0.049 A 
ATOM     48  H   UNL     1      -5.778   8.749  -0.453  1.00  0.00     0.167 HD
ATOM     49  C   UNL     1      -6.919   9.268  -4.638  1.00  0.00     0.031 A 
ATOM     50  C   UNL     1      -5.422   9.609   2.184  1.00  0.00     0.031 A 
ATOM     51  C   UNL     1      -7.241  10.520  -4.006  1.00  0.00     0.049 A 
ATOM     52  C   UNL     1      -5.979  10.792   1.435  1.00  0.00     0.074 A 
ATOM     53  C   UNL     1      -7.822  11.643  -4.570  1.00  0.00     0.029 A 
ATOM     54  N   UNL     1      -7.002  10.820  -2.674  1.00  0.00    -0.354 N 
ATOM     55  N   UNL     1      -6.332  10.878   0.175  1.00  0.00    -0.248 NA
ATOM     56  C   UNL     1      -6.172  12.032   2.201  1.00  0.00     0.031 C 
ATOM     57  C   UNL     1      -7.886  12.640  -3.591  1.00  0.00     0.029 A 
ATOM     58  C   UNL     1      -7.401  12.118  -2.403  1.00  0.00     0.049 A 
ATOM     59  H   UNL     1      -6.608  10.201  -2.018  1.00  0.00     0.167 HD
ATOM     60  C   UNL     1      -6.817  12.172   0.005  1.00  0.00     0.074 A 
ATOM     61  C   UNL     1      -6.720  12.828   1.292  1.00  0.00     0.031 C 
ATOM     62  C   UNL     1      -7.302  12.760  -1.117  1.00  0.00     0.031 A 
BRANCH  49  63
ATOM     63  C   UNL     1      -7.190   9.122  -6.112  1.00  0.00    -0.014 A 
ATOM     64  C   UNL     1      -8.229   8.300  -6.585  1.00  0.00     0.010 A 
ATOM     65  C   UNL     1      -6.416   9.848  -7.036  1.00  0.00     0.010 A 
ATOM     66  C   UNL     1      -8.464   8.178  -7.957  1.00  0.00     0.020 A 
ATOM     67  C   UNL     1      -6.665   9.748  -8.407  1.00  0.00     0.020 A 
ATOM     68  C   UNL     1      -7.678   8.900  -8.860  1.00  0.00     0.054 A 
BRANCH  68  69
ATOM     69  S   UNL     1      -8.016   8.737 -10.635  1.00  0.00     0.124 S 
ATOM     70  O   UNL     1      -7.495   7.402 -10.918  1.00  0.00    -0.237 OA
ATOM     71  O   UNL     1      -9.469   8.869 -10.698  1.00  0.00    -0.237 OA
ATOM     72  O   UNL     1      -7.266   9.838 -11.234  1.00  0.00    -0.744 OA
ENDBRANCH  68  69
ENDBRANCH  49  63
BRANCH  50  73
ATOM     73  C   UNL     1      -5.089   9.714   3.631  1.00  0.00    -0.014 A 
ATOM     74  C   UNL     1      -6.104   9.831   4.596  1.00  0.00     0.010 A 
ATOM     75  C   UNL     1      -3.746   9.699   4.050  1.00  0.00     0.010 A 
ATOM     76  C   UNL     1      -5.782   9.944   5.952  1.00  0.00     0.020 A 
ATOM     77  C   UNL     1      -3.420   9.785   5.406  1.00  0.00     0.020 A 
ATOM     78  C   UNL     1      -4.441   9.917   6.349  1.00  0.00     0.054 A 
BRANCH  78  79
ATOM     79  S   UNL     1      -4.048  10.009   8.118  1.00  0.00     0.124 S 
ATOM     80  O   UNL     1      -4.298  11.416   8.412  1.00  0.00    -0.237 OA
ATOM     81  O   UNL     1      -4.995   9.061   8.701  1.00  0.00    -0.237 OA
ATOM     82  O   UNL     1      -2.648   9.595   8.178  1.00  0.00    -0.744 OA
ENDBRANCH  78  79
ENDBRANCH  50  73
BRANCH  62  83
ATOM     83  C   UNL     1      -7.808  14.175  -1.000  1.00  0.00    -0.014 A 
ATOM     84  C   UNL     1      -6.924  15.258  -0.857  1.00  0.00     0.010 A 
ATOM     85  C   UNL     1      -9.189  14.426  -1.101  1.00  0.00     0.010 A 
ATOM     86  C   UNL     1      -7.415  16.566  -0.788  1.00  0.00     0.020 A 
ATOM     87  C   UNL     1      -9.681  15.732  -1.059  1.00  0.00     0.020 A 
ATOM     88  C   UNL     1      -8.791  16.794  -0.889  1.00  0.00     0.054 A 
BRANCH  88  89
ATOM     89  S   UNL     1      -9.400  18.503  -0.845  1.00  0.00     0.124 S 
ATOM     90  O   UNL     1      -9.263  18.838   0.569  1.00  0.00    -0.237 OA
ATOM     91  O   UNL     1      -8.483  19.195  -1.748  1.00  0.00    -0.237 OA
ATOM     92  O   UNL     1     -10.775  18.393  -1.329  1.00  0.00    -0.744 OA
ENDBRANCH  88  89
ENDBRANCH  62  83
ENDBRANCH  36  37
ENDBRANCH  29  31
ENDBRANCH  28  29
ENDBRANCH  27  28
ENDBRANCH  26  27
ENDBRANCH   1  26
TORSDOF 20
