REMARK SMILES COc1ccc(NC(C)(C)C2=N[C@@H](C(=O)OCCOCCOC(=O)c3ccc(-c4c5nc(c(-c6ccc(S(=O)(=O)[O-])cc6)c6ccc([nH]6)c(-c6ccc(S(=O)(=O)[O-])cc6)c6nc(c(-c7ccc(S(=O)(=O)[O-])cc7)c7ccc4[nH]7)C=C6)C=C5)cc3)CS2)cc1
REMARK SMILES IDX 18 1 17 2 16 3 14 4 15 5 13 6 11 7 12 8 86 9 85 10 8 11 9 12
REMARK SMILES IDX 10 13 7 14 6 16 3 17 4 18 88 19 5 20 87 21 2 22 1 23 19 24
REMARK SMILES IDX 20 25 21 26 22 27 23 28 24 29 25 30 26 31 84 32 27 33 83 34
REMARK SMILES IDX 28 35 29 36 30 37 77 38 31 39 82 40 76 41 78 42 32 43 81 44
REMARK SMILES IDX 75 45 74 46 33 48 63 49 44 50 62 51 45 52 48 53 61 54 79 55
REMARK SMILES IDX 46 56 47 57 60 59 80 60 49 61 34 62 35 63 43 64 36 65 42 66
REMARK SMILES IDX 37 67 38 68 39 69 40 70 41 71 64 72 65 73 73 74 66 75 72 76
REMARK SMILES IDX 67 77 68 78 69 79 70 80 71 81 50 82 51 83 59 84 52 85 58 86
REMARK SMILES IDX 53 87 54 88 55 89 56 90 57 91
REMARK H PARENT 7 15 78 47 48 58
REMARK Flexibility Score: inf
ROOT
ATOM      1  C   UNL     1      -6.383  -1.556   7.847  1.00  0.00     0.202 C 
ENDROOT
BRANCH   1   2
ATOM      2  C   UNL     1      -5.141  -2.420   8.081  1.00  0.00     0.261 C 
BRANCH   2   3
ATOM      3  O   UNL     1      -3.953  -1.642   7.878  1.00  0.00    -0.462 OA
BRANCH   3   4
ATOM      4  C   UNL     1      -3.214  -1.958   6.782  1.00  0.00     0.331 C 
ATOM      5  O   UNL     1      -3.393  -2.948   6.081  1.00  0.00    -0.250 OA
BRANCH   4   6
ATOM      6  C   UNL     1      -2.185  -0.880   6.457  1.00  0.00     0.226 C 
ATOM      7  C   UNL     1      -0.055  -0.599   7.271  1.00  0.00     0.094 C 
ATOM      8  N   UNL     1      -0.834  -1.429   6.660  1.00  0.00    -0.264 NA
ATOM      9  S   UNL     1      -0.781   0.868   7.893  1.00  0.00    -0.106 SA
ATOM     10  C   UNL     1      -2.364   0.471   7.144  1.00  0.00     0.115 C 
BRANCH   7  11
ATOM     11  C   UNL     1       1.455  -0.850   7.408  1.00  0.00     0.080 C 
ATOM     12  C   UNL     1       1.605  -2.309   7.899  1.00  0.00     0.042 C 
ATOM     13  C   UNL     1       2.147   0.058   8.438  1.00  0.00     0.042 C 
BRANCH  11  14
ATOM     14  N   UNL     1       2.221  -0.738   6.135  1.00  0.00    -0.374 N 
ATOM     15  H   UNL     1       3.172  -0.970   6.233  1.00  0.00     0.161 HD
BRANCH  14  16
ATOM     16  C   UNL     1       1.879  -0.377   4.850  1.00  0.00     0.035 A 
ATOM     17  C   UNL     1       1.287   0.175   2.109  1.00  0.00     0.119 A 
ATOM     18  C   UNL     1       0.413   0.549   3.119  1.00  0.00     0.048 A 
ATOM     19  C   UNL     1       2.483  -0.437   2.459  1.00  0.00     0.048 A 
ATOM     20  C   UNL     1       0.717   0.287   4.463  1.00  0.00     0.029 A 
ATOM     21  C   UNL     1       2.764  -0.710   3.810  1.00  0.00     0.029 A 
BRANCH  17  22
ATOM     22  O   UNL     1       0.891   0.503   0.844  1.00  0.00    -0.497 OA
ATOM     23  C   UNL     1       1.409  -0.319  -0.195  1.00  0.00     0.278 C 
ENDBRANCH  17  22
ENDBRANCH  14  16
ENDBRANCH  11  14
ENDBRANCH   7  11
ENDBRANCH   4   6
ENDBRANCH   3   4
ENDBRANCH   2   3
ENDBRANCH   1   2
BRANCH   1  24
ATOM     24  O   UNL     1      -6.617  -1.124   6.506  1.00  0.00    -0.374 OA
BRANCH  24  25
ATOM     25  C   UNL     1      -5.867  -0.016   6.011  1.00  0.00     0.202 C 
BRANCH  25  26
ATOM     26  C   UNL     1      -6.235   1.377   6.538  1.00  0.00     0.261 C 
BRANCH  26  27
ATOM     27  O   UNL     1      -5.899   1.540   7.928  1.00  0.00    -0.460 OA
BRANCH  27  28
ATOM     28  C   UNL     1      -6.966   1.693   8.749  1.00  0.00     0.338 C 
ATOM     29  O   UNL     1      -8.143   1.772   8.419  1.00  0.00    -0.246 OA
BRANCH  28  30
ATOM     30  C   UNL     1      -6.556   1.556  10.158  1.00  0.00     0.060 A 
ATOM     31  C   UNL     1      -7.200   0.574  10.921  1.00  0.00     0.016 A 
ATOM     32  C   UNL     1      -5.640   2.428  10.749  1.00  0.00     0.016 A 
ATOM     33  C   UNL     1      -6.970   0.492  12.291  1.00  0.00     0.010 A 
ATOM     34  C   UNL     1      -5.419   2.352  12.129  1.00  0.00     0.010 A 
ATOM     35  C   UNL     1      -6.113   1.410  12.911  1.00  0.00    -0.014 A 
BRANCH  35  36
ATOM     36  C   UNL     1      -6.077   1.475  14.393  1.00  0.00     0.031 A 
ATOM     37  C   UNL     1      -6.897   2.522  15.097  1.00  0.00     0.074 A 
ATOM     38  C   UNL     1      -5.367   0.581  15.104  1.00  0.00     0.049 A 
ATOM     39  N   UNL     1      -7.022   2.752  16.379  1.00  0.00    -0.248 NA
ATOM     40  C   UNL     1      -7.684   3.428  14.244  1.00  0.00     0.031 C 
ATOM     41  C   UNL     1      -4.572  -0.510  14.541  1.00  0.00     0.029 A 
ATOM     42  N   UNL     1      -5.205   0.450  16.461  1.00  0.00    -0.354 N 
ATOM     43  C   UNL     1      -7.893   3.830  16.486  1.00  0.00     0.074 A 
ATOM     44  C   UNL     1      -8.244   4.227  15.140  1.00  0.00     0.031 C 
ATOM     45  C   UNL     1      -4.002  -1.197  15.546  1.00  0.00     0.029 A 
ATOM     46  C   UNL     1      -4.367  -0.579  16.819  1.00  0.00     0.049 A 
ATOM     47  H   UNL     1      -5.648   1.037  17.116  1.00  0.00     0.167 HD
ATOM     48  C   UNL     1      -8.363   4.433  17.605  1.00  0.00     0.031 A 
ATOM     49  C   UNL     1      -3.931  -0.967  18.034  1.00  0.00     0.031 A 
ATOM     50  C   UNL     1      -8.004   4.045  18.943  1.00  0.00     0.049 A 
ATOM     51  C   UNL     1      -4.412  -0.237  19.260  1.00  0.00     0.074 A 
ATOM     52  C   UNL     1      -8.438   4.586  20.141  1.00  0.00     0.029 A 
ATOM     53  N   UNL     1      -7.120   3.026  19.261  1.00  0.00    -0.354 N 
ATOM     54  N   UNL     1      -5.253   0.767  19.345  1.00  0.00    -0.248 NA
ATOM     55  C   UNL     1      -3.891  -0.698  20.555  1.00  0.00     0.031 C 
ATOM     56  C   UNL     1      -7.773   3.929  21.182  1.00  0.00     0.029 A 
ATOM     57  C   UNL     1      -6.972   2.939  20.635  1.00  0.00     0.049 A 
ATOM     58  H   UNL     1      -6.664   2.449  18.607  1.00  0.00     0.167 HD
ATOM     59  C   UNL     1      -5.381   1.039  20.704  1.00  0.00     0.074 A 
ATOM     60  C   UNL     1      -4.542   0.087  21.402  1.00  0.00     0.031 C 
ATOM     61  C   UNL     1      -6.131   1.988  21.317  1.00  0.00     0.031 A 
BRANCH  48  62
ATOM     62  C   UNL     1      -9.292   5.604  17.424  1.00  0.00    -0.014 A 
ATOM     63  C   UNL     1     -10.614   5.426  16.980  1.00  0.00     0.010 A 
ATOM     64  C   UNL     1      -8.843   6.900  17.737  1.00  0.00     0.010 A 
ATOM     65  C   UNL     1     -11.459   6.527  16.816  1.00  0.00     0.020 A 
ATOM     66  C   UNL     1      -9.693   8.001  17.599  1.00  0.00     0.020 A 
ATOM     67  C   UNL     1     -10.991   7.809  17.122  1.00  0.00     0.054 A 
BRANCH  67  68
ATOM     68  S   UNL     1     -12.114   9.219  16.918  1.00  0.00     0.124 S 
ATOM     69  O   UNL     1     -12.165   9.354  15.464  1.00  0.00    -0.237 OA
ATOM     70  O   UNL     1     -13.343   8.745  17.547  1.00  0.00    -0.237 OA
ATOM     71  O   UNL     1     -11.437  10.306  17.620  1.00  0.00    -0.744 OA
ENDBRANCH  67  68
ENDBRANCH  48  62
BRANCH  49  72
ATOM     72  C   UNL     1      -2.966  -2.095  18.148  1.00  0.00    -0.014 A 
ATOM     73  C   UNL     1      -3.359  -3.326  18.702  1.00  0.00     0.010 A 
ATOM     74  C   UNL     1      -1.643  -1.940  17.694  1.00  0.00     0.010 A 
ATOM     75  C   UNL     1      -2.442  -4.376  18.812  1.00  0.00     0.020 A 
ATOM     76  C   UNL     1      -0.732  -2.996  17.778  1.00  0.00     0.020 A 
ATOM     77  C   UNL     1      -1.135  -4.205  18.346  1.00  0.00     0.054 A 
BRANCH  77  78
ATOM     78  S   UNL     1       0.022  -5.599  18.446  1.00  0.00     0.124 S 
ATOM     79  O   UNL     1       0.341  -5.628  19.869  1.00  0.00    -0.237 OA
ATOM     80  O   UNL     1      -0.784  -6.714  17.953  1.00  0.00    -0.237 OA
ATOM     81  O   UNL     1       1.117  -5.197  17.566  1.00  0.00    -0.744 OA
ENDBRANCH  77  78
ENDBRANCH  49  72
BRANCH  61  82
ATOM     82  C   UNL     1      -6.107   2.029  22.823  1.00  0.00    -0.014 A 
ATOM     83  C   UNL     1      -4.984   2.504  23.523  1.00  0.00     0.010 A 
ATOM     84  C   UNL     1      -7.251   1.641  23.544  1.00  0.00     0.010 A 
ATOM     85  C   UNL     1      -4.995   2.560  24.920  1.00  0.00     0.020 A 
ATOM     86  C   UNL     1      -7.276   1.721  24.939  1.00  0.00     0.020 A 
ATOM     87  C   UNL     1      -6.141   2.167  25.619  1.00  0.00     0.054 A 
BRANCH  87  88
ATOM     88  S   UNL     1      -6.146   2.290  27.429  1.00  0.00     0.124 S 
ATOM     89  O   UNL     1      -5.303   1.161  27.812  1.00  0.00    -0.237 OA
ATOM     90  O   UNL     1      -5.571   3.612  27.663  1.00  0.00    -0.237 OA
ATOM     91  O   UNL     1      -7.559   2.161  27.781  1.00  0.00    -0.744 OA
ENDBRANCH  87  88
ENDBRANCH  61  82
ENDBRANCH  35  36
ENDBRANCH  28  30
ENDBRANCH  27  28
ENDBRANCH  26  27
ENDBRANCH  25  26
ENDBRANCH  24  25
ENDBRANCH   1  24
TORSDOF 21
