REMARK SMILES CCC(=O)Nc1ccc(NC(=O)[C@@H]2CC=CC[C@@H]2C(=O)OCCOCCOC(=O)c2ccc(-c3c4nc(c(-c5ccc(S(=O)(=O)[O-])cc5)c5ccc([nH]5)c(-c5ccc(S(=O)(=O)[O-])cc5)c5nc(c(-c6ccc(S(=O)(=O)[O-])cc6)c6ccc3[nH]6)C=C5)C=C4)cc2)cc1
REMARK SMILES IDX 23 1 22 2 21 3 19 4 20 5 18 6 13 7 14 8 15 9 17 10 16 11
REMARK SMILES IDX 11 12 10 13 12 15 9 16 6 17 7 18 91 19 8 20 90 21 5 22 3 23
REMARK SMILES IDX 4 24 2 26 1 27 24 28 25 29 26 30 27 31 28 32 29 33 30 34
REMARK SMILES IDX 31 35 89 36 32 37 88 38 33 39 34 40 35 41 82 42 36 43 87 44
REMARK SMILES IDX 81 45 83 46 37 47 86 48 80 49 79 50 38 52 68 53 49 54 67 55
REMARK SMILES IDX 50 56 53 57 66 58 84 59 51 60 52 61 65 63 85 64 54 65 39 66
REMARK SMILES IDX 40 67 48 68 41 69 47 70 42 71 43 72 44 73 45 74 46 75 69 76
REMARK SMILES IDX 70 77 78 78 71 79 77 80 72 81 73 82 74 83 75 84 76 85 55 86
REMARK SMILES IDX 56 87 64 88 57 89 63 90 58 91 59 92 60 93 61 94 62 95
REMARK H PARENT 10 14 5 25 83 51 53 62
REMARK Flexibility Score: inf
ROOT
ATOM      1  C   UNL     1      12.066  -3.402  -2.247  1.00  0.00     0.202 C 
ENDROOT
BRANCH   1   2
ATOM      2  C   UNL     1      10.603  -3.990  -1.653  1.00  0.00     0.261 C 
BRANCH   2   3
ATOM      3  O   UNL     1       9.362  -3.162  -0.273  1.00  0.00    -0.463 OA
BRANCH   3   4
ATOM      4  C   UNL     1       8.381  -2.347   0.355  1.00  0.00     0.310 C 
ATOM      5  O   UNL     1       8.203  -2.491   1.573  1.00  0.00    -0.252 OA
BRANCH   4   6
ATOM      6  C   UNL     1       7.572  -1.162  -0.372  1.00  0.00     0.116 C 
ATOM      7  C   UNL     1       6.787  -1.129  -1.734  1.00  0.00     0.097 C 
ATOM      8  C   UNL     1       7.326  -0.262  -2.895  1.00  0.00     0.041 C 
ATOM      9  C   UNL     1       8.223   0.860  -2.494  1.00  0.00    -0.030 C 
ATOM     10  C   UNL     1       8.223   0.213  -0.061  1.00  0.00     0.043 C 
ATOM     11  C   UNL     1       8.624   1.065  -1.234  1.00  0.00    -0.030 C 
BRANCH   7  12
ATOM     12  C   UNL     1       6.339  -2.425  -2.370  1.00  0.00     0.228 C 
ATOM     13  N   UNL     1       7.223  -3.436  -2.542  1.00  0.00    -0.326 N 
ATOM     14  H   UNL     1       6.972  -4.178  -3.139  1.00  0.00     0.169 HD
ATOM     15  O   UNL     1       5.190  -2.558  -2.795  1.00  0.00    -0.274 OA
BRANCH  13  16
ATOM     16  C   UNL     1       8.456  -3.482  -1.925  1.00  0.00     0.041 A 
ATOM     17  C   UNL     1      11.102  -3.561   0.511  1.00  0.00     0.041 A 
ATOM     18  C   UNL     1      10.914  -2.094  -0.511  1.00  0.00     0.028 A 
ATOM     19  C   UNL     1       9.948  -4.907   0.392  1.00  0.00     0.028 A 
ATOM     20  C   UNL     1       9.626  -2.085  -1.811  1.00  0.00     0.028 A 
ATOM     21  C   UNL     1       8.654  -4.892  -0.833  1.00  0.00     0.028 A 
BRANCH  17  22
ATOM     22  N   UNL     1      12.288  -3.723   1.236  1.00  0.00    -0.326 N 
ATOM     23  C   UNL     1      13.100  -4.826   1.349  1.00  0.00     0.224 C 
ATOM     24  O   UNL     1      13.988  -4.808   2.209  1.00  0.00    -0.275 OA
ATOM     25  H   UNL     1      12.584  -2.930   1.740  1.00  0.00     0.169 HD
BRANCH  23  26
ATOM     26  C   UNL     1      13.086  -5.955   0.312  1.00  0.00     0.097 C 
ATOM     27  C   UNL     1      12.224  -7.169   0.594  1.00  0.00     0.014 C 
ENDBRANCH  23  26
ENDBRANCH  17  22
ENDBRANCH  13  16
ENDBRANCH   7  12
ENDBRANCH   4   6
ENDBRANCH   3   4
ENDBRANCH   2   3
ENDBRANCH   1   2
BRANCH   1  28
ATOM     28  O   UNL     1      12.147  -2.046  -2.673  1.00  0.00    -0.374 OA
BRANCH  28  29
ATOM     29  C   UNL     1      11.998  -1.622  -4.012  1.00  0.00     0.202 C 
BRANCH  29  30
ATOM     30  C   UNL     1      10.884  -2.146  -4.928  1.00  0.00     0.261 C 
BRANCH  30  31
ATOM     31  O   UNL     1      10.566  -3.529  -4.811  1.00  0.00    -0.460 OA
BRANCH  31  32
ATOM     32  C   UNL     1      11.471  -4.380  -5.339  1.00  0.00     0.338 C 
ATOM     33  O   UNL     1      12.521  -4.086  -5.879  1.00  0.00    -0.246 OA
BRANCH  32  34
ATOM     34  C   UNL     1      11.065  -5.747  -4.964  1.00  0.00     0.060 A 
ATOM     35  C   UNL     1      12.008  -6.557  -4.325  1.00  0.00     0.016 A 
ATOM     36  C   UNL     1       9.782  -6.226  -5.252  1.00  0.00     0.016 A 
ATOM     37  C   UNL     1      11.694  -7.878  -4.027  1.00  0.00     0.010 A 
ATOM     38  C   UNL     1       9.476  -7.559  -4.976  1.00  0.00     0.010 A 
ATOM     39  C   UNL     1      10.450  -8.398  -4.408  1.00  0.00    -0.014 A 
BRANCH  39  40
ATOM     40  C   UNL     1      10.281  -9.866  -4.435  1.00  0.00     0.031 A 
ATOM     41  C   UNL     1      10.637 -10.590  -5.706  1.00  0.00     0.074 A 
ATOM     42  C   UNL     1       9.879 -10.540  -3.344  1.00  0.00     0.049 A 
ATOM     43  N   UNL     1      10.609 -11.870  -5.963  1.00  0.00    -0.248 NA
ATOM     44  C   UNL     1      11.094  -9.758  -6.835  1.00  0.00     0.031 C 
ATOM     45  C   UNL     1       9.550  -9.944  -2.050  1.00  0.00     0.029 A 
ATOM     46  N   UNL     1       9.681 -11.884  -3.158  1.00  0.00    -0.354 N 
ATOM     47  C   UNL     1      11.038 -11.997  -7.279  1.00  0.00     0.074 A 
ATOM     48  C   UNL     1      11.307 -10.667  -7.775  1.00  0.00     0.031 C 
ATOM     49  C   UNL     1       9.172 -10.921  -1.206  1.00  0.00     0.029 A 
ATOM     50  C   UNL     1       9.213 -12.203  -1.906  1.00  0.00     0.049 A 
ATOM     51  H   UNL     1       9.857 -12.556  -3.855  1.00  0.00     0.167 HD
ATOM     52  C   UNL     1      11.193 -13.124  -8.011  1.00  0.00     0.031 A 
ATOM     53  C   UNL     1       8.841 -13.394  -1.398  1.00  0.00     0.031 A 
ATOM     54  C   UNL     1      10.911 -14.443  -7.518  1.00  0.00     0.049 A 
ATOM     55  C   UNL     1       8.968 -14.629  -2.255  1.00  0.00     0.074 A 
ATOM     56  C   UNL     1      11.052 -15.653  -8.172  1.00  0.00     0.029 A 
ATOM     57  N   UNL     1      10.415 -14.723  -6.254  1.00  0.00    -0.354 N 
ATOM     58  N   UNL     1       9.423 -14.738  -3.481  1.00  0.00    -0.248 NA
ATOM     59  C   UNL     1       8.540 -15.901  -1.656  1.00  0.00     0.031 C 
ATOM     60  C   UNL     1      10.588 -16.662  -7.322  1.00  0.00     0.029 A 
ATOM     61  C   UNL     1      10.213 -16.084  -6.119  1.00  0.00     0.049 A 
ATOM     62  H   UNL     1      10.234 -14.052  -5.556  1.00  0.00     0.167 HD
ATOM     63  C   UNL     1       9.358 -16.094  -3.790  1.00  0.00     0.074 A 
ATOM     64  C   UNL     1       8.836 -16.765  -2.618  1.00  0.00     0.031 C 
ATOM     65  C   UNL     1       9.699 -16.729  -4.939  1.00  0.00     0.031 A 
BRANCH  52  66
ATOM     66  C   UNL     1      11.646 -12.977  -9.436  1.00  0.00    -0.014 A 
ATOM     67  C   UNL     1      12.982 -12.674  -9.750  1.00  0.00     0.010 A 
ATOM     68  C   UNL     1      10.728 -13.201 -10.477  1.00  0.00     0.010 A 
ATOM     69  C   UNL     1      13.388 -12.581 -11.084  1.00  0.00     0.020 A 
ATOM     70  C   UNL     1      11.134 -13.129 -11.812  1.00  0.00     0.020 A 
ATOM     71  C   UNL     1      12.461 -12.810 -12.107  1.00  0.00     0.054 A 
BRANCH  71  72
ATOM     72  S   UNL     1      13.025 -12.732 -13.829  1.00  0.00     0.124 S 
ATOM     73  O   UNL     1      13.199 -11.294 -14.023  1.00  0.00    -0.237 OA
ATOM     74  O   UNL     1      14.257 -13.515 -13.798  1.00  0.00    -0.237 OA
ATOM     75  O   UNL     1      11.927 -13.332 -14.581  1.00  0.00    -0.744 OA
ENDBRANCH  71  72
ENDBRANCH  52  66
BRANCH  53  76
ATOM     76  C   UNL     1       8.268 -13.477  -0.027  1.00  0.00    -0.014 A 
ATOM     77  C   UNL     1       8.956 -14.127   1.012  1.00  0.00     0.010 A 
ATOM     78  C   UNL     1       6.999 -12.927   0.232  1.00  0.00     0.010 A 
ATOM     79  C   UNL     1       8.370 -14.254   2.277  1.00  0.00     0.020 A 
ATOM     80  C   UNL     1       6.423 -13.027   1.501  1.00  0.00     0.020 A 
ATOM     81  C   UNL     1       7.105 -13.707   2.511  1.00  0.00     0.054 A 
BRANCH  81  82
ATOM     82  S   UNL     1       6.367 -13.866   4.160  1.00  0.00     0.124 S 
ATOM     83  O   UNL     1       5.926 -15.257   4.161  1.00  0.00    -0.237 OA
ATOM     84  O   UNL     1       7.490 -13.556   5.042  1.00  0.00    -0.237 OA
ATOM     85  O   UNL     1       5.298 -12.869   4.152  1.00  0.00    -0.744 OA
ENDBRANCH  81  82
ENDBRANCH  53  76
BRANCH  65  86
ATOM     86  C   UNL     1       9.552 -18.225  -4.977  1.00  0.00    -0.014 A 
ATOM     87  C   UNL     1       8.287 -18.830  -5.068  1.00  0.00     0.010 A 
ATOM     88  C   UNL     1      10.704 -19.033  -4.995  1.00  0.00     0.010 A 
ATOM     89  C   UNL     1       8.175 -20.220  -5.146  1.00  0.00     0.020 A 
ATOM     90  C   UNL     1      10.597 -20.421  -5.101  1.00  0.00     0.020 A 
ATOM     91  C   UNL     1       9.331 -21.007  -5.162  1.00  0.00     0.054 A 
BRANCH  91  92
ATOM     92  S   UNL     1       9.163 -22.806  -5.315  1.00  0.00     0.124 S 
ATOM     93  O   UNL     1       8.732 -23.186  -3.973  1.00  0.00    -0.237 OA
ATOM     94  O   UNL     1       8.155 -22.948  -6.363  1.00  0.00    -0.237 OA
ATOM     95  O   UNL     1      10.505 -23.249  -5.688  1.00  0.00    -0.744 OA
ENDBRANCH  91  92
ENDBRANCH  65  86
ENDBRANCH  39  40
ENDBRANCH  32  34
ENDBRANCH  31  32
ENDBRANCH  30  31
ENDBRANCH  29  30
ENDBRANCH  28  29
ENDBRANCH   1  28
TORSDOF 21
