REMARK SMILES Cc1c(NC(=O)c2cccc(-c3cc4ccccc4oc3=O)c2)cccc1C(=O)OCCOCCOC(=O)c1ccc(-c2c3nc(c(-c4ccc(S(=O)(=O)[O-])cc4)c4ccc([nH]4)c(-c4ccc(S(=O)(=O)[O-])cc4)c4nc(c(-c5ccc(S(=O)(=O)[O-])cc5)c5ccc2[nH]5)C=C4)C=C3)cc1
REMARK SMILES IDX 33 1 32 2 31 3 30 4 28 5 29 6 27 7 1 8 2 9 3 10 24 11 26 12
REMARK SMILES IDX 25 13 4 14 5 15 6 17 7 18 8 19 23 20 9 21 11 22 10 23 12 24
REMARK SMILES IDX 13 25 21 26 14 27 20 28 22 29 15 30 19 31 16 32 18 33 17 34
REMARK SMILES IDX 34 35 35 36 36 37 37 38 38 39 39 40 40 41 98 42 41 43 97 44
REMARK SMILES IDX 42 45 43 46 44 47 91 48 45 49 96 50 90 51 92 52 46 53 95 54
REMARK SMILES IDX 89 55 88 56 47 58 77 59 58 60 76 61 59 62 62 63 75 64 93 65
REMARK SMILES IDX 60 66 61 67 74 69 94 70 63 71 48 72 49 73 57 74 50 75 56 76
REMARK SMILES IDX 51 77 52 78 53 79 54 80 55 81 78 82 79 83 87 84 80 85 86 86
REMARK SMILES IDX 81 87 82 88 83 89 84 90 85 91 64 92 65 93 73 94 66 95 72 96
REMARK SMILES IDX 67 97 68 98 69 99 70 100 71 101
REMARK H PARENT 4 16 92 57 62 68
REMARK Flexibility Score: inf
ROOT
ATOM      1  O   UNL     1       1.014   3.526  -2.056  1.00  0.00    -0.374 OA
ENDROOT
BRANCH   1   2
ATOM      2  C   UNL     1       2.241   2.866  -2.327  1.00  0.00     0.202 C 
BRANCH   2   3
ATOM      3  C   UNL     1       2.759   2.422  -0.997  1.00  0.00     0.261 C 
BRANCH   3   4
ATOM      4  O   UNL     1       1.895   1.539  -0.230  1.00  0.00    -0.460 OA
BRANCH   4   5
ATOM      5  C   UNL     1       0.757   1.885   0.425  1.00  0.00     0.338 C 
ATOM      6  O   UNL     1       0.282   2.988   0.562  1.00  0.00    -0.246 OA
BRANCH   5   7
ATOM      7  C   UNL     1       0.029   0.623   0.808  1.00  0.00     0.065 A 
ATOM      8  C   UNL     1       2.085  -0.949   0.857  1.00  0.00     0.047 C 
ATOM      9  C   UNL     1       0.598  -0.675   0.875  1.00  0.00    -0.013 A 
ATOM     10  C   UNL     1      -0.280  -1.790   0.894  1.00  0.00     0.045 A 
ATOM     11  C   UNL     1      -1.663  -1.607   1.003  1.00  0.00     0.026 A 
ATOM     12  C   UNL     1      -1.367   0.777   0.927  1.00  0.00     0.016 A 
ATOM     13  C   UNL     1      -2.206  -0.328   1.034  1.00  0.00     0.003 A 
BRANCH  10  14
ATOM     14  N   UNL     1       0.276  -3.080   0.787  1.00  0.00    -0.322 N 
ATOM     15  C   UNL     1      -0.194  -4.255   0.252  1.00  0.00     0.255 C 
ATOM     16  H   UNL     1       1.179  -3.155   1.173  1.00  0.00     0.170 HD
ATOM     17  O   UNL     1       0.431  -5.294   0.480  1.00  0.00    -0.269 OA
BRANCH  15  18
ATOM     18  C   UNL     1      -1.350  -4.327  -0.684  1.00  0.00     0.040 A 
ATOM     19  C   UNL     1      -2.077  -5.518  -0.725  1.00  0.00     0.014 A 
ATOM     20  C   UNL     1      -1.637  -3.324  -1.620  1.00  0.00     0.022 A 
ATOM     21  C   UNL     1      -3.116  -5.678  -1.641  1.00  0.00     0.001 A 
ATOM     22  C   UNL     1      -2.666  -3.479  -2.572  1.00  0.00    -0.010 A 
ATOM     23  C   UNL     1      -3.413  -4.662  -2.549  1.00  0.00     0.009 A 
BRANCH  22  24
ATOM     24  C   UNL     1      -2.939  -2.550  -3.711  1.00  0.00     0.068 A 
ATOM     25  C   UNL     1      -2.810  -1.208  -3.655  1.00  0.00     0.028 A 
ATOM     26  C   UNL     1      -2.336  -2.991  -5.018  1.00  0.00     0.344 A 
ATOM     27  C   UNL     1      -1.384  -0.859  -3.608  1.00  0.00     0.018 A 
ATOM     28  O   UNL     1      -0.968  -2.716  -5.117  1.00  0.00    -0.422 OA
ATOM     29  O   UNL     1      -2.975  -3.581  -5.878  1.00  0.00    -0.246 OA
ATOM     30  C   UNL     1      -0.940   0.141  -2.787  1.00  0.00     0.012 A 
ATOM     31  C   UNL     1      -0.468  -1.710  -4.264  1.00  0.00     0.138 A 
ATOM     32  C   UNL     1       0.421   0.196  -2.568  1.00  0.00     0.001 A 
ATOM     33  C   UNL     1       0.899  -1.638  -4.033  1.00  0.00     0.048 A 
ATOM     34  C   UNL     1       1.348  -0.676  -3.147  1.00  0.00     0.004 A 
ENDBRANCH  22  24
ENDBRANCH  15  18
ENDBRANCH  10  14
ENDBRANCH   5   7
ENDBRANCH   4   5
ENDBRANCH   3   4
ENDBRANCH   2   3
ENDBRANCH   1   2
BRANCH   1  35
ATOM     35  C   UNL     1       0.238   3.919  -3.162  1.00  0.00     0.202 C 
BRANCH  35  36
ATOM     36  C   UNL     1       1.040   4.515  -4.322  1.00  0.00     0.261 C 
BRANCH  36  37
ATOM     37  O   UNL     1       1.461   5.886  -4.085  1.00  0.00    -0.460 OA
BRANCH  37  38
ATOM     38  C   UNL     1       2.726   6.141  -3.622  1.00  0.00     0.338 C 
ATOM     39  O   UNL     1       3.643   6.498  -4.343  1.00  0.00    -0.246 OA
BRANCH  38  40
ATOM     40  C   UNL     1       2.785   6.172  -2.131  1.00  0.00     0.060 A 
ATOM     41  C   UNL     1       3.981   5.981  -1.411  1.00  0.00     0.016 A 
ATOM     42  C   UNL     1       1.583   6.246  -1.444  1.00  0.00     0.016 A 
ATOM     43  C   UNL     1       3.946   5.712  -0.027  1.00  0.00     0.010 A 
ATOM     44  C   UNL     1       1.542   5.835  -0.132  1.00  0.00     0.010 A 
ATOM     45  C   UNL     1       2.712   5.560   0.599  1.00  0.00    -0.014 A 
BRANCH  45  46
ATOM     46  C   UNL     1       2.439   5.089   1.966  1.00  0.00     0.031 A 
ATOM     47  C   UNL     1       1.642   6.002   2.826  1.00  0.00     0.074 A 
ATOM     48  C   UNL     1       2.594   3.786   2.325  1.00  0.00     0.049 A 
ATOM     49  N   UNL     1       1.331   5.740   4.041  1.00  0.00    -0.248 NA
ATOM     50  C   UNL     1       1.135   7.312   2.402  1.00  0.00     0.031 C 
ATOM     51  C   UNL     1       1.864   3.020   3.342  1.00  0.00     0.029 A 
ATOM     52  N   UNL     1       3.461   2.825   1.811  1.00  0.00    -0.354 N 
ATOM     53  C   UNL     1       0.353   6.620   4.432  1.00  0.00     0.074 A 
ATOM     54  C   UNL     1       0.334   7.641   3.420  1.00  0.00     0.031 C 
ATOM     55  C   UNL     1       2.468   1.834   3.550  1.00  0.00     0.029 A 
ATOM     56  C   UNL     1       3.684   1.820   2.754  1.00  0.00     0.049 A 
ATOM     57  H   UNL     1       3.860   2.851   0.911  1.00  0.00     0.167 HD
ATOM     58  C   UNL     1      -0.394   6.290   5.519  1.00  0.00     0.031 A 
ATOM     59  C   UNL     1       4.958   1.555   3.146  1.00  0.00     0.031 A 
ATOM     60  C   UNL     1       0.170   5.104   6.180  1.00  0.00     0.049 A 
ATOM     61  C   UNL     1       5.046   2.063   4.556  1.00  0.00     0.074 A 
ATOM     62  C   UNL     1      -0.218   3.778   6.256  1.00  0.00     0.029 A 
ATOM     63  N   UNL     1       1.509   5.141   6.575  1.00  0.00    -0.354 N 
ATOM     64  N   UNL     1       4.260   3.008   5.006  1.00  0.00    -0.248 NA
ATOM     65  C   UNL     1       5.835   1.434   5.607  1.00  0.00     0.031 C 
ATOM     66  C   UNL     1       0.945   3.009   6.579  1.00  0.00     0.029 A 
ATOM     67  C   UNL     1       2.027   3.868   6.731  1.00  0.00     0.049 A 
ATOM     68  H   UNL     1       2.020   5.970   6.724  1.00  0.00     0.167 HD
ATOM     69  C   UNL     1       4.282   2.992   6.362  1.00  0.00     0.074 A 
ATOM     70  C   UNL     1       5.343   2.051   6.697  1.00  0.00     0.031 C 
ATOM     71  C   UNL     1       3.416   3.687   7.150  1.00  0.00     0.031 A 
BRANCH  58  72
ATOM     72  C   UNL     1      -1.711   6.928   5.898  1.00  0.00    -0.014 A 
ATOM     73  C   UNL     1      -2.389   6.463   7.042  1.00  0.00     0.010 A 
ATOM     74  C   UNL     1      -2.374   7.927   5.152  1.00  0.00     0.010 A 
ATOM     75  C   UNL     1      -3.643   6.967   7.425  1.00  0.00     0.020 A 
ATOM     76  C   UNL     1      -3.617   8.459   5.535  1.00  0.00     0.020 A 
ATOM     77  C   UNL     1      -4.248   7.971   6.672  1.00  0.00     0.054 A 
BRANCH  77  78
ATOM     78  S   UNL     1      -5.858   8.620   7.191  1.00  0.00     0.124 S 
ATOM     79  O   UNL     1      -6.718   7.444   7.082  1.00  0.00    -0.237 OA
ATOM     80  O   UNL     1      -5.589   9.081   8.550  1.00  0.00    -0.237 OA
ATOM     81  O   UNL     1      -6.136   9.679   6.223  1.00  0.00    -0.744 OA
ENDBRANCH  77  78
ENDBRANCH  58  72
BRANCH  59  82
ATOM     82  C   UNL     1       5.925   1.634   1.991  1.00  0.00    -0.014 A 
ATOM     83  C   UNL     1       5.908   0.535   1.092  1.00  0.00     0.010 A 
ATOM     84  C   UNL     1       6.372   2.873   1.489  1.00  0.00     0.010 A 
ATOM     85  C   UNL     1       6.142   0.706  -0.284  1.00  0.00     0.020 A 
ATOM     86  C   UNL     1       6.594   3.050   0.104  1.00  0.00     0.020 A 
ATOM     87  C   UNL     1       6.425   1.978  -0.780  1.00  0.00     0.054 A 
BRANCH  87  88
ATOM     88  S   UNL     1       6.246   2.273  -2.583  1.00  0.00     0.124 S 
ATOM     89  O   UNL     1       7.535   1.839  -3.104  1.00  0.00    -0.237 OA
ATOM     90  O   UNL     1       5.106   1.426  -2.944  1.00  0.00    -0.237 OA
ATOM     91  O   UNL     1       5.969   3.703  -2.659  1.00  0.00    -0.744 OA
ENDBRANCH  87  88
ENDBRANCH  59  82
BRANCH  71  92
ATOM     92  C   UNL     1       3.880   4.249   8.456  1.00  0.00    -0.014 A 
ATOM     93  C   UNL     1       5.245   4.385   8.762  1.00  0.00     0.010 A 
ATOM     94  C   UNL     1       2.947   4.835   9.336  1.00  0.00     0.010 A 
ATOM     95  C   UNL     1       5.660   4.968   9.953  1.00  0.00     0.020 A 
ATOM     96  C   UNL     1       3.357   5.487  10.495  1.00  0.00     0.020 A 
ATOM     97  C   UNL     1       4.709   5.503  10.818  1.00  0.00     0.054 A 
BRANCH  97  98
ATOM     98  S   UNL     1       5.269   6.225  12.369  1.00  0.00     0.124 S 
ATOM     99  O   UNL     1       5.474   5.032  13.187  1.00  0.00    -0.237 OA
ATOM    100  O   UNL     1       6.486   6.932  11.975  1.00  0.00    -0.237 OA
ATOM    101  O   UNL     1       4.158   7.081  12.771  1.00  0.00    -0.744 OA
ENDBRANCH  97  98
ENDBRANCH  71  92
ENDBRANCH  45  46
ENDBRANCH  38  40
ENDBRANCH  37  38
ENDBRANCH  36  37
ENDBRANCH  35  36
ENDBRANCH   1  35
TORSDOF 20
