REMARK SMILES COc1cc([C@H]2CC(c3ccc(S(C)(=O)=O)cc3)=NN2c2ccc(C(=O)OCCOCCOC(=O)c3ccc(-c4c5nc(c(-c6ccc(S(=O)(=O)[O-])cc6)c6ccc([nH]6)c(-c6ccc(S(=O)(=O)[O-])cc6)c6nc(c(-c7ccc(S(=O)(=O)[O-])cc7)c7ccc4[nH]7)C=C6)C=C5)cc3)cc2)cc(OC)c1OC
REMARK SMILES IDX 30 1 29 2 28 3 27 4 25 5 26 6 24 7 21 8 22 9 97 10 23 11
REMARK SMILES IDX 96 12 20 13 6 14 7 15 8 16 19 17 5 18 3 19 4 20 102 21 99 22
REMARK SMILES IDX 98 23 2 24 1 25 103 26 104 27 100 28 101 29 9 30 10 31 18 32
REMARK SMILES IDX 11 33 17 34 12 35 13 36 14 37 15 38 16 39 31 40 32 41 33 42
REMARK SMILES IDX 34 43 35 44 36 45 37 46 95 47 38 48 94 49 39 50 40 51 41 52
REMARK SMILES IDX 88 53 42 54 93 55 87 56 89 57 43 58 92 59 86 60 85 61 44 63
REMARK SMILES IDX 74 64 55 65 73 66 56 67 59 68 72 69 90 70 57 71 58 72 71 74
REMARK SMILES IDX 91 75 60 76 45 77 46 78 54 79 47 80 53 81 48 82 49 83 50 84
REMARK SMILES IDX 51 85 52 86 75 87 76 88 84 89 77 90 83 91 78 92 79 93 80 94
REMARK SMILES IDX 81 95 82 96 61 97 62 98 70 99 63 100 69 101 64 102 65 103
REMARK SMILES IDX 66 104 67 105 68 106
REMARK H PARENT 89 62 59 73
REMARK Flexibility Score: inf
ROOT
ATOM      1  O   UNL     1       3.288  -9.372   3.331  1.00  0.00    -0.374 OA
ENDROOT
BRANCH   1   2
ATOM      2  C   UNL     1       2.604  -8.629   4.342  1.00  0.00     0.202 C 
BRANCH   2   3
ATOM      3  C   UNL     1       2.548  -7.113   4.129  1.00  0.00     0.261 C 
BRANCH   3   4
ATOM      4  O   UNL     1       1.760  -6.786   2.973  1.00  0.00    -0.460 OA
BRANCH   4   5
ATOM      5  C   UNL     1       2.463  -6.331   1.908  1.00  0.00     0.338 C 
ATOM      6  O   UNL     1       3.649  -6.047   1.878  1.00  0.00    -0.246 OA
BRANCH   5   7
ATOM      7  C   UNL     1       1.618  -6.379   0.693  1.00  0.00     0.060 A 
ATOM      8  C   UNL     1       0.168  -6.336  -1.711  1.00  0.00     0.060 A 
ATOM      9  C   UNL     1       1.519  -6.705  -1.703  1.00  0.00     0.029 A 
ATOM     10  C   UNL     1      -0.469  -6.088  -0.485  1.00  0.00     0.029 A 
ATOM     11  C   UNL     1       2.248  -6.698  -0.515  1.00  0.00     0.018 A 
ATOM     12  C   UNL     1       0.246  -6.119   0.717  1.00  0.00     0.018 A 
BRANCH   8  13
ATOM     13  N   UNL     1      -0.484  -6.065  -2.918  1.00  0.00    -0.257 N 
ATOM     14  C   UNL     1      -0.824  -4.673  -3.279  1.00  0.00     0.144 C 
ATOM     15  C   UNL     1      -1.003  -4.758  -4.802  1.00  0.00     0.091 C 
ATOM     16  C   UNL     1      -0.647  -6.201  -5.040  1.00  0.00     0.071 C 
ATOM     17  N   UNL     1      -0.327  -6.890  -3.990  1.00  0.00    -0.176 NA
BRANCH  14  18
ATOM     18  C   UNL     1       0.232  -3.673  -2.810  1.00  0.00    -0.015 A 
ATOM     19  C   UNL     1       1.023  -2.114  -1.098  1.00  0.00     0.164 A 
ATOM     20  C   UNL     1      -0.002  -2.885  -1.674  1.00  0.00     0.056 A 
ATOM     21  C   UNL     1       2.324  -2.112  -1.632  1.00  0.00     0.203 A 
ATOM     22  C   UNL     1       2.556  -2.877  -2.795  1.00  0.00     0.164 A 
ATOM     23  C   UNL     1       1.516  -3.633  -3.369  1.00  0.00     0.056 A 
BRANCH  19  24
ATOM     24  O   UNL     1       0.720  -1.476   0.079  1.00  0.00    -0.493 OA
ATOM     25  C   UNL     1       0.036  -0.244  -0.146  1.00  0.00     0.278 C 
ENDBRANCH  19  24
BRANCH  21  26
ATOM     26  O   UNL     1       3.396  -1.423  -1.136  1.00  0.00    -0.490 OA
ATOM     27  C   UNL     1       3.313  -0.716   0.089  1.00  0.00     0.278 C 
ENDBRANCH  21  26
BRANCH  22  28
ATOM     28  O   UNL     1       3.726  -3.016  -3.505  1.00  0.00    -0.493 OA
ATOM     29  C   UNL     1       4.947  -2.639  -2.884  1.00  0.00     0.278 C 
ENDBRANCH  22  28
ENDBRANCH  14  18
BRANCH  16  30
ATOM     30  C   UNL     1      -0.739  -6.797  -6.385  1.00  0.00    -0.002 A 
ATOM     31  C   UNL     1      -1.452  -7.993  -6.531  1.00  0.00     0.011 A 
ATOM     32  C   UNL     1      -0.168  -6.173  -7.497  1.00  0.00     0.011 A 
ATOM     33  C   UNL     1      -1.627  -8.555  -7.798  1.00  0.00     0.021 A 
ATOM     34  C   UNL     1      -0.317  -6.748  -8.765  1.00  0.00     0.021 A 
ATOM     35  C   UNL     1      -1.052  -7.931  -8.909  1.00  0.00     0.067 A 
BRANCH  35  36
ATOM     36  S   UNL     1      -1.313  -8.625 -10.527  1.00  0.00     0.175 S 
ATOM     37  C   UNL     1      -0.604 -10.248 -10.442  1.00  0.00     0.163 C 
ATOM     38  O   UNL     1      -2.747  -8.761 -10.697  1.00  0.00    -0.224 OA
ATOM     39  O   UNL     1      -0.522  -7.855 -11.469  1.00  0.00    -0.224 OA
ENDBRANCH  35  36
ENDBRANCH  16  30
ENDBRANCH   8  13
ENDBRANCH   5   7
ENDBRANCH   4   5
ENDBRANCH   3   4
ENDBRANCH   2   3
ENDBRANCH   1   2
BRANCH   1  40
ATOM     40  C   UNL     1       2.533  -9.711   2.166  1.00  0.00     0.202 C 
BRANCH  40  41
ATOM     41  C   UNL     1       1.631 -10.944   2.287  1.00  0.00     0.261 C 
BRANCH  41  42
ATOM     42  O   UNL     1       0.529 -10.711   3.182  1.00  0.00    -0.460 OA
BRANCH  42  43
ATOM     43  C   UNL     1       0.612 -11.361   4.368  1.00  0.00     0.338 C 
ATOM     44  O   UNL     1       1.457 -12.172   4.706  1.00  0.00    -0.246 OA
BRANCH  43  45
ATOM     45  C   UNL     1      -0.392 -10.819   5.307  1.00  0.00     0.060 A 
ATOM     46  C   UNL     1       0.051 -10.466   6.588  1.00  0.00     0.016 A 
ATOM     47  C   UNL     1      -1.743 -10.711   4.970  1.00  0.00     0.016 A 
ATOM     48  C   UNL     1      -0.864 -10.054   7.555  1.00  0.00     0.010 A 
ATOM     49  C   UNL     1      -2.661 -10.303   5.945  1.00  0.00     0.010 A 
ATOM     50  C   UNL     1      -2.230 -10.006   7.250  1.00  0.00    -0.014 A 
BRANCH  50  51
ATOM     51  C   UNL     1      -3.215  -9.781   8.337  1.00  0.00     0.031 A 
ATOM     52  C   UNL     1      -3.924 -10.966   8.937  1.00  0.00     0.074 A 
ATOM     53  C   UNL     1      -3.448  -8.543   8.809  1.00  0.00     0.049 A 
ATOM     54  N   UNL     1      -4.827 -10.997   9.883  1.00  0.00    -0.248 NA
ATOM     55  C   UNL     1      -3.564 -12.290   8.403  1.00  0.00     0.031 C 
ATOM     56  C   UNL     1      -2.790  -7.323   8.346  1.00  0.00     0.029 A 
ATOM     57  N   UNL     1      -4.306  -8.112   9.790  1.00  0.00    -0.354 N 
ATOM     58  C   UNL     1      -5.146 -12.339  10.056  1.00  0.00     0.074 A 
ATOM     59  C   UNL     1      -4.363 -13.088   9.097  1.00  0.00     0.031 C 
ATOM     60  C   UNL     1      -3.267  -6.278   9.045  1.00  0.00     0.029 A 
ATOM     61  C   UNL     1      -4.287  -6.751   9.980  1.00  0.00     0.049 A 
ATOM     62  H   UNL     1      -4.880  -8.720  10.309  1.00  0.00     0.167 HD
ATOM     63  C   UNL     1      -6.008 -12.899  10.938  1.00  0.00     0.031 A 
ATOM     64  C   UNL     1      -5.018  -5.973  10.803  1.00  0.00     0.031 A 
ATOM     65  C   UNL     1      -6.798 -12.154  11.880  1.00  0.00     0.049 A 
ATOM     66  C   UNL     1      -6.030  -6.612  11.718  1.00  0.00     0.074 A 
ATOM     67  C   UNL     1      -7.700 -12.632  12.816  1.00  0.00     0.029 A 
ATOM     68  N   UNL     1      -6.786 -10.773  12.006  1.00  0.00    -0.354 N 
ATOM     69  N   UNL     1      -6.315  -7.883  11.873  1.00  0.00    -0.248 NA
ATOM     70  C   UNL     1      -6.814  -5.710  12.573  1.00  0.00     0.031 C 
ATOM     71  C   UNL     1      -8.270 -11.536  13.473  1.00  0.00     0.029 A 
ATOM     72  C   UNL     1      -7.681 -10.379  12.987  1.00  0.00     0.049 A 
ATOM     73  H   UNL     1      -6.225 -10.162  11.476  1.00  0.00     0.167 HD
ATOM     74  C   UNL     1      -7.290  -7.934  12.864  1.00  0.00     0.074 A 
ATOM     75  C   UNL     1      -7.539  -6.569  13.278  1.00  0.00     0.031 C 
ATOM     76  C   UNL     1      -7.920  -9.016  13.387  1.00  0.00     0.031 A 
BRANCH  63  77
ATOM     77  C   UNL     1      -6.162 -14.396  10.902  1.00  0.00    -0.014 A 
ATOM     78  C   UNL     1      -5.145 -15.243  11.379  1.00  0.00     0.010 A 
ATOM     79  C   UNL     1      -7.355 -14.964  10.419  1.00  0.00     0.010 A 
ATOM     80  C   UNL     1      -5.306 -16.631  11.343  1.00  0.00     0.020 A 
ATOM     81  C   UNL     1      -7.530 -16.350  10.405  1.00  0.00     0.020 A 
ATOM     82  C   UNL     1      -6.497 -17.176  10.852  1.00  0.00     0.054 A 
BRANCH  82  83
ATOM     83  S   UNL     1      -6.689 -18.980  10.838  1.00  0.00     0.124 S 
ATOM     84  O   UNL     1      -5.809 -19.367   9.738  1.00  0.00    -0.237 OA
ATOM     85  O   UNL     1      -6.232 -19.362  12.171  1.00  0.00    -0.237 OA
ATOM     86  O   UNL     1      -8.115 -19.175  10.591  1.00  0.00    -0.744 OA
ENDBRANCH  82  83
ENDBRANCH  63  77
BRANCH  64  87
ATOM     87  C   UNL     1      -4.829  -4.497  10.792  1.00  0.00    -0.014 A 
ATOM     88  C   UNL     1      -4.231  -3.844  11.884  1.00  0.00     0.010 A 
ATOM     89  C   UNL     1      -5.245  -3.737   9.684  1.00  0.00     0.010 A 
ATOM     90  C   UNL     1      -4.064  -2.456  11.873  1.00  0.00     0.020 A 
ATOM     91  C   UNL     1      -5.056  -2.352   9.659  1.00  0.00     0.020 A 
ATOM     92  C   UNL     1      -4.475  -1.719  10.758  1.00  0.00     0.054 A 
BRANCH  92  93
ATOM     93  S   UNL     1      -4.195   0.074  10.740  1.00  0.00     0.124 S 
ATOM     94  O   UNL     1      -5.221   0.550  11.663  1.00  0.00    -0.237 OA
ATOM     95  O   UNL     1      -2.817   0.184  11.212  1.00  0.00    -0.237 OA
ATOM     96  O   UNL     1      -4.395   0.436   9.339  1.00  0.00    -0.744 OA
ENDBRANCH  92  93
ENDBRANCH  64  87
BRANCH  76  97
ATOM     97  C   UNL     1      -8.915  -8.774  14.492  1.00  0.00    -0.014 A 
ATOM     98  C   UNL     1     -10.175  -8.208  14.229  1.00  0.00     0.010 A 
ATOM     99  C   UNL     1      -8.604  -9.174  15.805  1.00  0.00     0.010 A 
ATOM    100  C   UNL     1     -11.093  -8.018  15.265  1.00  0.00     0.020 A 
ATOM    101  C   UNL     1      -9.529  -9.009  16.838  1.00  0.00     0.020 A 
ATOM    102  C   UNL     1     -10.764  -8.418  16.564  1.00  0.00     0.054 A 
BRANCH 102 103
ATOM    103  S   UNL     1     -11.988  -8.199  17.885  1.00  0.00     0.124 S 
ATOM    104  O   UNL     1     -11.926  -6.759  18.120  1.00  0.00    -0.237 OA
ATOM    105  O   UNL     1     -13.220  -8.681  17.265  1.00  0.00    -0.237 OA
ATOM    106  O   UNL     1     -11.479  -9.031  18.972  1.00  0.00    -0.744 OA
ENDBRANCH 102 103
ENDBRANCH  76  97
ENDBRANCH  50  51
ENDBRANCH  43  45
ENDBRANCH  42  43
ENDBRANCH  41  42
ENDBRANCH  40  41
ENDBRANCH   1  40
TORSDOF 24
