REMARK SMILES O=C(OCCOCCOC(=O)c1ccc(-c2c3nc(c(-c4ccc(S(=O)(=O)[O-])cc4)c4ccc([nH]4)c(-c4ccc(S(=O)(=O)[O-])cc4)c4nc(c(-c5ccc(S(=O)(=O)[O-])cc5)c5ccc2[nH]5)C=C4)C=C3)cc1)C1=Cc2c(cc(Cl)c(Cl)c2Cl)O[C@H]1C(F)(F)F
REMARK SMILES IDX 7 1 6 2 5 3 4 4 3 5 2 6 1 7 72 8 73 9 84 10 74 11 83 12
REMARK SMILES IDX 75 13 81 14 76 15 79 16 82 17 77 18 80 19 78 20 85 21 86 22
REMARK SMILES IDX 87 23 88 24 8 25 9 26 10 27 11 28 12 29 13 30 71 31 14 32
REMARK SMILES IDX 70 33 15 34 16 35 17 36 64 37 18 38 69 39 63 40 65 41 19 42
REMARK SMILES IDX 68 43 62 44 61 45 20 47 50 48 31 49 49 50 32 51 35 52 48 53
REMARK SMILES IDX 66 54 33 55 34 56 47 58 67 59 36 60 21 61 22 62 30 63 23 64
REMARK SMILES IDX 29 65 24 66 25 67 26 68 27 69 28 70 51 71 52 72 60 73 53 74
REMARK SMILES IDX 59 75 54 76 55 77 56 78 57 79 58 80 37 81 38 82 46 83 39 84
REMARK SMILES IDX 45 85 40 86 41 87 42 88 43 89 44 90
REMARK H PARENT 65 46 35 57
REMARK Flexibility Score: inf
ROOT
ATOM      1  C   UNL     1       1.591   0.454  -3.285  1.00  0.00     0.202 C 
ENDROOT
BRANCH   1   2
ATOM      2  O   UNL     1       2.281   0.338  -2.044  1.00  0.00    -0.374 OA
BRANCH   2   3
ATOM      3  C   UNL     1       2.325  -1.002  -1.550  1.00  0.00     0.202 C 
BRANCH   3   4
ATOM      4  C   UNL     1       1.939  -1.073  -0.070  1.00  0.00     0.261 C 
BRANCH   4   5
ATOM      5  O   UNL     1       1.534   0.199   0.474  1.00  0.00    -0.460 OA
BRANCH   5   6
ATOM      6  C   UNL     1       2.338   1.211   0.871  1.00  0.00     0.338 C 
ATOM      7  O   UNL     1       1.845   2.191   1.429  1.00  0.00    -0.246 OA
BRANCH   6   8
ATOM      8  C   UNL     1       3.817   1.115   0.820  1.00  0.00     0.087 C 
ATOM      9  C   UNL     1       4.516   0.192   0.152  1.00  0.00     0.029 C 
ATOM     10  C   UNL     1       4.555   2.148   1.644  1.00  0.00     0.316 C 
ATOM     11  C   UNL     1       5.678  -0.337   0.853  1.00  0.00     0.038 A 
ATOM     12  O   UNL     1       5.971   1.837   1.872  1.00  0.00    -0.475 OA
ATOM     13  C   UNL     1       6.356   0.534   1.700  1.00  0.00     0.131 A 
ATOM     14  C   UNL     1       6.049  -1.698   0.786  1.00  0.00     0.072 A 
ATOM     15  C   UNL     1       7.469   0.086   2.399  1.00  0.00     0.069 A 
ATOM     16  C   UNL     1       7.144  -2.165   1.524  1.00  0.00     0.079 A 
ATOM     17  Cl  UNL     1       5.099  -2.815  -0.145  1.00  0.00    -0.082 Cl
ATOM     18  C   UNL     1       7.861  -1.256   2.314  1.00  0.00     0.064 A 
ATOM     19  Cl  UNL     1       7.589  -3.844   1.478  1.00  0.00    -0.081 Cl
ATOM     20  Cl  UNL     1       9.242  -1.733   3.239  1.00  0.00    -0.083 Cl
BRANCH  10  21
ATOM     21  C   UNL     1       4.431   3.557   0.996  1.00  0.00     0.430 C 
ATOM     22  F   UNL     1       3.661   3.575  -0.120  1.00  0.00    -0.167 F 
ATOM     23  F   UNL     1       3.906   4.456   1.863  1.00  0.00    -0.167 F 
ATOM     24  F   UNL     1       5.640   4.045   0.617  1.00  0.00    -0.167 F 
ENDBRANCH  10  21
ENDBRANCH   6   8
ENDBRANCH   5   6
ENDBRANCH   4   5
ENDBRANCH   3   4
ENDBRANCH   2   3
ENDBRANCH   1   2
BRANCH   1  25
ATOM     25  C   UNL     1       2.464   0.123  -4.499  1.00  0.00     0.261 C 
BRANCH  25  26
ATOM     26  O   UNL     1       3.055  -1.187  -4.398  1.00  0.00    -0.460 OA
BRANCH  26  27
ATOM     27  C   UNL     1       4.399  -1.222  -4.167  1.00  0.00     0.338 C 
ATOM     28  O   UNL     1       5.137  -0.263  -4.082  1.00  0.00    -0.246 OA
BRANCH  27  29
ATOM     29  C   UNL     1       4.854  -2.625  -3.923  1.00  0.00     0.060 A 
ATOM     30  C   UNL     1       6.147  -2.827  -3.414  1.00  0.00     0.016 A 
ATOM     31  C   UNL     1       4.035  -3.735  -4.160  1.00  0.00     0.016 A 
ATOM     32  C   UNL     1       6.615  -4.121  -3.143  1.00  0.00     0.010 A 
ATOM     33  C   UNL     1       4.504  -5.027  -3.892  1.00  0.00     0.010 A 
ATOM     34  C   UNL     1       5.802  -5.234  -3.395  1.00  0.00    -0.014 A 
BRANCH  34  35
ATOM     35  C   UNL     1       6.351  -6.615  -3.333  1.00  0.00     0.031 A 
ATOM     36  C   UNL     1       6.897  -7.217  -4.601  1.00  0.00     0.074 A 
ATOM     37  C   UNL     1       6.341  -7.346  -2.201  1.00  0.00     0.049 A 
ATOM     38  N   UNL     1       7.376  -8.415  -4.814  1.00  0.00    -0.248 NA
ATOM     39  C   UNL     1       6.891  -6.349  -5.790  1.00  0.00     0.031 C 
ATOM     40  C   UNL     1       5.870  -6.888  -0.896  1.00  0.00     0.029 A 
ATOM     41  N   UNL     1       6.735  -8.646  -1.976  1.00  0.00    -0.354 N 
ATOM     42  C   UNL     1       7.730  -8.446  -6.157  1.00  0.00     0.074 A 
ATOM     43  C   UNL     1       7.380  -7.159  -6.717  1.00  0.00     0.031 C 
ATOM     44  C   UNL     1       5.996  -7.893  -0.008  1.00  0.00     0.029 A 
ATOM     45  C   UNL     1       6.527  -9.077  -0.685  1.00  0.00     0.049 A 
ATOM     46  H   UNL     1       7.130  -9.216  -2.674  1.00  0.00     0.167 HD
ATOM     47  C   UNL     1       8.296  -9.450  -6.866  1.00  0.00     0.031 A 
ATOM     48  C   UNL     1       6.724 -10.288  -0.119  1.00  0.00     0.031 A 
ATOM     49  C   UNL     1       8.609 -10.747  -6.330  1.00  0.00     0.049 A 
ATOM     50  C   UNL     1       7.279 -11.421  -0.954  1.00  0.00     0.074 A 
ATOM     51  C   UNL     1       9.186 -11.826  -6.977  1.00  0.00     0.029 A 
ATOM     52  N   UNL     1       8.356 -11.149  -5.028  1.00  0.00    -0.354 N 
ATOM     53  N   UNL     1       7.652 -11.418  -2.212  1.00  0.00    -0.248 NA
ATOM     54  C   UNL     1       7.445 -12.723  -0.287  1.00  0.00     0.031 C 
ATOM     55  C   UNL     1       9.221 -12.902  -6.085  1.00  0.00     0.029 A 
ATOM     56  C   UNL     1       8.738 -12.470  -4.861  1.00  0.00     0.049 A 
ATOM     57  H   UNL     1       7.964 -10.581  -4.327  1.00  0.00     0.167 HD
ATOM     58  C   UNL     1       8.130 -12.701  -2.473  1.00  0.00     0.074 A 
ATOM     59  C   UNL     1       8.011 -13.450  -1.241  1.00  0.00     0.031 C 
ATOM     60  C   UNL     1       8.627 -13.210  -3.628  1.00  0.00     0.031 A 
BRANCH  47  61
ATOM     61  C   UNL     1       8.579  -9.191  -8.321  1.00  0.00    -0.014 A 
ATOM     62  C   UNL     1       9.599  -8.307  -8.717  1.00  0.00     0.010 A 
ATOM     63  C   UNL     1       7.835  -9.865  -9.306  1.00  0.00     0.010 A 
ATOM     64  C   UNL     1       9.842  -8.071 -10.072  1.00  0.00     0.020 A 
ATOM     65  C   UNL     1       8.096  -9.655 -10.662  1.00  0.00     0.020 A 
ATOM     66  C   UNL     1       9.088  -8.747 -11.036  1.00  0.00     0.054 A 
BRANCH  66  67
ATOM     67  S   UNL     1       9.442  -8.437 -12.787  1.00  0.00     0.124 S 
ATOM     68  O   UNL     1       8.943  -7.075 -12.958  1.00  0.00    -0.237 OA
ATOM     69  O   UNL     1      10.894  -8.586 -12.849  1.00  0.00    -0.237 OA
ATOM     70  O   UNL     1       8.681  -9.470 -13.484  1.00  0.00    -0.744 OA
ENDBRANCH  66  67
ENDBRANCH  47  61
BRANCH  48  71
ATOM     71  C   UNL     1       6.381 -10.522   1.317  1.00  0.00    -0.014 A 
ATOM     72  C   UNL     1       7.383 -10.815   2.260  1.00  0.00     0.010 A 
ATOM     73  C   UNL     1       5.039 -10.502   1.740  1.00  0.00     0.010 A 
ATOM     74  C   UNL     1       7.050 -11.111   3.587  1.00  0.00     0.020 A 
ATOM     75  C   UNL     1       4.704 -10.765   3.073  1.00  0.00     0.020 A 
ATOM     76  C   UNL     1       5.711 -11.083   3.986  1.00  0.00     0.054 A 
BRANCH  76  77
ATOM     77  S   UNL     1       5.303 -11.435   5.719  1.00  0.00     0.124 S 
ATOM     78  O   UNL     1       5.559 -12.869   5.808  1.00  0.00    -0.237 OA
ATOM     79  O   UNL     1       6.240 -10.579   6.443  1.00  0.00    -0.237 OA
ATOM     80  O   UNL     1       3.900 -11.041   5.828  1.00  0.00    -0.744 OA
ENDBRANCH  76  77
ENDBRANCH  48  71
BRANCH  60  81
ATOM     81  C   UNL     1       9.134 -14.631  -3.620  1.00  0.00    -0.014 A 
ATOM     82  C   UNL     1       8.260 -15.728  -3.523  1.00  0.00     0.010 A 
ATOM     83  C   UNL     1      10.511 -14.872  -3.791  1.00  0.00     0.010 A 
ATOM     84  C   UNL     1       8.756 -17.036  -3.570  1.00  0.00     0.020 A 
ATOM     85  C   UNL     1      11.007 -16.176  -3.870  1.00  0.00     0.020 A 
ATOM     86  C   UNL     1      10.126 -17.252  -3.746  1.00  0.00     0.054 A 
BRANCH  86  87
ATOM     87  S   UNL     1      10.737 -18.957  -3.856  1.00  0.00     0.124 S 
ATOM     88  O   UNL     1      10.594 -19.422  -2.479  1.00  0.00    -0.237 OA
ATOM     89  O   UNL     1       9.823 -19.562  -4.822  1.00  0.00    -0.237 OA
ATOM     90  O   UNL     1      12.114 -18.804  -4.321  1.00  0.00    -0.744 OA
ENDBRANCH  86  87
ENDBRANCH  60  81
ENDBRANCH  34  35
ENDBRANCH  27  29
ENDBRANCH  26  27
ENDBRANCH  25  26
ENDBRANCH   1  25
TORSDOF 18
