REMARK SMILES O=C1C[C@H](c2cn[nH]c2C(=O)OCCOCCOC(=O)c2ccc(-c3c4nc(c(-c5ccc(S(=O)(=O)[O-])cc5)c5ccc([nH]5)c(-c5ccc(S(=O)(=O)[O-])cc5)c5nc(c(-c6ccc(S(=O)(=O)[O-])cc6)c6ccc3[nH]6)C=C5)C=C4)cc2)c2c(-c3cccs3)n[nH]c2N1
REMARK SMILES IDX 16 1 15 2 14 3 13 4 12 5 10 6 11 7 9 8 5 9 6 10 7 11 8 12
REMARK SMILES IDX 4 14 1 15 2 16 3 17 91 18 90 19 81 21 89 22 82 23 88 24
REMARK SMILES IDX 83 26 84 27 87 28 85 29 86 30 17 31 18 32 19 33 20 34 21 35
REMARK SMILES IDX 22 36 80 37 23 38 79 39 24 40 25 41 26 42 73 43 27 44 78 45
REMARK SMILES IDX 72 46 74 47 28 48 77 49 71 50 70 51 29 53 59 54 40 55 58 56
REMARK SMILES IDX 41 57 44 58 57 59 75 60 42 61 43 62 56 64 76 65 45 66 30 67
REMARK SMILES IDX 31 68 39 69 32 70 38 71 33 72 34 73 35 74 36 75 37 76 60 77
REMARK SMILES IDX 61 78 69 79 62 80 68 81 63 82 64 83 65 84 66 85 67 86 46 87
REMARK SMILES IDX 47 88 55 89 48 90 54 91 49 92 50 93 51 94 52 95 53 96
REMARK H PARENT 8 13 91 20 89 25 74 52 44 63
REMARK Flexibility Score: inf
ROOT
ATOM      1  C   UNL     1       4.938  -1.763  -4.534  1.00  0.00     0.202 C 
ENDROOT
BRANCH   1   2
ATOM      2  O   UNL     1       5.933  -2.736  -4.234  1.00  0.00    -0.374 OA
BRANCH   2   3
ATOM      3  C   UNL     1       6.300  -2.952  -2.868  1.00  0.00     0.202 C 
BRANCH   3   4
ATOM      4  C   UNL     1       7.079  -1.822  -2.208  1.00  0.00     0.261 C 
BRANCH   4   5
ATOM      5  O   UNL     1       6.230  -0.683  -1.951  1.00  0.00    -0.459 OA
BRANCH   5   6
ATOM      6  C   UNL     1       6.596   0.463  -2.574  1.00  0.00     0.356 C 
ATOM      7  O   UNL     1       7.557   0.569  -3.327  1.00  0.00    -0.244 OA
BRANCH   6   8
ATOM      8  C   UNL     1       5.626   1.516  -2.415  1.00  0.00     0.147 A 
ATOM      9  C   UNL     1       4.754   2.012  -1.440  1.00  0.00     0.013 A 
ATOM     10  C   UNL     1       4.212   3.179  -2.067  1.00  0.00     0.140 A 
ATOM     11  N   UNL     1       4.641   3.371  -3.308  1.00  0.00    -0.183 NA
ATOM     12  N   UNL     1       5.488   2.361  -3.491  1.00  0.00    -0.271 N 
ATOM     13  H   UNL     1       5.980   2.228  -4.334  1.00  0.00     0.190 HD
BRANCH   9  14
ATOM     14  C   UNL     1       4.428   1.674   0.009  1.00  0.00     0.069 C 
ATOM     15  O   UNL     1       1.083   0.070   0.043  1.00  0.00    -0.275 OA
ATOM     16  C   UNL     1       2.277   0.225   0.293  1.00  0.00     0.226 C 
ATOM     17  C   UNL     1       2.903   1.610   0.272  1.00  0.00     0.114 C 
ATOM     18  N   UNL     1       3.047  -0.832   0.714  1.00  0.00    -0.311 N 
ATOM     19  C   UNL     1       4.393  -0.674   0.843  1.00  0.00     0.132 A 
ATOM     20  H   UNL     1       2.627  -1.699   0.920  1.00  0.00     0.171 HD
ATOM     21  C   UNL     1       5.085   0.470   0.572  1.00  0.00     0.031 A 
ATOM     22  N   UNL     1       5.301  -1.622   1.198  1.00  0.00    -0.262 N 
ATOM     23  C   UNL     1       6.422   0.155   0.902  1.00  0.00     0.108 A 
ATOM     24  N   UNL     1       6.566  -1.147   1.203  1.00  0.00    -0.173 NA
ATOM     25  H   UNL     1       5.063  -2.550   1.427  1.00  0.00     0.192 HD
BRANCH  23  26
ATOM     26  C   UNL     1       7.567   1.098   0.770  1.00  0.00     0.055 A 
ATOM     27  C   UNL     1       8.687   0.840   0.011  1.00  0.00     0.022 A 
ATOM     28  S   UNL     1       7.589   2.664   1.444  1.00  0.00    -0.142 S 
ATOM     29  C   UNL     1       9.508   1.998  -0.121  1.00  0.00     0.012 A 
ATOM     30  C   UNL     1       9.056   3.043   0.655  1.00  0.00     0.065 A 
ENDBRANCH  23  26
ENDBRANCH   9  14
ENDBRANCH   6   8
ENDBRANCH   5   6
ENDBRANCH   4   5
ENDBRANCH   3   4
ENDBRANCH   2   3
ENDBRANCH   1   2
BRANCH   1  31
ATOM     31  C   UNL     1       3.504  -2.123  -4.201  1.00  0.00     0.261 C 
BRANCH  31  32
ATOM     32  O   UNL     1       3.391  -2.562  -2.865  1.00  0.00    -0.460 OA
BRANCH  32  33
ATOM     33  C   UNL     1       3.250  -3.901  -2.708  1.00  0.00     0.338 C 
ATOM     34  O   UNL     1       3.635  -4.787  -3.434  1.00  0.00    -0.246 OA
BRANCH  33  35
ATOM     35  C   UNL     1       2.405  -4.066  -1.523  1.00  0.00     0.060 A 
ATOM     36  C   UNL     1       2.149  -5.343  -1.028  1.00  0.00     0.016 A 
ATOM     37  C   UNL     1       1.686  -2.945  -1.090  1.00  0.00     0.016 A 
ATOM     38  C   UNL     1       0.998  -5.515  -0.285  1.00  0.00     0.010 A 
ATOM     39  C   UNL     1       0.633  -3.097  -0.250  1.00  0.00     0.010 A 
ATOM     40  C   UNL     1       0.209  -4.389  -0.027  1.00  0.00    -0.014 A 
BRANCH  40  41
ATOM     41  C   UNL     1      -1.154  -4.497   0.417  1.00  0.00     0.031 A 
ATOM     42  C   UNL     1      -1.241  -4.819   1.848  1.00  0.00     0.074 A 
ATOM     43  C   UNL     1      -2.172  -4.084  -0.367  1.00  0.00     0.049 A 
ATOM     44  N   UNL     1      -1.415  -5.989   2.357  1.00  0.00    -0.248 NA
ATOM     45  C   UNL     1      -0.795  -3.800   2.814  1.00  0.00     0.031 C 
ATOM     46  C   UNL     1      -2.140  -3.394  -1.666  1.00  0.00     0.029 A 
ATOM     47  N   UNL     1      -3.492  -4.110  -0.092  1.00  0.00    -0.354 N 
ATOM     48  C   UNL     1      -1.394  -5.787   3.727  1.00  0.00     0.074 A 
ATOM     49  C   UNL     1      -0.726  -4.528   3.930  1.00  0.00     0.031 C 
ATOM     50  C   UNL     1      -3.361  -2.864  -1.926  1.00  0.00     0.029 A 
ATOM     51  C   UNL     1      -4.289  -3.314  -0.904  1.00  0.00     0.049 A 
ATOM     52  H   UNL     1      -3.866  -4.657   0.635  1.00  0.00     0.167 HD
ATOM     53  C   UNL     1      -2.213  -6.498   4.549  1.00  0.00     0.031 A 
ATOM     54  C   UNL     1      -5.600  -3.027  -0.685  1.00  0.00     0.031 A 
ATOM     55  C   UNL     1      -2.857  -7.574   3.832  1.00  0.00     0.049 A 
ATOM     56  C   UNL     1      -6.098  -4.055   0.276  1.00  0.00     0.074 A 
ATOM     57  C   UNL     1      -2.405  -8.688   3.154  1.00  0.00     0.029 A 
ATOM     58  N   UNL     1      -4.128  -7.323   3.358  1.00  0.00    -0.354 N 
ATOM     59  N   UNL     1      -6.155  -5.329  -0.013  1.00  0.00    -0.248 NA
ATOM     60  C   UNL     1      -6.007  -3.750   1.698  1.00  0.00     0.031 C 
ATOM     61  C   UNL     1      -3.225  -8.768   1.991  1.00  0.00     0.029 A 
ATOM     62  C   UNL     1      -4.197  -7.765   2.060  1.00  0.00     0.049 A 
ATOM     63  H   UNL     1      -4.860  -6.899   3.863  1.00  0.00     0.167 HD
ATOM     64  C   UNL     1      -5.691  -5.984   1.123  1.00  0.00     0.074 A 
ATOM     65  C   UNL     1      -5.684  -4.960   2.170  1.00  0.00     0.031 C 
ATOM     66  C   UNL     1      -5.062  -7.197   1.041  1.00  0.00     0.031 A 
BRANCH  53  67
ATOM     67  C   UNL     1      -2.760  -5.970   5.847  1.00  0.00    -0.014 A 
ATOM     68  C   UNL     1      -3.552  -6.829   6.631  1.00  0.00     0.010 A 
ATOM     69  C   UNL     1      -2.740  -4.606   6.207  1.00  0.00     0.010 A 
ATOM     70  C   UNL     1      -4.342  -6.334   7.673  1.00  0.00     0.020 A 
ATOM     71  C   UNL     1      -3.491  -4.109   7.271  1.00  0.00     0.020 A 
ATOM     72  C   UNL     1      -4.316  -4.972   7.976  1.00  0.00     0.054 A 
BRANCH  72  73
ATOM     73  S   UNL     1      -5.419  -4.329   9.252  1.00  0.00     0.124 S 
ATOM     74  O   UNL     1      -6.732  -4.568   8.661  1.00  0.00    -0.237 OA
ATOM     75  O   UNL     1      -5.077  -5.162  10.401  1.00  0.00    -0.237 OA
ATOM     76  O   UNL     1      -5.028  -2.925   9.367  1.00  0.00    -0.744 OA
ENDBRANCH  72  73
ENDBRANCH  53  67
BRANCH  54  77
ATOM     77  C   UNL     1      -6.301  -1.736  -0.933  1.00  0.00    -0.014 A 
ATOM     78  C   UNL     1      -7.707  -1.646  -0.951  1.00  0.00     0.010 A 
ATOM     79  C   UNL     1      -5.577  -0.526  -0.882  1.00  0.00     0.010 A 
ATOM     80  C   UNL     1      -8.359  -0.397  -0.879  1.00  0.00     0.020 A 
ATOM     81  C   UNL     1      -6.218   0.720  -0.809  1.00  0.00     0.020 A 
ATOM     82  C   UNL     1      -7.608   0.779  -0.789  1.00  0.00     0.054 A 
BRANCH  82  83
ATOM     83  S   UNL     1      -8.452   2.373  -0.539  1.00  0.00     0.124 S 
ATOM     84  O   UNL     1      -9.120   2.578  -1.821  1.00  0.00    -0.237 OA
ATOM     85  O   UNL     1      -9.331   2.096   0.593  1.00  0.00    -0.237 OA
ATOM     86  O   UNL     1      -7.359   3.303  -0.256  1.00  0.00    -0.744 OA
ENDBRANCH  82  83
ENDBRANCH  54  77
BRANCH  66  87
ATOM     87  C   UNL     1      -5.089  -7.941  -0.281  1.00  0.00    -0.014 A 
ATOM     88  C   UNL     1      -4.445  -7.499  -1.456  1.00  0.00     0.010 A 
ATOM     89  C   UNL     1      -5.624  -9.240  -0.264  1.00  0.00     0.010 A 
ATOM     90  C   UNL     1      -4.349  -8.338  -2.581  1.00  0.00     0.020 A 
ATOM     91  C   UNL     1      -5.516 -10.084  -1.371  1.00  0.00     0.020 A 
ATOM     92  C   UNL     1      -4.885  -9.629  -2.528  1.00  0.00     0.054 A 
BRANCH  92  93
ATOM     93  S   UNL     1      -4.710 -10.740  -3.955  1.00  0.00     0.124 S 
ATOM     94  O   UNL     1      -5.583 -10.120  -4.948  1.00  0.00    -0.237 OA
ATOM     95  O   UNL     1      -3.280 -10.675  -4.246  1.00  0.00    -0.237 OA
ATOM     96  O   UNL     1      -5.171 -12.032  -3.448  1.00  0.00    -0.744 OA
ENDBRANCH  92  93
ENDBRANCH  66  87
ENDBRANCH  40  41
ENDBRANCH  33  35
ENDBRANCH  32  33
ENDBRANCH  31  32
ENDBRANCH   1  31
TORSDOF 19
