REMARK SMILES Cc1ccccc1CCNS(=O)(=O)c1ccc(C(=O)OCCOCCOC(=O)c2ccc(-c3c4nc(c(-c5ccc(S(=O)(=O)[O-])cc5)c5ccc([nH]5)c(-c5ccc(S(=O)(=O)[O-])cc5)c5nc(c(-c6ccc(S(=O)(=O)[O-])cc6)c6ccc3[nH]6)C=C5)C=C4)cc2)o1
REMARK SMILES IDX 22 1 21 2 20 3 18 4 19 5 17 6 14 7 15 8 89 9 16 10 11 11
REMARK SMILES IDX 12 12 13 13 10 14 9 16 8 17 7 18 1 19 2 20 3 21 4 22 6 23
REMARK SMILES IDX 5 24 23 25 24 26 25 27 26 28 27 29 28 30 29 31 30 32 88 33
REMARK SMILES IDX 31 34 87 35 32 36 33 37 34 38 81 39 35 40 86 41 80 42 82 43
REMARK SMILES IDX 36 44 85 45 79 46 78 47 37 49 67 50 48 51 66 52 49 53 52 54
REMARK SMILES IDX 65 55 83 56 50 57 51 58 64 60 84 61 53 62 38 63 39 64 47 65
REMARK SMILES IDX 40 66 46 67 41 68 42 69 43 70 44 71 45 72 68 73 69 74 77 75
REMARK SMILES IDX 70 76 76 77 71 78 72 79 73 80 74 81 75 82 54 83 55 84 63 85
REMARK SMILES IDX 56 86 62 87 57 88 58 89 59 90 60 91 61 92
REMARK H PARENT 10 15 82 48 52 59
REMARK Flexibility Score: inf
ROOT
ATOM      1  C   UNL     1       2.821   9.001  -0.096  1.00  0.00     0.202 C 
ENDROOT
BRANCH   1   2
ATOM      2  C   UNL     1       2.599   9.537  -1.490  1.00  0.00     0.261 C 
BRANCH   2   3
ATOM      3  O   UNL     1       1.434   8.973  -2.097  1.00  0.00    -0.457 OA
BRANCH   3   4
ATOM      4  C   UNL     1       1.580   7.750  -2.693  1.00  0.00     0.374 C 
ATOM      5  O   UNL     1       2.611   7.152  -2.894  1.00  0.00    -0.242 OA
BRANCH   4   6
ATOM      6  C   UNL     1       0.248   7.225  -2.887  1.00  0.00     0.213 A 
ATOM      7  C   UNL     1      -1.208   5.558  -3.000  1.00  0.00     0.234 A 
ATOM      8  C   UNL     1      -1.931   6.737  -2.877  1.00  0.00     0.065 A 
ATOM      9  O   UNL     1       0.125   5.882  -3.064  1.00  0.00    -0.436 OA
ATOM     10  C   UNL     1      -1.003   7.799  -2.816  1.00  0.00     0.060 A 
BRANCH   7  11
ATOM     11  S   UNL     1      -1.712   3.854  -2.978  1.00  0.00     0.273 S 
ATOM     12  O   UNL     1      -1.072   3.207  -4.098  1.00  0.00    -0.204 OA
ATOM     13  O   UNL     1      -3.154   3.875  -2.834  1.00  0.00    -0.204 OA
BRANCH  11  14
ATOM     14  N   UNL     1      -1.112   3.151  -1.562  1.00  0.00    -0.208 NA
ATOM     15  H   UNL     1      -1.502   3.673  -0.776  1.00  0.00     0.141 HD
BRANCH  14  16
ATOM     16  C   UNL     1       0.366   3.107  -1.374  1.00  0.00     0.104 C 
BRANCH  16  17
ATOM     17  C   UNL     1       0.706   2.534   0.022  1.00  0.00     0.052 C 
BRANCH  17  18
ATOM     18  C   UNL     1       0.200   1.113   0.211  1.00  0.00    -0.044 A 
ATOM     19  C   UNL     1       2.468  -0.035  -0.221  1.00  0.00     0.044 C 
ATOM     20  C   UNL     1       0.978  -0.039  -0.014  1.00  0.00    -0.048 A 
ATOM     21  C   UNL     1       0.342  -1.296  -0.012  1.00  0.00     0.004 A 
ATOM     22  C   UNL     1      -1.028  -1.419   0.217  1.00  0.00     0.000 A 
ATOM     23  C   UNL     1      -1.165   0.957   0.532  1.00  0.00     0.004 A 
ATOM     24  C   UNL     1      -1.781  -0.291   0.509  1.00  0.00     0.000 A 
ENDBRANCH  17  18
ENDBRANCH  16  17
ENDBRANCH  14  16
ENDBRANCH  11  14
ENDBRANCH   7  11
ENDBRANCH   4   6
ENDBRANCH   3   4
ENDBRANCH   2   3
ENDBRANCH   1   2
BRANCH   1  25
ATOM     25  O   UNL     1       3.432   7.722  -0.264  1.00  0.00    -0.374 OA
BRANCH  25  26
ATOM     26  C   UNL     1       3.739   7.012   0.918  1.00  0.00     0.202 C 
BRANCH  26  27
ATOM     27  C   UNL     1       4.721   7.733   1.850  1.00  0.00     0.261 C 
BRANCH  27  28
ATOM     28  O   UNL     1       6.029   7.799   1.251  1.00  0.00    -0.460 OA
BRANCH  28  29
ATOM     29  C   UNL     1       6.398   9.036   0.810  1.00  0.00     0.338 C 
ATOM     30  O   UNL     1       6.689   9.966   1.541  1.00  0.00    -0.246 OA
BRANCH  29  31
ATOM     31  C   UNL     1       6.367   9.069  -0.677  1.00  0.00     0.060 A 
ATOM     32  C   UNL     1       6.271  10.287  -1.376  1.00  0.00     0.016 A 
ATOM     33  C   UNL     1       6.256   7.863  -1.365  1.00  0.00     0.016 A 
ATOM     34  C   UNL     1       5.976  10.293  -2.752  1.00  0.00     0.010 A 
ATOM     35  C   UNL     1       5.886   7.876  -2.692  1.00  0.00     0.010 A 
ATOM     36  C   UNL     1       5.742   9.080  -3.400  1.00  0.00    -0.014 A 
BRANCH  36  37
ATOM     37  C   UNL     1       5.250   8.886  -4.766  1.00  0.00     0.031 A 
ATOM     38  C   UNL     1       6.065   8.100  -5.728  1.00  0.00     0.074 A 
ATOM     39  C   UNL     1       3.949   9.102  -5.066  1.00  0.00     0.049 A 
ATOM     40  N   UNL     1       5.765   7.954  -6.974  1.00  0.00    -0.248 NA
ATOM     41  C   UNL     1       7.310   7.423  -5.371  1.00  0.00     0.031 C 
ATOM     42  C   UNL     1       3.144   8.378  -6.053  1.00  0.00     0.029 A 
ATOM     43  N   UNL     1       3.034   9.988  -4.549  1.00  0.00    -0.354 N 
ATOM     44  C   UNL     1       6.516   6.913  -7.465  1.00  0.00     0.074 A 
ATOM     45  C   UNL     1       7.532   6.685  -6.463  1.00  0.00     0.031 C 
ATOM     46  C   UNL     1       1.955   8.986  -6.192  1.00  0.00     0.029 A 
ATOM     47  C   UNL     1       1.994  10.222  -5.436  1.00  0.00     0.049 A 
ATOM     48  H   UNL     1       3.108  10.405  -3.660  1.00  0.00     0.167 HD
ATOM     49  C   UNL     1       6.109   6.280  -8.603  1.00  0.00     0.031 A 
ATOM     50  C   UNL     1       1.728  11.478  -5.902  1.00  0.00     0.031 A 
ATOM     51  C   UNL     1       4.883   6.879  -9.161  1.00  0.00     0.049 A 
ATOM     52  C   UNL     1       2.094  11.591  -7.375  1.00  0.00     0.074 A 
ATOM     53  C   UNL     1       3.561   6.480  -9.280  1.00  0.00     0.029 A 
ATOM     54  N   UNL     1       4.880   8.237  -9.452  1.00  0.00    -0.354 N 
ATOM     55  N   UNL     1       2.355  10.559  -8.133  1.00  0.00    -0.248 NA
ATOM     56  C   UNL     1       2.287  12.850  -8.093  1.00  0.00     0.031 C 
ATOM     57  C   UNL     1       2.778   7.617  -9.658  1.00  0.00     0.029 A 
ATOM     58  C   UNL     1       3.625   8.702  -9.801  1.00  0.00     0.049 A 
ATOM     59  H   UNL     1       5.683   8.806  -9.413  1.00  0.00     0.167 HD
ATOM     60  C   UNL     1       2.906  10.969  -9.310  1.00  0.00     0.074 A 
ATOM     61  C   UNL     1       2.782  12.418  -9.269  1.00  0.00     0.031 C 
ATOM     62  C   UNL     1       3.487  10.102 -10.193  1.00  0.00     0.031 A 
BRANCH  49  63
ATOM     63  C   UNL     1       6.723   4.990  -9.117  1.00  0.00    -0.014 A 
ATOM     64  C   UNL     1       6.013   4.182 -10.029  1.00  0.00     0.010 A 
ATOM     65  C   UNL     1       7.998   4.514  -8.749  1.00  0.00     0.010 A 
ATOM     66  C   UNL     1       6.515   2.951 -10.489  1.00  0.00     0.020 A 
ATOM     67  C   UNL     1       8.498   3.271  -9.167  1.00  0.00     0.020 A 
ATOM     68  C   UNL     1       7.751   2.493 -10.039  1.00  0.00     0.054 A 
BRANCH  68  69
ATOM     69  S   UNL     1       8.382   0.897 -10.620  1.00  0.00     0.124 S 
ATOM     70  O   UNL     1       7.314  -0.024 -10.240  1.00  0.00    -0.237 OA
ATOM     71  O   UNL     1       8.539   1.125 -12.053  1.00  0.00    -0.237 OA
ATOM     72  O   UNL     1       9.631   0.727  -9.880  1.00  0.00    -0.744 OA
ENDBRANCH  68  69
ENDBRANCH  49  63
BRANCH  50  73
ATOM     73  C   UNL     1       1.846  12.518  -4.826  1.00  0.00    -0.014 A 
ATOM     74  C   UNL     1       0.797  12.549  -3.875  1.00  0.00     0.010 A 
ATOM     75  C   UNL     1       3.097  13.040  -4.447  1.00  0.00     0.010 A 
ATOM     76  C   UNL     1       1.033  12.919  -2.543  1.00  0.00     0.020 A 
ATOM     77  C   UNL     1       3.340  13.402  -3.107  1.00  0.00     0.020 A 
ATOM     78  C   UNL     1       2.320  13.290  -2.153  1.00  0.00     0.054 A 
BRANCH  78  79
ATOM     79  S   UNL     1       2.740  13.281  -0.368  1.00  0.00     0.124 S 
ATOM     80  O   UNL     1       2.487  14.662   0.022  1.00  0.00    -0.237 OA
ATOM     81  O   UNL     1       1.818  12.288   0.185  1.00  0.00    -0.237 OA
ATOM     82  O   UNL     1       4.137  12.856  -0.374  1.00  0.00    -0.744 OA
ENDBRANCH  78  79
ENDBRANCH  50  73
BRANCH  62  83
ATOM     83  C   UNL     1       4.057  10.548 -11.511  1.00  0.00    -0.014 A 
ATOM     84  C   UNL     1       3.426  11.519 -12.303  1.00  0.00     0.010 A 
ATOM     85  C   UNL     1       5.202   9.919 -12.049  1.00  0.00     0.010 A 
ATOM     86  C   UNL     1       3.981  11.928 -13.521  1.00  0.00     0.020 A 
ATOM     87  C   UNL     1       5.750  10.299 -13.274  1.00  0.00     0.020 A 
ATOM     88  C   UNL     1       5.154  11.330 -13.986  1.00  0.00     0.054 A 
BRANCH  88  89
ATOM     89  S   UNL     1       5.879  11.897 -15.540  1.00  0.00     0.124 S 
ATOM     90  O   UNL     1       4.714  12.005 -16.416  1.00  0.00    -0.237 OA
ATOM     91  O   UNL     1       6.483  13.166 -15.140  1.00  0.00    -0.237 OA
ATOM     92  O   UNL     1       6.822  10.840 -15.892  1.00  0.00    -0.744 OA
ENDBRANCH  88  89
ENDBRANCH  62  83
ENDBRANCH  36  37
ENDBRANCH  29  31
ENDBRANCH  28  29
ENDBRANCH  27  28
ENDBRANCH  26  27
ENDBRANCH  25  26
ENDBRANCH   1  25
TORSDOF 22
