REMARK SMILES Cc1cc(C(=O)N[C@@H]2C(=O)N3C(C(=O)OCCOCCOC(=O)c4ccc(-c5c6nc(c(-c7ccc(S(=O)(=O)[O-])cc7)c7ccc([nH]7)c(-c7ccc(S(=O)(=O)[O-])cc7)c7nc(c(-c8ccc(S(=O)(=O)[O-])cc8)c8ccc5[nH]8)C=C7)C=C6)cc4)=C(CSc4nnc(C)s4)CS[C@H]23)n(C)n1
REMARK SMILES IDX 18 1 17 2 16 3 15 4 13 5 14 6 12 7 8 8 9 9 95 10 10 11 11 12
REMARK SMILES IDX 94 13 93 14 84 15 7 16 5 17 6 18 4 20 1 21 2 22 3 23 98 24
REMARK SMILES IDX 96 25 97 26 85 27 86 28 87 29 88 30 92 31 89 32 90 33 91 34
REMARK SMILES IDX 19 35 20 36 21 37 22 38 23 39 24 40 25 41 83 42 26 43 82 44
REMARK SMILES IDX 27 45 28 46 29 47 76 48 30 49 81 50 75 51 77 52 31 53 80 54
REMARK SMILES IDX 74 55 73 56 32 58 62 59 43 60 61 61 44 62 47 63 60 64 78 65
REMARK SMILES IDX 45 66 46 67 59 69 79 70 48 71 33 72 34 73 42 74 35 75 41 76
REMARK SMILES IDX 36 77 37 78 38 79 39 80 40 81 63 82 64 83 72 84 65 85 71 86
REMARK SMILES IDX 66 87 67 88 68 89 69 90 70 91 49 92 50 93 58 94 51 95 57 96
REMARK SMILES IDX 52 97 53 98 54 99 55 100 56 101
REMARK H PARENT 7 19 77 57 47 68
REMARK Flexibility Score: inf
ROOT
ATOM      1  O   UNL     1      -3.289   1.617  -1.236  1.00  0.00    -0.374 OA
ENDROOT
BRANCH   1   2
ATOM      2  C   UNL     1      -3.760   1.663  -2.582  1.00  0.00     0.202 C 
BRANCH   2   3
ATOM      3  C   UNL     1      -3.030   0.814  -3.620  1.00  0.00     0.261 C 
BRANCH   3   4
ATOM      4  O   UNL     1      -3.283  -0.583  -3.392  1.00  0.00    -0.459 OA
BRANCH   4   5
ATOM      5  C   UNL     1      -2.199  -1.307  -3.050  1.00  0.00     0.355 C 
ATOM      6  O   UNL     1      -1.039  -0.910  -3.063  1.00  0.00    -0.244 OA
BRANCH   5   7
ATOM      7  C   UNL     1      -2.528  -2.698  -2.599  1.00  0.00     0.132 C 
ATOM      8  C   UNL     1      -0.300  -4.113  -0.443  1.00  0.00     0.206 C 
ATOM      9  C   UNL     1      -1.093  -2.772  -0.506  1.00  0.00     0.253 C 
ATOM     10  C   UNL     1      -1.229  -4.536  -1.622  1.00  0.00     0.181 C 
ATOM     11  O   UNL     1      -1.197  -1.779   0.170  1.00  0.00    -0.272 OA
ATOM     12  N   UNL     1      -1.665  -3.176  -1.663  1.00  0.00    -0.289 N 
ATOM     13  S   UNL     1      -2.702  -5.520  -1.274  1.00  0.00    -0.129 SA
ATOM     14  C   UNL     1      -3.471  -5.041  -2.845  1.00  0.00     0.106 C 
ATOM     15  C   UNL     1      -3.450  -3.537  -3.141  1.00  0.00    -0.019 C 
BRANCH   8  16
ATOM     16  N   UNL     1      -0.292  -4.950   0.780  1.00  0.00    -0.336 N 
ATOM     17  C   UNL     1       0.032  -6.294   0.875  1.00  0.00     0.270 C 
ATOM     18  O   UNL     1      -0.004  -6.815   1.988  1.00  0.00    -0.268 OA
ATOM     19  H   UNL     1      -0.546  -4.501   1.619  1.00  0.00     0.164 HD
BRANCH  17  20
ATOM     20  C   UNL     1       0.326  -7.028  -0.342  1.00  0.00     0.126 A 
ATOM     21  C   UNL     1       0.411  -7.390  -3.967  1.00  0.00     0.069 C 
ATOM     22  C   UNL     1       0.461  -7.558  -2.494  1.00  0.00     0.060 A 
ATOM     23  C   UNL     1       0.925  -6.637  -1.531  1.00  0.00     0.059 A 
ATOM     24  N   UNL     1      -0.052  -8.638  -1.906  1.00  0.00    -0.178 NA
ATOM     25  N   UNL     1      -0.015  -8.341  -0.587  1.00  0.00    -0.263 N 
ATOM     26  C   UNL     1      -0.348  -9.393   0.343  1.00  0.00     0.174 C 
ENDBRANCH  17  20
ENDBRANCH   8  16
BRANCH  15  27
ATOM     27  C   UNL     1      -4.496  -3.164  -4.164  1.00  0.00     0.111 C 
BRANCH  27  28
ATOM     28  S   UNL     1      -6.007  -2.394  -3.533  1.00  0.00    -0.089 SA
BRANCH  28  29
ATOM     29  C   UNL     1      -6.498  -3.227  -2.078  1.00  0.00     0.174 A 
ATOM     30  N   UNL     1      -5.750  -4.066  -1.403  1.00  0.00    -0.132 NA
ATOM     31  S   UNL     1      -8.005  -2.922  -1.313  1.00  0.00    -0.091 S 
ATOM     32  N   UNL     1      -6.279  -4.394  -0.170  1.00  0.00    -0.143 NA
ATOM     33  C   UNL     1      -7.414  -3.769   0.052  1.00  0.00     0.115 A 
ATOM     34  C   UNL     1      -8.137  -3.732   1.348  1.00  0.00     0.081 C 
ENDBRANCH  28  29
ENDBRANCH  27  28
ENDBRANCH  15  27
ENDBRANCH   5   7
ENDBRANCH   4   5
ENDBRANCH   3   4
ENDBRANCH   2   3
ENDBRANCH   1   2
BRANCH   1  35
ATOM     35  C   UNL     1      -3.487   0.416  -0.493  1.00  0.00     0.202 C 
BRANCH  35  36
ATOM     36  C   UNL     1      -4.895   0.103   0.033  1.00  0.00     0.261 C 
BRANCH  36  37
ATOM     37  O   UNL     1      -5.925   0.178  -0.962  1.00  0.00    -0.460 OA
BRANCH  37  38
ATOM     38  C   UNL     1      -6.632   1.338  -0.963  1.00  0.00     0.338 C 
ATOM     39  O   UNL     1      -6.518   2.278  -0.198  1.00  0.00    -0.246 OA
BRANCH  38  40
ATOM     40  C   UNL     1      -7.496   1.364  -2.157  1.00  0.00     0.060 A 
ATOM     41  C   UNL     1      -7.310   2.366  -3.113  1.00  0.00     0.016 A 
ATOM     42  C   UNL     1      -8.517   0.430  -2.306  1.00  0.00     0.016 A 
ATOM     43  C   UNL     1      -8.164   2.442  -4.214  1.00  0.00     0.010 A 
ATOM     44  C   UNL     1      -9.336   0.470  -3.432  1.00  0.00     0.010 A 
ATOM     45  C   UNL     1      -9.200   1.509  -4.367  1.00  0.00    -0.014 A 
BRANCH  45  46
ATOM     46  C   UNL     1     -10.253   1.710  -5.394  1.00  0.00     0.031 A 
ATOM     47  C   UNL     1     -11.643   2.082  -4.945  1.00  0.00     0.074 A 
ATOM     48  C   UNL     1      -9.979   1.566  -6.704  1.00  0.00     0.049 A 
ATOM     49  N   UNL     1     -12.726   2.258  -5.657  1.00  0.00    -0.248 NA
ATOM     50  C   UNL     1     -11.846   2.260  -3.496  1.00  0.00     0.031 C 
ATOM     51  C   UNL     1      -8.673   1.221  -7.265  1.00  0.00     0.029 A 
ATOM     52  N   UNL     1     -10.793   1.691  -7.802  1.00  0.00    -0.354 N 
ATOM     53  C   UNL     1     -13.736   2.543  -4.745  1.00  0.00     0.074 A 
ATOM     54  C   UNL     1     -13.151   2.465  -3.426  1.00  0.00     0.031 C 
ATOM     55  C   UNL     1      -8.772   1.175  -8.605  1.00  0.00     0.029 A 
ATOM     56  C   UNL     1     -10.154   1.445  -8.994  1.00  0.00     0.049 A 
ATOM     57  H   UNL     1     -11.745   1.934  -7.742  1.00  0.00     0.167 HD
ATOM     58  C   UNL     1     -15.031   2.862  -4.981  1.00  0.00     0.031 A 
ATOM     59  C   UNL     1     -10.633   1.426 -10.254  1.00  0.00     0.031 A 
ATOM     60  C   UNL     1     -15.606   2.947  -6.296  1.00  0.00     0.049 A 
ATOM     61  C   UNL     1     -12.088   1.736 -10.492  1.00  0.00     0.074 A 
ATOM     62  C   UNL     1     -16.896   3.300  -6.649  1.00  0.00     0.029 A 
ATOM     63  N   UNL     1     -14.928   2.672  -7.475  1.00  0.00    -0.354 N 
ATOM     64  N   UNL     1     -13.019   2.046  -9.621  1.00  0.00    -0.248 NA
ATOM     65  C   UNL     1     -12.553   1.705 -11.886  1.00  0.00     0.031 C 
ATOM     66  C   UNL     1     -17.017   3.174  -8.036  1.00  0.00     0.029 A 
ATOM     67  C   UNL     1     -15.782   2.817  -8.555  1.00  0.00     0.049 A 
ATOM     68  H   UNL     1     -13.980   2.413  -7.535  1.00  0.00     0.167 HD
ATOM     69  C   UNL     1     -14.172   2.276 -10.364  1.00  0.00     0.074 A 
ATOM     70  C   UNL     1     -13.817   2.084 -11.755  1.00  0.00     0.031 C 
ATOM     71  C   UNL     1     -15.413   2.620  -9.935  1.00  0.00     0.031 A 
BRANCH  58  72
ATOM     72  C   UNL     1     -15.916   3.118  -3.788  1.00  0.00    -0.014 A 
ATOM     73  C   UNL     1     -15.729   4.242  -2.962  1.00  0.00     0.010 A 
ATOM     74  C   UNL     1     -16.972   2.232  -3.503  1.00  0.00     0.010 A 
ATOM     75  C   UNL     1     -16.549   4.449  -1.849  1.00  0.00     0.020 A 
ATOM     76  C   UNL     1     -17.816   2.454  -2.411  1.00  0.00     0.020 A 
ATOM     77  C   UNL     1     -17.587   3.552  -1.580  1.00  0.00     0.054 A 
BRANCH  77  78
ATOM     78  S   UNL     1     -18.645   3.856  -0.139  1.00  0.00     0.124 S 
ATOM     79  O   UNL     1     -17.740   3.557   0.968  1.00  0.00    -0.237 OA
ATOM     80  O   UNL     1     -19.002   5.263  -0.297  1.00  0.00    -0.237 OA
ATOM     81  O   UNL     1     -19.748   2.913  -0.312  1.00  0.00    -0.744 OA
ENDBRANCH  77  78
ENDBRANCH  58  72
BRANCH  59  82
ATOM     82  C   UNL     1      -9.723   1.101 -11.388  1.00  0.00    -0.014 A 
ATOM     83  C   UNL     1      -9.369   2.084 -12.329  1.00  0.00     0.010 A 
ATOM     84  C   UNL     1      -9.193  -0.196 -11.525  1.00  0.00     0.010 A 
ATOM     85  C   UNL     1      -8.511   1.775 -13.390  1.00  0.00     0.020 A 
ATOM     86  C   UNL     1      -8.311  -0.500 -12.565  1.00  0.00     0.020 A 
ATOM     87  C   UNL     1      -7.982   0.486 -13.496  1.00  0.00     0.054 A 
BRANCH  87  88
ATOM     88  S   UNL     1      -6.819   0.127 -14.842  1.00  0.00     0.124 S 
ATOM     89  O   UNL     1      -7.692   0.141 -16.011  1.00  0.00    -0.237 OA
ATOM     90  O   UNL     1      -5.874   1.236 -14.743  1.00  0.00    -0.237 OA
ATOM     91  O   UNL     1      -6.273  -1.180 -14.482  1.00  0.00    -0.744 OA
ENDBRANCH  87  88
ENDBRANCH  59  82
BRANCH  71  92
ATOM     92  C   UNL     1     -16.474   2.850 -10.979  1.00  0.00    -0.014 A 
ATOM     93  C   UNL     1     -17.019   1.786 -11.720  1.00  0.00     0.010 A 
ATOM     94  C   UNL     1     -16.979   4.150 -11.175  1.00  0.00     0.010 A 
ATOM     95  C   UNL     1     -18.025   2.023 -12.660  1.00  0.00     0.020 A 
ATOM     96  C   UNL     1     -18.008   4.385 -12.090  1.00  0.00     0.020 A 
ATOM     97  C   UNL     1     -18.515   3.321 -12.837  1.00  0.00     0.054 A 
BRANCH  97  98
ATOM     98  S   UNL     1     -19.854   3.592 -14.031  1.00  0.00     0.124 S 
ATOM     99  O   UNL     1     -19.166   3.406 -15.306  1.00  0.00    -0.237 OA
ATOM    100  O   UNL     1     -20.813   2.550 -13.676  1.00  0.00    -0.237 OA
ATOM    101  O   UNL     1     -20.295   4.957 -13.754  1.00  0.00    -0.744 OA
ENDBRANCH  97  98
ENDBRANCH  71  92
ENDBRANCH  45  46
ENDBRANCH  38  40
ENDBRANCH  37  38
ENDBRANCH  36  37
ENDBRANCH  35  36
ENDBRANCH   1  35
TORSDOF 22
