REMARK SMILES C[C@@H]1CCc2nc(NC(=O)[C@H]3CC=CC[C@@H]3C(=O)OCCOCCOC(=O)c3ccc(-c4c5nc(c(-c6ccc(S(=O)(=O)[O-])cc6)c6ccc([nH]6)c(-c6ccc(S(=O)(=O)[O-])cc6)c6nc(c(-c7ccc(S(=O)(=O)[O-])cc7)c7ccc4[nH]7)C=C6)C=C5)cc3)sc2C1
REMARK SMILES IDX 23 1 22 2 21 3 20 4 19 5 17 6 18 7 16 8 11 9 12 10 13 11
REMARK SMILES IDX 15 12 14 13 9 14 8 15 10 17 7 18 1 19 2 20 3 21 90 22 4 23
REMARK SMILES IDX 89 24 5 25 88 26 6 27 24 28 25 29 26 30 27 31 28 32 29 33
REMARK SMILES IDX 87 34 30 35 86 36 31 37 32 38 33 39 80 40 34 41 85 42 79 43
REMARK SMILES IDX 81 44 35 45 84 46 78 47 77 48 36 50 66 51 47 52 65 53 48 54
REMARK SMILES IDX 51 55 64 56 82 57 49 58 50 59 63 61 83 62 52 63 37 64 38 65
REMARK SMILES IDX 46 66 39 67 45 68 40 69 41 70 42 71 43 72 44 73 67 74 68 75
REMARK SMILES IDX 76 76 69 77 75 78 70 79 71 80 72 81 73 82 74 83 53 84 54 85
REMARK SMILES IDX 62 86 55 87 61 88 56 89 57 90 58 91 59 92 60 93
REMARK H PARENT 8 16 81 49 51 60
REMARK Flexibility Score: inf
ROOT
ATOM      1  C   UNL     1      -5.997   2.060   2.536  1.00  0.00     0.202 C 
ENDROOT
BRANCH   1   2
ATOM      2  O   UNL     1      -5.722   2.095   3.932  1.00  0.00    -0.374 OA
BRANCH   2   3
ATOM      3  C   UNL     1      -6.115   3.201   4.740  1.00  0.00     0.202 C 
BRANCH   3   4
ATOM      4  C   UNL     1      -5.469   4.577   4.544  1.00  0.00     0.261 C 
BRANCH   4   5
ATOM      5  O   UNL     1      -5.454   5.037   3.187  1.00  0.00    -0.463 OA
BRANCH   5   6
ATOM      6  C   UNL     1      -4.277   4.771   2.558  1.00  0.00     0.310 C 
ATOM      7  O   UNL     1      -3.337   4.197   3.094  1.00  0.00    -0.252 OA
BRANCH   6   8
ATOM      8  C   UNL     1      -4.307   5.191   1.090  1.00  0.00     0.116 C 
ATOM      9  C   UNL     1      -3.444   4.186   0.288  1.00  0.00     0.097 C 
ATOM     10  C   UNL     1      -1.940   4.313   0.631  1.00  0.00     0.041 C 
ATOM     11  C   UNL     1      -1.500   5.687   1.050  1.00  0.00    -0.030 C 
ATOM     12  C   UNL     1      -3.811   6.630   0.982  1.00  0.00     0.043 C 
ATOM     13  C   UNL     1      -2.328   6.733   1.181  1.00  0.00    -0.030 C 
BRANCH   9  14
ATOM     14  C   UNL     1      -3.656   4.245  -1.228  1.00  0.00     0.230 C 
ATOM     15  N   UNL     1      -3.078   3.339  -2.076  1.00  0.00    -0.302 N 
ATOM     16  H   UNL     1      -3.127   3.588  -3.027  1.00  0.00     0.172 HD
ATOM     17  O   UNL     1      -4.307   5.163  -1.737  1.00  0.00    -0.274 OA
BRANCH  15  18
ATOM     18  C   UNL     1      -2.442   2.146  -1.841  1.00  0.00     0.189 A 
ATOM     19  C   UNL     1       1.519  -0.217   0.096  1.00  0.00     0.008 C 
ATOM     20  C   UNL     1       0.488  -1.250  -0.381  1.00  0.00    -0.009 C 
ATOM     21  C   UNL     1       0.551  -1.454  -1.916  1.00  0.00     0.010 C 
ATOM     22  C   UNL     1      -0.946  -0.863   0.051  1.00  0.00     0.052 C 
ATOM     23  C   UNL     1       0.164  -0.197  -2.726  1.00  0.00     0.058 C 
ATOM     24  C   UNL     1      -1.478   0.191  -0.854  1.00  0.00     0.030 A 
ATOM     25  C   UNL     1      -0.990   0.515  -2.102  1.00  0.00     0.057 A 
ATOM     26  S   UNL     1      -2.795   1.177  -0.478  1.00  0.00    -0.101 S 
ATOM     27  N   UNL     1      -1.577   1.625  -2.685  1.00  0.00    -0.225 NA
ENDBRANCH  15  18
ENDBRANCH   9  14
ENDBRANCH   6   8
ENDBRANCH   5   6
ENDBRANCH   4   5
ENDBRANCH   3   4
ENDBRANCH   2   3
ENDBRANCH   1   2
BRANCH   1  28
ATOM     28  C   UNL     1      -7.432   2.053   2.038  1.00  0.00     0.261 C 
BRANCH  28  29
ATOM     29  O   UNL     1      -8.142   3.193   2.484  1.00  0.00    -0.460 OA
BRANCH  29  30
ATOM     30  C   UNL     1      -8.997   2.924   3.498  1.00  0.00     0.338 C 
ATOM     31  O   UNL     1      -9.024   1.927   4.193  1.00  0.00    -0.246 OA
BRANCH  30  32
ATOM     32  C   UNL     1     -10.005   3.984   3.545  1.00  0.00     0.060 A 
ATOM     33  C   UNL     1     -11.012   3.811   4.494  1.00  0.00     0.016 A 
ATOM     34  C   UNL     1     -10.139   4.840   2.443  1.00  0.00     0.016 A 
ATOM     35  C   UNL     1     -12.266   4.267   4.178  1.00  0.00     0.010 A 
ATOM     36  C   UNL     1     -11.396   5.273   2.119  1.00  0.00     0.010 A 
ATOM     37  C   UNL     1     -12.451   4.886   2.938  1.00  0.00    -0.014 A 
BRANCH  37  38
ATOM     38  C   UNL     1     -13.794   5.228   2.544  1.00  0.00     0.031 A 
ATOM     39  C   UNL     1     -14.250   6.457   3.217  1.00  0.00     0.074 A 
ATOM     40  C   UNL     1     -14.469   4.556   1.596  1.00  0.00     0.049 A 
ATOM     41  N   UNL     1     -15.008   6.537   4.258  1.00  0.00    -0.248 NA
ATOM     42  C   UNL     1     -13.565   7.713   2.865  1.00  0.00     0.031 C 
ATOM     43  C   UNL     1     -13.983   3.523   0.677  1.00  0.00     0.029 A 
ATOM     44  N   UNL     1     -15.745   4.748   1.183  1.00  0.00    -0.354 N 
ATOM     45  C   UNL     1     -15.105   7.896   4.517  1.00  0.00     0.074 A 
ATOM     46  C   UNL     1     -13.995   8.513   3.840  1.00  0.00     0.031 C 
ATOM     47  C   UNL     1     -14.877   3.372  -0.331  1.00  0.00     0.029 A 
ATOM     48  C   UNL     1     -16.048   4.188  -0.050  1.00  0.00     0.049 A 
ATOM     49  H   UNL     1     -16.406   5.246   1.717  1.00  0.00     0.167 HD
ATOM     50  C   UNL     1     -16.272   8.444   4.952  1.00  0.00     0.031 A 
ATOM     51  C   UNL     1     -17.151   4.458  -0.797  1.00  0.00     0.031 A 
ATOM     52  C   UNL     1     -17.186   7.433   5.425  1.00  0.00     0.049 A 
ATOM     53  C   UNL     1     -18.157   5.059   0.121  1.00  0.00     0.074 A 
ATOM     54  C   UNL     1     -17.142   6.467   6.410  1.00  0.00     0.029 A 
ATOM     55  N   UNL     1     -18.184   7.052   4.557  1.00  0.00    -0.354 N 
ATOM     56  N   UNL     1     -18.710   4.403   1.104  1.00  0.00    -0.248 NA
ATOM     57  C   UNL     1     -18.176   6.508   0.256  1.00  0.00     0.031 C 
ATOM     58  C   UNL     1     -17.799   5.333   5.848  1.00  0.00     0.029 A 
ATOM     59  C   UNL     1     -18.278   5.684   4.583  1.00  0.00     0.049 A 
ATOM     60  H   UNL     1     -18.737   7.658   4.011  1.00  0.00     0.167 HD
ATOM     61  C   UNL     1     -18.750   5.304   2.160  1.00  0.00     0.074 A 
ATOM     62  C   UNL     1     -18.489   6.609   1.552  1.00  0.00     0.031 C 
ATOM     63  C   UNL     1     -18.701   4.875   3.457  1.00  0.00     0.031 A 
BRANCH  50  64
ATOM     64  C   UNL     1     -16.742   9.808   4.507  1.00  0.00    -0.014 A 
ATOM     65  C   UNL     1     -17.943  10.311   5.038  1.00  0.00     0.010 A 
ATOM     66  C   UNL     1     -16.197  10.492   3.399  1.00  0.00     0.010 A 
ATOM     67  C   UNL     1     -18.594  11.401   4.447  1.00  0.00     0.020 A 
ATOM     68  C   UNL     1     -16.811  11.607   2.832  1.00  0.00     0.020 A 
ATOM     69  C   UNL     1     -18.025  12.035   3.341  1.00  0.00     0.054 A 
BRANCH  69  70
ATOM     70  S   UNL     1     -18.912  13.385   2.533  1.00  0.00     0.124 S 
ATOM     71  O   UNL     1     -20.085  12.697   2.003  1.00  0.00    -0.237 OA
ATOM     72  O   UNL     1     -19.157  14.298   3.645  1.00  0.00    -0.237 OA
ATOM     73  O   UNL     1     -17.961  13.867   1.533  1.00  0.00    -0.744 OA
ENDBRANCH  69  70
ENDBRANCH  50  64
BRANCH  51  74
ATOM     74  C   UNL     1     -17.242   4.599  -2.276  1.00  0.00    -0.014 A 
ATOM     75  C   UNL     1     -18.491   4.687  -2.924  1.00  0.00     0.010 A 
ATOM     76  C   UNL     1     -16.098   4.946  -3.023  1.00  0.00     0.010 A 
ATOM     77  C   UNL     1     -18.594   5.163  -4.245  1.00  0.00     0.020 A 
ATOM     78  C   UNL     1     -16.192   5.417  -4.340  1.00  0.00     0.020 A 
ATOM     79  C   UNL     1     -17.442   5.546  -4.938  1.00  0.00     0.054 A 
BRANCH  79  80
ATOM     80  S   UNL     1     -17.594   6.329  -6.574  1.00  0.00     0.124 S 
ATOM     81  O   UNL     1     -18.022   5.215  -7.414  1.00  0.00    -0.237 OA
ATOM     82  O   UNL     1     -18.596   7.365  -6.340  1.00  0.00    -0.237 OA
ATOM     83  O   UNL     1     -16.245   6.826  -6.843  1.00  0.00    -0.744 OA
ENDBRANCH  79  80
ENDBRANCH  51  74
BRANCH  63  84
ATOM     84  C   UNL     1     -18.911   3.403   3.735  1.00  0.00    -0.014 A 
ATOM     85  C   UNL     1     -18.059   2.377   3.277  1.00  0.00     0.010 A 
ATOM     86  C   UNL     1     -19.940   3.067   4.631  1.00  0.00     0.010 A 
ATOM     87  C   UNL     1     -18.255   1.047   3.689  1.00  0.00     0.020 A 
ATOM     88  C   UNL     1     -20.128   1.751   5.058  1.00  0.00     0.020 A 
ATOM     89  C   UNL     1     -19.291   0.744   4.579  1.00  0.00     0.054 A 
BRANCH  89  90
ATOM     90  S   UNL     1     -19.525  -0.966   5.141  1.00  0.00     0.124 S 
ATOM     91  O   UNL     1     -19.970  -1.642   3.926  1.00  0.00    -0.237 OA
ATOM     92  O   UNL     1     -18.195  -1.337   5.618  1.00  0.00    -0.237 OA
ATOM     93  O   UNL     1     -20.539  -0.852   6.190  1.00  0.00    -0.744 OA
ENDBRANCH  89  90
ENDBRANCH  63  84
ENDBRANCH  37  38
ENDBRANCH  30  32
ENDBRANCH  29  30
ENDBRANCH  28  29
ENDBRANCH   1  28
TORSDOF 19
