REMARK SMILES O=C(OCCOCCOC(=O)c1cccc(N[C@H]2CCCC[C@@H]2O)c1)c1ccc(-c2c3nc(c(-c4ccc(S(=O)(=O)[O-])cc4)c4ccc([nH]4)c(-c4ccc(S(=O)(=O)[O-])cc4)c4nc(c(-c5ccc(S(=O)(=O)[O-])cc5)c5ccc2[nH]5)C=C4)C=C3)cc1
REMARK SMILES IDX 6 1 5 2 4 3 3 4 2 5 1 6 26 7 27 8 85 9 28 10 84 11 29 12
REMARK SMILES IDX 30 13 31 14 78 15 32 16 83 17 77 18 79 19 33 20 82 21 76 22
REMARK SMILES IDX 75 23 34 25 64 26 45 27 63 28 46 29 49 30 62 31 80 32 47 33
REMARK SMILES IDX 48 34 61 36 81 37 50 38 35 39 36 40 44 41 37 42 43 43 38 44
REMARK SMILES IDX 39 45 40 46 41 47 42 48 65 49 66 50 74 51 67 52 73 53 68 54
REMARK SMILES IDX 69 55 70 56 71 57 72 58 51 59 52 60 60 61 53 62 59 63 54 64
REMARK SMILES IDX 55 65 56 66 57 67 58 68 7 69 8 70 9 71 10 72 11 73 12 74
REMARK SMILES IDX 13 75 25 76 14 77 16 78 15 79 17 80 18 82 19 83 23 84 20 85
REMARK SMILES IDX 22 86 21 87 24 88
REMARK H PARENT 79 24 49 35 17 81 24 89
REMARK Flexibility Score: inf
ROOT
ATOM      1  O   UNL     1       3.940   1.221  -1.180  1.00  0.00    -0.374 OA
ENDROOT
BRANCH   1   2
ATOM      2  C   UNL     1       4.151  -0.089  -1.705  1.00  0.00     0.202 C 
BRANCH   2   3
ATOM      3  C   UNL     1       3.803  -1.234  -0.751  1.00  0.00     0.261 C 
BRANCH   3   4
ATOM      4  O   UNL     1       2.425  -1.153  -0.354  1.00  0.00    -0.460 OA
BRANCH   4   5
ATOM      5  C   UNL     1       1.922  -0.726   0.828  1.00  0.00     0.338 C 
ATOM      6  O   UNL     1       0.706  -0.780   1.002  1.00  0.00    -0.246 OA
BRANCH   5   7
ATOM      7  C   UNL     1       2.767  -0.192   1.939  1.00  0.00     0.060 A 
ATOM      8  C   UNL     1       3.986   0.464   1.765  1.00  0.00     0.016 A 
ATOM      9  C   UNL     1       2.249  -0.282   3.241  1.00  0.00     0.016 A 
ATOM     10  C   UNL     1       4.712   0.949   2.838  1.00  0.00     0.010 A 
ATOM     11  C   UNL     1       2.949   0.249   4.329  1.00  0.00     0.010 A 
ATOM     12  C   UNL     1       4.196   0.850   4.125  1.00  0.00    -0.014 A 
BRANCH  12  13
ATOM     13  C   UNL     1       5.057   1.297   5.230  1.00  0.00     0.031 A 
ATOM     14  C   UNL     1       5.761   0.256   6.043  1.00  0.00     0.074 A 
ATOM     15  C   UNL     1       5.320   2.610   5.367  1.00  0.00     0.049 A 
ATOM     16  N   UNL     1       6.584   0.408   7.043  1.00  0.00    -0.248 NA
ATOM     17  C   UNL     1       5.521  -1.148   5.664  1.00  0.00     0.031 C 
ATOM     18  C   UNL     1       4.782   3.672   4.508  1.00  0.00     0.029 A 
ATOM     19  N   UNL     1       6.142   3.273   6.236  1.00  0.00    -0.354 N 
ATOM     20  C   UNL     1       6.933  -0.878   7.436  1.00  0.00     0.074 A 
ATOM     21  C   UNL     1       6.235  -1.799   6.569  1.00  0.00     0.031 C 
ATOM     22  C   UNL     1       5.324   4.846   4.868  1.00  0.00     0.029 A 
ATOM     23  C   UNL     1       6.184   4.631   6.026  1.00  0.00     0.049 A 
ATOM     24  H   UNL     1       6.655   2.821   6.944  1.00  0.00     0.167 HD
ATOM     25  C   UNL     1       7.755  -1.247   8.445  1.00  0.00     0.031 A 
ATOM     26  C   UNL     1       6.829   5.590   6.716  1.00  0.00     0.031 A 
ATOM     27  C   UNL     1       8.417  -0.298   9.297  1.00  0.00     0.049 A 
ATOM     28  C   UNL     1       7.647   5.158   7.902  1.00  0.00     0.074 A 
ATOM     29  C   UNL     1       9.213  -0.532  10.401  1.00  0.00     0.029 A 
ATOM     30  N   UNL     1       8.351   1.080   9.129  1.00  0.00    -0.354 N 
ATOM     31  N   UNL     1       7.907   3.940   8.322  1.00  0.00    -0.248 NA
ATOM     32  C   UNL     1       8.245   6.221   8.717  1.00  0.00     0.031 C 
ATOM     33  C   UNL     1       9.585   0.708  10.932  1.00  0.00     0.029 A 
ATOM     34  C   UNL     1       9.074   1.713  10.122  1.00  0.00     0.049 A 
ATOM     35  H   UNL     1       7.860   1.538   8.409  1.00  0.00     0.167 HD
ATOM     36  C   UNL     1       8.715   4.089   9.441  1.00  0.00     0.074 A 
ATOM     37  C   UNL     1       8.914   5.516   9.618  1.00  0.00     0.031 C 
ATOM     38  C   UNL     1       9.243   3.140  10.255  1.00  0.00     0.031 A 
BRANCH  25  39
ATOM     39  C   UNL     1       7.877  -2.721   8.721  1.00  0.00    -0.014 A 
ATOM     40  C   UNL     1       8.564  -3.586   7.848  1.00  0.00     0.010 A 
ATOM     41  C   UNL     1       7.239  -3.260   9.853  1.00  0.00     0.010 A 
ATOM     42  C   UNL     1       8.561  -4.967   8.074  1.00  0.00     0.020 A 
ATOM     43  C   UNL     1       7.257  -4.636  10.097  1.00  0.00     0.020 A 
ATOM     44  C   UNL     1       7.897  -5.483   9.192  1.00  0.00     0.054 A 
BRANCH  44  45
ATOM     45  S   UNL     1       7.882  -7.279   9.448  1.00  0.00     0.124 S 
ATOM     46  O   UNL     1       6.949  -7.723   8.414  1.00  0.00    -0.237 OA
ATOM     47  O   UNL     1       9.279  -7.646   9.231  1.00  0.00    -0.237 OA
ATOM     48  O   UNL     1       7.406  -7.431  10.820  1.00  0.00    -0.744 OA
ENDBRANCH  44  45
ENDBRANCH  25  39
BRANCH  26  49
ATOM     49  C   UNL     1       6.679   7.026   6.343  1.00  0.00    -0.014 A 
ATOM     50  C   UNL     1       7.778   7.779   5.896  1.00  0.00     0.010 A 
ATOM     51  C   UNL     1       5.422   7.654   6.437  1.00  0.00     0.010 A 
ATOM     52  C   UNL     1       7.627   9.132   5.568  1.00  0.00     0.020 A 
ATOM     53  C   UNL     1       5.260   8.996   6.081  1.00  0.00     0.020 A 
ATOM     54  C   UNL     1       6.368   9.732   5.663  1.00  0.00     0.054 A 
BRANCH  54  55
ATOM     55  S   UNL     1       6.188  11.480   5.206  1.00  0.00     0.124 S 
ATOM     56  O   UNL     1       6.843  12.154   6.322  1.00  0.00    -0.237 OA
ATOM     57  O   UNL     1       6.888  11.546   3.926  1.00  0.00    -0.237 OA
ATOM     58  O   UNL     1       4.741  11.665   5.126  1.00  0.00    -0.744 OA
ENDBRANCH  54  55
ENDBRANCH  26  49
BRANCH  38  59
ATOM     59  C   UNL     1      10.115   3.623  11.378  1.00  0.00    -0.014 A 
ATOM     60  C   UNL     1       9.565   4.253  12.508  1.00  0.00     0.010 A 
ATOM     61  C   UNL     1      11.500   3.389  11.320  1.00  0.00     0.010 A 
ATOM     62  C   UNL     1      10.395   4.671  13.550  1.00  0.00     0.020 A 
ATOM     63  C   UNL     1      12.328   3.779  12.372  1.00  0.00     0.020 A 
ATOM     64  C   UNL     1      11.771   4.430  13.474  1.00  0.00     0.054 A 
BRANCH  64  65
ATOM     65  S   UNL     1      12.822   4.939  14.860  1.00  0.00     0.124 S 
ATOM     66  O   UNL     1      12.887   6.386  14.675  1.00  0.00    -0.237 OA
ATOM     67  O   UNL     1      12.063   4.486  16.023  1.00  0.00    -0.237 OA
ATOM     68  O   UNL     1      14.075   4.224  14.625  1.00  0.00    -0.744 OA
ENDBRANCH  64  65
ENDBRANCH  38  59
ENDBRANCH  12  13
ENDBRANCH   5   7
ENDBRANCH   4   5
ENDBRANCH   3   4
ENDBRANCH   2   3
ENDBRANCH   1   2
BRANCH   1  69
ATOM     69  C   UNL     1       2.614   1.748  -1.307  1.00  0.00     0.202 C 
BRANCH  69  70
ATOM     70  C   UNL     1       2.686   3.193  -1.815  1.00  0.00     0.261 C 
BRANCH  70  71
ATOM     71  O   UNL     1       3.290   3.182  -3.117  1.00  0.00    -0.460 OA
BRANCH  71  72
ATOM     72  C   UNL     1       4.648   3.211  -3.103  1.00  0.00     0.338 C 
ATOM     73  O   UNL     1       5.376   3.666  -2.238  1.00  0.00    -0.246 OA
BRANCH  72  74
ATOM     74  C   UNL     1       5.108   2.344  -4.204  1.00  0.00     0.062 A 
ATOM     75  C   UNL     1       6.159   1.460  -3.955  1.00  0.00     0.016 A 
ATOM     76  C   UNL     1       4.443   2.332  -5.435  1.00  0.00     0.041 A 
ATOM     77  C   UNL     1       6.478   0.502  -4.906  1.00  0.00     0.003 A 
ATOM     78  C   UNL     1       4.807   1.431  -6.437  1.00  0.00     0.035 A 
ATOM     79  C   UNL     1       5.793   0.483  -6.125  1.00  0.00     0.026 A 
BRANCH  78  80
ATOM     80  N   UNL     1       4.211   1.561  -7.680  1.00  0.00    -0.380 N 
ATOM     81  H   UNL     1       3.320   1.979  -7.707  1.00  0.00     0.160 HD
BRANCH  80  82
ATOM     82  C   UNL     1       4.786   1.132  -8.963  1.00  0.00     0.107 C 
ATOM     83  C   UNL     1       6.254   1.565  -9.117  1.00  0.00     0.027 C 
ATOM     84  C   UNL     1       4.493  -0.365  -9.208  1.00  0.00     0.136 C 
ATOM     85  C   UNL     1       6.944   0.920 -10.311  1.00  0.00     0.002 C 
ATOM     86  C   UNL     1       5.252  -0.921 -10.406  1.00  0.00     0.034 C 
ATOM     87  C   UNL     1       6.736  -0.590 -10.322  1.00  0.00     0.003 C 
BRANCH  84  88
ATOM     88  O   UNL     1       3.087  -0.539  -9.437  1.00  0.00    -0.391 OA
ATOM     89  H   UNL     1       2.825  -0.046 -10.230  1.00  0.00     0.211 HD
ENDBRANCH  84  88
ENDBRANCH  80  82
ENDBRANCH  78  80
ENDBRANCH  72  74
ENDBRANCH  71  72
ENDBRANCH  70  71
ENDBRANCH  69  70
ENDBRANCH   1  69
TORSDOF 20
