REMARK SMILES Cc1cc(F)ccc1-n1ccc(C)c(C(=O)OCCOCCOC(=O)c2ccc(-c3c4nc(c(-c5ccc(S(=O)(=O)[O-])cc5)c5ccc([nH]5)c(-c5ccc(S(=O)(=O)[O-])cc5)c5nc(c(-c6ccc(S(=O)(=O)[O-])cc6)c6ccc3[nH]6)C=C5)C=C4)cc2)c1=O
REMARK SMILES IDX 21 1 20 2 19 3 18 4 17 5 15 6 16 7 14 8 9 9 10 10 86 11
REMARK SMILES IDX 11 12 87 13 12 14 13 15 8 16 1 17 2 18 3 19 4 20 7 21 5 22
REMARK SMILES IDX 6 23 22 24 23 25 24 26 25 27 26 28 27 29 85 30 28 31 84 32
REMARK SMILES IDX 29 33 30 34 31 35 78 36 32 37 83 38 77 39 79 40 33 41 82 42
REMARK SMILES IDX 76 43 75 44 34 46 64 47 45 48 63 49 46 50 49 51 62 52 80 53
REMARK SMILES IDX 47 54 48 55 61 57 81 58 50 59 35 60 36 61 44 62 37 63 43 64
REMARK SMILES IDX 38 65 39 66 40 67 41 68 42 69 65 70 66 71 74 72 67 73 73 74
REMARK SMILES IDX 68 75 69 76 70 77 71 78 72 79 51 80 52 81 60 82 53 83 59 84
REMARK SMILES IDX 54 85 55 86 56 87 57 88 58 89
REMARK H PARENT 79 45 49 56
REMARK Flexibility Score: inf
ROOT
ATOM      1  C   UNL     1       6.215  -4.395   2.750  1.00  0.00     0.202 C 
ENDROOT
BRANCH   1   2
ATOM      2  O   UNL     1       7.309  -3.886   3.511  1.00  0.00    -0.374 OA
BRANCH   2   3
ATOM      3  C   UNL     1       7.096  -2.705   4.289  1.00  0.00     0.202 C 
BRANCH   3   4
ATOM      4  C   UNL     1       7.006  -1.377   3.533  1.00  0.00     0.261 C 
BRANCH   4   5
ATOM      5  O   UNL     1       5.914  -1.407   2.607  1.00  0.00    -0.459 OA
BRANCH   5   6
ATOM      6  C   UNL     1       6.223  -1.211   1.303  1.00  0.00     0.344 C 
ATOM      7  O   UNL     1       7.309  -0.867   0.859  1.00  0.00    -0.246 OA
BRANCH   6   8
ATOM      8  C   UNL     1       5.096  -1.656   0.452  1.00  0.00     0.128 A 
ATOM      9  N   UNL     1       2.727  -1.506  -0.221  1.00  0.00    -0.283 N 
ATOM     10  C   UNL     1       2.995  -2.424  -1.224  1.00  0.00     0.095 A 
ATOM     11  C   UNL     1       3.714  -1.147   0.720  1.00  0.00     0.270 A 
ATOM     12  C   UNL     1       4.213  -2.945  -1.395  1.00  0.00     0.023 A 
ATOM     13  O   UNL     1       3.499  -0.460   1.718  1.00  0.00    -0.268 OA
ATOM     14  C   UNL     1       5.312  -2.550  -0.539  1.00  0.00    -0.029 A 
ATOM     15  C   UNL     1       6.622  -3.229  -0.844  1.00  0.00     0.045 C 
BRANCH   9  16
ATOM     16  C   UNL     1       1.427  -0.907  -0.122  1.00  0.00     0.052 A 
ATOM     17  C   UNL     1       2.378   1.492  -0.122  1.00  0.00     0.047 C 
ATOM     18  C   UNL     1       1.251   0.495  -0.060  1.00  0.00    -0.024 A 
ATOM     19  C   UNL     1      -0.052   1.013   0.036  1.00  0.00     0.044 A 
ATOM     20  C   UNL     1      -1.153   0.165   0.032  1.00  0.00     0.123 A 
ATOM     21  C   UNL     1       0.294  -1.744  -0.141  1.00  0.00     0.030 A 
ATOM     22  F   UNL     1      -2.386   0.683   0.099  1.00  0.00    -0.207 F 
ATOM     23  C   UNL     1      -0.992  -1.209  -0.059  1.00  0.00     0.041 A 
ENDBRANCH   9  16
ENDBRANCH   6   8
ENDBRANCH   5   6
ENDBRANCH   4   5
ENDBRANCH   3   4
ENDBRANCH   2   3
ENDBRANCH   1   2
BRANCH   1  24
ATOM     24  C   UNL     1       5.077  -5.112   3.487  1.00  0.00     0.261 C 
BRANCH  24  25
ATOM     25  O   UNL     1       4.376  -4.260   4.403  1.00  0.00    -0.460 OA
BRANCH  25  26
ATOM     26  C   UNL     1       4.654  -4.485   5.710  1.00  0.00     0.338 C 
ATOM     27  O   UNL     1       5.383  -5.353   6.167  1.00  0.00    -0.246 OA
BRANCH  26  28
ATOM     28  C   UNL     1       4.102  -3.387   6.527  1.00  0.00     0.060 A 
ATOM     29  C   UNL     1       2.768  -2.995   6.417  1.00  0.00     0.016 A 
ATOM     30  C   UNL     1       4.953  -2.767   7.454  1.00  0.00     0.016 A 
ATOM     31  C   UNL     1       2.277  -2.008   7.274  1.00  0.00     0.010 A 
ATOM     32  C   UNL     1       4.458  -1.784   8.311  1.00  0.00     0.010 A 
ATOM     33  C   UNL     1       3.108  -1.419   8.249  1.00  0.00    -0.014 A 
BRANCH  33  34
ATOM     34  C   UNL     1       2.506  -0.575   9.312  1.00  0.00     0.031 A 
ATOM     35  C   UNL     1       2.719   0.907   9.374  1.00  0.00     0.074 A 
ATOM     36  C   UNL     1       1.754  -1.190  10.247  1.00  0.00     0.049 A 
ATOM     37  N   UNL     1       2.146   1.776  10.166  1.00  0.00    -0.248 NA
ATOM     38  C   UNL     1       3.703   1.492   8.450  1.00  0.00     0.031 C 
ATOM     39  C   UNL     1       1.542  -2.638  10.323  1.00  0.00     0.029 A 
ATOM     40  N   UNL     1       1.017  -0.690  11.290  1.00  0.00    -0.354 N 
ATOM     41  C   UNL     1       2.677   3.013   9.825  1.00  0.00     0.074 A 
ATOM     42  C   UNL     1       3.661   2.776   8.790  1.00  0.00     0.031 C 
ATOM     43  C   UNL     1       0.689  -2.904  11.322  1.00  0.00     0.029 A 
ATOM     44  C   UNL     1       0.320  -1.654  11.981  1.00  0.00     0.049 A 
ATOM     45  H   UNL     1       0.990   0.266  11.522  1.00  0.00     0.167 HD
ATOM     46  C   UNL     1       2.350   4.231  10.320  1.00  0.00     0.031 A 
ATOM     47  C   UNL     1      -0.536  -1.552  13.018  1.00  0.00     0.031 A 
ATOM     48  C   UNL     1       1.366   4.445  11.356  1.00  0.00     0.049 A 
ATOM     49  C   UNL     1      -0.891  -0.188  13.537  1.00  0.00     0.074 A 
ATOM     50  C   UNL     1       0.914   5.651  11.866  1.00  0.00     0.029 A 
ATOM     51  N   UNL     1       0.691   3.447  12.043  1.00  0.00    -0.354 N 
ATOM     52  N   UNL     1      -0.471   0.983  13.119  1.00  0.00    -0.248 NA
ATOM     53  C   UNL     1      -1.849  -0.124  14.648  1.00  0.00     0.031 C 
ATOM     54  C   UNL     1       0.038   5.381  12.919  1.00  0.00     0.029 A 
ATOM     55  C   UNL     1      -0.135   4.009  13.006  1.00  0.00     0.049 A 
ATOM     56  H   UNL     1       0.784   2.482  11.874  1.00  0.00     0.167 HD
ATOM     57  C   UNL     1      -1.117   1.923  13.913  1.00  0.00     0.074 A 
ATOM     58  C   UNL     1      -1.988   1.186  14.806  1.00  0.00     0.031 C 
ATOM     59  C   UNL     1      -0.987   3.273  13.910  1.00  0.00     0.031 A 
BRANCH  46  60
ATOM     60  C   UNL     1       3.015   5.457   9.744  1.00  0.00    -0.014 A 
ATOM     61  C   UNL     1       3.809   6.277  10.570  1.00  0.00     0.010 A 
ATOM     62  C   UNL     1       2.697   5.902   8.448  1.00  0.00     0.010 A 
ATOM     63  C   UNL     1       4.216   7.542  10.137  1.00  0.00     0.020 A 
ATOM     64  C   UNL     1       3.129   7.154   8.000  1.00  0.00     0.020 A 
ATOM     65  C   UNL     1       3.856   7.980   8.860  1.00  0.00     0.054 A 
BRANCH  65  66
ATOM     66  S   UNL     1       4.309   9.663   8.354  1.00  0.00     0.124 S 
ATOM     67  O   UNL     1       3.434  10.482   9.186  1.00  0.00    -0.237 OA
ATOM     68  O   UNL     1       5.731   9.721   8.684  1.00  0.00    -0.237 OA
ATOM     69  O   UNL     1       4.010   9.684   6.924  1.00  0.00    -0.744 OA
ENDBRANCH  65  66
ENDBRANCH  46  60
BRANCH  47  70
ATOM     70  C   UNL     1      -1.141  -2.793  13.579  1.00  0.00    -0.014 A 
ATOM     71  C   UNL     1      -0.325  -3.758  14.202  1.00  0.00     0.010 A 
ATOM     72  C   UNL     1      -2.510  -3.067  13.413  1.00  0.00     0.010 A 
ATOM     73  C   UNL     1      -0.850  -4.994  14.585  1.00  0.00     0.020 A 
ATOM     74  C   UNL     1      -3.048  -4.288  13.833  1.00  0.00     0.020 A 
ATOM     75  C   UNL     1      -2.206  -5.257  14.385  1.00  0.00     0.054 A 
BRANCH  75  76
ATOM     76  S   UNL     1      -2.848  -6.893  14.832  1.00  0.00     0.124 S 
ATOM     77  O   UNL     1      -2.304  -7.729  13.766  1.00  0.00    -0.237 OA
ATOM     78  O   UNL     1      -2.273  -7.109  16.157  1.00  0.00    -0.237 OA
ATOM     79  O   UNL     1      -4.297  -6.712  14.806  1.00  0.00    -0.744 OA
ENDBRANCH  75  76
ENDBRANCH  47  70
BRANCH  59  80
ATOM     80  C   UNL     1      -1.778   4.063  14.925  1.00  0.00    -0.014 A 
ATOM     81  C   UNL     1      -2.753   4.986  14.500  1.00  0.00     0.010 A 
ATOM     82  C   UNL     1      -1.484   3.970  16.298  1.00  0.00     0.010 A 
ATOM     83  C   UNL     1      -3.394   5.819  15.421  1.00  0.00     0.020 A 
ATOM     84  C   UNL     1      -2.152   4.773  17.227  1.00  0.00     0.020 A 
ATOM     85  C   UNL     1      -3.086   5.710  16.779  1.00  0.00     0.054 A 
BRANCH  85  86
ATOM     86  S   UNL     1      -3.922   6.806  17.958  1.00  0.00     0.124 S 
ATOM     87  O   UNL     1      -3.263   8.085  17.711  1.00  0.00    -0.237 OA
ATOM     88  O   UNL     1      -5.319   6.725  17.535  1.00  0.00    -0.237 OA
ATOM     89  O   UNL     1      -3.637   6.198  19.255  1.00  0.00    -0.744 OA
ENDBRANCH  85  86
ENDBRANCH  59  80
ENDBRANCH  33  34
ENDBRANCH  26  28
ENDBRANCH  25  26
ENDBRANCH  24  25
ENDBRANCH   1  24
TORSDOF 18
