REMARK SMILES O=C(CN(Cc1ccccc1Cl)S(=O)(=O)c1ccc(Cl)cc1)OCCOCCOC(=O)c1ccc(-c2c3nc(c(-c4ccc(S(=O)(=O)[O-])cc4)c4ccc([nH]4)c(-c4ccc(S(=O)(=O)[O-])cc4)c4nc(c(-c5ccc(S(=O)(=O)[O-])cc5)c5ccc2[nH]5)C=C4)C=C3)cc1
REMARK SMILES IDX 26 1 25 2 24 3 23 4 2 5 1 6 3 7 4 8 5 9 6 10 7 11 11 12 8 13
REMARK SMILES IDX 10 14 12 15 9 16 13 17 14 18 15 19 16 20 17 21 22 22 18 23
REMARK SMILES IDX 21 24 19 25 20 26 27 27 28 28 29 29 30 30 31 31 32 32 33 33
REMARK SMILES IDX 91 34 34 35 90 36 35 37 36 38 37 39 84 40 38 41 89 42 83 43
REMARK SMILES IDX 85 44 39 45 88 46 82 47 81 48 40 50 70 51 51 52 69 53 52 54
REMARK SMILES IDX 55 55 68 56 86 57 53 58 54 59 67 61 87 62 56 63 41 64 42 65
REMARK SMILES IDX 50 66 43 67 49 68 44 69 45 70 46 71 47 72 48 73 71 74 72 75
REMARK SMILES IDX 80 76 73 77 79 78 74 79 75 80 76 81 77 82 78 83 57 84 58 85
REMARK SMILES IDX 66 86 59 87 65 88 60 89 61 90 62 91 63 92 64 93
REMARK H PARENT 85 49 55 60
REMARK Flexibility Score: inf
ROOT
ATOM      1  O   UNL     1       4.199  -1.548   1.034  1.00  0.00    -0.374 OA
ENDROOT
BRANCH   1   2
ATOM      2  C   UNL     1       4.721  -0.220   1.068  1.00  0.00     0.202 C 
BRANCH   2   3
ATOM      3  C   UNL     1       4.232   0.710  -0.038  1.00  0.00     0.261 C 
BRANCH   3   4
ATOM      4  O   UNL     1       2.812   0.931   0.033  1.00  0.00    -0.462 OA
BRANCH   4   5
ATOM      5  C   UNL     1       1.882   0.208  -0.635  1.00  0.00     0.321 C 
ATOM      6  O   UNL     1       0.685   0.372  -0.392  1.00  0.00    -0.251 OA
BRANCH   5   7
ATOM      7  C   UNL     1       2.330  -0.896  -1.562  1.00  0.00     0.225 C 
BRANCH   7   8
ATOM      8  N   UNL     1       3.285  -0.556  -2.655  1.00  0.00    -0.182 NA
BRANCH   8   9
ATOM      9  C   UNL     1       4.145  -1.711  -3.017  1.00  0.00     0.140 C 
BRANCH   9  10
ATOM     10  C   UNL     1       3.471  -3.020  -3.385  1.00  0.00    -0.014 A 
ATOM     11  C   UNL     1       2.416  -3.040  -4.309  1.00  0.00     0.006 A 
ATOM     12  C   UNL     1       3.885  -4.260  -2.862  1.00  0.00     0.045 A 
ATOM     13  C   UNL     1       1.734  -4.215  -4.631  1.00  0.00     0.000 A 
ATOM     14  C   UNL     1       3.211  -5.444  -3.195  1.00  0.00     0.021 A 
ATOM     15  Cl  UNL     1       5.244  -4.416  -1.805  1.00  0.00    -0.084 Cl
ATOM     16  C   UNL     1       2.125  -5.418  -4.065  1.00  0.00     0.002 A 
ENDBRANCH   9  10
ENDBRANCH   8   9
BRANCH   8  17
ATOM     17  S   UNL     1       2.676   0.603  -3.725  1.00  0.00     0.243 S 
ATOM     18  O   UNL     1       1.631  -0.010  -4.531  1.00  0.00    -0.207 OA
ATOM     19  O   UNL     1       2.375   1.761  -2.931  1.00  0.00    -0.207 OA
BRANCH  17  20
ATOM     20  C   UNL     1       3.966   1.074  -4.852  1.00  0.00     0.082 A 
ATOM     21  C   UNL     1       4.520   0.144  -5.736  1.00  0.00     0.023 A 
ATOM     22  C   UNL     1       4.292   2.432  -4.968  1.00  0.00     0.023 A 
ATOM     23  C   UNL     1       5.458   0.559  -6.683  1.00  0.00     0.022 A 
ATOM     24  C   UNL     1       5.191   2.850  -5.953  1.00  0.00     0.022 A 
ATOM     25  C   UNL     1       5.780   1.911  -6.797  1.00  0.00     0.041 A 
ATOM     26  Cl  UNL     1       6.878   2.422  -8.017  1.00  0.00    -0.084 Cl
ENDBRANCH  17  20
ENDBRANCH   8  17
ENDBRANCH   7   8
ENDBRANCH   5   7
ENDBRANCH   4   5
ENDBRANCH   3   4
ENDBRANCH   2   3
ENDBRANCH   1   2
BRANCH   1  27
ATOM     27  C   UNL     1       2.985  -1.776   1.762  1.00  0.00     0.202 C 
BRANCH  27  28
ATOM     28  C   UNL     1       3.103  -1.945   3.280  1.00  0.00     0.261 C 
BRANCH  28  29
ATOM     29  O   UNL     1       3.433  -0.703   3.916  1.00  0.00    -0.460 OA
BRANCH  29  30
ATOM     30  C   UNL     1       4.734  -0.585   4.271  1.00  0.00     0.338 C 
ATOM     31  O   UNL     1       5.590  -1.452   4.209  1.00  0.00    -0.246 OA
BRANCH  30  32
ATOM     32  C   UNL     1       5.049   0.831   4.549  1.00  0.00     0.060 A 
ATOM     33  C   UNL     1       6.295   1.299   4.111  1.00  0.00     0.016 A 
ATOM     34  C   UNL     1       4.181   1.669   5.255  1.00  0.00     0.016 A 
ATOM     35  C   UNL     1       6.731   2.564   4.483  1.00  0.00     0.010 A 
ATOM     36  C   UNL     1       4.619   2.941   5.630  1.00  0.00     0.010 A 
ATOM     37  C   UNL     1       5.924   3.355   5.309  1.00  0.00    -0.014 A 
BRANCH  37  38
ATOM     38  C   UNL     1       6.560   4.464   6.053  1.00  0.00     0.031 A 
ATOM     39  C   UNL     1       7.004   4.195   7.469  1.00  0.00     0.074 A 
ATOM     40  C   UNL     1       6.810   5.644   5.463  1.00  0.00     0.049 A 
ATOM     41  N   UNL     1       7.622   4.982   8.309  1.00  0.00    -0.248 NA
ATOM     42  C   UNL     1       6.709   2.855   8.009  1.00  0.00     0.031 C 
ATOM     43  C   UNL     1       6.473   5.989   4.082  1.00  0.00     0.029 A 
ATOM     44  N   UNL     1       7.420   6.768   5.954  1.00  0.00    -0.354 N 
ATOM     45  C   UNL     1       7.772   4.241   9.477  1.00  0.00     0.074 A 
ATOM     46  C   UNL     1       7.155   2.955   9.251  1.00  0.00     0.031 C 
ATOM     47  C   UNL     1       6.891   7.243   3.834  1.00  0.00     0.029 A 
ATOM     48  C   UNL     1       7.499   7.793   5.044  1.00  0.00     0.049 A 
ATOM     49  H   UNL     1       7.769   6.835   6.872  1.00  0.00     0.167 HD
ATOM     50  C   UNL     1       8.378   4.598  10.634  1.00  0.00     0.031 A 
ATOM     51  C   UNL     1       8.002   9.035   5.180  1.00  0.00     0.031 A 
ATOM     52  C   UNL     1       8.987   5.882  10.848  1.00  0.00     0.049 A 
ATOM     53  C   UNL     1       8.628   9.427   6.493  1.00  0.00     0.074 A 
ATOM     54  C   UNL     1       9.643   6.348  11.972  1.00  0.00     0.029 A 
ATOM     55  N   UNL     1       9.011   6.907   9.914  1.00  0.00    -0.354 N 
ATOM     56  N   UNL     1       8.779   8.711   7.583  1.00  0.00    -0.248 NA
ATOM     57  C   UNL     1       9.167  10.790   6.587  1.00  0.00     0.031 C 
ATOM     58  C   UNL     1      10.014   7.676  11.738  1.00  0.00     0.029 A 
ATOM     59  C   UNL     1       9.651   8.013  10.443  1.00  0.00     0.049 A 
ATOM     60  H   UNL     1       8.628   6.856   9.008  1.00  0.00     0.167 HD
ATOM     61  C   UNL     1       9.470   9.523   8.478  1.00  0.00     0.074 A 
ATOM     62  C   UNL     1       9.709  10.780   7.797  1.00  0.00     0.031 C 
ATOM     63  C   UNL     1       9.879   9.253   9.743  1.00  0.00     0.031 A 
BRANCH  50  64
ATOM     64  C   UNL     1       8.361   3.601  11.763  1.00  0.00    -0.014 A 
ATOM     65  C   UNL     1       9.113   2.412  11.710  1.00  0.00     0.010 A 
ATOM     66  C   UNL     1       7.584   3.866  12.906  1.00  0.00     0.010 A 
ATOM     67  C   UNL     1       9.051   1.488  12.757  1.00  0.00     0.020 A 
ATOM     68  C   UNL     1       7.544   2.959  13.968  1.00  0.00     0.020 A 
ATOM     69  C   UNL     1       8.263   1.766  13.879  1.00  0.00     0.054 A 
BRANCH  69  70
ATOM     70  S   UNL     1       8.211   0.557  15.230  1.00  0.00     0.124 S 
ATOM     71  O   UNL     1       7.402  -0.511  14.647  1.00  0.00    -0.237 OA
ATOM     72  O   UNL     1       9.622   0.238  15.430  1.00  0.00    -0.237 OA
ATOM     73  O   UNL     1       7.579   1.288  16.326  1.00  0.00    -0.744 OA
ENDBRANCH  69  70
ENDBRANCH  50  64
BRANCH  51  74
ATOM     74  C   UNL     1       7.950   9.988   4.038  1.00  0.00    -0.014 A 
ATOM     75  C   UNL     1       9.126  10.376   3.373  1.00  0.00     0.010 A 
ATOM     76  C   UNL     1       6.717  10.508   3.602  1.00  0.00     0.010 A 
ATOM     77  C   UNL     1       9.073  11.278   2.306  1.00  0.00     0.020 A 
ATOM     78  C   UNL     1       6.657  11.388   2.518  1.00  0.00     0.020 A 
ATOM     79  C   UNL     1       7.837  11.776   1.883  1.00  0.00     0.054 A 
BRANCH  79  80
ATOM     80  S   UNL     1       7.789  12.905   0.463  1.00  0.00     0.124 S 
ATOM     81  O   UNL     1       8.346  14.130   1.029  1.00  0.00    -0.237 OA
ATOM     82  O   UNL     1       8.631  12.218  -0.513  1.00  0.00    -0.237 OA
ATOM     83  O   UNL     1       6.370  12.962   0.120  1.00  0.00    -0.744 OA
ENDBRANCH  79  80
ENDBRANCH  51  74
BRANCH  63  84
ATOM     84  C   UNL     1      10.681  10.313  10.450  1.00  0.00    -0.014 A 
ATOM     85  C   UNL     1      10.095  11.512  10.891  1.00  0.00     0.010 A 
ATOM     86  C   UNL     1      12.046  10.081  10.708  1.00  0.00     0.010 A 
ATOM     87  C   UNL     1      10.871  12.482  11.531  1.00  0.00     0.020 A 
ATOM     88  C   UNL     1      12.817  11.033  11.376  1.00  0.00     0.020 A 
ATOM     89  C   UNL     1      12.229  12.237  11.765  1.00  0.00     0.054 A 
BRANCH  89  90
ATOM     90  S   UNL     1      13.213  13.504  12.611  1.00  0.00     0.124 S 
ATOM     91  O   UNL     1      13.381  14.506  11.562  1.00  0.00    -0.237 OA
ATOM     92  O   UNL     1      12.348  13.894  13.722  1.00  0.00    -0.237 OA
ATOM     93  O   UNL     1      14.431  12.795  12.996  1.00  0.00    -0.744 OA
ENDBRANCH  89  90
ENDBRANCH  63  84
ENDBRANCH  37  38
ENDBRANCH  30  32
ENDBRANCH  29  30
ENDBRANCH  28  29
ENDBRANCH  27  28
ENDBRANCH   1  27
TORSDOF 22
