REMARK SMILES CC1(C)C(C(=O)Nc2ccc(CC(=O)OCCOCCOC(=O)c3ccc(-c4c5nc(c(-c6ccc(S(=O)(=O)[O-])cc6)c6ccc([nH]6)c(-c6ccc(S(=O)(=O)[O-])cc6)c6nc(c(-c7ccc(S(=O)(=O)[O-])cc7)c7ccc4[nH]7)C=C6)C=C5)cc3)cc2)C1(C)C
REMARK SMILES IDX 18 1 17 2 16 3 15 4 13 5 14 6 12 7 11 8 8 9 9 10 85 11 10 12
REMARK SMILES IDX 84 13 7 14 5 15 6 16 4 18 1 19 2 20 3 21 86 22 87 23 88 24
REMARK SMILES IDX 19 25 20 26 21 27 22 28 23 29 24 30 25 31 83 32 26 33 82 34
REMARK SMILES IDX 27 35 28 36 29 37 76 38 30 39 81 40 75 41 77 42 31 43 80 44
REMARK SMILES IDX 74 45 73 46 32 48 62 49 43 50 61 51 44 52 47 53 60 54 78 55
REMARK SMILES IDX 45 56 46 57 59 59 79 60 48 61 33 62 34 63 42 64 35 65 41 66
REMARK SMILES IDX 36 67 37 68 38 69 39 70 40 71 63 72 64 73 72 74 65 75 71 76
REMARK SMILES IDX 66 77 67 78 68 79 69 80 70 81 49 82 50 83 58 84 51 85 57 86
REMARK SMILES IDX 52 87 53 88 54 89 55 90 56 91
REMARK H PARENT 7 17 77 47 47 58
REMARK Flexibility Score: inf
ROOT
ATOM      1  O   UNL     1       2.725  -0.816  10.293  1.00  0.00    -0.374 OA
ENDROOT
BRANCH   1   2
ATOM      2  C   UNL     1       3.120   0.519   9.968  1.00  0.00     0.202 C 
BRANCH   2   3
ATOM      3  C   UNL     1       4.217   0.653   8.909  1.00  0.00     0.261 C 
BRANCH   3   4
ATOM      4  O   UNL     1       3.717   0.263   7.619  1.00  0.00    -0.463 OA
BRANCH   4   5
ATOM      5  C   UNL     1       4.338  -0.792   7.038  1.00  0.00     0.310 C 
ATOM      6  O   UNL     1       5.374  -1.311   7.443  1.00  0.00    -0.252 OA
BRANCH   5   7
ATOM      7  C   UNL     1       3.645  -1.281   5.798  1.00  0.00     0.158 C 
BRANCH   7   8
ATOM      8  C   UNL     1       2.164  -1.017   5.629  1.00  0.00    -0.037 A 
ATOM      9  C   UNL     1      -0.389  -0.828   4.547  1.00  0.00     0.041 A 
ATOM     10  C   UNL     1      -0.073  -1.928   5.340  1.00  0.00     0.026 A 
ATOM     11  C   UNL     1       0.452   0.282   4.527  1.00  0.00     0.026 A 
ATOM     12  C   UNL     1       1.223  -2.039   5.847  1.00  0.00     0.006 A 
ATOM     13  C   UNL     1       1.729   0.194   5.080  1.00  0.00     0.006 A 
BRANCH   9  14
ATOM     14  N   UNL     1      -1.478  -0.945   3.664  1.00  0.00    -0.326 N 
ATOM     15  C   UNL     1      -1.514  -0.336   2.428  1.00  0.00     0.228 C 
ATOM     16  O   UNL     1      -2.306   0.579   2.214  1.00  0.00    -0.274 OA
ATOM     17  H   UNL     1      -2.251  -1.487   3.942  1.00  0.00     0.169 HD
BRANCH  15  18
ATOM     18  C   UNL     1      -0.866  -0.995   1.241  1.00  0.00     0.091 C 
ATOM     19  C   UNL     1       0.498  -0.189  -0.808  1.00  0.00     0.012 C 
ATOM     20  C   UNL     1       0.485  -0.566   0.661  1.00  0.00    -0.017 C 
ATOM     21  C   UNL     1       1.437   0.320   1.427  1.00  0.00     0.012 C 
ATOM     22  C   UNL     1       0.238  -2.035   1.089  1.00  0.00    -0.017 C 
ATOM     23  C   UNL     1       0.046  -3.083   0.005  1.00  0.00     0.012 C 
ATOM     24  C   UNL     1       0.928  -2.661   2.272  1.00  0.00     0.012 C 
ENDBRANCH  15  18
ENDBRANCH   9  14
ENDBRANCH   7   8
ENDBRANCH   5   7
ENDBRANCH   4   5
ENDBRANCH   3   4
ENDBRANCH   2   3
ENDBRANCH   1   2
BRANCH   1  25
ATOM     25  C   UNL     1       1.869  -1.485   9.367  1.00  0.00     0.202 C 
BRANCH  25  26
ATOM     26  C   UNL     1       0.383  -1.110   9.409  1.00  0.00     0.261 C 
BRANCH  26  27
ATOM     27  O   UNL     1       0.153   0.253   9.015  1.00  0.00    -0.460 OA
BRANCH  27  28
ATOM     28  C   UNL     1      -0.246   1.067  10.022  1.00  0.00     0.338 C 
ATOM     29  O   UNL     1      -0.506   0.742  11.168  1.00  0.00    -0.246 OA
BRANCH  28  30
ATOM     30  C   UNL     1      -0.158   2.480   9.605  1.00  0.00     0.060 A 
ATOM     31  C   UNL     1       0.498   3.358  10.478  1.00  0.00     0.016 A 
ATOM     32  C   UNL     1      -0.760   2.957   8.439  1.00  0.00     0.016 A 
ATOM     33  C   UNL     1       0.498   4.726  10.222  1.00  0.00     0.010 A 
ATOM     34  C   UNL     1      -0.766   4.335   8.187  1.00  0.00     0.010 A 
ATOM     35  C   UNL     1      -0.172   5.227   9.099  1.00  0.00    -0.014 A 
BRANCH  35  36
ATOM     36  C   UNL     1      -0.373   6.692   8.975  1.00  0.00     0.031 A 
ATOM     37  C   UNL     1      -1.687   7.287   9.405  1.00  0.00     0.074 A 
ATOM     38  C   UNL     1       0.623   7.487   8.544  1.00  0.00     0.049 A 
ATOM     39  N   UNL     1      -2.065   8.539   9.414  1.00  0.00    -0.248 NA
ATOM     40  C   UNL     1      -2.709   6.346   9.894  1.00  0.00     0.031 C 
ATOM     41  C   UNL     1       1.954   7.032   8.142  1.00  0.00     0.029 A 
ATOM     42  N   UNL     1       0.668   8.848   8.378  1.00  0.00    -0.354 N 
ATOM     43  C   UNL     1      -3.367   8.537   9.902  1.00  0.00     0.074 A 
ATOM     44  C   UNL     1      -3.724   7.158  10.152  1.00  0.00     0.031 C 
ATOM     45  C   UNL     1       2.685   8.098   7.773  1.00  0.00     0.029 A 
ATOM     46  C   UNL     1       1.868   9.304   7.888  1.00  0.00     0.049 A 
ATOM     47  H   UNL     1      -0.088   9.442   8.590  1.00  0.00     0.167 HD
ATOM     48  C   UNL     1      -4.189   9.590  10.129  1.00  0.00     0.031 A 
ATOM     49  C   UNL     1       2.258  10.551   7.557  1.00  0.00     0.031 A 
ATOM     50  C   UNL     1      -3.835  10.959   9.866  1.00  0.00     0.049 A 
ATOM     51  C   UNL     1       1.305  11.699   7.758  1.00  0.00     0.074 A 
ATOM     52  C   UNL     1      -4.594  12.099  10.072  1.00  0.00     0.029 A 
ATOM     53  N   UNL     1      -2.625  11.375   9.333  1.00  0.00    -0.354 N 
ATOM     54  N   UNL     1       0.087  11.683   8.245  1.00  0.00    -0.248 NA
ATOM     55  C   UNL     1       1.783  13.035   7.374  1.00  0.00     0.031 C 
ATOM     56  C   UNL     1      -3.860  13.199   9.615  1.00  0.00     0.029 A 
ATOM     57  C   UNL     1      -2.623  12.751   9.180  1.00  0.00     0.049 A 
ATOM     58  H   UNL     1      -1.877  10.780   9.099  1.00  0.00     0.167 HD
ATOM     59  C   UNL     1      -0.337  13.008   8.252  1.00  0.00     0.074 A 
ATOM     60  C   UNL     1       0.759  13.800   7.731  1.00  0.00     0.031 C 
ATOM     61  C   UNL     1      -1.523  13.524   8.659  1.00  0.00     0.031 A 
BRANCH  48  62
ATOM     62  C   UNL     1      -5.567   9.293  10.658  1.00  0.00    -0.014 A 
ATOM     63  C   UNL     1      -5.763   8.866  11.984  1.00  0.00     0.010 A 
ATOM     64  C   UNL     1      -6.686   9.474   9.825  1.00  0.00     0.010 A 
ATOM     65  C   UNL     1      -7.050   8.589  12.455  1.00  0.00     0.020 A 
ATOM     66  C   UNL     1      -7.977   9.222  10.300  1.00  0.00     0.020 A 
ATOM     67  C   UNL     1      -8.149   8.764  11.608  1.00  0.00     0.054 A 
BRANCH  67  68
ATOM     68  S   UNL     1      -9.809   8.411  12.248  1.00  0.00     0.124 S 
ATOM     69  O   UNL     1      -9.811   6.951  12.291  1.00  0.00    -0.237 OA
ATOM     70  O   UNL     1      -9.800   9.076  13.548  1.00  0.00    -0.237 OA
ATOM     71  O   UNL     1     -10.698   9.006  11.254  1.00  0.00    -0.744 OA
ENDBRANCH  67  68
ENDBRANCH  48  62
BRANCH  49  72
ATOM     72  C   UNL     1       3.616  10.775   6.990  1.00  0.00    -0.014 A 
ATOM     73  C   UNL     1       4.608  11.437   7.734  1.00  0.00     0.010 A 
ATOM     74  C   UNL     1       3.926  10.312   5.698  1.00  0.00     0.010 A 
ATOM     75  C   UNL     1       5.881  11.642   7.192  1.00  0.00     0.020 A 
ATOM     76  C   UNL     1       5.204  10.491   5.163  1.00  0.00     0.020 A 
ATOM     77  C   UNL     1       6.172  11.164   5.910  1.00  0.00     0.054 A 
BRANCH  77  78
ATOM     78  S   UNL     1       7.848  11.385   5.251  1.00  0.00     0.124 S 
ATOM     79  O   UNL     1       7.857  12.805   4.915  1.00  0.00    -0.237 OA
ATOM     80  O   UNL     1       8.687  10.995   6.381  1.00  0.00    -0.237 OA
ATOM     81  O   UNL     1       7.889  10.471   4.111  1.00  0.00    -0.744 OA
ENDBRANCH  77  78
ENDBRANCH  49  72
BRANCH  61  82
ATOM     82  C   UNL     1      -1.692  15.018   8.593  1.00  0.00    -0.014 A 
ATOM     83  C   UNL     1      -1.870  15.680   7.366  1.00  0.00     0.010 A 
ATOM     84  C   UNL     1      -1.736  15.763   9.787  1.00  0.00     0.010 A 
ATOM     85  C   UNL     1      -2.062  17.064   7.332  1.00  0.00     0.020 A 
ATOM     86  C   UNL     1      -1.953  17.142   9.758  1.00  0.00     0.020 A 
ATOM     87  C   UNL     1      -2.101  17.787   8.529  1.00  0.00     0.054 A 
BRANCH  87  88
ATOM     88  S   UNL     1      -2.398  19.575   8.462  1.00  0.00     0.124 S 
ATOM     89  O   UNL     1      -1.110  20.080   7.995  1.00  0.00    -0.237 OA
ATOM     90  O   UNL     1      -3.499  19.683   7.507  1.00  0.00    -0.237 OA
ATOM     91  O   UNL     1      -2.741  19.921   9.840  1.00  0.00    -0.744 OA
ENDBRANCH  87  88
ENDBRANCH  61  82
ENDBRANCH  35  36
ENDBRANCH  28  30
ENDBRANCH  27  28
ENDBRANCH  26  27
ENDBRANCH  25  26
ENDBRANCH   1  25
TORSDOF 20
