REMARK SMILES Cc1c(Cl)cc2c(c1C)O[C@@H](C(F)(F)F)C(C(=O)OCCOCCOC(=O)c1ccc(-c3c4nc(c(-c5ccc(S(=O)(=O)[O-])cc5)c5ccc([nH]5)c(-c5ccc(S(=O)(=O)[O-])cc5)c5nc(c(-c6ccc(S(=O)(=O)[O-])cc6)c6ccc3[nH]6)C=C5)C=C4)cc1)=C2
REMARK SMILES IDX 23 1 22 2 21 3 20 4 19 5 17 6 18 7 16 8 1 9 2 10 3 11 8 12
REMARK SMILES IDX 4 13 5 14 7 15 9 16 6 17 10 18 88 19 11 20 12 21 13 22 14 23
REMARK SMILES IDX 15 24 24 25 25 26 26 27 27 28 28 29 29 30 87 31 30 32 86 33
REMARK SMILES IDX 31 34 32 35 33 36 80 37 34 38 85 39 79 40 81 41 35 42 84 43
REMARK SMILES IDX 78 44 77 45 36 47 66 48 47 49 65 50 48 51 51 52 64 53 82 54
REMARK SMILES IDX 49 55 50 56 63 58 83 59 52 60 37 61 38 62 46 63 39 64 45 65
REMARK SMILES IDX 40 66 41 67 42 68 43 69 44 70 67 71 68 72 76 73 69 74 75 75
REMARK SMILES IDX 70 76 71 77 72 78 73 79 74 80 53 81 54 82 62 83 55 84 61 85
REMARK SMILES IDX 56 86 57 87 58 88 59 89 60 90
REMARK H PARENT 81 46 51 57
REMARK Flexibility Score: inf
ROOT
ATOM      1  C   UNL     1      -0.406   7.680   4.183  1.00  0.00     0.202 C 
ENDROOT
BRANCH   1   2
ATOM      2  O   UNL     1      -1.155   8.867   3.910  1.00  0.00    -0.374 OA
BRANCH   2   3
ATOM      3  C   UNL     1      -2.532   8.865   4.291  1.00  0.00     0.202 C 
BRANCH   3   4
ATOM      4  C   UNL     1      -3.512   8.276   3.272  1.00  0.00     0.261 C 
BRANCH   4   5
ATOM      5  O   UNL     1      -3.246   6.878   3.070  1.00  0.00    -0.460 OA
BRANCH   5   6
ATOM      6  C   UNL     1      -2.649   6.581   1.900  1.00  0.00     0.338 C 
ATOM      7  O   UNL     1      -2.526   7.330   0.942  1.00  0.00    -0.246 OA
BRANCH   6   8
ATOM      8  C   UNL     1      -2.027   5.245   1.963  1.00  0.00     0.087 C 
ATOM      9  C   UNL     1       1.084  -0.191   0.146  1.00  0.00     0.046 C 
ATOM     10  C   UNL     1       0.598   1.183   0.533  1.00  0.00    -0.026 A 
ATOM     11  C   UNL     1       1.268   2.325   0.044  1.00  0.00     0.045 A 
ATOM     12  C   UNL     1      -0.588   1.363   1.297  1.00  0.00    -0.004 A 
ATOM     13  Cl  UNL     1       2.667   2.217  -0.972  1.00  0.00    -0.084 Cl
ATOM     14  C   UNL     1       0.799   3.608   0.319  1.00  0.00     0.032 A 
ATOM     15  C   UNL     1      -1.048   2.671   1.566  1.00  0.00     0.131 A 
ATOM     16  C   UNL     1      -1.380   0.206   1.856  1.00  0.00     0.049 C 
ATOM     17  C   UNL     1      -0.365   3.780   1.063  1.00  0.00     0.019 A 
ATOM     18  O   UNL     1      -2.233   2.799   2.251  1.00  0.00    -0.475 OA
ATOM     19  C   UNL     1      -0.942   5.103   1.191  1.00  0.00     0.027 C 
ATOM     20  C   UNL     1      -2.597   4.114   2.777  1.00  0.00     0.316 C 
BRANCH  20  21
ATOM     21  C   UNL     1      -2.247   4.157   4.279  1.00  0.00     0.430 C 
ATOM     22  F   UNL     1      -2.832   5.191   4.922  1.00  0.00    -0.167 F 
ATOM     23  F   UNL     1      -2.663   3.030   4.910  1.00  0.00    -0.167 F 
ATOM     24  F   UNL     1      -0.911   4.259   4.487  1.00  0.00    -0.167 F 
ENDBRANCH  20  21
ENDBRANCH   6   8
ENDBRANCH   5   6
ENDBRANCH   4   5
ENDBRANCH   3   4
ENDBRANCH   2   3
ENDBRANCH   1   2
BRANCH   1  25
ATOM     25  C   UNL     1       0.052   7.459   5.630  1.00  0.00     0.261 C 
BRANCH  25  26
ATOM     26  O   UNL     1      -1.053   7.162   6.501  1.00  0.00    -0.460 OA
BRANCH  26  27
ATOM     27  C   UNL     1      -1.402   8.163   7.343  1.00  0.00     0.338 C 
ATOM     28  O   UNL     1      -0.820   9.227   7.500  1.00  0.00    -0.246 OA
BRANCH  27  29
ATOM     29  C   UNL     1      -2.737   7.896   7.911  1.00  0.00     0.060 A 
ATOM     30  C   UNL     1      -3.699   8.909   7.798  1.00  0.00     0.016 A 
ATOM     31  C   UNL     1      -3.037   6.707   8.580  1.00  0.00     0.016 A 
ATOM     32  C   UNL     1      -4.946   8.760   8.399  1.00  0.00     0.010 A 
ATOM     33  C   UNL     1      -4.286   6.565   9.194  1.00  0.00     0.010 A 
ATOM     34  C   UNL     1      -5.231   7.606   9.138  1.00  0.00    -0.014 A 
BRANCH  34  35
ATOM     35  C   UNL     1      -6.451   7.567   9.982  1.00  0.00     0.031 A 
ATOM     36  C   UNL     1      -6.323   7.854  11.454  1.00  0.00     0.074 A 
ATOM     37  C   UNL     1      -7.663   7.345   9.439  1.00  0.00     0.049 A 
ATOM     38  N   UNL     1      -7.250   7.875  12.376  1.00  0.00    -0.248 NA
ATOM     39  C   UNL     1      -4.971   8.163  11.952  1.00  0.00     0.031 C 
ATOM     40  C   UNL     1      -7.925   7.120   8.018  1.00  0.00     0.029 A 
ATOM     41  N   UNL     1      -8.903   7.282  10.024  1.00  0.00    -0.354 N 
ATOM     42  C   UNL     1      -6.598   8.202  13.560  1.00  0.00     0.074 A 
ATOM     43  C   UNL     1      -5.191   8.332  13.248  1.00  0.00     0.031 C 
ATOM     44  C   UNL     1      -9.247   6.952   7.841  1.00  0.00     0.029 A 
ATOM     45  C   UNL     1      -9.920   7.020   9.137  1.00  0.00     0.049 A 
ATOM     46  H   UNL     1      -9.050   7.412  10.989  1.00  0.00     0.167 HD
ATOM     47  C   UNL     1      -7.123   8.391  14.793  1.00  0.00     0.031 A 
ATOM     48  C   UNL     1     -11.240   6.842   9.348  1.00  0.00     0.031 A 
ATOM     49  C   UNL     1      -8.521   8.250  15.104  1.00  0.00     0.049 A 
ATOM     50  C   UNL     1     -11.785   6.950  10.749  1.00  0.00     0.074 A 
ATOM     51  C   UNL     1      -9.148   8.415  16.327  1.00  0.00     0.029 A 
ATOM     52  N   UNL     1      -9.506   7.909  14.191  1.00  0.00    -0.354 N 
ATOM     53  N   UNL     1     -11.155   7.261  11.858  1.00  0.00    -0.248 NA
ATOM     54  C   UNL     1     -13.220   6.687  10.928  1.00  0.00     0.031 C 
ATOM     55  C   UNL     1     -10.504   8.116  16.165  1.00  0.00     0.029 A 
ATOM     56  C   UNL     1     -10.733   7.830  14.829  1.00  0.00     0.049 A 
ATOM     57  H   UNL     1      -9.357   7.747  13.232  1.00  0.00     0.167 HD
ATOM     58  C   UNL     1     -12.122   7.255  12.859  1.00  0.00     0.074 A 
ATOM     59  C   UNL     1     -13.381   6.927  12.223  1.00  0.00     0.031 C 
ATOM     60  C   UNL     1     -11.980   7.501  14.185  1.00  0.00     0.031 A 
BRANCH  47  61
ATOM     61  C   UNL     1      -6.181   8.756  15.909  1.00  0.00    -0.014 A 
ATOM     62  C   UNL     1      -5.598  10.034  15.975  1.00  0.00     0.010 A 
ATOM     63  C   UNL     1      -5.932   7.835  16.943  1.00  0.00     0.010 A 
ATOM     64  C   UNL     1      -4.766  10.377  17.043  1.00  0.00     0.020 A 
ATOM     65  C   UNL     1      -5.123   8.184  18.028  1.00  0.00     0.020 A 
ATOM     66  C   UNL     1      -4.537   9.451  18.066  1.00  0.00     0.054 A 
BRANCH  66  67
ATOM     67  S   UNL     1      -3.491   9.944  19.463  1.00  0.00     0.124 S 
ATOM     68  O   UNL     1      -2.177  10.049  18.834  1.00  0.00    -0.237 OA
ATOM     69  O   UNL     1      -4.091  11.209  19.878  1.00  0.00    -0.237 OA
ATOM     70  O   UNL     1      -3.638   8.845  20.414  1.00  0.00    -0.744 OA
ENDBRANCH  66  67
ENDBRANCH  47  61
BRANCH  48  71
ATOM     71  C   UNL     1     -12.142   6.532   8.204  1.00  0.00    -0.014 A 
ATOM     72  C   UNL     1     -13.110   7.460   7.783  1.00  0.00     0.010 A 
ATOM     73  C   UNL     1     -12.040   5.301   7.530  1.00  0.00     0.010 A 
ATOM     74  C   UNL     1     -13.964   7.161   6.718  1.00  0.00     0.020 A 
ATOM     75  C   UNL     1     -12.872   5.009   6.446  1.00  0.00     0.020 A 
ATOM     76  C   UNL     1     -13.835   5.939   6.051  1.00  0.00     0.054 A 
BRANCH  76  77
ATOM     77  S   UNL     1     -14.920   5.597   4.638  1.00  0.00     0.124 S 
ATOM     78  O   UNL     1     -16.221   5.441   5.282  1.00  0.00    -0.237 OA
ATOM     79  O   UNL     1     -14.757   6.797   3.822  1.00  0.00    -0.237 OA
ATOM     80  O   UNL     1     -14.357   4.378   4.061  1.00  0.00    -0.744 OA
ENDBRANCH  76  77
ENDBRANCH  48  71
BRANCH  60  81
ATOM     81  C   UNL     1     -13.214   7.448  15.047  1.00  0.00    -0.014 A 
ATOM     82  C   UNL     1     -13.832   6.224  15.357  1.00  0.00     0.010 A 
ATOM     83  C   UNL     1     -13.712   8.632  15.624  1.00  0.00     0.010 A 
ATOM     84  C   UNL     1     -14.938   6.187  16.211  1.00  0.00     0.020 A 
ATOM     85  C   UNL     1     -14.798   8.595  16.503  1.00  0.00     0.020 A 
ATOM     86  C   UNL     1     -15.411   7.373  16.783  1.00  0.00     0.054 A 
BRANCH  86  87
ATOM     87  S   UNL     1     -16.812   7.285  17.932  1.00  0.00     0.124 S 
ATOM     88  O   UNL     1     -17.915   6.934  17.042  1.00  0.00    -0.237 OA
ATOM     89  O   UNL     1     -16.396   6.238  18.861  1.00  0.00    -0.237 OA
ATOM     90  O   UNL     1     -16.878   8.628  18.504  1.00  0.00    -0.744 OA
ENDBRANCH  86  87
ENDBRANCH  60  81
ENDBRANCH  34  35
ENDBRANCH  27  29
ENDBRANCH  26  27
ENDBRANCH  25  26
ENDBRANCH   1  25
TORSDOF 18
