REMARK SMILES O=C(NC[C@@H]1CC[C@H](C(=O)OCCOCCOC(=O)c2ccc(-c3c4nc(c(-c5ccc(S(=O)(=O)[O-])cc5)c5ccc([nH]5)c(-c5ccc(S(=O)(=O)[O-])cc5)c5nc(c(-c6ccc(S(=O)(=O)[O-])cc6)c6ccc3[nH]6)C=C5)C=C4)cc2)O1)c1ccc(CO)cc1
REMARK SMILES IDX 13 1 12 2 11 3 9 4 10 5 8 6 5 7 6 8 80 9 7 10 4 11 3 12 1 13
REMARK SMILES IDX 2 14 81 16 82 17 88 18 83 19 87 20 84 21 85 22 86 23 14 25
REMARK SMILES IDX 15 26 16 27 17 28 18 29 19 30 20 31 21 32 79 33 22 34 78 35
REMARK SMILES IDX 23 36 24 37 25 38 72 39 26 40 77 41 71 42 73 43 27 44 76 45
REMARK SMILES IDX 70 46 69 47 28 49 58 50 39 51 57 52 40 53 43 54 56 55 74 56
REMARK SMILES IDX 41 57 42 58 55 60 75 61 44 62 29 63 30 64 38 65 31 66 37 67
REMARK SMILES IDX 32 68 33 69 34 70 35 71 36 72 59 73 60 74 68 75 61 76 67 77
REMARK SMILES IDX 62 78 63 79 64 80 65 81 66 82 45 83 46 84 54 85 47 86 53 87
REMARK SMILES IDX 48 88 49 89 50 90 51 91 52 92
REMARK H PARENT 3 15 86 24 73 48 43 59
REMARK Flexibility Score: inf
ROOT
ATOM      1  C   UNL     1       8.045   3.553  -1.486  1.00  0.00     0.202 C 
ENDROOT
BRANCH   1   2
ATOM      2  C   UNL     1       7.912   2.124  -0.953  1.00  0.00     0.261 C 
BRANCH   2   3
ATOM      3  O   UNL     1       7.126   2.074   0.248  1.00  0.00    -0.461 OA
BRANCH   3   4
ATOM      4  C   UNL     1       7.706   1.454   1.308  1.00  0.00     0.335 C 
ATOM      5  O   UNL     1       8.798   0.894   1.284  1.00  0.00    -0.249 OA
BRANCH   4   6
ATOM      6  C   UNL     1       6.846   1.538   2.577  1.00  0.00     0.228 C 
ATOM      7  C   UNL     1       4.850   0.319   2.564  1.00  0.00     0.138 C 
ATOM      8  C   UNL     1       4.545   1.724   2.063  1.00  0.00     0.037 C 
ATOM      9  O   UNL     1       6.256   0.267   2.873  1.00  0.00    -0.361 OA
ATOM     10  C   UNL     1       5.701   2.535   2.585  1.00  0.00     0.047 C 
BRANCH   7  11
ATOM     11  C   UNL     1       4.516  -0.784   1.554  1.00  0.00     0.148 C 
BRANCH  11  12
ATOM     12  N   UNL     1       3.104  -0.825   1.213  1.00  0.00    -0.349 N 
ATOM     13  O   UNL     1       1.284  -0.311  -0.019  1.00  0.00    -0.269 OA
ATOM     14  C   UNL     1       2.502  -0.429   0.045  1.00  0.00     0.251 C 
ATOM     15  H   UNL     1       2.503  -1.181   1.908  1.00  0.00     0.163 HD
BRANCH  14  16
ATOM     16  C   UNL     1       3.353  -0.078  -1.108  1.00  0.00     0.039 A 
ATOM     17  C   UNL     1       4.189  -1.026  -1.708  1.00  0.00     0.014 A 
ATOM     18  C   UNL     1       3.349   1.239  -1.550  1.00  0.00     0.014 A 
ATOM     19  C   UNL     1       5.039  -0.646  -2.752  1.00  0.00     0.007 A 
ATOM     20  C   UNL     1       4.237   1.616  -2.554  1.00  0.00     0.007 A 
ATOM     21  C   UNL     1       5.060   0.679  -3.200  1.00  0.00    -0.023 A 
BRANCH  21  22
ATOM     22  C   UNL     1       5.894   1.086  -4.390  1.00  0.00     0.191 C 
BRANCH  22  23
ATOM     23  O   UNL     1       7.214   1.419  -3.998  1.00  0.00    -0.392 OA
ATOM     24  H   UNL     1       7.189   2.165  -3.379  1.00  0.00     0.211 HD
ENDBRANCH  22  23
ENDBRANCH  21  22
ENDBRANCH  14  16
ENDBRANCH  11  12
ENDBRANCH   7  11
ENDBRANCH   4   6
ENDBRANCH   3   4
ENDBRANCH   2   3
ENDBRANCH   1   2
BRANCH   1  25
ATOM     25  O   UNL     1       8.722   4.488  -0.641  1.00  0.00    -0.374 OA
BRANCH  25  26
ATOM     26  C   UNL     1       8.045   4.918   0.535  1.00  0.00     0.202 C 
BRANCH  26  27
ATOM     27  C   UNL     1       6.903   5.933   0.368  1.00  0.00     0.261 C 
BRANCH  27  28
ATOM     28  O   UNL     1       5.860   5.516  -0.532  1.00  0.00    -0.460 OA
BRANCH  28  29
ATOM     29  C   UNL     1       5.858   6.162  -1.726  1.00  0.00     0.338 C 
ATOM     30  O   UNL     1       6.628   7.051  -2.076  1.00  0.00    -0.246 OA
BRANCH  29  31
ATOM     31  C   UNL     1       4.882   5.566  -2.663  1.00  0.00     0.060 A 
ATOM     32  C   UNL     1       5.332   5.247  -3.952  1.00  0.00     0.016 A 
ATOM     33  C   UNL     1       3.535   5.392  -2.332  1.00  0.00     0.016 A 
ATOM     34  C   UNL     1       4.438   4.776  -4.919  1.00  0.00     0.010 A 
ATOM     35  C   UNL     1       2.638   4.921  -3.306  1.00  0.00     0.010 A 
ATOM     36  C   UNL     1       3.078   4.625  -4.612  1.00  0.00    -0.014 A 
BRANCH  36  37
ATOM     37  C   UNL     1       2.101   4.288  -5.688  1.00  0.00     0.031 A 
ATOM     38  C   UNL     1       1.316   5.399  -6.312  1.00  0.00     0.074 A 
ATOM     39  C   UNL     1       1.913   3.027  -6.124  1.00  0.00     0.049 A 
ATOM     40  N   UNL     1       0.410   5.332  -7.250  1.00  0.00    -0.248 NA
ATOM     41  C   UNL     1       1.585   6.758  -5.817  1.00  0.00     0.031 C 
ATOM     42  C   UNL     1       2.630   1.874  -5.615  1.00  0.00     0.029 A 
ATOM     43  N   UNL     1       1.077   2.485  -7.069  1.00  0.00    -0.354 N 
ATOM     44  C   UNL     1      -0.008   6.638  -7.455  1.00  0.00     0.074 A 
ATOM     45  C   UNL     1       0.721   7.471  -6.523  1.00  0.00     0.031 C 
ATOM     46  C   UNL     1       2.221   0.757  -6.230  1.00  0.00     0.029 A 
ATOM     47  C   UNL     1       1.165   1.110  -7.165  1.00  0.00     0.049 A 
ATOM     48  H   UNL     1       0.471   3.026  -7.625  1.00  0.00     0.167 HD
ATOM     49  C   UNL     1      -0.914   7.096  -8.348  1.00  0.00     0.031 A 
ATOM     50  C   UNL     1       0.463   0.224  -7.898  1.00  0.00     0.031 A 
ATOM     51  C   UNL     1      -1.657   6.253  -9.247  1.00  0.00     0.049 A 
ATOM     52  C   UNL     1      -0.591   0.751  -8.826  1.00  0.00     0.074 A 
ATOM     53  C   UNL     1      -2.589   6.627 -10.198  1.00  0.00     0.029 A 
ATOM     54  N   UNL     1      -1.566   4.869  -9.296  1.00  0.00    -0.354 N 
ATOM     55  N   UNL     1      -0.942   1.998  -9.036  1.00  0.00    -0.248 NA
ATOM     56  C   UNL     1      -1.333  -0.232  -9.624  1.00  0.00     0.031 C 
ATOM     57  C   UNL     1      -3.107   5.465 -10.778  1.00  0.00     0.029 A 
ATOM     58  C   UNL     1      -2.447   4.370 -10.241  1.00  0.00     0.049 A 
ATOM     59  H   UNL     1      -0.964   4.322  -8.741  1.00  0.00     0.167 HD
ATOM     60  C   UNL     1      -1.928   1.952 -10.011  1.00  0.00     0.074 A 
ATOM     61  C   UNL     1      -2.106   0.556 -10.360  1.00  0.00     0.031 C 
ATOM     62  C   UNL     1      -2.618   2.976 -10.570  1.00  0.00     0.031 A 
BRANCH  49  63
ATOM     63  C   UNL     1      -1.175   8.576  -8.352  1.00  0.00    -0.014 A 
ATOM     64  C   UNL     1      -0.206   9.485  -8.815  1.00  0.00     0.010 A 
ATOM     65  C   UNL     1      -2.409   9.063  -7.889  1.00  0.00     0.010 A 
ATOM     66  C   UNL     1      -0.452  10.859  -8.775  1.00  0.00     0.020 A 
ATOM     67  C   UNL     1      -2.671  10.435  -7.875  1.00  0.00     0.020 A 
ATOM     68  C   UNL     1      -1.683  11.325  -8.303  1.00  0.00     0.054 A 
BRANCH  68  69
ATOM     69  S   UNL     1      -1.982  13.112  -8.279  1.00  0.00     0.124 S 
ATOM     70  O   UNL     1      -1.115  13.548  -7.187  1.00  0.00    -0.237 OA
ATOM     71  O   UNL     1      -1.562  13.523  -9.616  1.00  0.00    -0.237 OA
ATOM     72  O   UNL     1      -3.415  13.222  -8.017  1.00  0.00    -0.744 OA
ENDBRANCH  68  69
ENDBRANCH  49  63
BRANCH  50  73
ATOM     73  C   UNL     1       0.731  -1.239  -7.776  1.00  0.00    -0.014 A 
ATOM     74  C   UNL     1       1.310  -1.958  -8.836  1.00  0.00     0.010 A 
ATOM     75  C   UNL     1       0.421  -1.923  -6.584  1.00  0.00     0.010 A 
ATOM     76  C   UNL     1       1.562  -3.330  -8.714  1.00  0.00     0.020 A 
ATOM     77  C   UNL     1       0.698  -3.288  -6.446  1.00  0.00     0.020 A 
ATOM     78  C   UNL     1       1.258  -3.986  -7.517  1.00  0.00     0.054 A 
BRANCH  78  79
ATOM     79  S   UNL     1       1.647  -5.752  -7.365  1.00  0.00     0.124 S 
ATOM     80  O   UNL     1       0.656  -6.361  -8.246  1.00  0.00    -0.237 OA
ATOM     81  O   UNL     1       3.030  -5.809  -7.832  1.00  0.00    -0.237 OA
ATOM     82  O   UNL     1       1.469  -6.022  -5.940  1.00  0.00    -0.744 OA
ENDBRANCH  78  79
ENDBRANCH  50  73
BRANCH  62  83
ATOM     83  C   UNL     1      -3.606   2.628 -11.648  1.00  0.00    -0.014 A 
ATOM     84  C   UNL     1      -4.818   1.981 -11.348  1.00  0.00     0.010 A 
ATOM     85  C   UNL     1      -3.336   3.005 -12.976  1.00  0.00     0.010 A 
ATOM     86  C   UNL     1      -5.730   1.692 -12.365  1.00  0.00     0.020 A 
ATOM     87  C   UNL     1      -4.259   2.746 -13.989  1.00  0.00     0.020 A 
ATOM     88  C   UNL     1      -5.446   2.079 -13.679  1.00  0.00     0.054 A 
BRANCH  88  89
ATOM     89  S   UNL     1      -6.671   1.740 -14.972  1.00  0.00     0.124 S 
ATOM     90  O   UNL     1      -6.547   0.294 -15.136  1.00  0.00    -0.237 OA
ATOM     91  O   UNL     1      -7.915   2.200 -14.361  1.00  0.00    -0.237 OA
ATOM     92  O   UNL     1      -6.208   2.537 -16.106  1.00  0.00    -0.744 OA
ENDBRANCH  88  89
ENDBRANCH  62  83
ENDBRANCH  36  37
ENDBRANCH  29  31
ENDBRANCH  28  29
ENDBRANCH  27  28
ENDBRANCH  26  27
ENDBRANCH  25  26
ENDBRANCH   1  25
TORSDOF 22
