REMARK SMILES Cc1ccc(-c2cc(C(=O)OCCOCCOC(=O)c3ccc(-c4c5nc(c(-c6ccc(S(=O)(=O)[O-])cc6)c6ccc([nH]6)c(-c6ccc(S(=O)(=O)[O-])cc6)c6nc(c(-c7ccc(S(=O)(=O)[O-])cc7)c7ccc4[nH]7)C=C6)C=C5)cc3)c3c(-c4cccc([N+](=O)[O-])c4)[nH]nc3n2)cc1
REMARK SMILES IDX 15 1 14 2 13 3 12 4 11 5 9 6 10 7 8 8 6 9 7 10 94 11 93 12
REMARK SMILES IDX 80 13 92 14 81 15 91 16 5 18 1 19 2 20 3 21 96 22 4 23 95 24
REMARK SMILES IDX 82 25 83 26 90 27 84 28 86 29 85 30 87 31 88 32 89 33 16 34
REMARK SMILES IDX 17 35 18 36 19 37 20 38 21 39 79 40 22 41 78 42 23 43 24 44
REMARK SMILES IDX 25 45 72 46 26 47 77 48 71 49 73 50 27 51 76 52 70 53 69 54
REMARK SMILES IDX 28 56 58 57 39 58 57 59 40 60 43 61 56 62 74 63 41 64 42 65
REMARK SMILES IDX 55 67 75 68 44 69 29 70 30 71 38 72 31 73 37 74 32 75 33 76
REMARK SMILES IDX 34 77 35 78 36 79 59 80 60 81 68 82 61 83 67 84 62 85 63 86
REMARK SMILES IDX 64 87 65 88 66 89 45 90 46 91 54 92 47 93 53 94 48 95 49 96
REMARK SMILES IDX 50 97 51 98 52 99
REMARK H PARENT 91 17 73 55 43 66
REMARK Flexibility Score: inf
ROOT
ATOM      1  C   UNL     1      -6.718  -1.625  -4.293  1.00  0.00     0.202 C 
ENDROOT
BRANCH   1   2
ATOM      2  O   UNL     1      -6.324  -0.288  -4.327  1.00  0.00    -0.374 OA
BRANCH   2   3
ATOM      3  C   UNL     1      -5.047  -0.048  -4.881  1.00  0.00     0.202 C 
BRANCH   3   4
ATOM      4  C   UNL     1      -4.601   1.157  -4.140  1.00  0.00     0.261 C 
BRANCH   4   5
ATOM      5  O   UNL     1      -4.655   0.934  -2.704  1.00  0.00    -0.460 OA
BRANCH   5   6
ATOM      6  C   UNL     1      -5.772   0.823  -1.925  1.00  0.00     0.339 C 
ATOM      7  O   UNL     1      -6.912   1.090  -2.173  1.00  0.00    -0.246 OA
BRANCH   6   8
ATOM      8  C   UNL     1      -5.308   0.273  -0.657  1.00  0.00     0.075 A 
ATOM      9  C   UNL     1      -3.370  -0.396   0.710  1.00  0.00     0.074 A 
ATOM     10  C   UNL     1      -3.939   0.258  -0.390  1.00  0.00     0.045 A 
ATOM     11  N   UNL     1      -4.066  -1.071   1.669  1.00  0.00    -0.226 NA
ATOM     12  C   UNL     1      -5.423  -0.999   1.492  1.00  0.00     0.182 A 
ATOM     13  C   UNL     1      -6.034  -0.344   0.361  1.00  0.00     0.061 A 
ATOM     14  N   UNL     1      -6.350  -1.530   2.292  1.00  0.00    -0.154 NA
ATOM     15  C   UNL     1      -7.404  -0.492   0.527  1.00  0.00     0.076 A 
ATOM     16  N   UNL     1      -7.517  -1.173   1.718  1.00  0.00    -0.275 N 
ATOM     17  H   UNL     1      -8.389  -1.385   2.123  1.00  0.00     0.190 HD
BRANCH   9  18
ATOM     18  C   UNL     1      -1.894  -0.366   0.738  1.00  0.00     0.000 A 
ATOM     19  C   UNL     1       2.365  -0.111  -0.036  1.00  0.00     0.044 C 
ATOM     20  C   UNL     1       0.892  -0.195   0.232  1.00  0.00    -0.051 A 
ATOM     21  C   UNL     1       0.247  -1.438   0.295  1.00  0.00     0.004 A 
ATOM     22  C   UNL     1       0.141   0.965   0.424  1.00  0.00     0.004 A 
ATOM     23  C   UNL     1      -1.132  -1.524   0.544  1.00  0.00     0.010 A 
ATOM     24  C   UNL     1      -1.228   0.878   0.682  1.00  0.00     0.010 A 
ENDBRANCH   9  18
BRANCH  15  25
ATOM     25  C   UNL     1      -8.596  -0.071  -0.216  1.00  0.00     0.007 A 
ATOM     26  C   UNL     1      -9.239   1.140   0.083  1.00  0.00     0.011 A 
ATOM     27  C   UNL     1      -9.095  -0.857  -1.265  1.00  0.00     0.096 A 
ATOM     28  C   UNL     1     -10.334   1.581  -0.674  1.00  0.00     0.008 A 
ATOM     29  C   UNL     1     -10.176  -0.395  -2.039  1.00  0.00     0.270 A 
ATOM     30  C   UNL     1     -10.800   0.824  -1.747  1.00  0.00     0.085 A 
BRANCH  29  31
ATOM     31  N   UNL     1     -10.628  -1.174  -3.200  1.00  0.00     0.062 N 
ATOM     32  O   UNL     1     -11.532  -0.698  -3.904  1.00  0.00    -0.258 OA
ATOM     33  O   UNL     1     -10.081  -2.267  -3.415  1.00  0.00    -0.258 OA
ENDBRANCH  29  31
ENDBRANCH  15  25
ENDBRANCH   6   8
ENDBRANCH   5   6
ENDBRANCH   4   5
ENDBRANCH   3   4
ENDBRANCH   2   3
ENDBRANCH   1   2
BRANCH   1  34
ATOM     34  C   UNL     1      -7.031  -2.074  -5.710  1.00  0.00     0.261 C 
BRANCH  34  35
ATOM     35  O   UNL     1      -8.050  -1.232  -6.318  1.00  0.00    -0.460 OA
BRANCH  35  36
ATOM     36  C   UNL     1      -7.654  -0.167  -7.093  1.00  0.00     0.338 C 
ATOM     37  O   UNL     1      -7.289  -0.273  -8.252  1.00  0.00    -0.246 OA
BRANCH  36  38
ATOM     38  C   UNL     1      -7.838   1.139  -6.374  1.00  0.00     0.060 A 
ATOM     39  C   UNL     1      -7.111   2.307  -6.683  1.00  0.00     0.016 A 
ATOM     40  C   UNL     1      -8.611   1.119  -5.228  1.00  0.00     0.016 A 
ATOM     41  C   UNL     1      -7.016   3.369  -5.750  1.00  0.00     0.010 A 
ATOM     42  C   UNL     1      -8.445   2.114  -4.291  1.00  0.00     0.010 A 
ATOM     43  C   UNL     1      -7.617   3.228  -4.504  1.00  0.00    -0.014 A 
BRANCH  43  44
ATOM     44  C   UNL     1      -7.495   4.081  -3.305  1.00  0.00     0.031 A 
ATOM     45  C   UNL     1      -8.755   4.659  -2.776  1.00  0.00     0.074 A 
ATOM     46  C   UNL     1      -6.409   4.005  -2.488  1.00  0.00     0.049 A 
ATOM     47  N   UNL     1      -8.817   5.396  -1.728  1.00  0.00    -0.248 NA
ATOM     48  C   UNL     1     -10.071   4.472  -3.395  1.00  0.00     0.031 C 
ATOM     49  C   UNL     1      -6.332   4.120  -1.025  1.00  0.00     0.029 A 
ATOM     50  N   UNL     1      -5.090   3.723  -2.820  1.00  0.00    -0.354 N 
ATOM     51  C   UNL     1     -10.133   5.475  -1.344  1.00  0.00     0.074 A 
ATOM     52  C   UNL     1     -10.885   5.000  -2.475  1.00  0.00     0.031 C 
ATOM     53  C   UNL     1      -5.043   4.149  -0.629  1.00  0.00     0.029 A 
ATOM     54  C   UNL     1      -4.218   4.176  -1.828  1.00  0.00     0.049 A 
ATOM     55  H   UNL     1      -4.808   3.265  -3.644  1.00  0.00     0.167 HD
ATOM     56  C   UNL     1     -10.395   5.802  -0.050  1.00  0.00     0.031 A 
ATOM     57  C   UNL     1      -3.239   5.061  -2.162  1.00  0.00     0.031 A 
ATOM     58  C   UNL     1      -9.153   6.172   0.647  1.00  0.00     0.049 A 
ATOM     59  C   UNL     1      -3.656   6.378  -1.563  1.00  0.00     0.074 A 
ATOM     60  C   UNL     1      -8.383   5.558   1.619  1.00  0.00     0.029 A 
ATOM     61  N   UNL     1      -8.357   7.179   0.099  1.00  0.00    -0.354 N 
ATOM     62  N   UNL     1      -4.902   6.644  -1.265  1.00  0.00    -0.248 NA
ATOM     63  C   UNL     1      -2.735   7.403  -1.090  1.00  0.00     0.031 C 
ATOM     64  C   UNL     1      -7.080   6.146   1.572  1.00  0.00     0.029 A 
ATOM     65  C   UNL     1      -7.069   7.138   0.599  1.00  0.00     0.049 A 
ATOM     66  H   UNL     1      -8.674   7.837  -0.561  1.00  0.00     0.167 HD
ATOM     67  C   UNL     1      -4.950   7.728  -0.452  1.00  0.00     0.074 A 
ATOM     68  C   UNL     1      -3.578   8.213  -0.423  1.00  0.00     0.031 C 
ATOM     69  C   UNL     1      -6.086   8.138   0.181  1.00  0.00     0.031 A 
BRANCH  56  70
ATOM     70  C   UNL     1     -11.723   5.612   0.652  1.00  0.00    -0.014 A 
ATOM     71  C   UNL     1     -11.820   5.940   2.020  1.00  0.00     0.010 A 
ATOM     72  C   UNL     1     -12.888   5.072   0.066  1.00  0.00     0.010 A 
ATOM     73  C   UNL     1     -12.998   5.743   2.757  1.00  0.00     0.020 A 
ATOM     74  C   UNL     1     -14.081   4.885   0.786  1.00  0.00     0.020 A 
ATOM     75  C   UNL     1     -14.127   5.221   2.133  1.00  0.00     0.054 A 
BRANCH  75  76
ATOM     76  S   UNL     1     -15.644   4.998   3.098  1.00  0.00     0.124 S 
ATOM     77  O   UNL     1     -15.229   4.026   4.107  1.00  0.00    -0.237 OA
ATOM     78  O   UNL     1     -15.904   6.347   3.590  1.00  0.00    -0.237 OA
ATOM     79  O   UNL     1     -16.608   4.498   2.120  1.00  0.00    -0.744 OA
ENDBRANCH  75  76
ENDBRANCH  56  70
BRANCH  57  80
ATOM     80  C   UNL     1      -2.627   4.755  -3.507  1.00  0.00    -0.014 A 
ATOM     81  C   UNL     1      -1.709   3.674  -3.571  1.00  0.00     0.010 A 
ATOM     82  C   UNL     1      -3.286   5.116  -4.699  1.00  0.00     0.010 A 
ATOM     83  C   UNL     1      -1.566   2.896  -4.737  1.00  0.00     0.020 A 
ATOM     84  C   UNL     1      -3.176   4.314  -5.856  1.00  0.00     0.020 A 
ATOM     85  C   UNL     1      -2.349   3.185  -5.857  1.00  0.00     0.054 A 
BRANCH  85  86
ATOM     86  S   UNL     1      -2.578   1.888  -7.141  1.00  0.00     0.124 S 
ATOM     87  O   UNL     1      -1.495   2.169  -8.074  1.00  0.00    -0.237 OA
ATOM     88  O   UNL     1      -2.445   0.644  -6.382  1.00  0.00    -0.237 OA
ATOM     89  O   UNL     1      -3.929   2.147  -7.628  1.00  0.00    -0.744 OA
ENDBRANCH  85  86
ENDBRANCH  57  80
BRANCH  69  90
ATOM     90  C   UNL     1      -6.336   9.586   0.480  1.00  0.00    -0.014 A 
ATOM     91  C   UNL     1      -5.555  10.616  -0.067  1.00  0.00     0.010 A 
ATOM     92  C   UNL     1      -7.500   9.960   1.186  1.00  0.00     0.010 A 
ATOM     93  C   UNL     1      -5.854  11.953   0.171  1.00  0.00     0.020 A 
ATOM     94  C   UNL     1      -7.854  11.294   1.362  1.00  0.00     0.020 A 
ATOM     95  C   UNL     1      -6.999  12.282   0.890  1.00  0.00     0.054 A 
BRANCH  95  96
ATOM     96  S   UNL     1      -7.358  14.022   1.179  1.00  0.00     0.124 S 
ATOM     97  O   UNL     1      -6.404  14.344   2.238  1.00  0.00    -0.237 OA
ATOM     98  O   UNL     1      -7.079  14.626  -0.122  1.00  0.00    -0.237 OA
ATOM     99  O   UNL     1      -8.762  14.026   1.577  1.00  0.00    -0.744 OA
ENDBRANCH  95  96
ENDBRANCH  69  90
ENDBRANCH  43  44
ENDBRANCH  36  38
ENDBRANCH  35  36
ENDBRANCH  34  35
ENDBRANCH   1  34
TORSDOF 20
