REMARK SMILES COc1ccc(/C=C/C(=O)OCCOCCOC(=O)c2ccc(-c3c4nc(c(-c5ccc(S(=O)(=O)[O-])cc5)c5ccc([nH]5)c(-c5ccc(S(=O)(=O)[O-])cc5)c5nc(c(-c6ccc(S(=O)(=O)[O-])cc6)c6ccc3[nH]6)C=C5)C=C4)cc2)cc1S(=O)(=O)Nc1ccc(F)cc1F
REMARK SMILES IDX 13 1 12 2 11 3 9 4 10 5 8 6 7 7 6 8 3 9 4 10 81 11 5 12
REMARK SMILES IDX 80 13 2 14 1 15 82 16 83 17 84 18 85 19 86 21 87 22 92 23
REMARK SMILES IDX 88 24 91 25 93 26 89 27 90 28 14 29 15 30 16 31 17 32 18 33
REMARK SMILES IDX 19 34 20 35 21 36 79 37 22 38 78 39 23 40 24 41 25 42 72 43
REMARK SMILES IDX 26 44 77 45 71 46 73 47 27 48 76 49 70 50 69 51 28 53 58 54
REMARK SMILES IDX 39 55 57 56 40 57 43 58 56 59 74 60 41 61 42 62 55 64 75 65
REMARK SMILES IDX 44 66 29 67 30 68 38 69 31 70 37 71 32 72 33 73 34 74 35 75
REMARK SMILES IDX 36 76 59 77 60 78 68 79 61 80 67 81 62 82 63 83 64 84 65 85
REMARK SMILES IDX 66 86 45 87 46 88 54 89 47 90 53 91 48 92 49 93 50 94 51 95
REMARK SMILES IDX 52 96
REMARK H PARENT 85 20 73 52 43 63
REMARK Flexibility Score: inf
ROOT
ATOM      1  C   UNL     1       2.890  11.265   0.959  1.00  0.00     0.202 C 
ENDROOT
BRANCH   1   2
ATOM      2  C   UNL     1       2.782  10.320   2.156  1.00  0.00     0.261 C 
BRANCH   2   3
ATOM      3  O   UNL     1       2.637   8.951   1.744  1.00  0.00    -0.460 OA
BRANCH   3   4
ATOM      4  C   UNL     1       1.457   8.395   2.089  1.00  0.00     0.330 C 
ATOM      5  O   UNL     1       0.563   8.917   2.741  1.00  0.00    -0.247 OA
BRANCH   4   6
ATOM      6  C   UNL     1       1.291   7.018   1.597  1.00  0.00     0.094 C 
ATOM      7  C   UNL     1       2.001   6.311   0.699  1.00  0.00     0.015 C 
BRANCH   7   8
ATOM      8  C   UNL     1       1.588   4.920   0.414  1.00  0.00    -0.024 A 
ATOM      9  C   UNL     1       0.801   2.247   0.574  1.00  0.00     0.139 A 
ATOM     10  C   UNL     1      -0.163   3.248   0.552  1.00  0.00     0.048 A 
ATOM     11  C   UNL     1       2.115   2.550   0.232  1.00  0.00     0.130 A 
ATOM     12  C   UNL     1       0.228   4.576   0.435  1.00  0.00     0.012 A 
ATOM     13  C   UNL     1       2.522   3.900   0.197  1.00  0.00     0.034 A 
BRANCH   9  14
ATOM     14  O   UNL     1       0.356   1.020   0.965  1.00  0.00    -0.495 OA
ATOM     15  C   UNL     1       0.830   0.693   2.276  1.00  0.00     0.278 C 
ENDBRANCH   9  14
BRANCH  11  16
ATOM     16  S   UNL     1       3.315   1.328  -0.235  1.00  0.00     0.265 S 
ATOM     17  O   UNL     1       3.974   1.800  -1.434  1.00  0.00    -0.201 OA
ATOM     18  O   UNL     1       4.081   1.052   0.965  1.00  0.00    -0.201 OA
BRANCH  16  19
ATOM     19  N   UNL     1       2.576  -0.141  -0.598  1.00  0.00    -0.277 N 
ATOM     20  H   UNL     1       3.030  -0.963  -0.305  1.00  0.00     0.180 HD
BRANCH  19  21
ATOM     21  C   UNL     1       1.339  -0.283  -1.299  1.00  0.00     0.085 A 
ATOM     22  C   UNL     1       0.525  -1.358  -0.902  1.00  0.00     0.033 A 
ATOM     23  C   UNL     1       0.865   0.589  -2.285  1.00  0.00     0.150 A 
ATOM     24  C   UNL     1      -0.779  -1.474  -1.385  1.00  0.00     0.041 A 
ATOM     25  C   UNL     1      -0.433   0.471  -2.778  1.00  0.00     0.080 A 
ATOM     26  F   UNL     1       1.612   1.607  -2.729  1.00  0.00    -0.205 F 
ATOM     27  C   UNL     1      -1.251  -0.545  -2.304  1.00  0.00     0.126 A 
ATOM     28  F   UNL     1      -2.519  -0.627  -2.727  1.00  0.00    -0.207 F 
ENDBRANCH  19  21
ENDBRANCH  16  19
ENDBRANCH  11  16
ENDBRANCH   7   8
ENDBRANCH   4   6
ENDBRANCH   3   4
ENDBRANCH   2   3
ENDBRANCH   1   2
BRANCH   1  29
ATOM     29  O   UNL     1       1.795  11.233   0.045  1.00  0.00    -0.374 OA
BRANCH  29  30
ATOM     30  C   UNL     1       1.795  10.184  -0.927  1.00  0.00     0.202 C 
BRANCH  30  31
ATOM     31  C   UNL     1       2.783  10.351  -2.089  1.00  0.00     0.261 C 
BRANCH  31  32
ATOM     32  O   UNL     1       4.143  10.129  -1.667  1.00  0.00    -0.460 OA
BRANCH  32  33
ATOM     33  C   UNL     1       4.960  11.206  -1.777  1.00  0.00     0.338 C 
ATOM     34  O   UNL     1       4.686  12.288  -2.269  1.00  0.00    -0.246 OA
BRANCH  33  35
ATOM     35  C   UNL     1       6.215  10.968  -1.034  1.00  0.00     0.060 A 
ATOM     36  C   UNL     1       6.629  11.958  -0.132  1.00  0.00     0.016 A 
ATOM     37  C   UNL     1       7.007   9.839  -1.254  1.00  0.00     0.016 A 
ATOM     38  C   UNL     1       7.859  11.846   0.516  1.00  0.00     0.010 A 
ATOM     39  C   UNL     1       8.247   9.734  -0.612  1.00  0.00     0.010 A 
ATOM     40  C   UNL     1       8.693  10.753   0.250  1.00  0.00    -0.014 A 
BRANCH  40  41
ATOM     41  C   UNL     1      10.083  10.750   0.768  1.00  0.00     0.031 A 
ATOM     42  C   UNL     1      11.195  11.236  -0.122  1.00  0.00     0.074 A 
ATOM     43  C   UNL     1      10.351  10.345   2.023  1.00  0.00     0.049 A 
ATOM     44  N   UNL     1      12.478  11.310   0.124  1.00  0.00    -0.248 NA
ATOM     45  C   UNL     1      10.812  11.700  -1.467  1.00  0.00     0.031 C 
ATOM     46  C   UNL     1       9.360   9.882   2.994  1.00  0.00     0.029 A 
ATOM     47  N   UNL     1      11.545  10.255   2.693  1.00  0.00    -0.354 N 
ATOM     48  C   UNL     1      13.056  11.822  -1.032  1.00  0.00     0.074 A 
ATOM     49  C   UNL     1      11.988  12.024  -1.987  1.00  0.00     0.031 C 
ATOM     50  C   UNL     1       9.990   9.541   4.132  1.00  0.00     0.029 A 
ATOM     51  C   UNL     1      11.428   9.741   3.963  1.00  0.00     0.049 A 
ATOM     52  H   UNL     1      12.405  10.531   2.301  1.00  0.00     0.167 HD
ATOM     53  C   UNL     1      14.358  12.101  -1.276  1.00  0.00     0.031 A 
ATOM     54  C   UNL     1      12.375   9.448   4.877  1.00  0.00     0.031 A 
ATOM     55  C   UNL     1      15.423  11.897  -0.332  1.00  0.00     0.049 A 
ATOM     56  C   UNL     1      13.822   9.720   4.560  1.00  0.00     0.074 A 
ATOM     57  C   UNL     1      16.771  12.176  -0.483  1.00  0.00     0.029 A 
ATOM     58  N   UNL     1      15.265  11.359   0.934  1.00  0.00    -0.354 N 
ATOM     59  N   UNL     1      14.345  10.241   3.476  1.00  0.00    -0.248 NA
ATOM     60  C   UNL     1      14.807   9.369   5.595  1.00  0.00     0.031 C 
ATOM     61  C   UNL     1      17.434  11.766   0.678  1.00  0.00     0.029 A 
ATOM     62  C   UNL     1      16.493  11.274   1.567  1.00  0.00     0.049 A 
ATOM     63  H   UNL     1      14.406  11.079   1.326  1.00  0.00     0.167 HD
ATOM     64  C   UNL     1      15.715  10.303   3.709  1.00  0.00     0.074 A 
ATOM     65  C   UNL     1      15.940   9.778   5.039  1.00  0.00     0.031 C 
ATOM     66  C   UNL     1      16.700  10.756   2.894  1.00  0.00     0.031 A 
BRANCH  53  67
ATOM     67  C   UNL     1      14.713  12.640  -2.634  1.00  0.00    -0.014 A 
ATOM     68  C   UNL     1      14.455  13.980  -2.971  1.00  0.00     0.010 A 
ATOM     69  C   UNL     1      15.374  11.812  -3.560  1.00  0.00     0.010 A 
ATOM     70  C   UNL     1      14.836  14.479  -4.220  1.00  0.00     0.020 A 
ATOM     71  C   UNL     1      15.772  12.312  -4.802  1.00  0.00     0.020 A 
ATOM     72  C   UNL     1      15.491  13.641  -5.128  1.00  0.00     0.054 A 
BRANCH  72  73
ATOM     73  S   UNL     1      16.017  14.325  -6.724  1.00  0.00     0.124 S 
ATOM     74  O   UNL     1      14.751  14.399  -7.451  1.00  0.00    -0.237 OA
ATOM     75  O   UNL     1      16.600  15.610  -6.348  1.00  0.00    -0.237 OA
ATOM     76  O   UNL     1      16.967  13.337  -7.228  1.00  0.00    -0.744 OA
ENDBRANCH  72  73
ENDBRANCH  53  67
BRANCH  54  77
ATOM     77  C   UNL     1      11.994   8.832   6.176  1.00  0.00    -0.014 A 
ATOM     78  C   UNL     1      12.087   9.562   7.374  1.00  0.00     0.010 A 
ATOM     79  C   UNL     1      11.562   7.495   6.221  1.00  0.00     0.010 A 
ATOM     80  C   UNL     1      11.781   8.957   8.597  1.00  0.00     0.020 A 
ATOM     81  C   UNL     1      11.232   6.893   7.438  1.00  0.00     0.020 A 
ATOM     82  C   UNL     1      11.360   7.624   8.621  1.00  0.00     0.054 A 
BRANCH  82  83
ATOM     83  S   UNL     1      10.938   6.860  10.212  1.00  0.00     0.124 S 
ATOM     84  O   UNL     1      12.255   6.534  10.749  1.00  0.00    -0.237 OA
ATOM     85  O   UNL     1      10.220   7.930  10.900  1.00  0.00    -0.237 OA
ATOM     86  O   UNL     1      10.114   5.715   9.829  1.00  0.00    -0.744 OA
ENDBRANCH  82  83
ENDBRANCH  54  77
BRANCH  66  87
ATOM     87  C   UNL     1      18.106  10.738   3.427  1.00  0.00    -0.014 A 
ATOM     88  C   UNL     1      18.832   9.538   3.520  1.00  0.00     0.010 A 
ATOM     89  C   UNL     1      18.728  11.948   3.785  1.00  0.00     0.010 A 
ATOM     90  C   UNL     1      20.149   9.545   3.987  1.00  0.00     0.020 A 
ATOM     91  C   UNL     1      20.052  11.961   4.232  1.00  0.00     0.020 A 
ATOM     92  C   UNL     1      20.750  10.757   4.343  1.00  0.00     0.054 A 
BRANCH  92  93
ATOM     93  S   UNL     1      22.476  10.751   4.904  1.00  0.00     0.124 S 
ATOM     94  O   UNL     1      22.344  10.292   6.284  1.00  0.00    -0.237 OA
ATOM     95  O   UNL     1      23.112   9.809   3.986  1.00  0.00    -0.237 OA
ATOM     96  O   UNL     1      22.894  12.142   4.746  1.00  0.00    -0.744 OA
ENDBRANCH  92  93
ENDBRANCH  66  87
ENDBRANCH  40  41
ENDBRANCH  33  35
ENDBRANCH  32  33
ENDBRANCH  31  32
ENDBRANCH  30  31
ENDBRANCH  29  30
ENDBRANCH   1  29
TORSDOF 22
