REMARK SMILES COc1cccc([C@H]2[NH2+][C@@](CC(C)C)(C(=O)OCCOCCOC(=O)c3ccc(-c4c5nc(c(-c6ccc(S(=O)(=O)[O-])cc6)c6ccc([nH]6)c(-c6ccc(S(=O)(=O)[O-])cc6)c6nc(c(-c7ccc(S(=O)(=O)[O-])cc7)c7ccc4[nH]7)C=C6)C=C5)cc3)[C@H]3C(=O)N(C(C)C)C(=O)[C@H]23)c1O
REMARK SMILES IDX 21 1 20 2 19 3 18 4 17 5 15 6 16 7 10 8 8 9 9 10 95 11 86 14
REMARK SMILES IDX 93 15 87 16 89 17 94 18 88 19 7 20 3 21 4 22 96 23 5 24 6 25
REMARK SMILES IDX 2 26 1 27 97 28 11 30 12 31 13 32 14 33 90 34 91 35 92 36
REMARK SMILES IDX 22 37 23 38 24 39 25 40 26 41 27 42 85 43 28 44 84 45 29 46
REMARK SMILES IDX 30 47 31 48 78 49 32 50 83 51 77 52 79 53 33 54 82 55 76 56
REMARK SMILES IDX 75 57 34 59 64 60 45 61 63 62 46 63 49 64 62 65 80 66 47 67
REMARK SMILES IDX 48 68 61 70 81 71 50 72 35 73 36 74 44 75 37 76 43 77 38 78
REMARK SMILES IDX 39 79 40 80 41 81 42 82 65 83 66 84 74 85 67 86 73 87 68 88
REMARK SMILES IDX 69 89 70 90 71 91 72 92 51 93 52 94 60 95 53 96 59 97 54 98
REMARK SMILES IDX 55 99 56 100 57 101 58 102
REMARK H PARENT 9 12 9 13 97 29 79 58 49 69
REMARK Flexibility Score: inf
ROOT
ATOM      1  C   UNL     1      -0.768  -8.813  -0.558  1.00  0.00     0.202 C 
ENDROOT
BRANCH   1   2
ATOM      2  O   UNL     1       0.232  -9.716  -0.100  1.00  0.00    -0.374 OA
BRANCH   2   3
ATOM      3  C   UNL     1       0.375  -9.930   1.297  1.00  0.00     0.202 C 
BRANCH   3   4
ATOM      4  C   UNL     1       0.677  -8.751   2.233  1.00  0.00     0.261 C 
BRANCH   4   5
ATOM      5  O   UNL     1       0.128  -7.492   1.831  1.00  0.00    -0.459 OA
BRANCH   5   6
ATOM      6  C   UNL     1       1.037  -6.653   1.263  1.00  0.00     0.369 C 
ATOM      7  O   UNL     1       2.182  -6.997   0.982  1.00  0.00    -0.245 OA
BRANCH   6   8
ATOM      8  C   UNL     1       0.458  -5.229   0.975  1.00  0.00     0.207 C 
ATOM      9  C   UNL     1       0.131  -4.868  -1.481  1.00  0.00     0.232 C 
ATOM     10  N   UNL     1      -0.554  -5.309  -0.200  1.00  0.00    -0.324 N 
ATOM     11  C   UNL     1       1.559  -4.951  -1.070  1.00  0.00     0.161 C 
ATOM     12  H   UNL     1      -0.882  -6.269  -0.302  1.00  0.00     0.347 HD
ATOM     13  H   UNL     1      -1.349  -4.699  -0.009  1.00  0.00     0.347 HD
ATOM     14  C   UNL     1       1.526  -4.361   0.322  1.00  0.00     0.171 C 
ATOM     15  C   UNL     1       2.762  -4.289  -1.630  1.00  0.00     0.240 C 
ATOM     16  C   UNL     1       2.990  -4.406   0.646  1.00  0.00     0.240 C 
ATOM     17  N   UNL     1       3.651  -4.334  -0.567  1.00  0.00    -0.279 N 
ATOM     18  O   UNL     1       2.939  -3.904  -2.770  1.00  0.00    -0.274 OA
ATOM     19  O   UNL     1       3.463  -4.371   1.769  1.00  0.00    -0.274 OA
BRANCH   9  20
ATOM     20  C   UNL     1      -0.312  -5.638  -2.722  1.00  0.00     0.056 A 
ATOM     21  C   UNL     1       0.045  -7.146  -4.645  1.00  0.00     0.161 A 
ATOM     22  C   UNL     1      -1.206  -6.788  -5.149  1.00  0.00     0.050 A 
ATOM     23  C   UNL     1       0.464  -6.591  -3.423  1.00  0.00     0.166 A 
ATOM     24  C   UNL     1      -2.020  -5.896  -4.457  1.00  0.00     0.005 A 
ATOM     25  C   UNL     1      -1.577  -5.327  -3.260  1.00  0.00     0.014 A 
BRANCH  21  26
ATOM     26  O   UNL     1       0.709  -8.045  -5.438  1.00  0.00    -0.493 OA
ATOM     27  C   UNL     1       2.107  -8.226  -5.252  1.00  0.00     0.278 C 
ENDBRANCH  21  26
BRANCH  23  28
ATOM     28  O   UNL     1       1.635  -7.026  -2.872  1.00  0.00    -0.504 OA
ATOM     29  H   UNL     1       2.160  -7.657  -3.324  1.00  0.00     0.293 HD
ENDBRANCH  23  28
ENDBRANCH   9  20
BRANCH   8  30
ATOM     30  C   UNL     1      -0.137  -4.506   2.229  1.00  0.00     0.085 C 
BRANCH  30  31
ATOM     31  C   UNL     1      -0.112  -5.194   3.619  1.00  0.00    -0.011 C 
ATOM     32  C   UNL     1       1.290  -5.493   4.157  1.00  0.00     0.007 C 
ATOM     33  C   UNL     1      -0.833  -4.318   4.654  1.00  0.00     0.007 C 
ENDBRANCH  30  31
ENDBRANCH   8  30
BRANCH  17  34
ATOM     34  C   UNL     1       5.095  -4.441  -0.701  1.00  0.00     0.087 C 
ATOM     35  C   UNL     1       5.455  -5.719  -1.470  1.00  0.00     0.031 C 
ATOM     36  C   UNL     1       5.713  -3.210  -1.346  1.00  0.00     0.031 C 
ENDBRANCH  17  34
ENDBRANCH   6   8
ENDBRANCH   5   6
ENDBRANCH   4   5
ENDBRANCH   3   4
ENDBRANCH   2   3
ENDBRANCH   1   2
BRANCH   1  37
ATOM     37  C   UNL     1      -2.231  -8.944  -0.106  1.00  0.00     0.261 C 
BRANCH  37  38
ATOM     38  O   UNL     1      -2.441  -9.004   1.315  1.00  0.00    -0.460 OA
BRANCH  38  39
ATOM     39  C   UNL     1      -2.897 -10.202   1.760  1.00  0.00     0.338 C 
ATOM     40  O   UNL     1      -3.079 -11.212   1.101  1.00  0.00    -0.246 OA
BRANCH  39  41
ATOM     41  C   UNL     1      -3.043 -10.194   3.223  1.00  0.00     0.060 A 
ATOM     42  C   UNL     1      -2.199 -11.015   3.980  1.00  0.00     0.016 A 
ATOM     43  C   UNL     1      -4.120  -9.535   3.819  1.00  0.00     0.016 A 
ATOM     44  C   UNL     1      -2.459 -11.219   5.334  1.00  0.00     0.010 A 
ATOM     45  C   UNL     1      -4.380  -9.745   5.177  1.00  0.00     0.010 A 
ATOM     46  C   UNL     1      -3.576 -10.619   5.930  1.00  0.00    -0.014 A 
BRANCH  46  47
ATOM     47  C   UNL     1      -3.978 -11.018   7.302  1.00  0.00     0.031 A 
ATOM     48  C   UNL     1      -5.126 -11.974   7.486  1.00  0.00     0.074 A 
ATOM     49  C   UNL     1      -3.306 -10.552   8.370  1.00  0.00     0.049 A 
ATOM     50  N   UNL     1      -5.657 -12.426   8.592  1.00  0.00    -0.248 NA
ATOM     51  C   UNL     1      -5.760 -12.489   6.261  1.00  0.00     0.031 C 
ATOM     52  C   UNL     1      -2.151  -9.657   8.317  1.00  0.00     0.029 A 
ATOM     53  N   UNL     1      -3.505 -10.768   9.711  1.00  0.00    -0.354 N 
ATOM     54  C   UNL     1      -6.694 -13.266   8.200  1.00  0.00     0.074 A 
ATOM     55  C   UNL     1      -6.735 -13.239   6.754  1.00  0.00     0.031 C 
ATOM     56  C   UNL     1      -1.745  -9.395   9.571  1.00  0.00     0.029 A 
ATOM     57  C   UNL     1      -2.634 -10.072  10.514  1.00  0.00     0.049 A 
ATOM     58  H   UNL     1      -4.204 -11.364  10.063  1.00  0.00     0.167 HD
ATOM     59  C   UNL     1      -7.534 -13.995   8.974  1.00  0.00     0.031 A 
ATOM     60  C   UNL     1      -2.574  -9.973  11.857  1.00  0.00     0.031 A 
ATOM     61  C   UNL     1      -7.494 -14.010  10.414  1.00  0.00     0.049 A 
ATOM     62  C   UNL     1      -3.561 -10.739  12.696  1.00  0.00     0.074 A 
ATOM     63  C   UNL     1      -8.289 -14.731  11.289  1.00  0.00     0.029 A 
ATOM     64  N   UNL     1      -6.620 -13.265  11.191  1.00  0.00    -0.354 N 
ATOM     65  N   UNL     1      -4.521 -11.546  12.310  1.00  0.00    -0.248 NA
ATOM     66  C   UNL     1      -3.451 -10.587  14.154  1.00  0.00     0.031 C 
ATOM     67  C   UNL     1      -7.936 -14.374  12.594  1.00  0.00     0.029 A 
ATOM     68  C   UNL     1      -6.875 -13.485  12.534  1.00  0.00     0.049 A 
ATOM     69  H   UNL     1      -5.921 -12.668  10.839  1.00  0.00     0.167 HD
ATOM     70  C   UNL     1      -5.110 -12.021  13.478  1.00  0.00     0.074 A 
ATOM     71  C   UNL     1      -4.389 -11.421  14.582  1.00  0.00     0.031 C 
ATOM     72  C   UNL     1      -6.152 -12.878  13.624  1.00  0.00     0.031 A 
BRANCH  59  73
ATOM     73  C   UNL     1      -8.594 -14.811   8.280  1.00  0.00    -0.014 A 
ATOM     74  C   UNL     1      -8.267 -15.960   7.537  1.00  0.00     0.010 A 
ATOM     75  C   UNL     1      -9.947 -14.446   8.411  1.00  0.00     0.010 A 
ATOM     76  C   UNL     1      -9.269 -16.705   6.907  1.00  0.00     0.020 A 
ATOM     77  C   UNL     1     -10.954 -15.204   7.806  1.00  0.00     0.020 A 
ATOM     78  C   UNL     1     -10.606 -16.320   7.043  1.00  0.00     0.054 A 
BRANCH  78  79
ATOM     79  S   UNL     1     -11.887 -17.318   6.233  1.00  0.00     0.124 S 
ATOM     80  O   UNL     1     -11.678 -16.990   4.825  1.00  0.00    -0.237 OA
ATOM     81  O   UNL     1     -11.525 -18.678   6.621  1.00  0.00    -0.237 OA
ATOM     82  O   UNL     1     -13.133 -16.819   6.810  1.00  0.00    -0.744 OA
ENDBRANCH  78  79
ENDBRANCH  59  73
BRANCH  60  83
ATOM     83  C   UNL     1      -1.551  -9.095  12.489  1.00  0.00    -0.014 A 
ATOM     84  C   UNL     1      -0.491  -9.644  13.232  1.00  0.00     0.010 A 
ATOM     85  C   UNL     1      -1.632  -7.698  12.345  1.00  0.00     0.010 A 
ATOM     86  C   UNL     1       0.458  -8.811  13.832  1.00  0.00     0.020 A 
ATOM     87  C   UNL     1      -0.668  -6.864  12.917  1.00  0.00     0.020 A 
ATOM     88  C   UNL     1       0.365  -7.426  13.668  1.00  0.00     0.054 A 
BRANCH  88  89
ATOM     89  S   UNL     1       1.638  -6.369  14.411  1.00  0.00     0.124 S 
ATOM     90  O   UNL     1       1.307  -6.446  15.830  1.00  0.00    -0.237 OA
ATOM     91  O   UNL     1       2.874  -7.036  14.011  1.00  0.00    -0.237 OA
ATOM     92  O   UNL     1       1.411  -5.068  13.784  1.00  0.00    -0.744 OA
ENDBRANCH  88  89
ENDBRANCH  60  83
BRANCH  72  93
ATOM     93  C   UNL     1      -6.553 -13.251  15.028  1.00  0.00    -0.014 A 
ATOM     94  C   UNL     1      -7.190 -12.330  15.878  1.00  0.00     0.010 A 
ATOM     95  C   UNL     1      -6.332 -14.564  15.485  1.00  0.00     0.010 A 
ATOM     96  C   UNL     1      -7.564 -12.704  17.172  1.00  0.00     0.020 A 
ATOM     97  C   UNL     1      -6.732 -14.950  16.766  1.00  0.00     0.020 A 
ATOM     98  C   UNL     1      -7.331 -14.012  17.608  1.00  0.00     0.054 A 
BRANCH  98  99
ATOM     99  S   UNL     1      -7.858 -14.482  19.279  1.00  0.00     0.124 S 
ATOM    100  O   UNL     1      -6.874 -13.797  20.112  1.00  0.00    -0.237 OA
ATOM    101  O   UNL     1      -9.217 -13.952  19.348  1.00  0.00    -0.237 OA
ATOM    102  O   UNL     1      -7.763 -15.941  19.276  1.00  0.00    -0.744 OA
ENDBRANCH  98  99
ENDBRANCH  72  93
ENDBRANCH  46  47
ENDBRANCH  39  41
ENDBRANCH  38  39
ENDBRANCH  37  38
ENDBRANCH   1  37
TORSDOF 23
