REMARK SMILES CC(C)[C@H](NC(=O)[C@H](Cc1ccccc1)n1c(=O)[nH]c2ccccc2c1=O)C(=O)OCCOCCOC(=O)c1ccc(-c2c3nc(c(-c4ccc(S(=O)(=O)[O-])cc4)c4ccc([nH]4)c(-c4ccc(S(=O)(=O)[O-])cc4)c4nc(c(-c5ccc(S(=O)(=O)[O-])cc5)c5ccc2[nH]5)C=C4)C=C3)cc1
REMARK SMILES IDX 32 1 31 2 30 3 28 4 29 5 4 6 2 7 1 8 3 9 5 10 6 11 7 13 8 14
REMARK SMILES IDX 16 15 17 16 26 17 18 18 19 19 25 20 27 21 20 22 24 24 21 25
REMARK SMILES IDX 23 26 22 27 9 28 10 29 11 30 15 31 12 32 14 33 13 34 33 35
REMARK SMILES IDX 34 36 35 37 36 38 37 39 38 40 39 41 40 42 98 43 41 44 97 45
REMARK SMILES IDX 42 46 43 47 44 48 91 49 45 50 96 51 90 52 92 53 46 54 95 55
REMARK SMILES IDX 89 56 88 57 47 59 77 60 58 61 76 62 59 63 62 64 75 65 93 66
REMARK SMILES IDX 60 67 61 68 74 70 94 71 63 72 48 73 49 74 57 75 50 76 56 77
REMARK SMILES IDX 51 78 52 79 53 80 54 81 55 82 78 83 79 84 87 85 80 86 86 87
REMARK SMILES IDX 81 88 82 89 83 90 84 91 85 92 64 93 65 94 73 95 66 96 72 97
REMARK SMILES IDX 67 98 68 99 69 100 70 101 71 102
REMARK H PARENT 5 12 19 23 92 58 62 69
REMARK Flexibility Score: inf
ROOT
ATOM      1  C   UNL     1      -3.022  -6.785   2.710  1.00  0.00     0.202 C 
ENDROOT
BRANCH   1   2
ATOM      2  C   UNL     1      -1.504  -6.754   2.917  1.00  0.00     0.261 C 
BRANCH   2   3
ATOM      3  O   UNL     1      -0.904  -5.502   2.547  1.00  0.00    -0.462 OA
BRANCH   3   4
ATOM      4  C   UNL     1      -0.042  -5.582   1.495  1.00  0.00     0.328 C 
ATOM      5  O   UNL     1       0.315  -6.628   0.962  1.00  0.00    -0.250 OA
BRANCH   4   6
ATOM      6  C   UNL     1       0.499  -4.209   1.055  1.00  0.00     0.194 C 
BRANCH   6   7
ATOM      7  C   UNL     1       2.023  -4.098   1.286  1.00  0.00     0.017 C 
ATOM      8  C   UNL     1       2.459  -4.640   2.648  1.00  0.00     0.010 C 
ATOM      9  C   UNL     1       2.794  -4.786   0.154  1.00  0.00     0.010 C 
ENDBRANCH   6   7
BRANCH   6  10
ATOM     10  N   UNL     1      -0.193  -3.015   1.568  1.00  0.00    -0.341 N 
ATOM     11  C   UNL     1      -0.344  -1.790   0.955  1.00  0.00     0.244 C 
ATOM     12  H   UNL     1      -0.598  -3.103   2.461  1.00  0.00     0.164 HD
ATOM     13  O   UNL     1      -1.024  -0.945   1.539  1.00  0.00    -0.273 OA
BRANCH  11  14
ATOM     14  C   UNL     1       0.275  -1.534  -0.447  1.00  0.00     0.189 C 
BRANCH  14  15
ATOM     15  N   UNL     1      -0.747  -1.538  -1.519  1.00  0.00    -0.247 N 
ATOM     16  C   UNL     1      -1.492  -0.397  -1.774  1.00  0.00     0.329 A 
ATOM     17  C   UNL     1      -0.839  -2.689  -2.299  1.00  0.00     0.264 A 
ATOM     18  O   UNL     1      -1.560   0.585  -1.041  1.00  0.00    -0.248 OA
ATOM     19  N   UNL     1      -2.159  -0.356  -2.971  1.00  0.00    -0.307 N 
ATOM     20  C   UNL     1      -1.553  -2.592  -3.576  1.00  0.00     0.064 A 
ATOM     21  O   UNL     1      -0.283  -3.753  -2.041  1.00  0.00    -0.268 OA
ATOM     22  C   UNL     1      -2.153  -1.388  -3.903  1.00  0.00     0.055 A 
ATOM     23  H   UNL     1      -2.675   0.454  -3.184  1.00  0.00     0.171 HD
ATOM     24  C   UNL     1      -1.540  -3.658  -4.482  1.00  0.00     0.016 A 
ATOM     25  C   UNL     1      -2.725  -1.219  -5.163  1.00  0.00     0.027 A 
ATOM     26  C   UNL     1      -2.108  -3.493  -5.743  1.00  0.00     0.001 A 
ATOM     27  C   UNL     1      -2.688  -2.271  -6.086  1.00  0.00     0.002 A 
ENDBRANCH  14  15
BRANCH  14  28
ATOM     28  C   UNL     1       1.195  -0.282  -0.453  1.00  0.00     0.071 C 
BRANCH  28  29
ATOM     29  C   UNL     1       1.860   0.086  -1.777  1.00  0.00    -0.045 A 
ATOM     30  C   UNL     1       1.970  -0.793  -2.866  1.00  0.00     0.004 A 
ATOM     31  C   UNL     1       2.405   1.372  -1.921  1.00  0.00     0.004 A 
ATOM     32  C   UNL     1       2.512  -0.375  -4.084  1.00  0.00     0.000 A 
ATOM     33  C   UNL     1       2.983   1.780  -3.129  1.00  0.00     0.000 A 
ATOM     34  C   UNL     1       3.017   0.914  -4.217  1.00  0.00     0.000 A 
ENDBRANCH  28  29
ENDBRANCH  14  28
ENDBRANCH  11  14
ENDBRANCH   6  10
ENDBRANCH   4   6
ENDBRANCH   3   4
ENDBRANCH   2   3
ENDBRANCH   1   2
BRANCH   1  35
ATOM     35  O   UNL     1      -3.531  -6.284   1.479  1.00  0.00    -0.374 OA
BRANCH  35  36
ATOM     36  C   UNL     1      -3.454  -4.879   1.234  1.00  0.00     0.202 C 
BRANCH  36  37
ATOM     37  C   UNL     1      -4.170  -3.928   2.202  1.00  0.00     0.261 C 
BRANCH  37  38
ATOM     38  O   UNL     1      -3.625  -3.953   3.537  1.00  0.00    -0.460 OA
BRANCH  38  39
ATOM     39  C   UNL     1      -4.513  -4.309   4.494  1.00  0.00     0.338 C 
ATOM     40  O   UNL     1      -5.698  -4.592   4.331  1.00  0.00    -0.246 OA
BRANCH  39  41
ATOM     41  C   UNL     1      -3.854  -4.507   5.795  1.00  0.00     0.060 A 
ATOM     42  C   UNL     1      -4.007  -5.756   6.411  1.00  0.00     0.016 A 
ATOM     43  C   UNL     1      -3.254  -3.447   6.477  1.00  0.00     0.016 A 
ATOM     44  C   UNL     1      -3.638  -5.926   7.743  1.00  0.00     0.010 A 
ATOM     45  C   UNL     1      -2.889  -3.619   7.819  1.00  0.00     0.010 A 
ATOM     46  C   UNL     1      -3.134  -4.841   8.472  1.00  0.00    -0.014 A 
BRANCH  46  47
ATOM     47  C   UNL     1      -3.078  -4.947   9.952  1.00  0.00     0.031 A 
ATOM     48  C   UNL     1      -4.217  -4.382  10.763  1.00  0.00     0.074 A 
ATOM     49  C   UNL     1      -2.080  -5.611  10.563  1.00  0.00     0.049 A 
ATOM     50  N   UNL     1      -4.415  -4.424  12.056  1.00  0.00    -0.248 NA
ATOM     51  C   UNL     1      -5.275  -3.681  10.017  1.00  0.00     0.031 C 
ATOM     52  C   UNL     1      -0.945  -6.239   9.889  1.00  0.00     0.029 A 
ATOM     53  N   UNL     1      -1.872  -5.876  11.893  1.00  0.00    -0.354 N 
ATOM     54  C   UNL     1      -5.615  -3.757  12.277  1.00  0.00     0.074 A 
ATOM     55  C   UNL     1      -6.083  -3.291  10.991  1.00  0.00     0.031 C 
ATOM     56  C   UNL     1      -0.160  -6.823  10.812  1.00  0.00     0.029 A 
ATOM     57  C   UNL     1      -0.727  -6.594  12.140  1.00  0.00     0.049 A 
ATOM     58  H   UNL     1      -2.485  -5.579  12.604  1.00  0.00     0.167 HD
ATOM     59  C   UNL     1      -6.276  -3.557  13.443  1.00  0.00     0.031 A 
ATOM     60  C   UNL     1      -0.197  -7.019  13.304  1.00  0.00     0.031 A 
ATOM     61  C   UNL     1      -5.808  -4.011  14.725  1.00  0.00     0.049 A 
ATOM     62  C   UNL     1      -0.927  -6.748  14.593  1.00  0.00     0.074 A 
ATOM     63  C   UNL     1      -6.405  -3.856  15.965  1.00  0.00     0.029 A 
ATOM     64  N   UNL     1      -4.629  -4.709  14.934  1.00  0.00    -0.354 N 
ATOM     65  N   UNL     1      -2.069  -6.129  14.781  1.00  0.00    -0.248 NA
ATOM     66  C   UNL     1      -0.307  -7.255  15.825  1.00  0.00     0.031 C 
ATOM     67  C   UNL     1      -5.566  -4.427  16.928  1.00  0.00     0.029 A 
ATOM     68  C   UNL     1      -4.473  -4.983  16.282  1.00  0.00     0.049 A 
ATOM     69  H   UNL     1      -3.996  -4.972  14.227  1.00  0.00     0.167 HD
ATOM     70  C   UNL     1      -2.319  -6.202  16.148  1.00  0.00     0.074 A 
ATOM     71  C   UNL     1      -1.216  -6.933  16.736  1.00  0.00     0.031 C 
ATOM     72  C   UNL     1      -3.371  -5.715  16.852  1.00  0.00     0.031 A 
BRANCH  59  73
ATOM     73  C   UNL     1      -7.567  -2.785  13.382  1.00  0.00    -0.014 A 
ATOM     74  C   UNL     1      -8.732  -3.356  12.841  1.00  0.00     0.010 A 
ATOM     75  C   UNL     1      -7.621  -1.477  13.897  1.00  0.00     0.010 A 
ATOM     76  C   UNL     1      -9.919  -2.620  12.780  1.00  0.00     0.020 A 
ATOM     77  C   UNL     1      -8.812  -0.746  13.860  1.00  0.00     0.020 A 
ATOM     78  C   UNL     1      -9.949  -1.317  13.285  1.00  0.00     0.054 A 
BRANCH  78  79
ATOM     79  S   UNL     1     -11.505  -0.387  13.210  1.00  0.00     0.124 S 
ATOM     80  O   UNL     1     -11.577  -0.033  11.795  1.00  0.00    -0.237 OA
ATOM     81  O   UNL     1     -12.489  -1.367  13.663  1.00  0.00    -0.237 OA
ATOM     82  O   UNL     1     -11.284   0.733  14.122  1.00  0.00    -0.744 OA
ENDBRANCH  78  79
ENDBRANCH  59  73
BRANCH  60  83
ATOM     83  C   UNL     1       1.099  -7.752  13.305  1.00  0.00    -0.014 A 
ATOM     84  C   UNL     1       1.150  -9.124  13.607  1.00  0.00     0.010 A 
ATOM     85  C   UNL     1       2.293  -7.072  13.008  1.00  0.00     0.010 A 
ATOM     86  C   UNL     1       2.375  -9.798  13.630  1.00  0.00     0.020 A 
ATOM     87  C   UNL     1       3.516  -7.747  13.005  1.00  0.00     0.020 A 
ATOM     88  C   UNL     1       3.551  -9.105  13.328  1.00  0.00     0.054 A 
BRANCH  88  89
ATOM     89  S   UNL     1       5.125 -10.008  13.314  1.00  0.00     0.124 S 
ATOM     90  O   UNL     1       5.402 -10.157  14.739  1.00  0.00    -0.237 OA
ATOM     91  O   UNL     1       4.780 -11.236  12.604  1.00  0.00    -0.237 OA
ATOM     92  O   UNL     1       6.024  -9.112  12.591  1.00  0.00    -0.744 OA
ENDBRANCH  88  89
ENDBRANCH  60  83
BRANCH  72  93
ATOM     93  C   UNL     1      -3.407  -6.001  18.330  1.00  0.00    -0.014 A 
ATOM     94  C   UNL     1      -2.535  -5.355  19.224  1.00  0.00     0.010 A 
ATOM     95  C   UNL     1      -4.354  -6.912  18.833  1.00  0.00     0.010 A 
ATOM     96  C   UNL     1      -2.579  -5.651  20.590  1.00  0.00     0.020 A 
ATOM     97  C   UNL     1      -4.418  -7.191  20.200  1.00  0.00     0.020 A 
ATOM     98  C   UNL     1      -3.515  -6.573  21.068  1.00  0.00     0.054 A 
BRANCH  98  99
ATOM     99  S   UNL     1      -3.565  -6.933  22.846  1.00  0.00     0.124 S 
ATOM    100  O   UNL     1      -2.416  -7.818  23.008  1.00  0.00    -0.237 OA
ATOM    101  O   UNL     1      -3.429  -5.609  23.448  1.00  0.00    -0.237 OA
ATOM    102  O   UNL     1      -4.870  -7.563  23.034  1.00  0.00    -0.744 OA
ENDBRANCH  98  99
ENDBRANCH  72  93
ENDBRANCH  46  47
ENDBRANCH  39  41
ENDBRANCH  38  39
ENDBRANCH  37  38
ENDBRANCH  36  37
ENDBRANCH  35  36
ENDBRANCH   1  35
TORSDOF 23
