REMARK SMILES CCc1cccc(CC)c1NC(=O)C[C@@](C)(C(=O)OCCOCCOC(=O)c1ccc(-c2c3nc(c(-c4ccc(S(=O)(=O)[O-])cc4)c4ccc([nH]4)c(-c4ccc(S(=O)(=O)[O-])cc4)c4nc(c(-c5ccc(S(=O)(=O)[O-])cc5)c5ccc2[nH]5)C=C4)C=C3)cc1)c1ccccc1
REMARK SMILES IDX 21 1 20 2 19 3 17 4 18 5 15 6 16 7 14 8 12 9 11 10 13 12
REMARK SMILES IDX 10 13 3 14 4 15 5 16 7 17 6 18 2 19 1 20 8 21 9 22 88 23
REMARK SMILES IDX 89 24 93 25 90 26 92 27 91 28 22 29 23 30 24 31 25 32 26 33
REMARK SMILES IDX 27 34 28 35 29 36 87 37 30 38 86 39 31 40 32 41 33 42 80 43
REMARK SMILES IDX 34 44 85 45 79 46 81 47 35 48 84 49 78 50 77 51 36 53 66 54
REMARK SMILES IDX 47 55 65 56 48 57 51 58 64 59 82 60 49 61 50 62 63 64 83 65
REMARK SMILES IDX 52 66 37 67 38 68 46 69 39 70 45 71 40 72 41 73 42 74 43 75
REMARK SMILES IDX 44 76 67 77 68 78 76 79 69 80 75 81 70 82 71 83 72 84 73 85
REMARK SMILES IDX 74 86 53 87 54 88 62 89 55 90 61 91 56 92 57 93 58 94 59 95
REMARK SMILES IDX 60 96
REMARK H PARENT 11 11 81 52 51 63
REMARK Flexibility Score: inf
ROOT
ATOM      1  C   UNL     1      -0.750  10.114   1.175  1.00  0.00     0.202 C 
ENDROOT
BRANCH   1   2
ATOM      2  C   UNL     1      -0.314   8.824   1.873  1.00  0.00     0.261 C 
BRANCH   2   3
ATOM      3  O   UNL     1      -0.917   7.619   1.374  1.00  0.00    -0.463 OA
BRANCH   3   4
ATOM      4  C   UNL     1      -1.536   6.830   2.301  1.00  0.00     0.316 C 
ATOM      5  O   UNL     1      -1.677   7.163   3.475  1.00  0.00    -0.251 OA
BRANCH   4   6
ATOM      6  C   UNL     1      -2.018   5.458   1.747  1.00  0.00     0.099 C 
ATOM      7  C   UNL     1      -1.388   4.432   2.725  1.00  0.00     0.029 C 
BRANCH   6   8
ATOM      8  C   UNL     1      -1.569   5.253   0.275  1.00  0.00     0.123 C 
BRANCH   8   9
ATOM      9  C   UNL     1      -1.178   3.867  -0.172  1.00  0.00     0.225 C 
ATOM     10  N   UNL     1      -0.120   3.115   0.193  1.00  0.00    -0.326 N 
ATOM     11  H   UNL     1      -0.248   2.228  -0.214  1.00  0.00     0.169 HD
ATOM     12  O   UNL     1      -1.954   3.288  -0.954  1.00  0.00    -0.275 OA
BRANCH  10  13
ATOM     13  C   UNL     1       1.101   3.065   0.915  1.00  0.00     0.047 A 
ATOM     14  C   UNL     1       1.517   1.724   1.233  1.00  0.00    -0.024 A 
ATOM     15  C   UNL     1       2.775   1.457   1.814  1.00  0.00     0.006 A 
ATOM     16  C   UNL     1       3.656   2.477   2.083  1.00  0.00     0.001 A 
ATOM     17  C   UNL     1       1.974   4.107   1.293  1.00  0.00    -0.024 A 
ATOM     18  C   UNL     1       3.258   3.773   1.817  1.00  0.00     0.006 A 
BRANCH  14  19
ATOM     19  C   UNL     1       0.652   0.488   1.016  1.00  0.00     0.034 C 
ATOM     20  C   UNL     1       0.990  -0.218  -0.288  1.00  0.00     0.009 C 
ENDBRANCH  14  19
BRANCH  17  21
ATOM     21  C   UNL     1       1.793   5.598   1.200  1.00  0.00     0.034 C 
ATOM     22  C   UNL     1       1.873   6.279   2.576  1.00  0.00     0.009 C 
ENDBRANCH  17  21
ENDBRANCH  10  13
ENDBRANCH   8   9
ENDBRANCH   6   8
BRANCH   6  23
ATOM     23  C   UNL     1      -3.557   5.279   1.922  1.00  0.00    -0.030 A 
ATOM     24  C   UNL     1      -4.378   6.309   2.418  1.00  0.00     0.005 A 
ATOM     25  C   UNL     1      -4.146   4.010   1.752  1.00  0.00     0.005 A 
ATOM     26  C   UNL     1      -5.681   6.049   2.854  1.00  0.00     0.000 A 
ATOM     27  C   UNL     1      -5.447   3.751   2.194  1.00  0.00     0.000 A 
ATOM     28  C   UNL     1      -6.204   4.764   2.773  1.00  0.00     0.000 A 
ENDBRANCH   6  23
ENDBRANCH   4   6
ENDBRANCH   3   4
ENDBRANCH   2   3
ENDBRANCH   1   2
BRANCH   1  29
ATOM     29  O   UNL     1      -2.119  10.306   0.858  1.00  0.00    -0.374 OA
BRANCH  29  30
ATOM     30  C   UNL     1      -2.762   9.360   0.015  1.00  0.00     0.202 C 
BRANCH  30  31
ATOM     31  C   UNL     1      -2.259   9.127  -1.421  1.00  0.00     0.261 C 
BRANCH  31  32
ATOM     32  O   UNL     1      -0.835   9.063  -1.599  1.00  0.00    -0.460 OA
BRANCH  32  33
ATOM     33  C   UNL     1      -0.299  10.182  -2.148  1.00  0.00     0.338 C 
ATOM     34  O   UNL     1      -0.888  11.219  -2.427  1.00  0.00    -0.246 OA
BRANCH  33  35
ATOM     35  C   UNL     1       1.163  10.059  -2.275  1.00  0.00     0.060 A 
ATOM     36  C   UNL     1       1.965  11.000  -1.617  1.00  0.00     0.016 A 
ATOM     37  C   UNL     1       1.732   9.133  -3.153  1.00  0.00     0.016 A 
ATOM     38  C   UNL     1       3.336  11.048  -1.871  1.00  0.00     0.010 A 
ATOM     39  C   UNL     1       3.106   9.191  -3.415  1.00  0.00     0.010 A 
ATOM     40  C   UNL     1       3.907  10.174  -2.806  1.00  0.00    -0.014 A 
BRANCH  40  41
ATOM     41  C   UNL     1       5.303  10.397  -3.259  1.00  0.00     0.031 A 
ATOM     42  C   UNL     1       5.542  11.151  -4.543  1.00  0.00     0.074 A 
ATOM     43  C   UNL     1       6.345   9.976  -2.519  1.00  0.00     0.049 A 
ATOM     44  N   UNL     1       6.672  11.439  -5.135  1.00  0.00    -0.248 NA
ATOM     45  C   UNL     1       4.349  11.651  -5.248  1.00  0.00     0.031 C 
ATOM     46  C   UNL     1       6.247   9.284  -1.235  1.00  0.00     0.029 A 
ATOM     47  N   UNL     1       7.696  10.073  -2.746  1.00  0.00    -0.354 N 
ATOM     48  C   UNL     1       6.330  12.156  -6.276  1.00  0.00     0.074 A 
ATOM     49  C   UNL     1       4.886  12.234  -6.311  1.00  0.00     0.031 C 
ATOM     50  C   UNL     1       7.486   9.011  -0.790  1.00  0.00     0.029 A 
ATOM     51  C   UNL     1       8.463   9.481  -1.771  1.00  0.00     0.049 A 
ATOM     52  H   UNL     1       8.079  10.523  -3.533  1.00  0.00     0.167 HD
ATOM     53  C   UNL     1       7.144  12.710  -7.206  1.00  0.00     0.031 A 
ATOM     54  C   UNL     1       9.799   9.320  -1.689  1.00  0.00     0.031 A 
ATOM     55  C   UNL     1       8.580  12.620  -7.182  1.00  0.00     0.049 A 
ATOM     56  C   UNL     1      10.677   9.867  -2.785  1.00  0.00     0.074 A 
ATOM     57  C   UNL     1       9.490  13.133  -8.090  1.00  0.00     0.029 A 
ATOM     58  N   UNL     1       9.315  11.977  -6.199  1.00  0.00    -0.354 N 
ATOM     59  N   UNL     1      10.336  10.543  -3.857  1.00  0.00    -0.248 NA
ATOM     60  C   UNL     1      12.124   9.634  -2.657  1.00  0.00     0.031 C 
ATOM     61  C   UNL     1      10.774  12.763  -7.678  1.00  0.00     0.029 A 
ATOM     62  C   UNL     1      10.666  12.066  -6.485  1.00  0.00     0.049 A 
ATOM     63  H   UNL     1       8.932  11.523  -5.413  1.00  0.00     0.167 HD
ATOM     64  C   UNL     1      11.527  10.842  -4.511  1.00  0.00     0.074 A 
ATOM     65  C   UNL     1      12.597  10.286  -3.710  1.00  0.00     0.031 C 
ATOM     66  C   UNL     1      11.719  11.517  -5.671  1.00  0.00     0.031 A 
BRANCH  53  67
ATOM     67  C   UNL     1       6.501  13.456  -8.345  1.00  0.00    -0.014 A 
ATOM     68  C   UNL     1       5.940  14.730  -8.146  1.00  0.00     0.010 A 
ATOM     69  C   UNL     1       6.518  12.908  -9.640  1.00  0.00     0.010 A 
ATOM     70  C   UNL     1       5.390  15.435  -9.220  1.00  0.00     0.020 A 
ATOM     71  C   UNL     1       5.989  13.619 -10.721  1.00  0.00     0.020 A 
ATOM     72  C   UNL     1       5.419  14.875 -10.501  1.00  0.00     0.054 A 
BRANCH  72  73
ATOM     73  S   UNL     1       4.742  15.834 -11.885  1.00  0.00     0.124 S 
ATOM     74  O   UNL     1       3.305  15.747 -11.636  1.00  0.00    -0.237 OA
ATOM     75  O   UNL     1       5.335  17.153 -11.682  1.00  0.00    -0.237 OA
ATOM     76  O   UNL     1       5.213  15.117 -13.068  1.00  0.00    -0.744 OA
ENDBRANCH  72  73
ENDBRANCH  53  67
BRANCH  54  77
ATOM     77  C   UNL     1      10.399   8.576  -0.547  1.00  0.00    -0.014 A 
ATOM     78  C   UNL     1      11.203   9.234   0.400  1.00  0.00     0.010 A 
ATOM     79  C   UNL     1      10.201   7.188  -0.428  1.00  0.00     0.010 A 
ATOM     80  C   UNL     1      11.827   8.513   1.423  1.00  0.00     0.020 A 
ATOM     81  C   UNL     1      10.799   6.469   0.609  1.00  0.00     0.020 A 
ATOM     82  C   UNL     1      11.624   7.133   1.518  1.00  0.00     0.054 A 
BRANCH  82  83
ATOM     83  S   UNL     1      12.428   6.214   2.860  1.00  0.00     0.124 S 
ATOM     84  O   UNL     1      13.802   6.115   2.379  1.00  0.00    -0.237 OA
ATOM     85  O   UNL     1      12.220   7.088   4.012  1.00  0.00    -0.237 OA
ATOM     86  O   UNL     1      11.684   4.957   2.902  1.00  0.00    -0.744 OA
ENDBRANCH  82  83
ENDBRANCH  54  77
BRANCH  66  87
ATOM     87  C   UNL     1      13.138  11.735  -6.123  1.00  0.00    -0.014 A 
ATOM     88  C   UNL     1      13.904  10.684  -6.656  1.00  0.00     0.010 A 
ATOM     89  C   UNL     1      13.693  13.027  -6.064  1.00  0.00     0.010 A 
ATOM     90  C   UNL     1      15.211  10.915  -7.094  1.00  0.00     0.020 A 
ATOM     91  C   UNL     1      14.989  13.267  -6.524  1.00  0.00     0.020 A 
ATOM     92  C   UNL     1      15.746  12.205  -7.024  1.00  0.00     0.054 A 
BRANCH  92  93
ATOM     93  S   UNL     1      17.429  12.489  -7.638  1.00  0.00     0.124 S 
ATOM     94  O   UNL     1      18.243  11.914  -6.571  1.00  0.00    -0.237 OA
ATOM     95  O   UNL     1      17.439  11.754  -8.901  1.00  0.00    -0.237 OA
ATOM     96  O   UNL     1      17.509  13.942  -7.770  1.00  0.00    -0.744 OA
ENDBRANCH  92  93
ENDBRANCH  66  87
ENDBRANCH  40  41
ENDBRANCH  33  35
ENDBRANCH  32  33
ENDBRANCH  31  32
ENDBRANCH  30  31
ENDBRANCH  29  30
ENDBRANCH   1  29
TORSDOF 23
