REMARK SMILES C[C@@H](CC(=O)OCCOCCOC(=O)c1ccc(-c2c3nc(c(-c4ccc(S(=O)(=O)[O-])cc4)c4ccc([nH]4)c(-c4ccc(S(=O)(=O)[O-])cc4)c4nc(c(-c5ccc(S(=O)(=O)[O-])cc5)c5ccc2[nH]5)C=C4)C=C3)cc1)NC(=O)CN(C)c1ncccn1
REMARK SMILES IDX 8 1 7 2 6 3 4 4 5 5 3 6 2 7 1 8 75 9 76 10 77 12 78 13 79 14
REMARK SMILES IDX 80 15 81 16 82 17 86 18 83 19 85 20 84 21 9 22 10 23 11 24
REMARK SMILES IDX 12 25 13 26 14 27 15 28 16 29 74 30 17 31 73 32 18 33 19 34
REMARK SMILES IDX 20 35 67 36 21 37 72 38 66 39 68 40 22 41 71 42 65 43 64 44
REMARK SMILES IDX 23 46 53 47 34 48 52 49 35 50 38 51 51 52 69 53 36 54 37 55
REMARK SMILES IDX 50 57 70 58 39 59 24 60 25 61 33 62 26 63 32 64 27 65 28 66
REMARK SMILES IDX 29 67 30 68 31 69 54 70 55 71 63 72 56 73 62 74 57 75 58 76
REMARK SMILES IDX 59 77 60 78 61 79 40 80 41 81 49 82 42 83 48 84 43 85 44 86
REMARK SMILES IDX 45 87 46 88 47 89
REMARK H PARENT 75 11 68 45 38 56
REMARK Flexibility Score: inf
ROOT
ATOM      1  C   UNL     1      -0.720  -4.528   0.858  1.00  0.00     0.202 C 
ENDROOT
BRANCH   1   2
ATOM      2  C   UNL     1       0.711  -4.215   0.417  1.00  0.00     0.261 C 
BRANCH   2   3
ATOM      3  O   UNL     1       0.835  -2.897  -0.155  1.00  0.00    -0.463 OA
BRANCH   3   4
ATOM      4  C   UNL     1       1.379  -2.840  -1.394  1.00  0.00     0.307 C 
ATOM      5  O   UNL     1       1.744  -3.816  -2.043  1.00  0.00    -0.252 OA
BRANCH   4   6
ATOM      6  C   UNL     1       1.551  -1.444  -1.943  1.00  0.00     0.147 C 
BRANCH   6   7
ATOM      7  C   UNL     1       0.945  -0.224  -1.241  1.00  0.00     0.090 C 
ATOM      8  C   UNL     1       1.412   0.005   0.190  1.00  0.00     0.031 C 
BRANCH   7   9
ATOM      9  N   UNL     1      -0.508  -0.207  -1.315  1.00  0.00    -0.352 N 
ATOM     10  C   UNL     1      -1.325   0.503  -2.154  1.00  0.00     0.239 C 
ATOM     11  H   UNL     1      -0.970  -0.789  -0.670  1.00  0.00     0.163 HD
ATOM     12  O   UNL     1      -2.506   0.150  -2.242  1.00  0.00    -0.273 OA
BRANCH  10  13
ATOM     13  C   UNL     1      -0.751   1.629  -3.028  1.00  0.00     0.219 C 
BRANCH  13  14
ATOM     14  N   UNL     1      -0.050   2.678  -2.285  1.00  0.00    -0.335 N 
ATOM     15  C   UNL     1       1.222   3.187  -2.748  1.00  0.00     0.147 C 
BRANCH  14  16
ATOM     16  C   UNL     1      -0.746   3.429  -1.361  1.00  0.00     0.225 A 
ATOM     17  N   UNL     1      -0.253   4.624  -0.991  1.00  0.00    -0.221 NA
ATOM     18  N   UNL     1      -1.886   2.940  -0.854  1.00  0.00    -0.221 NA
ATOM     19  C   UNL     1      -0.947   5.334  -0.079  1.00  0.00     0.117 A 
ATOM     20  C   UNL     1      -2.532   3.664   0.078  1.00  0.00     0.117 A 
ATOM     21  C   UNL     1      -2.104   4.892   0.506  1.00  0.00     0.040 A 
ENDBRANCH  14  16
ENDBRANCH  13  14
ENDBRANCH  10  13
ENDBRANCH   7   9
ENDBRANCH   6   7
ENDBRANCH   4   6
ENDBRANCH   3   4
ENDBRANCH   2   3
ENDBRANCH   1   2
BRANCH   1  22
ATOM     22  O   UNL     1      -1.683  -4.611  -0.193  1.00  0.00    -0.374 OA
BRANCH  22  23
ATOM     23  C   UNL     1      -2.128  -3.380  -0.771  1.00  0.00     0.202 C 
BRANCH  23  24
ATOM     24  C   UNL     1      -2.986  -2.501   0.148  1.00  0.00     0.261 C 
BRANCH  24  25
ATOM     25  O   UNL     1      -2.201  -1.932   1.218  1.00  0.00    -0.460 OA
BRANCH  25  26
ATOM     26  C   UNL     1      -2.830  -1.945   2.419  1.00  0.00     0.338 C 
ATOM     27  O   UNL     1      -4.002  -2.230   2.632  1.00  0.00    -0.246 OA
BRANCH  26  28
ATOM     28  C   UNL     1      -1.873  -1.747   3.522  1.00  0.00     0.060 A 
ATOM     29  C   UNL     1      -1.646  -2.830   4.380  1.00  0.00     0.016 A 
ATOM     30  C   UNL     1      -1.345  -0.488   3.815  1.00  0.00     0.016 A 
ATOM     31  C   UNL     1      -0.941  -2.643   5.569  1.00  0.00     0.010 A 
ATOM     32  C   UNL     1      -0.639  -0.303   5.014  1.00  0.00     0.010 A 
ATOM     33  C   UNL     1      -0.473  -1.368   5.920  1.00  0.00    -0.014 A 
BRANCH  33  34
ATOM     34  C   UNL     1       0.040  -1.143   7.298  1.00  0.00     0.031 A 
ATOM     35  C   UNL     1      -0.874  -0.546   8.339  1.00  0.00     0.074 A 
ATOM     36  C   UNL     1       1.279  -1.534   7.649  1.00  0.00     0.049 A 
ATOM     37  N   UNL     1      -0.649  -0.329   9.611  1.00  0.00    -0.248 NA
ATOM     38  C   UNL     1      -2.218  -0.150   7.890  1.00  0.00     0.031 C 
ATOM     39  C   UNL     1       2.253  -2.162   6.758  1.00  0.00     0.029 A 
ATOM     40  N   UNL     1       1.925  -1.468   8.861  1.00  0.00    -0.354 N 
ATOM     41  C   UNL     1      -1.821   0.226  10.114  1.00  0.00     0.074 A 
ATOM     42  C   UNL     1      -2.742   0.342   9.003  1.00  0.00     0.031 C 
ATOM     43  C   UNL     1       3.371  -2.432   7.455  1.00  0.00     0.029 A 
ATOM     44  C   UNL     1       3.201  -1.976   8.834  1.00  0.00     0.049 A 
ATOM     45  H   UNL     1       1.511  -1.093   9.671  1.00  0.00     0.167 HD
ATOM     46  C   UNL     1      -2.113   0.597  11.384  1.00  0.00     0.031 A 
ATOM     47  C   UNL     1       4.132  -2.061   9.806  1.00  0.00     0.031 A 
ATOM     48  C   UNL     1      -1.202   0.497  12.494  1.00  0.00     0.049 A 
ATOM     49  C   UNL     1       3.809  -1.579  11.196  1.00  0.00     0.074 A 
ATOM     50  C   UNL     1      -1.418   0.840  13.818  1.00  0.00     0.029 A 
ATOM     51  N   UNL     1       0.099   0.027  12.411  1.00  0.00    -0.354 N 
ATOM     52  N   UNL     1       2.687  -1.080  11.657  1.00  0.00    -0.248 NA
ATOM     53  C   UNL     1       4.879  -1.684  12.201  1.00  0.00     0.031 C 
ATOM     54  C   UNL     1      -0.231   0.622  14.527  1.00  0.00     0.029 A 
ATOM     55  C   UNL     1       0.707   0.094  13.654  1.00  0.00     0.049 A 
ATOM     56  H   UNL     1       0.528  -0.306  11.590  1.00  0.00     0.167 HD
ATOM     57  C   UNL     1       2.909  -0.835  13.009  1.00  0.00     0.074 A 
ATOM     58  C   UNL     1       4.266  -1.251  13.294  1.00  0.00     0.031 C 
ATOM     59  C   UNL     1       2.060  -0.316  13.931  1.00  0.00     0.031 A 
BRANCH  46  60
ATOM     60  C   UNL     1      -3.478   1.179  11.637  1.00  0.00    -0.014 A 
ATOM     61  C   UNL     1      -4.625   0.364  11.647  1.00  0.00     0.010 A 
ATOM     62  C   UNL     1      -3.611   2.554  11.902  1.00  0.00     0.010 A 
ATOM     63  C   UNL     1      -5.886   0.922  11.876  1.00  0.00     0.020 A 
ATOM     64  C   UNL     1      -4.868   3.111  12.155  1.00  0.00     0.020 A 
ATOM     65  C   UNL     1      -6.000   2.294  12.122  1.00  0.00     0.054 A 
BRANCH  65  66
ATOM     66  S   UNL     1      -7.645   2.994  12.426  1.00  0.00     0.124 S 
ATOM     67  O   UNL     1      -8.217   3.010  11.081  1.00  0.00    -0.237 OA
ATOM     68  O   UNL     1      -8.240   2.032  13.350  1.00  0.00    -0.237 OA
ATOM     69  O   UNL     1      -7.362   4.309  12.997  1.00  0.00    -0.744 OA
ENDBRANCH  65  66
ENDBRANCH  46  60
BRANCH  47  70
ATOM     70  C   UNL     1       5.476  -2.621   9.496  1.00  0.00    -0.014 A 
ATOM     71  C   UNL     1       5.864  -3.877   9.992  1.00  0.00     0.010 A 
ATOM     72  C   UNL     1       6.375  -1.890   8.698  1.00  0.00     0.010 A 
ATOM     73  C   UNL     1       7.134  -4.388   9.705  1.00  0.00     0.020 A 
ATOM     74  C   UNL     1       7.636  -2.409   8.390  1.00  0.00     0.020 A 
ATOM     75  C   UNL     1       8.011  -3.651   8.904  1.00  0.00     0.054 A 
BRANCH  75  76
ATOM     76  S   UNL     1       9.631  -4.357   8.493  1.00  0.00     0.124 S 
ATOM     77  O   UNL     1      10.374  -4.151   9.732  1.00  0.00    -0.237 OA
ATOM     78  O   UNL     1       9.302  -5.743   8.174  1.00  0.00    -0.237 OA
ATOM     79  O   UNL     1      10.073  -3.553   7.356  1.00  0.00    -0.744 OA
ENDBRANCH  75  76
ENDBRANCH  47  70
BRANCH  59  80
ATOM     80  C   UNL     1       2.560  -0.191  15.345  1.00  0.00    -0.014 A 
ATOM     81  C   UNL     1       3.494   0.797  15.704  1.00  0.00     0.010 A 
ATOM     82  C   UNL     1       2.052  -1.046  16.341  1.00  0.00     0.010 A 
ATOM     83  C   UNL     1       3.936   0.906  17.026  1.00  0.00     0.020 A 
ATOM     84  C   UNL     1       2.474  -0.924  17.668  1.00  0.00     0.020 A 
ATOM     85  C   UNL     1       3.425   0.042  18.000  1.00  0.00     0.054 A 
BRANCH  85  86
ATOM     86  S   UNL     1       3.986   0.225  19.716  1.00  0.00     0.124 S 
ATOM     87  O   UNL     1       5.313  -0.384  19.668  1.00  0.00    -0.237 OA
ATOM     88  O   UNL     1       3.967   1.672  19.910  1.00  0.00    -0.237 OA
ATOM     89  O   UNL     1       2.988  -0.514  20.486  1.00  0.00    -0.744 OA
ENDBRANCH  85  86
ENDBRANCH  59  80
ENDBRANCH  33  34
ENDBRANCH  26  28
ENDBRANCH  25  26
ENDBRANCH  24  25
ENDBRANCH  23  24
ENDBRANCH  22  23
ENDBRANCH   1  22
TORSDOF 22
