REMARK SMILES Cc1ccc(-c2cc(Cl)cc3c2O[C@H](C(F)(F)F)C(C(=O)OCCOCCOC(=O)c2ccc(-c4c5nc(c(-c6ccc(S(=O)(=O)[O-])cc6)c6ccc([nH]6)c(-c6ccc(S(=O)(=O)[O-])cc6)c6nc(c(-c7ccc(S(=O)(=O)[O-])cc7)c7ccc4[nH]7)C=C6)C=C5)cc2)=C3)cc1F
REMARK SMILES IDX 26 1 25 2 24 3 23 4 22 5 20 6 21 7 19 8 6 9 7 10 12 11 8 12
REMARK SMILES IDX 11 13 13 14 9 15 10 16 91 17 14 18 5 19 1 20 2 21 3 22 93 23
REMARK SMILES IDX 4 24 92 25 94 26 15 27 16 28 17 29 18 30 27 31 28 32 29 33
REMARK SMILES IDX 30 34 31 35 32 36 90 37 33 38 89 39 34 40 35 41 36 42 83 43
REMARK SMILES IDX 37 44 88 45 82 46 84 47 38 48 87 49 81 50 80 51 39 53 69 54
REMARK SMILES IDX 50 55 68 56 51 57 54 58 67 59 85 60 52 61 53 62 66 64 86 65
REMARK SMILES IDX 55 66 40 67 41 68 49 69 42 70 48 71 43 72 44 73 45 74 46 75
REMARK SMILES IDX 47 76 70 77 71 78 79 79 72 80 78 81 73 82 74 83 75 84 76 85
REMARK SMILES IDX 77 86 56 87 57 88 65 89 58 90 64 91 59 92 60 93 61 94 62 95
REMARK SMILES IDX 63 96
REMARK H PARENT 84 52 54 63
REMARK Flexibility Score: inf
ROOT
ATOM      1  C   UNL     1      -5.621  -5.026   5.753  1.00  0.00     0.202 C 
ENDROOT
BRANCH   1   2
ATOM      2  O   UNL     1      -5.436  -6.323   6.318  1.00  0.00    -0.374 OA
BRANCH   2   3
ATOM      3  C   UNL     1      -4.157  -6.657   6.853  1.00  0.00     0.202 C 
BRANCH   3   4
ATOM      4  C   UNL     1      -3.024  -6.962   5.869  1.00  0.00     0.261 C 
BRANCH   4   5
ATOM      5  O   UNL     1      -2.816  -5.896   4.932  1.00  0.00    -0.460 OA
BRANCH   5   6
ATOM      6  C   UNL     1      -3.215  -6.178   3.669  1.00  0.00     0.338 C 
ATOM      7  O   UNL     1      -3.641  -7.244   3.255  1.00  0.00    -0.246 OA
BRANCH   6   8
ATOM      8  C   UNL     1      -3.201  -4.947   2.855  1.00  0.00     0.087 C 
ATOM      9  C   UNL     1      -2.993  -1.787   0.124  1.00  0.00     0.026 A 
ATOM     10  C   UNL     1      -3.974  -1.716  -0.883  1.00  0.00     0.033 A 
ATOM     11  C   UNL     1      -3.124  -2.784   1.115  1.00  0.00     0.135 A 
ATOM     12  C   UNL     1      -5.048  -2.604  -0.898  1.00  0.00     0.042 A 
ATOM     13  C   UNL     1      -4.180  -3.701   1.064  1.00  0.00     0.019 A 
ATOM     14  O   UNL     1      -2.206  -2.788   2.133  1.00  0.00    -0.475 OA
ATOM     15  Cl  UNL     1      -6.231  -2.498  -2.142  1.00  0.00    -0.084 Cl
ATOM     16  C   UNL     1      -5.154  -3.598   0.069  1.00  0.00     0.032 A 
ATOM     17  C   UNL     1      -4.220  -4.811   1.998  1.00  0.00     0.027 C 
ATOM     18  C   UNL     1      -2.080  -3.956   2.988  1.00  0.00     0.316 C 
BRANCH   9  19
ATOM     19  C   UNL     1      -1.840  -0.869   0.082  1.00  0.00    -0.012 A 
ATOM     20  C   UNL     1       1.577   1.786  -0.017  1.00  0.00     0.047 C 
ATOM     21  C   UNL     1       0.383   0.884  -0.001  1.00  0.00    -0.015 A 
ATOM     22  C   UNL     1      -0.919   1.393   0.033  1.00  0.00     0.007 A 
ATOM     23  C   UNL     1       0.558  -0.499  -0.004  1.00  0.00     0.126 A 
ATOM     24  C   UNL     1      -2.017   0.524   0.072  1.00  0.00     0.009 A 
ATOM     25  C   UNL     1      -0.528  -1.368   0.033  1.00  0.00     0.048 A 
ATOM     26  F   UNL     1       1.795  -1.014  -0.047  1.00  0.00    -0.207 F 
ENDBRANCH   9  19
BRANCH  18  27
ATOM     27  C   UNL     1      -0.699  -4.584   2.752  1.00  0.00     0.430 C 
ATOM     28  F   UNL     1       0.280  -3.651   2.824  1.00  0.00    -0.167 F 
ATOM     29  F   UNL     1      -0.412  -5.529   3.676  1.00  0.00    -0.167 F 
ATOM     30  F   UNL     1      -0.619  -5.165   1.533  1.00  0.00    -0.167 F 
ENDBRANCH  18  27
ENDBRANCH   6   8
ENDBRANCH   5   6
ENDBRANCH   4   5
ENDBRANCH   3   4
ENDBRANCH   2   3
ENDBRANCH   1   2
BRANCH   1  31
ATOM     31  C   UNL     1      -5.640  -3.808   6.686  1.00  0.00     0.261 C 
BRANCH  31  32
ATOM     32  O   UNL     1      -4.390  -3.592   7.360  1.00  0.00    -0.460 OA
BRANCH  32  33
ATOM     33  C   UNL     1      -4.407  -3.859   8.691  1.00  0.00     0.338 C 
ATOM     34  O   UNL     1      -5.362  -4.238   9.353  1.00  0.00    -0.246 OA
BRANCH  33  35
ATOM     35  C   UNL     1      -3.030  -3.824   9.214  1.00  0.00     0.060 A 
ATOM     36  C   UNL     1      -2.236  -2.684   9.084  1.00  0.00     0.016 A 
ATOM     37  C   UNL     1      -2.548  -4.955   9.887  1.00  0.00     0.016 A 
ATOM     38  C   UNL     1      -0.960  -2.673   9.655  1.00  0.00     0.010 A 
ATOM     39  C   UNL     1      -1.274  -4.941  10.455  1.00  0.00     0.010 A 
ATOM     40  C   UNL     1      -0.477  -3.792  10.361  1.00  0.00    -0.014 A 
BRANCH  40  41
ATOM     41  C   UNL     1       0.807  -3.711  11.103  1.00  0.00     0.031 A 
ATOM     42  C   UNL     1       2.035  -4.426  10.620  1.00  0.00     0.074 A 
ATOM     43  C   UNL     1       0.849  -2.975  12.232  1.00  0.00     0.049 A 
ATOM     44  N   UNL     1       3.244  -4.393  11.116  1.00  0.00    -0.248 NA
ATOM     45  C   UNL     1       1.895  -5.284   9.432  1.00  0.00     0.031 C 
ATOM     46  C   UNL     1      -0.290  -2.250  12.801  1.00  0.00     0.029 A 
ATOM     47  N   UNL     1       1.883  -2.693  13.090  1.00  0.00    -0.354 N 
ATOM     48  C   UNL     1       4.018  -5.199  10.290  1.00  0.00     0.074 A 
ATOM     49  C   UNL     1       3.130  -5.754   9.291  1.00  0.00     0.031 C 
ATOM     50  C   UNL     1       0.120  -1.565  13.878  1.00  0.00     0.029 A 
ATOM     51  C   UNL     1       1.537  -1.833  14.108  1.00  0.00     0.049 A 
ATOM     52  H   UNL     1       2.787  -3.070  12.986  1.00  0.00     0.167 HD
ATOM     53  C   UNL     1       5.351  -5.427  10.348  1.00  0.00     0.031 A 
ATOM     54  C   UNL     1       2.276  -1.309  15.107  1.00  0.00     0.031 A 
ATOM     55  C   UNL     1       6.223  -4.872  11.354  1.00  0.00     0.049 A 
ATOM     56  C   UNL     1       3.742  -1.642  15.185  1.00  0.00     0.074 A 
ATOM     57  C   UNL     1       7.594  -5.033  11.475  1.00  0.00     0.029 A 
ATOM     58  N   UNL     1       5.825  -4.056  12.401  1.00  0.00    -0.354 N 
ATOM     59  N   UNL     1       4.468  -2.351  14.354  1.00  0.00    -0.248 NA
ATOM     60  C   UNL     1       4.493  -1.094  16.323  1.00  0.00     0.031 C 
ATOM     61  C   UNL     1       8.010  -4.381  12.636  1.00  0.00     0.029 A 
ATOM     62  C   UNL     1       6.918  -3.734  13.190  1.00  0.00     0.049 A 
ATOM     63  H   UNL     1       4.903  -3.749  12.560  1.00  0.00     0.167 HD
ATOM     64  C   UNL     1       5.766  -2.305  14.852  1.00  0.00     0.074 A 
ATOM     65  C   UNL     1       5.730  -1.483  16.042  1.00  0.00     0.031 C 
ATOM     66  C   UNL     1       6.883  -2.897  14.365  1.00  0.00     0.031 A 
BRANCH  53  67
ATOM     67  C   UNL     1       5.993  -6.275   9.278  1.00  0.00    -0.014 A 
ATOM     68  C   UNL     1       6.618  -7.489   9.622  1.00  0.00     0.010 A 
ATOM     69  C   UNL     1       6.155  -5.768   7.976  1.00  0.00     0.010 A 
ATOM     70  C   UNL     1       7.446  -8.145   8.707  1.00  0.00     0.020 A 
ATOM     71  C   UNL     1       6.958  -6.438   7.048  1.00  0.00     0.020 A 
ATOM     72  C   UNL     1       7.626  -7.603   7.431  1.00  0.00     0.054 A 
BRANCH  72  73
ATOM     73  S   UNL     1       8.787  -8.412   6.296  1.00  0.00     0.124 S 
ATOM     74  O   UNL     1      10.076  -8.135   6.923  1.00  0.00    -0.237 OA
ATOM     75  O   UNL     1       8.350  -9.805   6.337  1.00  0.00    -0.237 OA
ATOM     76  O   UNL     1       8.553  -7.732   5.023  1.00  0.00    -0.744 OA
ENDBRANCH  72  73
ENDBRANCH  53  67
BRANCH  54  77
ATOM     77  C   UNL     1       1.648  -0.368  16.080  1.00  0.00    -0.014 A 
ATOM     78  C   UNL     1       0.619  -0.798  16.939  1.00  0.00     0.010 A 
ATOM     79  C   UNL     1       2.052   0.979  16.128  1.00  0.00     0.010 A 
ATOM     80  C   UNL     1      -0.021   0.104  17.792  1.00  0.00     0.020 A 
ATOM     81  C   UNL     1       1.441   1.877  17.009  1.00  0.00     0.020 A 
ATOM     82  C   UNL     1       0.391   1.439  17.817  1.00  0.00     0.054 A 
BRANCH  82  83
ATOM     83  S   UNL     1      -0.465   2.593  18.924  1.00  0.00     0.124 S 
ATOM     84  O   UNL     1      -1.739   2.780  18.233  1.00  0.00    -0.237 OA
ATOM     85  O   UNL     1      -0.531   1.843  20.175  1.00  0.00    -0.237 OA
ATOM     86  O   UNL     1       0.412   3.761  18.946  1.00  0.00    -0.744 OA
ENDBRANCH  82  83
ENDBRANCH  54  77
BRANCH  66  87
ATOM     87  C   UNL     1       8.189  -2.684  15.093  1.00  0.00    -0.014 A 
ATOM     88  C   UNL     1       9.250  -2.023  14.444  1.00  0.00     0.010 A 
ATOM     89  C   UNL     1       8.417  -3.265  16.352  1.00  0.00     0.010 A 
ATOM     90  C   UNL     1      10.525  -1.994  15.013  1.00  0.00     0.020 A 
ATOM     91  C   UNL     1       9.683  -3.204  16.944  1.00  0.00     0.020 A 
ATOM     92  C   UNL     1      10.736  -2.597  16.255  1.00  0.00     0.054 A 
BRANCH  92  93
ATOM     93  S   UNL     1      12.412  -2.603  16.950  1.00  0.00     0.124 S 
ATOM     94  O   UNL     1      13.094  -3.575  16.102  1.00  0.00    -0.237 OA
ATOM     95  O   UNL     1      12.833  -1.214  16.781  1.00  0.00    -0.237 OA
ATOM     96  O   UNL     1      12.208  -3.019  18.336  1.00  0.00    -0.744 OA
ENDBRANCH  92  93
ENDBRANCH  66  87
ENDBRANCH  40  41
ENDBRANCH  33  35
ENDBRANCH  32  33
ENDBRANCH  31  32
ENDBRANCH   1  31
TORSDOF 19
