REMARK SMILES Cc1ccc(Cl)c(Nc2ccccc2C(=O)N[C@@H](C)C(=O)OCCOCCOC(=O)c2ccc(-c3c4nc(c(-c5ccc(S(=O)(=O)[O-])cc5)c5ccc([nH]5)c(-c5ccc(S(=O)(=O)[O-])cc5)c5nc(c(-c6ccc(S(=O)(=O)[O-])cc6)c6ccc3[nH]6)C=C5)C=C4)cc2)c1Cl
REMARK SMILES IDX 24 1 23 2 22 3 20 4 21 5 18 6 19 7 17 8 15 9 16 10 14 12
REMARK SMILES IDX 9 13 10 14 11 15 13 16 12 17 8 18 7 20 1 21 2 22 3 23 91 24
REMARK SMILES IDX 4 25 92 26 5 27 6 28 25 29 26 30 27 31 28 32 29 33 30 34
REMARK SMILES IDX 31 35 32 36 90 37 33 38 89 39 34 40 35 41 36 42 83 43 37 44
REMARK SMILES IDX 88 45 82 46 84 47 38 48 87 49 81 50 80 51 39 53 69 54 50 55
REMARK SMILES IDX 68 56 51 57 54 58 67 59 85 60 52 61 53 62 66 64 86 65 55 66
REMARK SMILES IDX 40 67 41 68 49 69 42 70 48 71 43 72 44 73 45 74 46 75 47 76
REMARK SMILES IDX 70 77 71 78 79 79 72 80 78 81 73 82 74 83 75 84 76 85 77 86
REMARK SMILES IDX 56 87 57 88 65 89 58 90 64 91 59 92 60 93 61 94 62 95 63 96
REMARK H PARENT 17 11 8 19 84 52 54 63
REMARK Flexibility Score: inf
ROOT
ATOM      1  C   UNL     1       0.528   3.675  -0.955  1.00  0.00     0.202 C 
ENDROOT
BRANCH   1   2
ATOM      2  C   UNL     1      -0.591   3.208   0.078  1.00  0.00     0.261 C 
BRANCH   2   3
ATOM      3  O   UNL     1      -0.425   1.967   0.848  1.00  0.00    -0.462 OA
BRANCH   3   4
ATOM      4  C   UNL     1      -1.575   1.249   1.119  1.00  0.00     0.328 C 
ATOM      5  O   UNL     1      -2.696   1.693   0.873  1.00  0.00    -0.250 OA
BRANCH   4   6
ATOM      6  C   UNL     1      -1.373  -0.268   1.558  1.00  0.00     0.189 C 
ATOM      7  C   UNL     1      -2.559  -0.728   2.413  1.00  0.00     0.043 C 
BRANCH   6   8
ATOM      8  N   UNL     1      -0.140  -0.689   2.219  1.00  0.00    -0.339 N 
ATOM      9  C   UNL     1       0.650  -1.817   2.273  1.00  0.00     0.254 C 
ATOM     10  O   UNL     1       1.465  -1.728   3.210  1.00  0.00    -0.269 OA
ATOM     11  H   UNL     1       0.227   0.031   2.782  1.00  0.00     0.164 HD
BRANCH   9  12
ATOM     12  C   UNL     1       0.753  -3.082   1.402  1.00  0.00     0.063 A 
ATOM     13  C   UNL     1      -0.043  -3.672   0.382  1.00  0.00     0.051 A 
ATOM     14  C   UNL     1       0.389  -4.884  -0.249  1.00  0.00     0.027 A 
ATOM     15  C   UNL     1       1.604  -5.492   0.038  1.00  0.00     0.002 A 
ATOM     16  C   UNL     1       1.967  -3.787   1.691  1.00  0.00     0.016 A 
ATOM     17  C   UNL     1       2.397  -4.941   1.019  1.00  0.00     0.001 A 
BRANCH  13  18
ATOM     18  N   UNL     1      -1.123  -3.084  -0.316  1.00  0.00    -0.352 N 
ATOM     19  H   UNL     1      -2.038  -3.298  -0.022  1.00  0.00     0.167 HD
BRANCH  18  20
ATOM     20  C   UNL     1      -0.959  -2.188  -1.433  1.00  0.00     0.077 A 
ATOM     21  C   UNL     1       1.395   0.247  -0.589  1.00  0.00     0.046 C 
ATOM     22  C   UNL     1       0.308  -0.226  -1.504  1.00  0.00    -0.030 A 
ATOM     23  C   UNL     1      -0.805   0.501  -1.940  1.00  0.00     0.006 A 
ATOM     24  C   UNL     1       0.274  -1.590  -1.642  1.00  0.00     0.069 A 
ATOM     25  C   UNL     1      -1.991  -0.164  -2.255  1.00  0.00     0.023 A 
ATOM     26  Cl  UNL     1       1.761  -2.449  -1.846  1.00  0.00    -0.082 Cl
ATOM     27  C   UNL     1      -2.089  -1.509  -1.916  1.00  0.00     0.066 A 
ATOM     28  Cl  UNL     1      -3.629  -2.281  -1.941  1.00  0.00    -0.082 Cl
ENDBRANCH  18  20
ENDBRANCH  13  18
ENDBRANCH   9  12
ENDBRANCH   6   8
ENDBRANCH   4   6
ENDBRANCH   3   4
ENDBRANCH   2   3
ENDBRANCH   1   2
BRANCH   1  29
ATOM     29  O   UNL     1       1.303   2.710  -1.673  1.00  0.00    -0.374 OA
BRANCH  29  30
ATOM     30  C   UNL     1       2.727   2.939  -1.774  1.00  0.00     0.202 C 
BRANCH  30  31
ATOM     31  C   UNL     1       3.588   2.519  -0.558  1.00  0.00     0.261 C 
BRANCH  31  32
ATOM     32  O   UNL     1       2.911   2.922   0.630  1.00  0.00    -0.460 OA
BRANCH  32  33
ATOM     33  C   UNL     1       3.648   3.469   1.605  1.00  0.00     0.338 C 
ATOM     34  O   UNL     1       4.865   3.428   1.755  1.00  0.00    -0.246 OA
BRANCH  33  35
ATOM     35  C   UNL     1       2.728   4.346   2.329  1.00  0.00     0.060 A 
ATOM     36  C   UNL     1       2.177   5.407   1.598  1.00  0.00     0.016 A 
ATOM     37  C   UNL     1       2.479   4.208   3.691  1.00  0.00     0.016 A 
ATOM     38  C   UNL     1       1.382   6.351   2.217  1.00  0.00     0.010 A 
ATOM     39  C   UNL     1       1.722   5.194   4.333  1.00  0.00     0.010 A 
ATOM     40  C   UNL     1       1.228   6.296   3.604  1.00  0.00    -0.014 A 
BRANCH  40  41
ATOM     41  C   UNL     1       0.896   7.570   4.278  1.00  0.00     0.031 A 
ATOM     42  C   UNL     1       2.043   8.420   4.763  1.00  0.00     0.074 A 
ATOM     43  C   UNL     1      -0.360   8.046   4.325  1.00  0.00     0.049 A 
ATOM     44  N   UNL     1       2.018   9.581   5.362  1.00  0.00    -0.248 NA
ATOM     45  C   UNL     1       3.401   7.896   4.523  1.00  0.00     0.031 C 
ATOM     46  C   UNL     1      -1.545   7.385   3.783  1.00  0.00     0.029 A 
ATOM     47  N   UNL     1      -0.833   9.220   4.851  1.00  0.00    -0.354 N 
ATOM     48  C   UNL     1       3.348   9.913   5.591  1.00  0.00     0.074 A 
ATOM     49  C   UNL     1       4.155   8.829   5.081  1.00  0.00     0.031 C 
ATOM     50  C   UNL     1      -2.617   8.164   4.018  1.00  0.00     0.029 A 
ATOM     51  C   UNL     1      -2.195   9.356   4.755  1.00  0.00     0.049 A 
ATOM     52  H   UNL     1      -0.251   9.902   5.258  1.00  0.00     0.167 HD
ATOM     53  C   UNL     1       3.857  11.022   6.174  1.00  0.00     0.031 A 
ATOM     54  C   UNL     1      -3.010  10.318   5.232  1.00  0.00     0.031 A 
ATOM     55  C   UNL     1       3.065  12.105   6.687  1.00  0.00     0.049 A 
ATOM     56  C   UNL     1      -2.427  11.497   5.970  1.00  0.00     0.074 A 
ATOM     57  C   UNL     1       3.498  13.262   7.311  1.00  0.00     0.029 A 
ATOM     58  N   UNL     1       1.683  12.168   6.639  1.00  0.00    -0.354 N 
ATOM     59  N   UNL     1      -1.170  11.785   6.211  1.00  0.00    -0.248 NA
ATOM     60  C   UNL     1      -3.380  12.486   6.494  1.00  0.00     0.031 C 
ATOM     61  C   UNL     1       2.373  14.000   7.690  1.00  0.00     0.029 A 
ATOM     62  C   UNL     1       1.243  13.335   7.242  1.00  0.00     0.049 A 
ATOM     63  H   UNL     1       1.099  11.485   6.237  1.00  0.00     0.167 HD
ATOM     64  C   UNL     1      -1.182  13.005   6.883  1.00  0.00     0.074 A 
ATOM     65  C   UNL     1      -2.568  13.404   7.001  1.00  0.00     0.031 C 
ATOM     66  C   UNL     1      -0.137  13.732   7.354  1.00  0.00     0.031 A 
BRANCH  53  67
ATOM     67  C   UNL     1       5.351  11.088   6.339  1.00  0.00    -0.014 A 
ATOM     68  C   UNL     1       6.203  11.304   5.242  1.00  0.00     0.010 A 
ATOM     69  C   UNL     1       5.904  10.961   7.626  1.00  0.00     0.010 A 
ATOM     70  C   UNL     1       7.587  11.360   5.426  1.00  0.00     0.020 A 
ATOM     71  C   UNL     1       7.284  11.045   7.818  1.00  0.00     0.020 A 
ATOM     72  C   UNL     1       8.118  11.229   6.714  1.00  0.00     0.054 A 
BRANCH  72  73
ATOM     73  S   UNL     1       9.915  11.334   6.930  1.00  0.00     0.124 S 
ATOM     74  O   UNL     1      10.359  10.056   6.377  1.00  0.00    -0.237 OA
ATOM     75  O   UNL     1      10.264  12.514   6.142  1.00  0.00    -0.237 OA
ATOM     76  O   UNL     1      10.083  11.480   8.373  1.00  0.00    -0.744 OA
ENDBRANCH  72  73
ENDBRANCH  53  67
BRANCH  54  77
ATOM     77  C   UNL     1      -4.482  10.191   5.061  1.00  0.00    -0.014 A 
ATOM     78  C   UNL     1      -5.190  11.075   4.230  1.00  0.00     0.010 A 
ATOM     79  C   UNL     1      -5.186   9.190   5.755  1.00  0.00     0.010 A 
ATOM     80  C   UNL     1      -6.579  10.971   4.109  1.00  0.00     0.020 A 
ATOM     81  C   UNL     1      -6.569   9.064   5.614  1.00  0.00     0.020 A 
ATOM     82  C   UNL     1      -7.259   9.964   4.800  1.00  0.00     0.054 A 
BRANCH  82  83
ATOM     83  S   UNL     1      -9.053   9.813   4.587  1.00  0.00     0.124 S 
ATOM     84  O   UNL     1      -9.548  10.946   5.362  1.00  0.00    -0.237 OA
ATOM     85  O   UNL     1      -9.207   9.920   3.138  1.00  0.00    -0.237 OA
ATOM     86  O   UNL     1      -9.353   8.495   5.141  1.00  0.00    -0.744 OA
ENDBRANCH  82  83
ENDBRANCH  54  77
BRANCH  66  87
ATOM     87  C   UNL     1      -0.439  15.064   7.993  1.00  0.00    -0.014 A 
ATOM     88  C   UNL     1      -1.064  15.156   9.250  1.00  0.00     0.010 A 
ATOM     89  C   UNL     1      -0.052  16.248   7.337  1.00  0.00     0.010 A 
ATOM     90  C   UNL     1      -1.337  16.406   9.815  1.00  0.00     0.020 A 
ATOM     91  C   UNL     1      -0.298  17.498   7.911  1.00  0.00     0.020 A 
ATOM     92  C   UNL     1      -0.958  17.570   9.138  1.00  0.00     0.054 A 
BRANCH  92  93
ATOM     93  S   UNL     1      -1.309  19.181   9.897  1.00  0.00     0.124 S 
ATOM     94  O   UNL     1      -2.749  19.305   9.690  1.00  0.00    -0.237 OA
ATOM     95  O   UNL     1      -0.888  18.984  11.282  1.00  0.00    -0.237 OA
ATOM     96  O   UNL     1      -0.487  20.113   9.129  1.00  0.00    -0.744 OA
ENDBRANCH  92  93
ENDBRANCH  66  87
ENDBRANCH  40  41
ENDBRANCH  33  35
ENDBRANCH  32  33
ENDBRANCH  31  32
ENDBRANCH  30  31
ENDBRANCH  29  30
ENDBRANCH   1  29
TORSDOF 21
