REMARK SMILES CC(C)(C)c1csc(NC(=O)Cn2cccc2C(=O)OCCOCCOC(=O)c2ccc(-c3c4nc(c(-c5ccc(S(=O)(=O)[O-])cc5)c5ccc([nH]5)c(-c5ccc(S(=O)(=O)[O-])cc5)c5nc(c(-c6ccc(S(=O)(=O)[O-])cc6)c6ccc3[nH]6)C=C5)C=C4)cc2)n1
REMARK SMILES IDX 22 1 21 2 20 3 18 4 19 5 17 6 13 7 14 8 15 9 16 10 12 11
REMARK SMILES IDX 10 12 9 13 11 15 8 16 5 17 6 18 89 19 7 20 2 21 1 22 3 23
REMARK SMILES IDX 4 24 23 25 24 26 25 27 26 28 27 29 28 30 29 31 30 32 88 33
REMARK SMILES IDX 31 34 87 35 32 36 33 37 34 38 81 39 35 40 86 41 80 42 82 43
REMARK SMILES IDX 36 44 85 45 79 46 78 47 37 49 67 50 48 51 66 52 49 53 52 54
REMARK SMILES IDX 65 55 83 56 50 57 51 58 64 60 84 61 53 62 38 63 39 64 47 65
REMARK SMILES IDX 40 66 46 67 41 68 42 69 43 70 44 71 45 72 68 73 69 74 77 75
REMARK SMILES IDX 70 76 76 77 71 78 72 79 73 80 74 81 75 82 54 83 55 84 63 85
REMARK SMILES IDX 56 86 62 87 57 88 58 89 59 90 60 91 61 92
REMARK H PARENT 9 14 82 48 52 59
REMARK Flexibility Score: inf
ROOT
ATOM      1  C   UNL     1       0.863   1.362  -5.127  1.00  0.00     0.202 C 
ENDROOT
BRANCH   1   2
ATOM      2  C   UNL     1       1.127   2.133  -3.846  1.00  0.00     0.261 C 
BRANCH   2   3
ATOM      3  O   UNL     1       2.063   3.215  -3.983  1.00  0.00    -0.459 OA
BRANCH   3   4
ATOM      4  C   UNL     1       3.181   3.125  -3.219  1.00  0.00     0.355 C 
ATOM      5  O   UNL     1       3.650   2.075  -2.787  1.00  0.00    -0.244 OA
BRANCH   4   6
ATOM      6  C   UNL     1       3.717   4.426  -2.884  1.00  0.00     0.128 A 
ATOM      7  N   UNL     1       3.046   5.623  -2.686  1.00  0.00    -0.333 N 
ATOM      8  C   UNL     1       3.937   6.577  -2.244  1.00  0.00     0.087 A 
ATOM      9  C   UNL     1       5.178   6.000  -2.131  1.00  0.00     0.020 A 
ATOM     10  C   UNL     1       5.041   4.656  -2.525  1.00  0.00     0.035 A 
BRANCH   7  11
ATOM     11  C   UNL     1       1.643   5.923  -2.924  1.00  0.00     0.222 C 
BRANCH  11  12
ATOM     12  C   UNL     1       0.763   6.089  -1.690  1.00  0.00     0.246 C 
ATOM     13  N   UNL     1       0.019   5.010  -1.285  1.00  0.00    -0.300 N 
ATOM     14  H   UNL     1      -0.959   5.126  -1.276  1.00  0.00     0.172 HD
ATOM     15  O   UNL     1       0.505   7.208  -1.239  1.00  0.00    -0.273 OA
BRANCH  13  16
ATOM     16  C   UNL     1       0.495   3.788  -0.893  1.00  0.00     0.189 A 
ATOM     17  C   UNL     1       0.544   1.607  -0.463  1.00  0.00     0.059 A 
ATOM     18  C   UNL     1       1.792   1.980   0.015  1.00  0.00     0.093 A 
ATOM     19  N   UNL     1      -0.217   2.687  -0.919  1.00  0.00    -0.224 NA
ATOM     20  S   UNL     1       1.990   3.678  -0.085  1.00  0.00    -0.105 S 
BRANCH  17  21
ATOM     21  C   UNL     1      -0.018   0.186  -0.534  1.00  0.00     0.005 C 
ATOM     22  C   UNL     1       0.232  -0.555   0.794  1.00  0.00     0.017 C 
ATOM     23  C   UNL     1       0.649  -0.631  -1.661  1.00  0.00     0.017 C 
ATOM     24  C   UNL     1      -1.536   0.201  -0.803  1.00  0.00     0.017 C 
ENDBRANCH  17  21
ENDBRANCH  13  16
ENDBRANCH  11  12
ENDBRANCH   7  11
ENDBRANCH   4   6
ENDBRANCH   3   4
ENDBRANCH   2   3
ENDBRANCH   1   2
BRANCH   1  25
ATOM     25  O   UNL     1       1.615   0.172  -5.335  1.00  0.00    -0.374 OA
BRANCH  25  26
ATOM     26  C   UNL     1       3.021   0.162  -5.131  1.00  0.00     0.202 C 
BRANCH  26  27
ATOM     27  C   UNL     1       3.916   1.137  -5.913  1.00  0.00     0.261 C 
BRANCH  27  28
ATOM     28  O   UNL     1       3.228   2.109  -6.689  1.00  0.00    -0.460 OA
BRANCH  28  29
ATOM     29  C   UNL     1       2.642   1.579  -7.786  1.00  0.00     0.338 C 
ATOM     30  O   UNL     1       2.590   0.400  -8.099  1.00  0.00    -0.246 OA
BRANCH  29  31
ATOM     31  C   UNL     1       2.058   2.648  -8.601  1.00  0.00     0.060 A 
ATOM     32  C   UNL     1       0.915   2.333  -9.342  1.00  0.00     0.016 A 
ATOM     33  C   UNL     1       2.773   3.833  -8.814  1.00  0.00     0.016 A 
ATOM     34  C   UNL     1       0.583   3.126 -10.424  1.00  0.00     0.010 A 
ATOM     35  C   UNL     1       2.460   4.610  -9.918  1.00  0.00     0.010 A 
ATOM     36  C   UNL     1       1.421   4.198 -10.762  1.00  0.00    -0.014 A 
BRANCH  36  37
ATOM     37  C   UNL     1       1.320   4.731 -12.133  1.00  0.00     0.031 A 
ATOM     38  C   UNL     1       0.349   5.868 -12.296  1.00  0.00     0.074 A 
ATOM     39  C   UNL     1       2.027   4.054 -13.085  1.00  0.00     0.049 A 
ATOM     40  N   UNL     1      -0.419   6.123 -13.308  1.00  0.00    -0.248 NA
ATOM     41  C   UNL     1       0.107   6.785 -11.158  1.00  0.00     0.031 C 
ATOM     42  C   UNL     1       2.910   2.901 -12.798  1.00  0.00     0.029 A 
ATOM     43  N   UNL     1       2.149   4.167 -14.453  1.00  0.00    -0.354 N 
ATOM     44  C   UNL     1      -1.146   7.278 -12.992  1.00  0.00     0.074 A 
ATOM     45  C   UNL     1      -0.858   7.585 -11.619  1.00  0.00     0.031 C 
ATOM     46  C   UNL     1       3.423   2.398 -13.936  1.00  0.00     0.029 A 
ATOM     47  C   UNL     1       2.934   3.167 -15.062  1.00  0.00     0.049 A 
ATOM     48  H   UNL     1       1.721   4.891 -14.966  1.00  0.00     0.167 HD
ATOM     49  C   UNL     1      -1.856   7.990 -13.909  1.00  0.00     0.031 A 
ATOM     50  C   UNL     1       3.167   2.926 -16.383  1.00  0.00     0.031 A 
ATOM     51  C   UNL     1      -1.707   7.460 -15.226  1.00  0.00     0.049 A 
ATOM     52  C   UNL     1       2.525   3.997 -17.172  1.00  0.00     0.074 A 
ATOM     53  C   UNL     1      -2.211   6.370 -15.888  1.00  0.00     0.029 A 
ATOM     54  N   UNL     1      -0.685   7.989 -15.983  1.00  0.00    -0.354 N 
ATOM     55  N   UNL     1       2.861   5.251 -17.155  1.00  0.00    -0.248 NA
ATOM     56  C   UNL     1       1.381   3.661 -18.027  1.00  0.00     0.031 C 
ATOM     57  C   UNL     1      -1.221   6.039 -16.846  1.00  0.00     0.029 A 
ATOM     58  C   UNL     1      -0.175   6.962 -16.744  1.00  0.00     0.049 A 
ATOM     59  H   UNL     1      -0.378   8.924 -15.980  1.00  0.00     0.167 HD
ATOM     60  C   UNL     1       1.749   5.881 -17.666  1.00  0.00     0.074 A 
ATOM     61  C   UNL     1       1.017   4.883 -18.412  1.00  0.00     0.031 C 
ATOM     62  C   UNL     1       1.249   6.967 -17.021  1.00  0.00     0.031 A 
BRANCH  49  63
ATOM     63  C   UNL     1      -2.520   9.323 -13.771  1.00  0.00    -0.014 A 
ATOM     64  C   UNL     1      -3.606   9.595 -14.634  1.00  0.00     0.010 A 
ATOM     65  C   UNL     1      -1.946  10.395 -13.070  1.00  0.00     0.010 A 
ATOM     66  C   UNL     1      -4.041  10.899 -14.867  1.00  0.00     0.020 A 
ATOM     67  C   UNL     1      -2.399  11.706 -13.277  1.00  0.00     0.020 A 
ATOM     68  C   UNL     1      -3.409  11.952 -14.211  1.00  0.00     0.054 A 
BRANCH  68  69
ATOM     69  S   UNL     1      -3.873  13.648 -14.653  1.00  0.00     0.124 S 
ATOM     70  O   UNL     1      -3.194  13.825 -15.933  1.00  0.00    -0.237 OA
ATOM     71  O   UNL     1      -5.331  13.574 -14.723  1.00  0.00    -0.237 OA
ATOM     72  O   UNL     1      -3.350  14.444 -13.546  1.00  0.00    -0.744 OA
ENDBRANCH  68  69
ENDBRANCH  49  63
BRANCH  50  73
ATOM     73  C   UNL     1       3.776   1.790 -17.158  1.00  0.00    -0.014 A 
ATOM     74  C   UNL     1       3.976   0.497 -16.651  1.00  0.00     0.010 A 
ATOM     75  C   UNL     1       3.964   1.958 -18.555  1.00  0.00     0.010 A 
ATOM     76  C   UNL     1       4.238  -0.590 -17.506  1.00  0.00     0.020 A 
ATOM     77  C   UNL     1       4.165   0.877 -19.418  1.00  0.00     0.020 A 
ATOM     78  C   UNL     1       4.277  -0.401 -18.887  1.00  0.00     0.054 A 
BRANCH  78  79
ATOM     79  S   UNL     1       4.307  -1.819 -20.020  1.00  0.00     0.124 S 
ATOM     80  O   UNL     1       5.693  -1.825 -20.477  1.00  0.00    -0.237 OA
ATOM     81  O   UNL     1       3.922  -2.942 -19.168  1.00  0.00    -0.237 OA
ATOM     82  O   UNL     1       3.313  -1.447 -21.026  1.00  0.00    -0.744 OA
ENDBRANCH  78  79
ENDBRANCH  50  73
BRANCH  62  83
ATOM     83  C   UNL     1       2.281   7.754 -16.224  1.00  0.00    -0.014 A 
ATOM     84  C   UNL     1       3.378   8.357 -16.864  1.00  0.00     0.010 A 
ATOM     85  C   UNL     1       2.240   7.817 -14.819  1.00  0.00     0.010 A 
ATOM     86  C   UNL     1       4.397   8.984 -16.126  1.00  0.00     0.020 A 
ATOM     87  C   UNL     1       3.244   8.448 -14.070  1.00  0.00     0.020 A 
ATOM     88  C   UNL     1       4.324   9.024 -14.731  1.00  0.00     0.054 A 
BRANCH  88  89
ATOM     89  S   UNL     1       5.672   9.800 -13.793  1.00  0.00     0.124 S 
ATOM     90  O   UNL     1       6.846   9.049 -14.232  1.00  0.00    -0.237 OA
ATOM     91  O   UNL     1       5.612  11.187 -14.245  1.00  0.00    -0.237 OA
ATOM     92  O   UNL     1       5.296   9.587 -12.396  1.00  0.00    -0.744 OA
ENDBRANCH  88  89
ENDBRANCH  62  83
ENDBRANCH  36  37
ENDBRANCH  29  31
ENDBRANCH  28  29
ENDBRANCH  27  28
ENDBRANCH  26  27
ENDBRANCH  25  26
ENDBRANCH   1  25
TORSDOF 21
