REMARK SMILES CCc1cc(N2CCC(O)(C(=O)OCCOCCOC(=O)c3ccc(-c4c5nc(c(-c6ccc(S(=O)(=O)[O-])cc6)c6ccc([nH]6)c(-c6ccc(S(=O)(=O)[O-])cc6)c6nc(c(-c7ccc(S(=O)(=O)[O-])cc7)c7ccc4[nH]7)C=C6)C=C5)cc3)CC2)nc(N2CCOCC2)n1
REMARK SMILES IDX 17 1 16 2 15 3 14 4 13 5 11 6 12 7 9 8 6 9 7 10 83 11 8 12
REMARK SMILES IDX 82 13 5 14 3 15 4 16 92 17 85 18 84 19 2 20 1 21 86 22 87 23
REMARK SMILES IDX 91 24 88 25 90 26 89 27 10 28 18 30 19 31 20 32 21 33 22 34
REMARK SMILES IDX 23 35 81 36 24 37 80 38 25 39 26 40 27 41 74 42 28 43 79 44
REMARK SMILES IDX 73 45 75 46 29 47 78 48 72 49 71 50 30 52 60 53 41 54 59 55
REMARK SMILES IDX 42 56 45 57 58 58 76 59 43 60 44 61 57 63 77 64 46 65 31 66
REMARK SMILES IDX 32 67 40 68 33 69 39 70 34 71 35 72 36 73 37 74 38 75 61 76
REMARK SMILES IDX 62 77 70 78 63 79 69 80 64 81 65 82 66 83 67 84 68 85 47 86
REMARK SMILES IDX 48 87 56 88 49 89 55 90 50 91 51 92 52 93 53 94 54 95
REMARK H PARENT 10 29 75 51 45 62
REMARK Flexibility Score: inf
ROOT
ATOM      1  C   UNL     1      -0.457   7.309   6.379  1.00  0.00     0.202 C 
ENDROOT
BRANCH   1   2
ATOM      2  O   UNL     1      -0.508   8.655   6.854  1.00  0.00    -0.374 OA
BRANCH   2   3
ATOM      3  C   UNL     1      -1.546   9.493   6.341  1.00  0.00     0.202 C 
BRANCH   3   4
ATOM      4  C   UNL     1      -1.358  10.016   4.915  1.00  0.00     0.261 C 
BRANCH   4   5
ATOM      5  O   UNL     1      -1.328   8.934   3.967  1.00  0.00    -0.461 OA
BRANCH   5   6
ATOM      6  C   UNL     1      -0.264   8.923   3.118  1.00  0.00     0.338 C 
ATOM      7  O   UNL     1       0.565   9.826   3.038  1.00  0.00    -0.249 OA
BRANCH   6   8
ATOM      8  C   UNL     1      -0.140   7.599   2.321  1.00  0.00     0.165 C 
ATOM      9  N   UNL     1       0.360   4.791   2.479  1.00  0.00    -0.356 N 
ATOM     10  C   UNL     1      -0.948   5.195   1.999  1.00  0.00     0.121 C 
ATOM     11  C   UNL     1       1.496   5.645   2.174  1.00  0.00     0.121 C 
ATOM     12  C   UNL     1      -1.270   6.582   2.565  1.00  0.00     0.069 C 
ATOM     13  C   UNL     1       1.239   7.034   2.722  1.00  0.00     0.069 C 
BRANCH   9  14
ATOM     14  C   UNL     1       0.673   3.487   2.797  1.00  0.00     0.134 A 
ATOM     15  C   UNL     1       0.844   1.189   2.335  1.00  0.00     0.048 A 
ATOM     16  C   UNL     1       0.333   2.426   1.990  1.00  0.00     0.071 A 
ATOM     17  N   UNL     1       1.625   1.011   3.420  1.00  0.00    -0.218 NA
ATOM     18  C   UNL     1       1.825   2.072   4.210  1.00  0.00     0.227 A 
ATOM     19  N   UNL     1       1.388   3.303   3.917  1.00  0.00    -0.196 NA
BRANCH  15  20
ATOM     20  C   UNL     1       0.527  -0.036   1.516  1.00  0.00     0.053 C 
ATOM     21  C   UNL     1       1.113   0.011   0.113  1.00  0.00     0.011 C 
ENDBRANCH  15  20
BRANCH  18  22
ATOM     22  N   UNL     1       2.504   1.913   5.378  1.00  0.00    -0.336 N 
ATOM     23  C   UNL     1       1.946   2.412   6.623  1.00  0.00     0.148 C 
ATOM     24  C   UNL     1       3.761   1.198   5.449  1.00  0.00     0.148 C 
ATOM     25  C   UNL     1       3.020   3.192   7.391  1.00  0.00     0.181 C 
ATOM     26  C   UNL     1       4.756   2.060   6.251  1.00  0.00     0.181 C 
ATOM     27  O   UNL     1       4.229   2.422   7.542  1.00  0.00    -0.378 OA
ENDBRANCH  18  22
ENDBRANCH   9  14
BRANCH   8  28
ATOM     28  O   UNL     1      -0.144   7.944   0.926  1.00  0.00    -0.378 OA
ATOM     29  H   UNL     1      -1.014   8.298   0.684  1.00  0.00     0.212 HD
ENDBRANCH   8  28
ENDBRANCH   6   8
ENDBRANCH   5   6
ENDBRANCH   4   5
ENDBRANCH   3   4
ENDBRANCH   2   3
ENDBRANCH   1   2
BRANCH   1  30
ATOM     30  C   UNL     1      -1.505   6.334   6.932  1.00  0.00     0.261 C 
BRANCH  30  31
ATOM     31  O   UNL     1      -2.850   6.695   6.566  1.00  0.00    -0.460 OA
BRANCH  31  32
ATOM     32  C   UNL     1      -3.630   7.090   7.601  1.00  0.00     0.338 C 
ATOM     33  O   UNL     1      -3.333   7.084   8.790  1.00  0.00    -0.246 OA
BRANCH  32  34
ATOM     34  C   UNL     1      -4.866   7.723   7.107  1.00  0.00     0.060 A 
ATOM     35  C   UNL     1      -5.170   9.003   7.590  1.00  0.00     0.016 A 
ATOM     36  C   UNL     1      -5.752   7.059   6.256  1.00  0.00     0.016 A 
ATOM     37  C   UNL     1      -6.387   9.601   7.271  1.00  0.00     0.010 A 
ATOM     38  C   UNL     1      -6.978   7.659   5.942  1.00  0.00     0.010 A 
ATOM     39  C   UNL     1      -7.317   8.915   6.480  1.00  0.00    -0.014 A 
BRANCH  39  40
ATOM     40  C   UNL     1      -8.693   9.452   6.348  1.00  0.00     0.031 A 
ATOM     41  C   UNL     1      -9.788   8.885   7.210  1.00  0.00     0.074 A 
ATOM     42  C   UNL     1      -8.963  10.458   5.497  1.00  0.00     0.049 A 
ATOM     43  N   UNL     1     -11.053   9.214   7.267  1.00  0.00    -0.248 NA
ATOM     44  C   UNL     1      -9.403   7.801   8.128  1.00  0.00     0.031 C 
ATOM     45  C   UNL     1      -7.987  11.114   4.629  1.00  0.00     0.029 A 
ATOM     46  N   UNL     1     -10.146  11.098   5.223  1.00  0.00    -0.354 N 
ATOM     47  C   UNL     1     -11.619   8.373   8.218  1.00  0.00     0.074 A 
ATOM     48  C   UNL     1     -10.565   7.499   8.688  1.00  0.00     0.031 C 
ATOM     49  C   UNL     1      -8.615  12.056   3.905  1.00  0.00     0.029 A 
ATOM     50  C   UNL     1     -10.038  12.053   4.241  1.00  0.00     0.049 A 
ATOM     51  H   UNL     1     -10.990  10.892   5.685  1.00  0.00     0.167 HD
ATOM     52  C   UNL     1     -12.898   8.331   8.663  1.00  0.00     0.031 A 
ATOM     53  C   UNL     1     -10.981  12.823   3.663  1.00  0.00     0.031 A 
ATOM     54  C   UNL     1     -13.951   9.185   8.179  1.00  0.00     0.049 A 
ATOM     55  C   UNL     1     -12.407  12.730   4.131  1.00  0.00     0.074 A 
ATOM     56  C   UNL     1     -15.272   9.238   8.586  1.00  0.00     0.029 A 
ATOM     57  N   UNL     1     -13.806  10.123   7.167  1.00  0.00    -0.354 N 
ATOM     58  N   UNL     1     -12.919  11.960   5.063  1.00  0.00    -0.248 NA
ATOM     59  C   UNL     1     -13.381  13.617   3.480  1.00  0.00     0.031 C 
ATOM     60  C   UNL     1     -15.940  10.168   7.780  1.00  0.00     0.029 A 
ATOM     61  C   UNL     1     -15.021  10.737   6.912  1.00  0.00     0.049 A 
ATOM     62  H   UNL     1     -12.963  10.323   6.699  1.00  0.00     0.167 HD
ATOM     63  C   UNL     1     -14.271  12.281   5.121  1.00  0.00     0.074 A 
ATOM     64  C   UNL     1     -14.494  13.325   4.140  1.00  0.00     0.031 C 
ATOM     65  C   UNL     1     -15.237  11.762   5.920  1.00  0.00     0.031 A 
BRANCH  52  66
ATOM     66  C   UNL     1     -13.229   7.283   9.692  1.00  0.00    -0.014 A 
ATOM     67  C   UNL     1     -12.743   7.369  11.010  1.00  0.00     0.010 A 
ATOM     68  C   UNL     1     -14.025   6.182   9.328  1.00  0.00     0.010 A 
ATOM     69  C   UNL     1     -12.991   6.341  11.924  1.00  0.00     0.020 A 
ATOM     70  C   UNL     1     -14.299   5.165  10.247  1.00  0.00     0.020 A 
ATOM     71  C   UNL     1     -13.756   5.238  11.531  1.00  0.00     0.054 A 
BRANCH  71  72
ATOM     72  S   UNL     1     -14.036   3.899  12.722  1.00  0.00     0.124 S 
ATOM     73  O   UNL     1     -12.741   3.223  12.722  1.00  0.00    -0.237 OA
ATOM     74  O   UNL     1     -14.367   4.621  13.948  1.00  0.00    -0.237 OA
ATOM     75  O   UNL     1     -15.136   3.138  12.136  1.00  0.00    -0.744 OA
ENDBRANCH  71  72
ENDBRANCH  52  66
BRANCH  53  76
ATOM     76  C   UNL     1     -10.587  13.738   2.558  1.00  0.00    -0.014 A 
ATOM     77  C   UNL     1     -10.503  15.125   2.764  1.00  0.00     0.010 A 
ATOM     78  C   UNL     1     -10.227  13.207   1.305  1.00  0.00     0.010 A 
ATOM     79  C   UNL     1     -10.052  15.964   1.740  1.00  0.00     0.020 A 
ATOM     80  C   UNL     1      -9.754  14.040   0.288  1.00  0.00     0.020 A 
ATOM     81  C   UNL     1      -9.669  15.415   0.513  1.00  0.00     0.054 A 
BRANCH  81  82
ATOM     82  S   UNL     1      -8.981  16.508  -0.762  1.00  0.00     0.124 S 
ATOM     83  O   UNL     1     -10.171  17.201  -1.243  1.00  0.00    -0.237 OA
ATOM     84  O   UNL     1      -8.037  17.323  -0.001  1.00  0.00    -0.237 OA
ATOM     85  O   UNL     1      -8.367  15.582  -1.711  1.00  0.00    -0.744 OA
ENDBRANCH  81  82
ENDBRANCH  53  76
BRANCH  65  86
ATOM     86  C   UNL     1     -16.630  12.320   5.780  1.00  0.00    -0.014 A 
ATOM     87  C   UNL     1     -17.429  12.015   4.665  1.00  0.00     0.010 A 
ATOM     88  C   UNL     1     -17.167  13.113   6.811  1.00  0.00     0.010 A 
ATOM     89  C   UNL     1     -18.731  12.516   4.569  1.00  0.00     0.020 A 
ATOM     90  C   UNL     1     -18.477  13.595   6.731  1.00  0.00     0.020 A 
ATOM     91  C   UNL     1     -19.246  13.304   5.603  1.00  0.00     0.054 A 
BRANCH  91  92
ATOM     92  S   UNL     1     -20.953  13.906   5.478  1.00  0.00     0.124 S 
ATOM     93  O   UNL     1     -20.828  14.971   4.487  1.00  0.00    -0.237 OA
ATOM     94  O   UNL     1     -21.682  12.719   5.036  1.00  0.00    -0.237 OA
ATOM     95  O   UNL     1     -21.265  14.350   6.835  1.00  0.00    -0.744 OA
ENDBRANCH  91  92
ENDBRANCH  65  86
ENDBRANCH  39  40
ENDBRANCH  32  34
ENDBRANCH  31  32
ENDBRANCH  30  31
ENDBRANCH   1  30
TORSDOF 21
