REMARK SMILES COc1cccc([C@@H]2CC(c3cccc(C)c3)=NN2C(=O)CCC(=O)OCCOCCOC(=O)c2ccc(-c3c4nc(c(-c5ccc(S(=O)(=O)[O-])cc5)c5ccc([nH]5)c(-c5ccc(S(=O)(=O)[O-])cc5)c5nc(c(-c6ccc(S(=O)(=O)[O-])cc6)c6ccc3[nH]6)C=C5)C=C4)cc2)c1
REMARK SMILES IDX 28 1 27 2 26 3 24 4 25 5 23 6 22 7 20 8 21 9 19 10 8 11 9 12
REMARK SMILES IDX 10 13 18 14 7 15 3 16 4 17 95 18 5 19 6 20 2 21 1 22 11 23
REMARK SMILES IDX 12 24 17 25 13 26 15 27 14 28 16 29 29 30 30 31 31 32 32 33
REMARK SMILES IDX 33 34 34 35 35 36 36 37 94 38 37 39 93 40 38 41 39 42 40 43
REMARK SMILES IDX 87 44 41 45 92 46 86 47 88 48 42 49 91 50 85 51 84 52 43 54
REMARK SMILES IDX 73 55 54 56 72 57 55 58 58 59 71 60 89 61 56 62 57 63 70 65
REMARK SMILES IDX 90 66 59 67 44 68 45 69 53 70 46 71 52 72 47 73 48 74 49 75
REMARK SMILES IDX 50 76 51 77 74 78 75 79 83 80 76 81 82 82 77 83 78 84 79 85
REMARK SMILES IDX 80 86 81 87 60 88 61 89 69 90 62 91 68 92 63 93 64 94 65 95
REMARK SMILES IDX 66 96 67 97
REMARK H PARENT 88 53 58 64
REMARK Flexibility Score: inf
ROOT
ATOM      1  C   UNL     1       0.466  -3.855  -3.667  1.00  0.00     0.202 C 
ENDROOT
BRANCH   1   2
ATOM      2  C   UNL     1       0.522  -2.717  -2.584  1.00  0.00     0.261 C 
BRANCH   2   3
ATOM      3  O   UNL     1       1.102  -3.086  -1.345  1.00  0.00    -0.463 OA
BRANCH   3   4
ATOM      4  C   UNL     1       0.795  -4.318  -0.915  1.00  0.00     0.306 C 
ATOM      5  O   UNL     1      -0.227  -4.927  -1.169  1.00  0.00    -0.252 OA
BRANCH   4   6
ATOM      6  C   UNL     1       1.935  -4.848  -0.119  1.00  0.00     0.132 C 
BRANCH   6   7
ATOM      7  C   UNL     1       3.185  -5.189  -0.919  1.00  0.00     0.114 C 
BRANCH   7   8
ATOM      8  C   UNL     1       4.022  -4.247  -1.873  1.00  0.00     0.243 C 
ATOM      9  O   UNL     1       5.250  -4.312  -1.682  1.00  0.00    -0.273 OA
BRANCH   8  10
ATOM     10  N   UNL     1       3.419  -3.322  -2.781  1.00  0.00    -0.225 N 
ATOM     11  C   UNL     1       3.506  -2.793  -4.451  1.00  0.00     0.147 C 
ATOM     12  C   UNL     1       3.993  -1.364  -4.326  1.00  0.00     0.091 C 
ATOM     13  C   UNL     1       4.022  -1.224  -2.834  1.00  0.00     0.071 C 
ATOM     14  N   UNL     1       3.538  -2.139  -2.069  1.00  0.00    -0.174 NA
BRANCH  11  15
ATOM     15  C   UNL     1       3.238  -3.552  -5.954  1.00  0.00    -0.019 A 
ATOM     16  C   UNL     1       1.527  -4.268  -7.634  1.00  0.00     0.119 A 
ATOM     17  C   UNL     1       2.352  -5.216  -8.217  1.00  0.00     0.046 A 
ATOM     18  C   UNL     1       1.987  -3.385  -6.609  1.00  0.00     0.052 A 
ATOM     19  C   UNL     1       3.632  -5.301  -7.755  1.00  0.00     0.004 A 
ATOM     20  C   UNL     1       4.019  -4.509  -6.652  1.00  0.00     0.006 A 
BRANCH  16  21
ATOM     21  O   UNL     1       0.243  -4.290  -8.113  1.00  0.00    -0.497 OA
ATOM     22  C   UNL     1      -0.734  -4.262  -7.081  1.00  0.00     0.278 C 
ENDBRANCH  16  21
ENDBRANCH  11  15
BRANCH  13  23
ATOM     23  C   UNL     1       4.865  -0.229  -2.216  1.00  0.00    -0.002 A 
ATOM     24  C   UNL     1       6.009  -0.778  -1.657  1.00  0.00     0.010 A 
ATOM     25  C   UNL     1       4.655   1.136  -2.297  1.00  0.00     0.013 A 
ATOM     26  C   UNL     1       7.035   0.066  -1.337  1.00  0.00     0.001 A 
ATOM     27  C   UNL     1       5.694   1.983  -1.909  1.00  0.00    -0.050 A 
ATOM     28  C   UNL     1       6.918   1.435  -1.518  1.00  0.00     0.003 A 
ATOM     29  C   UNL     1       5.547   3.468  -1.950  1.00  0.00     0.044 C 
ENDBRANCH  13  23
ENDBRANCH   8  10
ENDBRANCH   7   8
ENDBRANCH   6   7
ENDBRANCH   4   6
ENDBRANCH   3   4
ENDBRANCH   2   3
ENDBRANCH   1   2
BRANCH   1  30
ATOM     30  O   UNL     1       1.698  -4.394  -4.176  1.00  0.00    -0.374 OA
BRANCH  30  31
ATOM     31  C   UNL     1       2.413  -5.614  -3.955  1.00  0.00     0.202 C 
BRANCH  31  32
ATOM     32  C   UNL     1       4.179  -5.779  -4.199  1.00  0.00     0.261 C 
BRANCH  32  33
ATOM     33  O   UNL     1       5.404  -4.697  -4.003  1.00  0.00    -0.460 OA
BRANCH  33  34
ATOM     34  C   UNL     1       6.317  -3.908  -4.699  1.00  0.00     0.338 C 
ATOM     35  O   UNL     1       6.378  -3.734  -5.916  1.00  0.00    -0.246 OA
BRANCH  34  36
ATOM     36  C   UNL     1       7.348  -3.014  -4.062  1.00  0.00     0.060 A 
ATOM     37  C   UNL     1       7.443  -1.692  -4.567  1.00  0.00     0.016 A 
ATOM     38  C   UNL     1       8.453  -3.474  -3.346  1.00  0.00     0.016 A 
ATOM     39  C   UNL     1       8.490  -0.819  -4.253  1.00  0.00     0.010 A 
ATOM     40  C   UNL     1       9.566  -2.613  -3.091  1.00  0.00     0.010 A 
ATOM     41  C   UNL     1       9.585  -1.273  -3.519  1.00  0.00    -0.014 A 
BRANCH  41  42
ATOM     42  C   UNL     1      10.701  -0.296  -3.311  1.00  0.00     0.031 A 
ATOM     43  C   UNL     1      11.553   0.109  -4.474  1.00  0.00     0.074 A 
ATOM     44  C   UNL     1      10.829   0.363  -2.139  1.00  0.00     0.049 A 
ATOM     45  N   UNL     1      12.573   0.921  -4.462  1.00  0.00    -0.248 NA
ATOM     46  C   UNL     1      11.320  -0.547  -5.770  1.00  0.00     0.031 C 
ATOM     47  C   UNL     1      10.182  -0.037  -0.907  1.00  0.00     0.029 A 
ATOM     48  N   UNL     1      11.423   1.554  -1.796  1.00  0.00    -0.354 N 
ATOM     49  C   UNL     1      13.207   0.739  -5.681  1.00  0.00     0.074 A 
ATOM     50  C   UNL     1      12.376  -0.145  -6.466  1.00  0.00     0.031 C 
ATOM     51  C   UNL     1      10.120   1.011  -0.069  1.00  0.00     0.029 A 
ATOM     52  C   UNL     1      10.951   2.078  -0.597  1.00  0.00     0.049 A 
ATOM     53  H   UNL     1      12.113   1.993  -2.345  1.00  0.00     0.167 HD
ATOM     54  C   UNL     1      14.441   1.182  -6.021  1.00  0.00     0.031 A 
ATOM     55  C   UNL     1      11.217   3.257   0.012  1.00  0.00     0.031 A 
ATOM     56  C   UNL     1      15.216   2.027  -5.147  1.00  0.00     0.049 A 
ATOM     57  C   UNL     1      12.472   3.919  -0.498  1.00  0.00     0.074 A 
ATOM     58  C   UNL     1      16.526   2.448  -5.263  1.00  0.00     0.029 A 
ATOM     59  N   UNL     1      14.713   2.599  -3.980  1.00  0.00    -0.354 N 
ATOM     60  N   UNL     1      13.162   3.628  -1.579  1.00  0.00    -0.248 NA
ATOM     61  C   UNL     1      13.094   4.929   0.365  1.00  0.00     0.031 C 
ATOM     62  C   UNL     1      16.814   3.269  -4.163  1.00  0.00     0.029 A 
ATOM     63  C   UNL     1      15.668   3.403  -3.390  1.00  0.00     0.049 A 
ATOM     64  H   UNL     1      13.806   2.452  -3.627  1.00  0.00     0.167 HD
ATOM     65  C   UNL     1      14.352   4.323  -1.465  1.00  0.00     0.074 A 
ATOM     66  C   UNL     1      14.233   5.153  -0.278  1.00  0.00     0.031 C 
ATOM     67  C   UNL     1      15.475   4.222  -2.217  1.00  0.00     0.031 A 
BRANCH  54  68
ATOM     68  C   UNL     1      15.039   0.619  -7.281  1.00  0.00    -0.014 A 
ATOM     69  C   UNL     1      14.562   0.979  -8.552  1.00  0.00     0.010 A 
ATOM     70  C   UNL     1      16.049  -0.359  -7.186  1.00  0.00     0.010 A 
ATOM     71  C   UNL     1      15.043   0.336  -9.698  1.00  0.00     0.020 A 
ATOM     72  C   UNL     1      16.552  -0.986  -8.331  1.00  0.00     0.020 A 
ATOM     73  C   UNL     1      16.028  -0.649  -9.580  1.00  0.00     0.054 A 
BRANCH  73  74
ATOM     74  S   UNL     1      16.623  -1.474 -11.083  1.00  0.00     0.124 S 
ATOM     75  O   UNL     1      15.500  -2.348 -11.413  1.00  0.00    -0.237 OA
ATOM     76  O   UNL     1      16.838  -0.356 -11.998  1.00  0.00    -0.237 OA
ATOM     77  O   UNL     1      17.838  -2.159 -10.646  1.00  0.00    -0.744 OA
ENDBRANCH  73  74
ENDBRANCH  54  68
BRANCH  55  78
ATOM     78  C   UNL     1      10.502   3.773   1.234  1.00  0.00    -0.014 A 
ATOM     79  C   UNL     1      10.006   5.095   1.280  1.00  0.00     0.010 A 
ATOM     80  C   UNL     1      10.329   2.984   2.387  1.00  0.00     0.010 A 
ATOM     81  C   UNL     1       9.369   5.602   2.430  1.00  0.00     0.020 A 
ATOM     82  C   UNL     1       9.643   3.460   3.514  1.00  0.00     0.020 A 
ATOM     83  C   UNL     1       9.186   4.775   3.539  1.00  0.00     0.054 A 
BRANCH  83  84
ATOM     84  S   UNL     1       8.328   5.407   5.012  1.00  0.00     0.124 S 
ATOM     85  O   UNL     1       9.394   6.131   5.697  1.00  0.00    -0.237 OA
ATOM     86  O   UNL     1       7.267   6.234   4.442  1.00  0.00    -0.237 OA
ATOM     87  O   UNL     1       7.866   4.192   5.681  1.00  0.00    -0.744 OA
ENDBRANCH  83  84
ENDBRANCH  55  78
BRANCH  67  88
ATOM     88  C   UNL     1      16.629   5.068  -1.784  1.00  0.00    -0.014 A 
ATOM     89  C   UNL     1      17.432   4.699  -0.692  1.00  0.00     0.010 A 
ATOM     90  C   UNL     1      16.933   6.223  -2.522  1.00  0.00     0.010 A 
ATOM     91  C   UNL     1      18.519   5.493  -0.329  1.00  0.00     0.020 A 
ATOM     92  C   UNL     1      18.030   7.006  -2.174  1.00  0.00     0.020 A 
ATOM     93  C   UNL     1      18.810   6.641  -1.074  1.00  0.00     0.054 A 
BRANCH  93  94
ATOM     94  S   UNL     1      20.255   7.634  -0.621  1.00  0.00     0.124 S 
ATOM     95  O   UNL     1      19.781   8.330   0.572  1.00  0.00    -0.237 OA
ATOM     96  O   UNL     1      21.282   6.621  -0.393  1.00  0.00    -0.237 OA
ATOM     97  O   UNL     1      20.472   8.480  -1.793  1.00  0.00    -0.744 OA
ENDBRANCH  93  94
ENDBRANCH  67  88
ENDBRANCH  41  42
ENDBRANCH  34  36
ENDBRANCH  33  34
ENDBRANCH  32  33
ENDBRANCH  31  32
ENDBRANCH  30  31
ENDBRANCH   1  30
TORSDOF 23
