REMARK SMILES O=C(C[C@H]1S/C(=[NH+]\c2ccccc2)N(NC(=O)c2ccc([N+](=O)[O-])cc2)C1=O)OCCOCCOC(=O)c1ccc(-c2c3nc(c(-c4ccc(S(=O)(=O)[O-])cc4)c4ccc([nH]4)c(-c4ccc(S(=O)(=O)[O-])cc4)c4nc(c(-c5ccc(S(=O)(=O)[O-])cc5)c5ccc2[nH]5)C=C4)C=C3)cc1
REMARK SMILES IDX 31 1 30 2 29 3 2 4 1 5 3 6 4 7 5 8 27 9 6 10 14 11 28 12
REMARK SMILES IDX 7 13 15 15 16 16 17 18 18 19 19 20 26 21 20 22 25 23 21 24
REMARK SMILES IDX 22 25 23 26 24 27 8 28 9 29 13 30 10 31 12 32 11 33 32 34
REMARK SMILES IDX 33 35 34 36 35 37 36 38 37 39 38 40 39 41 97 42 40 43 96 44
REMARK SMILES IDX 41 45 42 46 43 47 90 48 44 49 95 50 89 51 91 52 45 53 94 54
REMARK SMILES IDX 88 55 87 56 46 58 76 59 57 60 75 61 58 62 61 63 74 64 92 65
REMARK SMILES IDX 59 66 60 67 73 69 93 70 62 71 47 72 48 73 56 74 49 75 55 76
REMARK SMILES IDX 50 77 51 78 52 79 53 80 54 81 77 82 78 83 86 84 79 85 85 86
REMARK SMILES IDX 80 87 81 88 82 89 83 90 84 91 63 92 64 93 72 94 65 95 71 96
REMARK SMILES IDX 66 97 67 98 68 99 69 100 70 101
REMARK H PARENT 7 14 15 17 91 57 61 68
REMARK Flexibility Score: inf
ROOT
ATOM      1  C   UNL     1       4.620   0.629  -1.167  1.00  0.00     0.202 C 
ENDROOT
BRANCH   1   2
ATOM      2  C   UNL     1       3.943  -0.665  -0.712  1.00  0.00     0.261 C 
BRANCH   2   3
ATOM      3  O   UNL     1       2.597  -0.609  -0.219  1.00  0.00    -0.463 OA
BRANCH   3   4
ATOM      4  C   UNL     1       2.151  -0.135   0.959  1.00  0.00     0.307 C 
ATOM      5  O   UNL     1       1.030  -0.450   1.355  1.00  0.00    -0.252 OA
BRANCH   4   6
ATOM      6  C   UNL     1       2.973   0.858   1.733  1.00  0.00     0.150 C 
BRANCH   6   7
ATOM      7  C   UNL     1       4.010   0.344   2.723  1.00  0.00     0.187 C 
ATOM      8  S   UNL     1       4.048  -1.430   3.041  1.00  0.00    -0.019 SA
ATOM      9  C   UNL     1       5.407   0.702   2.275  1.00  0.00     0.348 C 
ATOM     10  C   UNL     1       5.625  -1.640   2.307  1.00  0.00     0.343 C 
ATOM     11  N   UNL     1       6.190  -0.416   2.033  1.00  0.00    -0.078 N 
ATOM     12  O   UNL     1       5.789   1.860   2.115  1.00  0.00    -0.243 OA
ATOM     13  N   UNL     1       6.159  -2.763   1.993  1.00  0.00    -0.233 N 
ATOM     14  H   UNL     1       7.116  -2.776   1.762  1.00  0.00     0.313 HD
BRANCH  11  15
ATOM     15  N   UNL     1       7.482  -0.123   1.534  1.00  0.00    -0.182 N 
ATOM     16  C   UNL     1       8.380  -0.771   0.720  1.00  0.00     0.286 C 
ATOM     17  H   UNL     1       7.816   0.750   1.844  1.00  0.00     0.217 HD
ATOM     18  O   UNL     1       9.379  -0.155   0.340  1.00  0.00    -0.266 OA
BRANCH  16  19
ATOM     19  C   UNL     1       8.288  -2.175   0.319  1.00  0.00     0.043 A 
ATOM     20  C   UNL     1       9.184  -3.073   0.917  1.00  0.00     0.021 A 
ATOM     21  C   UNL     1       7.393  -2.606  -0.666  1.00  0.00     0.021 A 
ATOM     22  C   UNL     1       9.102  -4.434   0.627  1.00  0.00     0.086 A 
ATOM     23  C   UNL     1       7.299  -3.974  -0.951  1.00  0.00     0.086 A 
ATOM     24  C   UNL     1       8.130  -4.883  -0.275  1.00  0.00     0.269 A 
BRANCH  24  25
ATOM     25  N   UNL     1       7.940  -6.326  -0.447  1.00  0.00     0.062 N 
ATOM     26  O   UNL     1       8.864  -7.071  -0.090  1.00  0.00    -0.258 OA
ATOM     27  O   UNL     1       6.862  -6.706  -0.911  1.00  0.00    -0.258 OA
ENDBRANCH  24  25
ENDBRANCH  16  19
ENDBRANCH  11  15
BRANCH  13  28
ATOM     28  C   UNL     1       5.451  -3.976   1.963  1.00  0.00     0.125 A 
ATOM     29  C   UNL     1       5.973  -5.081   2.632  1.00  0.00     0.051 A 
ATOM     30  C   UNL     1       4.391  -4.172   1.062  1.00  0.00     0.051 A 
ATOM     31  C   UNL     1       5.454  -6.357   2.400  1.00  0.00     0.004 A 
ATOM     32  C   UNL     1       3.867  -5.444   0.832  1.00  0.00     0.004 A 
ATOM     33  C   UNL     1       4.407  -6.539   1.496  1.00  0.00     0.000 A 
ENDBRANCH  13  28
ENDBRANCH   6   7
ENDBRANCH   4   6
ENDBRANCH   3   4
ENDBRANCH   2   3
ENDBRANCH   1   2
BRANCH   1  34
ATOM     34  O   UNL     1       3.860   1.821  -1.193  1.00  0.00    -0.374 OA
BRANCH  34  35
ATOM     35  C   UNL     1       2.656   1.849  -1.951  1.00  0.00     0.202 C 
BRANCH  35  36
ATOM     36  C   UNL     1       2.794   1.755  -3.468  1.00  0.00     0.261 C 
BRANCH  36  37
ATOM     37  O   UNL     1       3.255   0.461  -3.892  1.00  0.00    -0.460 OA
BRANCH  37  38
ATOM     38  C   UNL     1       4.473   0.443  -4.485  1.00  0.00     0.338 C 
ATOM     39  O   UNL     1       5.229   1.390  -4.653  1.00  0.00    -0.246 OA
BRANCH  38  40
ATOM     40  C   UNL     1       4.860  -0.952  -4.745  1.00  0.00     0.060 A 
ATOM     41  C   UNL     1       6.076  -1.419  -4.230  1.00  0.00     0.016 A 
ATOM     42  C   UNL     1       4.052  -1.779  -5.528  1.00  0.00     0.016 A 
ATOM     43  C   UNL     1       6.488  -2.724  -4.499  1.00  0.00     0.010 A 
ATOM     44  C   UNL     1       4.478  -3.077  -5.814  1.00  0.00     0.010 A 
ATOM     45  C   UNL     1       5.700  -3.551  -5.310  1.00  0.00    -0.014 A 
BRANCH  45  46
ATOM     46  C   UNL     1       6.184  -4.891  -5.712  1.00  0.00     0.031 A 
ATOM     47  C   UNL     1       6.950  -5.038  -6.993  1.00  0.00     0.074 A 
ATOM     48  C   UNL     1       5.892  -5.968  -4.962  1.00  0.00     0.049 A 
ATOM     49  N   UNL     1       7.393  -6.126  -7.564  1.00  0.00    -0.248 NA
ATOM     50  C   UNL     1       7.228  -3.803  -7.744  1.00  0.00     0.031 C 
ATOM     51  C   UNL     1       5.134  -5.936  -3.714  1.00  0.00     0.029 A 
ATOM     52  N   UNL     1       6.198  -7.294  -5.136  1.00  0.00    -0.354 N 
ATOM     53  C   UNL     1       7.959  -5.717  -8.764  1.00  0.00     0.074 A 
ATOM     54  C   UNL     1       7.821  -4.278  -8.830  1.00  0.00     0.031 C 
ATOM     55  C   UNL     1       5.060  -7.182  -3.218  1.00  0.00     0.029 A 
ATOM     56  C   UNL     1       5.735  -8.105  -4.125  1.00  0.00     0.049 A 
ATOM     57  H   UNL     1       6.702  -7.633  -5.910  1.00  0.00     0.167 HD
ATOM     58  C   UNL     1       8.513  -6.480  -9.734  1.00  0.00     0.031 A 
ATOM     59  C   UNL     1       5.835  -9.440  -3.957  1.00  0.00     0.031 A 
ATOM     60  C   UNL     1       8.630  -7.913  -9.665  1.00  0.00     0.049 A 
ATOM     61  C   UNL     1       6.489 -10.258  -5.044  1.00  0.00     0.074 A 
ATOM     62  C   UNL     1       9.195  -8.771 -10.591  1.00  0.00     0.029 A 
ATOM     63  N   UNL     1       8.165  -8.700  -8.622  1.00  0.00    -0.354 N 
ATOM     64  N   UNL     1       7.059  -9.851  -6.154  1.00  0.00    -0.248 NA
ATOM     65  C   UNL     1       6.481 -11.719  -4.874  1.00  0.00     0.031 C 
ATOM     66  C   UNL     1       9.012 -10.082 -10.141  1.00  0.00     0.029 A 
ATOM     67  C   UNL     1       8.396 -10.036  -8.900  1.00  0.00     0.049 A 
ATOM     68  H   UNL     1       7.734  -8.359  -7.805  1.00  0.00     0.167 HD
ATOM     69  C   UNL     1       7.463 -11.005  -6.818  1.00  0.00     0.074 A 
ATOM     70  C   UNL     1       7.123 -12.122  -5.961  1.00  0.00     0.031 C 
ATOM     71  C   UNL     1       8.038 -11.134  -8.039  1.00  0.00     0.031 A 
BRANCH  58  72
ATOM     72  C   UNL     1       8.985  -5.794 -10.986  1.00  0.00    -0.014 A 
ATOM     73  C   UNL     1      10.151  -5.011 -10.999  1.00  0.00     0.010 A 
ATOM     74  C   UNL     1       8.285  -6.005 -12.189  1.00  0.00     0.010 A 
ATOM     75  C   UNL     1      10.604  -4.443 -12.193  1.00  0.00     0.020 A 
ATOM     76  C   UNL     1       8.749  -5.460 -13.389  1.00  0.00     0.020 A 
ATOM     77  C   UNL     1       9.904  -4.677 -13.381  1.00  0.00     0.054 A 
BRANCH  77  78
ATOM     78  S   UNL     1      10.558  -3.986 -14.925  1.00  0.00     0.124 S 
ATOM     79  O   UNL     1      10.312  -2.557 -14.743  1.00  0.00    -0.237 OA
ATOM     80  O   UNL     1      11.960  -4.391 -14.886  1.00  0.00    -0.237 OA
ATOM     81  O   UNL     1       9.754  -4.628 -15.962  1.00  0.00    -0.744 OA
ENDBRANCH  77  78
ENDBRANCH  58  72
BRANCH  59  82
ATOM     82  C   UNL     1       5.269 -10.106  -2.747  1.00  0.00    -0.014 A 
ATOM     83  C   UNL     1       6.106 -10.793  -1.848  1.00  0.00     0.010 A 
ATOM     84  C   UNL     1       3.883 -10.091  -2.501  1.00  0.00     0.010 A 
ATOM     85  C   UNL     1       5.569 -11.480  -0.754  1.00  0.00     0.020 A 
ATOM     86  C   UNL     1       3.346 -10.741  -1.386  1.00  0.00     0.020 A 
ATOM     87  C   UNL     1       4.190 -11.450  -0.531  1.00  0.00     0.054 A 
BRANCH  87  88
ATOM     88  S   UNL     1       3.509 -12.325   0.906  1.00  0.00     0.124 S 
ATOM     89  O   UNL     1       3.569 -13.717   0.471  1.00  0.00    -0.237 OA
ATOM     90  O   UNL     1       4.434 -11.954   1.974  1.00  0.00    -0.237 OA
ATOM     91  O   UNL     1       2.165 -11.766   1.037  1.00  0.00    -0.744 OA
ENDBRANCH  87  88
ENDBRANCH  59  82
BRANCH  71  92
ATOM     92  C   UNL     1       8.323 -12.530  -8.529  1.00  0.00    -0.014 A 
ATOM     93  C   UNL     1       7.277 -13.386  -8.918  1.00  0.00     0.010 A 
ATOM     94  C   UNL     1       9.653 -12.968  -8.669  1.00  0.00     0.010 A 
ATOM     95  C   UNL     1       7.553 -14.664  -9.412  1.00  0.00     0.020 A 
ATOM     96  C   UNL     1       9.935 -14.233  -9.192  1.00  0.00     0.020 A 
ATOM     97  C   UNL     1       8.882 -15.078  -9.549  1.00  0.00     0.054 A 
BRANCH  97  98
ATOM     98  S   UNL     1       9.213 -16.720 -10.243  1.00  0.00     0.124 S 
ATOM     99  O   UNL     1       8.788 -17.601  -9.159  1.00  0.00    -0.237 OA
ATOM    100  O   UNL     1       8.370 -16.739 -11.436  1.00  0.00    -0.237 OA
ATOM    101  O   UNL     1      10.651 -16.704 -10.504  1.00  0.00    -0.744 OA
ENDBRANCH  97  98
ENDBRANCH  71  92
ENDBRANCH  45  46
ENDBRANCH  38  40
ENDBRANCH  37  38
ENDBRANCH  36  37
ENDBRANCH  35  36
ENDBRANCH  34  35
ENDBRANCH   1  34
TORSDOF 22
