REMARK SMILES CCC[NH2+][C@@]1(C(=O)OCCOCCOC(=O)c2ccc(-c3c4nc(c(-c5ccc(S(=O)(=O)[O-])cc5)c5ccc([nH]5)c(-c5ccc(S(=O)(=O)[O-])cc5)c5nc(c(-c6ccc(S(=O)(=O)[O-])cc6)c6ccc3[nH]6)C=C5)C=C4)cc2)CC[C@H]([N@H+](C)CCC)C1
REMARK SMILES IDX 11 1 10 2 9 3 8 4 6 5 7 6 5 7 77 8 85 9 78 10 79 11 4 12
REMARK SMILES IDX 3 15 2 16 1 17 80 18 81 19 82 21 83 22 84 23 12 24 13 25
REMARK SMILES IDX 14 26 15 27 16 28 17 29 18 30 76 31 19 32 75 33 20 34 21 35
REMARK SMILES IDX 22 36 69 37 23 38 74 39 68 40 70 41 24 42 73 43 67 44 66 45
REMARK SMILES IDX 25 47 55 48 36 49 54 50 37 51 40 52 53 53 71 54 38 55 39 56
REMARK SMILES IDX 52 58 72 59 41 60 26 61 27 62 35 63 28 64 34 65 29 66 30 67
REMARK SMILES IDX 31 68 32 69 33 70 56 71 57 72 65 73 58 74 64 75 59 76 60 77
REMARK SMILES IDX 61 78 62 79 63 80 42 81 43 82 51 83 44 84 50 85 45 86 46 87
REMARK SMILES IDX 47 88 48 89 49 90
REMARK H PARENT 4 13 4 14 80 20 70 46 40 57
REMARK Flexibility Score: inf
ROOT
ATOM      1  O   UNL     1       4.997   2.571  -1.688  1.00  0.00    -0.374 OA
ENDROOT
BRANCH   1   2
ATOM      2  C   UNL     1       4.976   3.350  -2.889  1.00  0.00     0.202 C 
BRANCH   2   3
ATOM      3  C   UNL     1       3.817   2.978  -3.814  1.00  0.00     0.261 C 
BRANCH   3   4
ATOM      4  O   UNL     1       2.583   3.514  -3.296  1.00  0.00    -0.459 OA
BRANCH   4   5
ATOM      5  C   UNL     1       1.640   2.628  -2.894  1.00  0.00     0.368 C 
ATOM      6  O   UNL     1       1.749   1.407  -2.983  1.00  0.00    -0.245 OA
BRANCH   5   7
ATOM      7  C   UNL     1       0.357   3.322  -2.316  1.00  0.00     0.200 C 
ATOM      8  C   UNL     1      -0.515   3.801  -3.483  1.00  0.00     0.087 C 
ATOM      9  C   UNL     1       0.615   4.621  -1.541  1.00  0.00     0.146 C 
ATOM     10  C   UNL     1       0.091   5.163  -3.862  1.00  0.00     0.072 C 
ATOM     11  C   UNL     1       0.485   5.810  -2.517  1.00  0.00     0.191 C 
BRANCH   7  12
ATOM     12  N   UNL     1      -0.333   2.297  -1.463  1.00  0.00    -0.332 N 
ATOM     13  H   UNL     1      -1.312   2.564  -1.355  1.00  0.00     0.347 HD
ATOM     14  H   UNL     1      -0.246   1.392  -1.925  1.00  0.00     0.347 HD
BRANCH  12  15
ATOM     15  C   UNL     1       0.280   2.187  -0.126  1.00  0.00     0.261 C 
BRANCH  15  16
ATOM     16  C   UNL     1      -0.016   0.872   0.594  1.00  0.00     0.058 C 
ATOM     17  C   UNL     1       0.770  -0.303   0.033  1.00  0.00     0.010 C 
ENDBRANCH  15  16
ENDBRANCH  12  15
ENDBRANCH   7  12
BRANCH  11  18
ATOM     18  N   UNL     1       1.521   6.868  -2.464  1.00  0.00    -0.335 N 
ATOM     19  C   UNL     1       2.571   6.769  -3.469  1.00  0.00     0.332 C 
ATOM     20  H   UNL     1       1.024   7.716  -2.738  1.00  0.00     0.348 HD
BRANCH  18  21
ATOM     21  C   UNL     1       2.024   7.111  -1.097  1.00  0.00     0.261 C 
BRANCH  21  22
ATOM     22  C   UNL     1       3.160   8.112  -0.895  1.00  0.00     0.058 C 
ATOM     23  C   UNL     1       2.845   9.552  -1.234  1.00  0.00     0.010 C 
ENDBRANCH  21  22
ENDBRANCH  18  21
ENDBRANCH  11  18
ENDBRANCH   5   7
ENDBRANCH   4   5
ENDBRANCH   3   4
ENDBRANCH   2   3
ENDBRANCH   1   2
BRANCH   1  24
ATOM     24  C   UNL     1       4.245   3.121  -0.608  1.00  0.00     0.202 C 
BRANCH  24  25
ATOM     25  C   UNL     1       5.069   3.988   0.346  1.00  0.00     0.261 C 
BRANCH  25  26
ATOM     26  O   UNL     1       5.481   5.210  -0.288  1.00  0.00    -0.460 OA
BRANCH  26  27
ATOM     27  C   UNL     1       6.735   5.201  -0.815  1.00  0.00     0.338 C 
ATOM     28  O   UNL     1       7.555   4.314  -0.753  1.00  0.00    -0.246 OA
BRANCH  27  29
ATOM     29  C   UNL     1       6.891   6.416  -1.646  1.00  0.00     0.060 A 
ATOM     30  C   UNL     1       7.421   6.293  -2.935  1.00  0.00     0.016 A 
ATOM     31  C   UNL     1       6.497   7.662  -1.167  1.00  0.00     0.016 A 
ATOM     32  C   UNL     1       7.569   7.427  -3.743  1.00  0.00     0.010 A 
ATOM     33  C   UNL     1       6.587   8.780  -1.998  1.00  0.00     0.010 A 
ATOM     34  C   UNL     1       7.165   8.685  -3.277  1.00  0.00    -0.014 A 
BRANCH  34  35
ATOM     35  C   UNL     1       7.489   9.942  -4.012  1.00  0.00     0.031 A 
ATOM     36  C   UNL     1       8.402  10.941  -3.342  1.00  0.00     0.074 A 
ATOM     37  C   UNL     1       6.965  10.233  -5.219  1.00  0.00     0.049 A 
ATOM     38  N   UNL     1       8.677  12.175  -3.676  1.00  0.00    -0.248 NA
ATOM     39  C   UNL     1       9.053  10.500  -2.096  1.00  0.00     0.031 C 
ATOM     40  C   UNL     1       6.073   9.373  -5.996  1.00  0.00     0.029 A 
ATOM     41  N   UNL     1       7.107  11.356  -6.000  1.00  0.00    -0.354 N 
ATOM     42  C   UNL     1       9.467  12.675  -2.647  1.00  0.00     0.074 A 
ATOM     43  C   UNL     1       9.589  11.627  -1.658  1.00  0.00     0.031 C 
ATOM     44  C   UNL     1       5.763   9.993  -7.150  1.00  0.00     0.029 A 
ATOM     45  C   UNL     1       6.395  11.311  -7.176  1.00  0.00     0.049 A 
ATOM     46  H   UNL     1       7.668  12.123  -5.741  1.00  0.00     0.167 HD
ATOM     47  C   UNL     1      10.062  13.886  -2.536  1.00  0.00     0.031 A 
ATOM     48  C   UNL     1       6.258  12.230  -8.155  1.00  0.00     0.031 A 
ATOM     49  C   UNL     1      10.015  14.899  -3.552  1.00  0.00     0.049 A 
ATOM     50  C   UNL     1       6.963  13.559  -8.037  1.00  0.00     0.074 A 
ATOM     51  C   UNL     1      10.645  16.131  -3.566  1.00  0.00     0.029 A 
ATOM     52  N   UNL     1       9.323  14.786  -4.747  1.00  0.00    -0.354 N 
ATOM     53  N   UNL     1       7.718  14.009  -7.064  1.00  0.00    -0.248 NA
ATOM     54  C   UNL     1       6.804  14.501  -9.157  1.00  0.00     0.031 C 
ATOM     55  C   UNL     1      10.309  16.777  -4.759  1.00  0.00     0.029 A 
ATOM     56  C   UNL     1       9.512  15.925  -5.508  1.00  0.00     0.049 A 
ATOM     57  H   UNL     1       8.778  14.011  -5.014  1.00  0.00     0.167 HD
ATOM     58  C   UNL     1       8.156  15.267  -7.473  1.00  0.00     0.074 A 
ATOM     59  C   UNL     1       7.582  15.508  -8.779  1.00  0.00     0.031 C 
ATOM     60  C   UNL     1       8.965  16.139  -6.823  1.00  0.00     0.031 A 
BRANCH  47  61
ATOM     61  C   UNL     1      10.813  14.174  -1.264  1.00  0.00    -0.014 A 
ATOM     62  C   UNL     1      12.005  13.497  -0.948  1.00  0.00     0.010 A 
ATOM     63  C   UNL     1      10.315  15.138  -0.368  1.00  0.00     0.010 A 
ATOM     64  C   UNL     1      12.647  13.729   0.271  1.00  0.00     0.020 A 
ATOM     65  C   UNL     1      10.975  15.400   0.835  1.00  0.00     0.020 A 
ATOM     66  C   UNL     1      12.123  14.673   1.158  1.00  0.00     0.054 A 
BRANCH  66  67
ATOM     67  S   UNL     1      12.973  14.952   2.734  1.00  0.00     0.124 S 
ATOM     68  O   UNL     1      12.577  13.772   3.500  1.00  0.00    -0.237 OA
ATOM     69  O   UNL     1      14.378  15.000   2.338  1.00  0.00    -0.237 OA
ATOM     70  O   UNL     1      12.418  16.217   3.208  1.00  0.00    -0.744 OA
ENDBRANCH  66  67
ENDBRANCH  47  61
BRANCH  48  71
ATOM     71  C   UNL     1       5.431  11.922  -9.355  1.00  0.00    -0.014 A 
ATOM     72  C   UNL     1       6.045  11.690 -10.599  1.00  0.00     0.010 A 
ATOM     73  C   UNL     1       4.029  11.859  -9.264  1.00  0.00     0.010 A 
ATOM     74  C   UNL     1       5.274  11.416 -11.733  1.00  0.00     0.020 A 
ATOM     75  C   UNL     1       3.255  11.560 -10.391  1.00  0.00     0.020 A 
ATOM     76  C   UNL     1       3.882  11.350 -11.620  1.00  0.00     0.054 A 
BRANCH  76  77
ATOM     77  S   UNL     1       2.906  10.935 -13.093  1.00  0.00     0.124 S 
ATOM     78  O   UNL     1       2.987  12.169 -13.869  1.00  0.00    -0.237 OA
ATOM     79  O   UNL     1       3.633   9.793 -13.641  1.00  0.00    -0.237 OA
ATOM     80  O   UNL     1       1.586  10.621 -12.550  1.00  0.00    -0.744 OA
ENDBRANCH  76  77
ENDBRANCH  48  71
BRANCH  60  81
ATOM     81  C   UNL     1       9.355  17.411  -7.527  1.00  0.00    -0.014 A 
ATOM     82  C   UNL     1       8.460  18.486  -7.652  1.00  0.00     0.010 A 
ATOM     83  C   UNL     1      10.685  17.570  -7.963  1.00  0.00     0.010 A 
ATOM     84  C   UNL     1       8.886  19.698  -8.205  1.00  0.00     0.020 A 
ATOM     85  C   UNL     1      11.120  18.786  -8.496  1.00  0.00     0.020 A 
ATOM     86  C   UNL     1      10.216  19.842  -8.617  1.00  0.00     0.054 A 
BRANCH  86  87
ATOM     87  S   UNL     1      10.767  21.452  -9.249  1.00  0.00     0.124 S 
ATOM     88  O   UNL     1      10.154  21.486 -10.573  1.00  0.00    -0.237 OA
ATOM     89  O   UNL     1      10.211  22.387  -8.273  1.00  0.00    -0.237 OA
ATOM     90  O   UNL     1      12.225  21.347  -9.240  1.00  0.00    -0.744 OA
ENDBRANCH  86  87
ENDBRANCH  60  81
ENDBRANCH  34  35
ENDBRANCH  27  29
ENDBRANCH  26  27
ENDBRANCH  25  26
ENDBRANCH  24  25
ENDBRANCH   1  24
TORSDOF 23
