REMARK SMILES CCC[NH2+]C[C@H]1CCC[N@@H+](Cc2ccc(C(=O)OCCOCCOC(=O)c3ccc(-c4c5nc(c(-c6ccc(S(=O)(=O)[O-])cc6)c6ccc([nH]6)c(-c6ccc(S(=O)(=O)[O-])cc6)c6nc(c(-c7ccc(S(=O)(=O)[O-])cc7)c7ccc4[nH]7)C=C6)C=C5)cc3)cc2)C1
REMARK SMILES IDX 19 1 18 2 16 3 17 4 15 5 12 6 13 7 88 8 14 9 87 10 11 11
REMARK SMILES IDX 10 12 6 13 7 14 89 15 8 16 9 17 5 19 4 20 3 23 2 24 1 25
REMARK SMILES IDX 20 26 21 27 22 28 23 29 24 30 25 31 26 32 27 33 28 34 86 35
REMARK SMILES IDX 29 36 85 37 30 38 31 39 32 40 79 41 33 42 84 43 78 44 80 45
REMARK SMILES IDX 34 46 83 47 77 48 76 49 35 51 65 52 46 53 64 54 47 55 50 56
REMARK SMILES IDX 63 57 81 58 48 59 49 60 62 62 82 63 51 64 36 65 37 66 45 67
REMARK SMILES IDX 38 68 44 69 39 70 40 71 41 72 42 73 43 74 66 75 67 76 75 77
REMARK SMILES IDX 68 78 74 79 69 80 70 81 71 82 72 83 73 84 52 85 53 86 61 87
REMARK SMILES IDX 54 88 60 89 55 90 56 91 57 92 58 93 59 94
REMARK H PARENT 10 18 4 21 4 22 80 50 50 61
REMARK Flexibility Score: inf
ROOT
ATOM      1  C   UNL     1      10.877  -2.864   4.591  1.00  0.00     0.261 C 
ENDROOT
BRANCH   1   2
ATOM      2  O   UNL     1       9.451  -2.764   4.488  1.00  0.00    -0.460 OA
BRANCH   2   3
ATOM      3  C   UNL     1       8.766  -3.728   5.146  1.00  0.00     0.338 C 
ATOM      4  O   UNL     1       9.229  -4.743   5.645  1.00  0.00    -0.246 OA
BRANCH   3   5
ATOM      5  C   UNL     1       7.348  -3.328   5.315  1.00  0.00     0.060 A 
ATOM      6  C   UNL     1       4.602  -2.871   5.563  1.00  0.00     0.006 A 
ATOM      7  C   UNL     1       5.251  -3.745   6.445  1.00  0.00     0.010 A 
ATOM      8  C   UNL     1       5.372  -2.094   4.683  1.00  0.00     0.010 A 
ATOM      9  C   UNL     1       6.617  -3.975   6.317  1.00  0.00     0.016 A 
ATOM     10  C   UNL     1       6.737  -2.341   4.534  1.00  0.00     0.016 A 
BRANCH   6  11
ATOM     11  C   UNL     1       3.089  -2.941   5.421  1.00  0.00     0.299 C 
BRANCH  11  12
ATOM     12  N   UNL     1       2.611  -3.818   4.319  1.00  0.00    -0.331 N 
ATOM     13  C   UNL     1       2.428  -4.088   1.810  1.00  0.00     0.099 C 
ATOM     14  C   UNL     1       3.039  -5.490   1.938  1.00  0.00     0.021 C 
ATOM     15  C   UNL     1       2.885  -3.227   3.000  1.00  0.00     0.271 C 
ATOM     16  C   UNL     1       2.667  -6.090   3.289  1.00  0.00     0.062 C 
ATOM     17  C   UNL     1       3.140  -5.188   4.426  1.00  0.00     0.262 C 
ATOM     18  H   UNL     1       1.598  -3.889   4.414  1.00  0.00     0.348 HD
BRANCH  13  19
ATOM     19  C   UNL     1       2.825  -3.352   0.507  1.00  0.00     0.269 C 
BRANCH  19  20
ATOM     20  N   UNL     1       2.788  -4.127  -0.726  1.00  0.00    -0.346 N 
ATOM     21  H   UNL     1       3.075  -3.518  -1.493  1.00  0.00     0.346 HD
ATOM     22  H   UNL     1       3.416  -4.919  -0.588  1.00  0.00     0.346 HD
BRANCH  20  23
ATOM     23  C   UNL     1       1.485  -4.686  -1.054  1.00  0.00     0.260 C 
BRANCH  23  24
ATOM     24  C   UNL     1       1.585  -5.680  -2.217  1.00  0.00     0.058 C 
ATOM     25  C   UNL     1       2.457  -6.894  -1.910  1.00  0.00     0.010 C 
ENDBRANCH  23  24
ENDBRANCH  20  23
ENDBRANCH  19  20
ENDBRANCH  13  19
ENDBRANCH  11  12
ENDBRANCH   6  11
ENDBRANCH   3   5
ENDBRANCH   2   3
ENDBRANCH   1   2
BRANCH   1  26
ATOM     26  C   UNL     1      11.435  -1.758   5.491  1.00  0.00     0.202 C 
BRANCH  26  27
ATOM     27  O   UNL     1      10.986  -1.732   6.846  1.00  0.00    -0.374 OA
BRANCH  27  28
ATOM     28  C   UNL     1       9.702  -1.164   7.109  1.00  0.00     0.202 C 
BRANCH  28  29
ATOM     29  C   UNL     1       9.575   0.364   7.073  1.00  0.00     0.261 C 
BRANCH  29  30
ATOM     30  O   UNL     1       9.759   0.904   5.754  1.00  0.00    -0.460 OA
BRANCH  30  31
ATOM     31  C   UNL     1      10.933   1.550   5.561  1.00  0.00     0.338 C 
ATOM     32  O   UNL     1      11.812   1.749   6.389  1.00  0.00    -0.246 OA
BRANCH  31  33
ATOM     33  C   UNL     1      11.110   1.830   4.127  1.00  0.00     0.060 A 
ATOM     34  C   UNL     1      12.271   1.357   3.500  1.00  0.00     0.016 A 
ATOM     35  C   UNL     1      10.179   2.593   3.421  1.00  0.00     0.016 A 
ATOM     36  C   UNL     1      12.525   1.675   2.168  1.00  0.00     0.010 A 
ATOM     37  C   UNL     1      10.442   2.921   2.089  1.00  0.00     0.010 A 
ATOM     38  C   UNL     1      11.628   2.489   1.466  1.00  0.00    -0.014 A 
BRANCH  38  39
ATOM     39  C   UNL     1      11.975   3.011   0.124  1.00  0.00     0.031 A 
ATOM     40  C   UNL     1      12.438   4.435  -0.001  1.00  0.00     0.074 A 
ATOM     41  C   UNL     1      11.835   2.243  -0.969  1.00  0.00     0.049 A 
ATOM     42  N   UNL     1      12.657   5.143  -1.077  1.00  0.00    -0.248 NA
ATOM     43  C   UNL     1      12.672   5.158   1.260  1.00  0.00     0.031 C 
ATOM     44  C   UNL     1      11.430   0.838  -0.968  1.00  0.00     0.029 A 
ATOM     45  N   UNL     1      11.990   2.551  -2.297  1.00  0.00    -0.354 N 
ATOM     46  C   UNL     1      13.026   6.405  -0.627  1.00  0.00     0.074 A 
ATOM     47  C   UNL     1      12.983   6.368   0.819  1.00  0.00     0.031 C 
ATOM     48  C   UNL     1      11.334   0.414  -2.240  1.00  0.00     0.029 A 
ATOM     49  C   UNL     1      11.627   1.528  -3.140  1.00  0.00     0.049 A 
ATOM     50  H   UNL     1      12.328   3.419  -2.615  1.00  0.00     0.167 HD
ATOM     51  C   UNL     1      13.364   7.497  -1.354  1.00  0.00     0.031 A 
ATOM     52  C   UNL     1      11.500   1.505  -4.482  1.00  0.00     0.031 A 
ATOM     53  C   UNL     1      13.382   7.526  -2.793  1.00  0.00     0.049 A 
ATOM     54  C   UNL     1      11.821   2.744  -5.275  1.00  0.00     0.074 A 
ATOM     55  C   UNL     1      13.738   8.571  -3.627  1.00  0.00     0.029 A 
ATOM     56  N   UNL     1      13.014   6.468  -3.611  1.00  0.00    -0.354 N 
ATOM     57  N   UNL     1      12.203   3.922  -4.841  1.00  0.00    -0.248 NA
ATOM     58  C   UNL     1      11.702   2.650  -6.736  1.00  0.00     0.031 C 
ATOM     59  C   UNL     1      13.520   8.166  -4.948  1.00  0.00     0.029 A 
ATOM     60  C   UNL     1      13.101   6.844  -4.940  1.00  0.00     0.049 A 
ATOM     61  H   UNL     1      12.732   5.580  -3.293  1.00  0.00     0.167 HD
ATOM     62  C   UNL     1      12.398   4.701  -5.977  1.00  0.00     0.074 A 
ATOM     63  C   UNL     1      12.096   3.859  -7.117  1.00  0.00     0.031 C 
ATOM     64  C   UNL     1      12.798   5.994  -6.066  1.00  0.00     0.031 A 
BRANCH  51  65
ATOM     65  C   UNL     1      13.679   8.761  -0.598  1.00  0.00    -0.014 A 
ATOM     66  C   UNL     1      14.833   8.877   0.199  1.00  0.00     0.010 A 
ATOM     67  C   UNL     1      12.800   9.856  -0.688  1.00  0.00     0.010 A 
ATOM     68  C   UNL     1      15.068  10.038   0.940  1.00  0.00     0.020 A 
ATOM     69  C   UNL     1      13.048  11.032   0.026  1.00  0.00     0.020 A 
ATOM     70  C   UNL     1      14.168  11.105   0.856  1.00  0.00     0.054 A 
BRANCH  70  71
ATOM     71  S   UNL     1      14.485  12.593   1.843  1.00  0.00     0.124 S 
ATOM     72  O   UNL     1      14.170  12.130   3.193  1.00  0.00    -0.237 OA
ATOM     73  O   UNL     1      15.898  12.855   1.583  1.00  0.00    -0.237 OA
ATOM     74  O   UNL     1      13.560  13.580   1.292  1.00  0.00    -0.744 OA
ENDBRANCH  70  71
ENDBRANCH  51  65
BRANCH  52  75
ATOM     75  C   UNL     1      11.013   0.265  -5.144  1.00  0.00    -0.014 A 
ATOM     76  C   UNL     1      11.884  -0.537  -5.900  1.00  0.00     0.010 A 
ATOM     77  C   UNL     1       9.678  -0.149  -4.971  1.00  0.00     0.010 A 
ATOM     78  C   UNL     1      11.431  -1.734  -6.465  1.00  0.00     0.020 A 
ATOM     79  C   UNL     1       9.230  -1.357  -5.510  1.00  0.00     0.020 A 
ATOM     80  C   UNL     1      10.110  -2.142  -6.256  1.00  0.00     0.054 A 
BRANCH  80  81
ATOM     81  S   UNL     1       9.575  -3.745  -6.917  1.00  0.00     0.124 S 
ATOM     82  O   UNL     1       9.506  -3.477  -8.349  1.00  0.00    -0.237 OA
ATOM     83  O   UNL     1      10.653  -4.635  -6.490  1.00  0.00    -0.237 OA
ATOM     84  O   UNL     1       8.291  -3.977  -6.259  1.00  0.00    -0.744 OA
ENDBRANCH  80  81
ENDBRANCH  52  75
BRANCH  64  85
ATOM     85  C   UNL     1      12.980   6.582  -7.442  1.00  0.00    -0.014 A 
ATOM     86  C   UNL     1      11.879   6.918  -8.249  1.00  0.00     0.010 A 
ATOM     87  C   UNL     1      14.278   6.891  -7.891  1.00  0.00     0.010 A 
ATOM     88  C   UNL     1      12.075   7.542  -9.485  1.00  0.00     0.020 A 
ATOM     89  C   UNL     1      14.476   7.539  -9.112  1.00  0.00     0.020 A 
ATOM     90  C   UNL     1      13.372   7.855  -9.906  1.00  0.00     0.054 A 
BRANCH  90  91
ATOM     91  S   UNL     1      13.594   8.733 -11.478  1.00  0.00     0.124 S 
ATOM     92  O   UNL     1      13.279   7.695 -12.454  1.00  0.00    -0.237 OA
ATOM     93  O   UNL     1      12.620   9.818 -11.378  1.00  0.00    -0.237 OA
ATOM     94  O   UNL     1      14.992   9.155 -11.446  1.00  0.00    -0.744 OA
ENDBRANCH  90  91
ENDBRANCH  64  85
ENDBRANCH  38  39
ENDBRANCH  31  33
ENDBRANCH  30  31
ENDBRANCH  29  30
ENDBRANCH  28  29
ENDBRANCH  27  28
ENDBRANCH  26  27
ENDBRANCH   1  26
TORSDOF 23
