REMARK SMILES O=C(OCCOCCOC(=O)c1ccc(-c2c3nc(c(-c4ccc(S(=O)(=O)[O-])cc4)c4ccc([nH]4)c(-c4ccc(S(=O)(=O)[O-])cc4)c4nc(c(-c5ccc(S(=O)(=O)[O-])cc5)c5ccc2[nH]5)C=C4)C=C3)cc1)C1=Cc2c(ccc(Cl)c2Cl)O[C@H]1C(F)(F)F
REMARK SMILES IDX 7 1 6 2 5 3 4 4 3 5 2 6 1 7 72 8 73 9 83 10 74 11 82 12
REMARK SMILES IDX 75 13 80 14 76 15 78 16 81 17 77 18 79 19 84 20 85 21 86 22
REMARK SMILES IDX 87 23 8 24 9 25 10 26 11 27 12 28 13 29 71 30 14 31 70 32
REMARK SMILES IDX 15 33 16 34 17 35 64 36 18 37 69 38 63 39 65 40 19 41 68 42
REMARK SMILES IDX 62 43 61 44 20 46 50 47 31 48 49 49 32 50 35 51 48 52 66 53
REMARK SMILES IDX 33 54 34 55 47 57 67 58 36 59 21 60 22 61 30 62 23 63 29 64
REMARK SMILES IDX 24 65 25 66 26 67 27 68 28 69 51 70 52 71 60 72 53 73 59 74
REMARK SMILES IDX 54 75 55 76 56 77 57 78 58 79 37 80 38 81 46 82 39 83 45 84
REMARK SMILES IDX 40 85 41 86 42 87 43 88 44 89
REMARK H PARENT 65 45 35 56
REMARK Flexibility Score: inf
ROOT
ATOM      1  C   UNL     1       1.651   0.695   3.291  1.00  0.00     0.202 C 
ENDROOT
BRANCH   1   2
ATOM      2  O   UNL     1       2.338   0.402   2.079  1.00  0.00    -0.374 OA
BRANCH   2   3
ATOM      3  C   UNL     1       2.373   1.501   1.167  1.00  0.00     0.202 C 
BRANCH   3   4
ATOM      4  C   UNL     1       2.009   1.064  -0.254  1.00  0.00     0.261 C 
BRANCH   4   5
ATOM      5  O   UNL     1       1.609  -0.319  -0.331  1.00  0.00    -0.460 OA
BRANCH   5   6
ATOM      6  C   UNL     1       2.413  -1.407  -0.340  1.00  0.00     0.338 C 
ATOM      7  O   UNL     1       1.916  -2.519  -0.518  1.00  0.00    -0.246 OA
BRANCH   6   8
ATOM      8  C   UNL     1       3.891  -1.290  -0.378  1.00  0.00     0.087 C 
ATOM      9  C   UNL     1       4.618  -0.225  -0.036  1.00  0.00     0.029 C 
ATOM     10  C   UNL     1       4.617  -2.538  -0.835  1.00  0.00     0.316 C 
ATOM     11  C   UNL     1       5.779   0.053  -0.860  1.00  0.00     0.037 A 
ATOM     12  O   UNL     1       6.030  -2.334  -1.172  1.00  0.00    -0.475 OA
ATOM     13  C   UNL     1       6.436  -1.047  -1.405  1.00  0.00     0.129 A 
ATOM     14  C   UNL     1       6.162   1.361  -1.228  1.00  0.00     0.070 A 
ATOM     15  C   UNL     1       7.541  -0.857  -2.226  1.00  0.00     0.049 A 
ATOM     16  C   UNL     1       7.258   1.547  -2.074  1.00  0.00     0.060 A 
ATOM     17  Cl  UNL     1       5.217   2.731  -0.741  1.00  0.00    -0.082 Cl
ATOM     18  C   UNL     1       7.951   0.437  -2.560  1.00  0.00     0.026 A 
ATOM     19  Cl  UNL     1       7.792   3.114  -2.574  1.00  0.00    -0.083 Cl
BRANCH  10  20
ATOM     20  C   UNL     1       4.510  -3.659   0.243  1.00  0.00     0.430 C 
ATOM     21  F   UNL     1       3.752  -3.318   1.314  1.00  0.00    -0.167 F 
ATOM     22  F   UNL     1       3.984  -4.795  -0.279  1.00  0.00    -0.167 F 
ATOM     23  F   UNL     1       5.726  -3.995   0.747  1.00  0.00    -0.167 F 
ENDBRANCH  10  20
ENDBRANCH   6   8
ENDBRANCH   5   6
ENDBRANCH   4   5
ENDBRANCH   3   4
ENDBRANCH   2   3
ENDBRANCH   1   2
BRANCH   1  24
ATOM     24  C   UNL     1       2.532   1.394   4.330  1.00  0.00     0.261 C 
BRANCH  24  25
ATOM     25  O   UNL     1       3.106   2.607   3.809  1.00  0.00    -0.460 OA
BRANCH  25  26
ATOM     26  C   UNL     1       4.440   2.582   3.556  1.00  0.00     0.338 C 
ATOM     27  O   UNL     1       5.201   1.649   3.782  1.00  0.00    -0.246 OA
BRANCH  26  28
ATOM     28  C   UNL     1       4.868   3.826   2.856  1.00  0.00     0.060 A 
ATOM     29  C   UNL     1       6.156   3.876   2.299  1.00  0.00     0.016 A 
ATOM     30  C   UNL     1       4.021   4.932   2.717  1.00  0.00     0.016 A 
ATOM     31  C   UNL     1       6.597   5.019   1.618  1.00  0.00     0.010 A 
ATOM     32  C   UNL     1       4.462   6.075   2.041  1.00  0.00     0.010 A 
ATOM     33  C   UNL     1       5.759   6.136   1.506  1.00  0.00    -0.014 A 
BRANCH  33  34
ATOM     34  C   UNL     1       6.287   7.451   1.058  1.00  0.00     0.031 A 
ATOM     35  C   UNL     1       6.810   8.386   2.117  1.00  0.00     0.074 A 
ATOM     36  C   UNL     1       6.256   7.848  -0.228  1.00  0.00     0.049 A 
ATOM     37  N   UNL     1       7.232   9.617   2.006  1.00  0.00    -0.248 NA
ATOM     38  C   UNL     1       6.845   7.855   3.490  1.00  0.00     0.031 C 
ATOM     39  C   UNL     1       5.807   7.039  -1.359  1.00  0.00     0.029 A 
ATOM     40  N   UNL     1       6.600   9.054  -0.793  1.00  0.00    -0.354 N 
ATOM     41  C   UNL     1       7.577  10.012   3.293  1.00  0.00     0.074 A 
ATOM     42  C   UNL     1       7.285   8.900   4.171  1.00  0.00     0.031 C 
ATOM     43  C   UNL     1       5.891   7.778  -2.482  1.00  0.00     0.029 A 
ATOM     44  C   UNL     1       6.367   9.121  -2.148  1.00  0.00     0.049 A 
ATOM     45  H   UNL     1       6.978   9.802  -0.276  1.00  0.00     0.167 HD
ATOM     46  C   UNL     1       8.091  11.191   3.714  1.00  0.00     0.031 A 
ATOM     47  C   UNL     1       6.504  10.150  -3.011  1.00  0.00     0.031 A 
ATOM     48  C   UNL     1       8.336  12.317   2.856  1.00  0.00     0.049 A 
ATOM     49  C   UNL     1       7.000  11.487  -2.507  1.00  0.00     0.074 A 
ATOM     50  C   UNL     1       8.850  13.557   3.191  1.00  0.00     0.029 A 
ATOM     51  N   UNL     1       8.069  12.348   1.496  1.00  0.00    -0.354 N 
ATOM     52  N   UNL     1       7.358  11.833  -1.293  1.00  0.00    -0.248 NA
ATOM     53  C   UNL     1       7.114  12.573  -3.494  1.00  0.00     0.031 C 
ATOM     54  C   UNL     1       8.832  14.360   2.047  1.00  0.00     0.029 A 
ATOM     55  C   UNL     1       8.380  13.595   0.982  1.00  0.00     0.049 A 
ATOM     56  H   UNL     1       7.710  11.595   0.973  1.00  0.00     0.167 HD
ATOM     57  C   UNL     1       7.774  13.161  -1.380  1.00  0.00     0.074 A 
ATOM     58  C   UNL     1       7.629  13.554  -2.765  1.00  0.00     0.031 C 
ATOM     59  C   UNL     1       8.241  13.977  -0.401  1.00  0.00     0.031 A 
BRANCH  46  60
ATOM     60  C   UNL     1       8.368  11.327   5.187  1.00  0.00    -0.014 A 
ATOM     61  C   UNL     1       9.404  10.601   5.802  1.00  0.00     0.010 A 
ATOM     62  C   UNL     1       7.576  12.187   5.968  1.00  0.00     0.010 A 
ATOM     63  C   UNL     1       9.606  10.690   7.181  1.00  0.00     0.020 A 
ATOM     64  C   UNL     1       7.796  12.305   7.342  1.00  0.00     0.020 A 
ATOM     65  C   UNL     1       8.796  11.537   7.943  1.00  0.00     0.054 A 
BRANCH  65  66
ATOM     66  S   UNL     1       9.077  11.629   9.731  1.00  0.00     0.124 S 
ATOM     67  O   UNL     1       8.577  10.332  10.181  1.00  0.00    -0.237 OA
ATOM     68  O   UNL     1      10.524  11.808   9.819  1.00  0.00    -0.237 OA
ATOM     69  O   UNL     1       8.283  12.781  10.150  1.00  0.00    -0.744 OA
ENDBRANCH  65  66
ENDBRANCH  46  60
BRANCH  47  70
ATOM     70  C   UNL     1       6.159   9.975  -4.453  1.00  0.00    -0.014 A 
ATOM     71  C   UNL     1       7.159  10.015  -5.441  1.00  0.00     0.010 A 
ATOM     72  C   UNL     1       4.821   9.790  -4.850  1.00  0.00     0.010 A 
ATOM     73  C   UNL     1       6.830   9.886  -6.795  1.00  0.00     0.020 A 
ATOM     74  C   UNL     1       4.491   9.632  -6.200  1.00  0.00     0.020 A 
ATOM     75  C   UNL     1       5.497   9.689  -7.166  1.00  0.00     0.054 A 
BRANCH  75  76
ATOM     76  S   UNL     1       5.101   9.463  -8.924  1.00  0.00     0.124 S 
ATOM     77  O   UNL     1       5.318  10.803  -9.461  1.00  0.00    -0.237 OA
ATOM     78  O   UNL     1       6.071   8.451  -9.336  1.00  0.00    -0.237 OA
ATOM     79  O   UNL     1       3.712   9.012  -8.906  1.00  0.00    -0.744 OA
ENDBRANCH  75  76
ENDBRANCH  47  70
BRANCH  59  80
ATOM     80  C   UNL     1       8.686  15.367  -0.785  1.00  0.00    -0.014 A 
ATOM     81  C   UNL     1       7.764  16.366  -1.144  1.00  0.00     0.010 A 
ATOM     82  C   UNL     1      10.051  15.700  -0.696  1.00  0.00     0.010 A 
ATOM     83  C   UNL     1       8.203  17.664  -1.430  1.00  0.00     0.020 A 
ATOM     84  C   UNL     1      10.490  17.002  -0.951  1.00  0.00     0.020 A 
ATOM     85  C   UNL     1       9.563  17.974  -1.328  1.00  0.00     0.054 A 
BRANCH  85  86
ATOM     86  S   UNL     1      10.099  19.679  -1.646  1.00  0.00     0.124 S 
ATOM     87  O   UNL     1       9.942  19.782  -3.094  1.00  0.00    -0.237 OA
ATOM     88  O   UNL     1       9.155  20.464  -0.853  1.00  0.00    -0.237 OA
ATOM     89  O   UNL     1      11.479  19.705  -1.166  1.00  0.00    -0.744 OA
ENDBRANCH  85  86
ENDBRANCH  59  80
ENDBRANCH  33  34
ENDBRANCH  26  28
ENDBRANCH  25  26
ENDBRANCH  24  25
ENDBRANCH   1  24
TORSDOF 18
