REMARK SMILES Cc1cc(N[C@@H]2C=C[C@@H](C(=O)OCCOCCOC(=O)c3ccc(-c4c5nc(c(-c6ccc(S(=O)(=O)[O-])cc6)c6ccc([nH]6)c(-c6ccc(S(=O)(=O)[O-])cc6)c6nc(c(-c7ccc(S(=O)(=O)[O-])cc7)c7ccc4[nH]7)C=C6)C=C5)cc3)C2)nc(C)n1
REMARK SMILES IDX 16 1 15 2 14 3 13 4 12 5 10 6 11 7 9 8 6 9 7 10 81 11 8 12
REMARK SMILES IDX 5 13 4 15 1 16 2 17 3 18 85 19 83 20 82 21 84 22 17 23 18 24
REMARK SMILES IDX 19 25 20 26 21 27 22 28 80 29 23 30 79 31 24 32 25 33 26 34
REMARK SMILES IDX 73 35 27 36 78 37 72 38 74 39 28 40 77 41 71 42 70 43 29 45
REMARK SMILES IDX 59 46 40 47 58 48 41 49 44 50 57 51 75 52 42 53 43 54 56 56
REMARK SMILES IDX 76 57 45 58 30 59 31 60 39 61 32 62 38 63 33 64 34 65 35 66
REMARK SMILES IDX 36 67 37 68 60 69 61 70 69 71 62 72 68 73 63 74 64 75 65 76
REMARK SMILES IDX 66 77 67 78 46 79 47 80 55 81 48 82 54 83 49 84 50 85 51 86
REMARK SMILES IDX 52 87 53 88
REMARK H PARENT 5 14 74 44 44 55
REMARK Flexibility Score: inf
ROOT
ATOM      1  C   UNL     1       4.009  -4.337   1.681  1.00  0.00     0.202 C 
ENDROOT
BRANCH   1   2
ATOM      2  O   UNL     1       4.405  -4.215   0.312  1.00  0.00    -0.374 OA
BRANCH   2   3
ATOM      3  C   UNL     1       4.257  -2.942  -0.312  1.00  0.00     0.202 C 
BRANCH   3   4
ATOM      4  C   UNL     1       2.831  -2.517  -0.675  1.00  0.00     0.261 C 
BRANCH   4   5
ATOM      5  O   UNL     1       1.928  -2.674   0.430  1.00  0.00    -0.463 OA
BRANCH   5   6
ATOM      6  C   UNL     1       0.841  -3.441   0.169  1.00  0.00     0.312 C 
ATOM      7  O   UNL     1       0.519  -3.844  -0.946  1.00  0.00    -0.252 OA
BRANCH   6   8
ATOM      8  C   UNL     1       0.096  -3.888   1.415  1.00  0.00     0.124 C 
ATOM      9  C   UNL     1      -0.851  -3.146   3.558  1.00  0.00     0.104 C 
ATOM     10  C   UNL     1      -1.869  -3.133   2.472  1.00  0.00    -0.006 C 
ATOM     11  C   UNL     1       0.475  -3.361   2.808  1.00  0.00     0.048 C 
ATOM     12  C   UNL     1      -1.358  -3.523   1.300  1.00  0.00    -0.014 C 
BRANCH   9  13
ATOM     13  N   UNL     1      -1.170  -4.133   4.572  1.00  0.00    -0.364 N 
ATOM     14  H   UNL     1      -1.279  -3.738   5.467  1.00  0.00     0.162 HD
BRANCH  13  15
ATOM     15  C   UNL     1      -1.354  -5.485   4.564  1.00  0.00     0.130 A 
ATOM     16  C   UNL     1      -1.150  -8.570   2.453  1.00  0.00     0.067 C 
ATOM     17  C   UNL     1      -1.350  -7.660   3.628  1.00  0.00     0.043 A 
ATOM     18  C   UNL     1      -1.275  -6.292   3.457  1.00  0.00     0.070 A 
ATOM     19  N   UNL     1      -1.620  -8.216   4.817  1.00  0.00    -0.238 NA
ATOM     20  C   UNL     1      -1.777  -7.361   5.841  1.00  0.00     0.127 A 
ATOM     21  N   UNL     1      -1.621  -6.021   5.766  1.00  0.00    -0.216 NA
ATOM     22  C   UNL     1      -2.206  -7.937   7.153  1.00  0.00     0.090 C 
ENDBRANCH  13  15
ENDBRANCH   9  13
ENDBRANCH   6   8
ENDBRANCH   5   6
ENDBRANCH   4   5
ENDBRANCH   3   4
ENDBRANCH   2   3
ENDBRANCH   1   2
BRANCH   1  23
ATOM     23  C   UNL     1       4.734  -3.458   2.709  1.00  0.00     0.261 C 
BRANCH  23  24
ATOM     24  O   UNL     1       4.354  -2.071   2.608  1.00  0.00    -0.460 OA
BRANCH  24  25
ATOM     25  C   UNL     1       5.385  -1.207   2.454  1.00  0.00     0.338 C 
ATOM     26  O   UNL     1       6.580  -1.476   2.436  1.00  0.00    -0.246 OA
BRANCH  25  27
ATOM     27  C   UNL     1       4.881   0.135   2.133  1.00  0.00     0.060 A 
ATOM     28  C   UNL     1       5.084   0.631   0.839  1.00  0.00     0.016 A 
ATOM     29  C   UNL     1       4.350   0.950   3.135  1.00  0.00     0.016 A 
ATOM     30  C   UNL     1       4.786   1.961   0.549  1.00  0.00     0.010 A 
ATOM     31  C   UNL     1       4.070   2.289   2.846  1.00  0.00     0.010 A 
ATOM     32  C   UNL     1       4.321   2.807   1.563  1.00  0.00    -0.014 A 
BRANCH  32  33
ATOM     33  C   UNL     1       4.262   4.267   1.322  1.00  0.00     0.031 A 
ATOM     34  C   UNL     1       5.453   5.110   1.685  1.00  0.00     0.074 A 
ATOM     35  C   UNL     1       3.180   4.829   0.755  1.00  0.00     0.049 A 
ATOM     36  N   UNL     1       5.611   6.404   1.579  1.00  0.00    -0.248 NA
ATOM     37  C   UNL     1       6.624   4.402   2.232  1.00  0.00     0.031 C 
ATOM     38  C   UNL     1       1.991   4.108   0.304  1.00  0.00     0.029 A 
ATOM     39  N   UNL     1       2.912   6.142   0.461  1.00  0.00    -0.354 N 
ATOM     40  C   UNL     1       6.894   6.665   2.041  1.00  0.00     0.074 A 
ATOM     41  C   UNL     1       7.468   5.402   2.447  1.00  0.00     0.031 C 
ATOM     42  C   UNL     1       1.116   4.991  -0.209  1.00  0.00     0.029 A 
ATOM     43  C   UNL     1       1.672   6.339  -0.096  1.00  0.00     0.049 A 
ATOM     44  H   UNL     1       3.549   6.874   0.632  1.00  0.00     0.167 HD
ATOM     45  C   UNL     1       7.539   7.853   2.117  1.00  0.00     0.031 A 
ATOM     46  C   UNL     1       1.049   7.478  -0.458  1.00  0.00     0.031 A 
ATOM     47  C   UNL     1       6.963   9.111   1.729  1.00  0.00     0.049 A 
ATOM     48  C   UNL     1       1.750   8.797  -0.281  1.00  0.00     0.074 A 
ATOM     49  C   UNL     1       7.540  10.368   1.774  1.00  0.00     0.029 A 
ATOM     50  N   UNL     1       5.681   9.273   1.230  1.00  0.00    -0.354 N 
ATOM     51  N   UNL     1       2.960   9.029   0.169  1.00  0.00    -0.248 NA
ATOM     52  C   UNL     1       1.004  10.007  -0.656  1.00  0.00     0.031 C 
ATOM     53  C   UNL     1       6.590  11.297   1.343  1.00  0.00     0.029 A 
ATOM     54  C   UNL     1       5.439  10.613   0.985  1.00  0.00     0.049 A 
ATOM     55  H   UNL     1       5.038   8.544   1.075  1.00  0.00     0.167 HD
ATOM     56  C   UNL     1       3.127  10.408   0.113  1.00  0.00     0.074 A 
ATOM     57  C   UNL     1       1.897  10.960  -0.415  1.00  0.00     0.031 C 
ATOM     58  C   UNL     1       4.207  11.148   0.463  1.00  0.00     0.031 A 
BRANCH  45  59
ATOM     59  C   UNL     1       8.939   7.854   2.662  1.00  0.00    -0.014 A 
ATOM     60  C   UNL     1      10.021   7.433   1.869  1.00  0.00     0.010 A 
ATOM     61  C   UNL     1       9.183   8.350   3.955  1.00  0.00     0.010 A 
ATOM     62  C   UNL     1      11.324   7.496   2.367  1.00  0.00     0.020 A 
ATOM     63  C   UNL     1      10.487   8.431   4.449  1.00  0.00     0.020 A 
ATOM     64  C   UNL     1      11.550   8.001   3.652  1.00  0.00     0.054 A 
BRANCH  64  65
ATOM     65  S   UNL     1      13.258   8.101   4.254  1.00  0.00     0.124 S 
ATOM     66  O   UNL     1      13.668   6.699   4.241  1.00  0.00    -0.237 OA
ATOM     67  O   UNL     1      13.894   8.951   3.253  1.00  0.00    -0.237 OA
ATOM     68  O   UNL     1      13.125   8.693   5.583  1.00  0.00    -0.744 OA
ENDBRANCH  64  65
ENDBRANCH  45  59
BRANCH  46  69
ATOM     69  C   UNL     1      -0.327   7.410  -1.017  1.00  0.00    -0.014 A 
ATOM     70  C   UNL     1      -0.547   7.588  -2.393  1.00  0.00     0.010 A 
ATOM     71  C   UNL     1      -1.417   7.119  -0.177  1.00  0.00     0.010 A 
ATOM     72  C   UNL     1      -1.835   7.463  -2.922  1.00  0.00     0.020 A 
ATOM     73  C   UNL     1      -2.703   6.975  -0.705  1.00  0.00     0.020 A 
ATOM     74  C   UNL     1      -2.902   7.144  -2.076  1.00  0.00     0.054 A 
BRANCH  74  75
ATOM     75  S   UNL     1      -4.549   6.915  -2.804  1.00  0.00     0.124 S 
ATOM     76  O   UNL     1      -4.820   8.231  -3.375  1.00  0.00    -0.237 OA
ATOM     77  O   UNL     1      -4.311   5.843  -3.768  1.00  0.00    -0.237 OA
ATOM     78  O   UNL     1      -5.382   6.545  -1.662  1.00  0.00    -0.744 OA
ENDBRANCH  74  75
ENDBRANCH  46  69
BRANCH  58  79
ATOM     79  C   UNL     1       4.134  12.638   0.279  1.00  0.00    -0.014 A 
ATOM     80  C   UNL     1       3.451  13.445   1.204  1.00  0.00     0.010 A 
ATOM     81  C   UNL     1       4.860  13.244  -0.762  1.00  0.00     0.010 A 
ATOM     82  C   UNL     1       3.496  14.837   1.091  1.00  0.00     0.020 A 
ATOM     83  C   UNL     1       4.922  14.636  -0.868  1.00  0.00     0.020 A 
ATOM     84  C   UNL     1       4.241  15.423   0.062  1.00  0.00     0.054 A 
BRANCH  84  85
ATOM     85  S   UNL     1       4.336  17.233  -0.015  1.00  0.00     0.124 S 
ATOM     86  O   UNL     1       2.940  17.606  -0.231  1.00  0.00    -0.237 OA
ATOM     87  O   UNL     1       4.882  17.575   1.295  1.00  0.00    -0.237 OA
ATOM     88  O   UNL     1       5.227  17.488  -1.145  1.00  0.00    -0.744 OA
ENDBRANCH  84  85
ENDBRANCH  58  79
ENDBRANCH  32  33
ENDBRANCH  25  27
ENDBRANCH  24  25
ENDBRANCH  23  24
ENDBRANCH   1  23
TORSDOF 19
