REMARK SMILES C[C@H](C(=O)OCCOCCOC(=O)c1ccc(-c2c3nc(c(-c4ccc(S(=O)(=O)[O-])cc4)c4ccc([nH]4)c(-c4ccc(S(=O)(=O)[O-])cc4)c4nc(c(-c5ccc(S(=O)(=O)[O-])cc5)c5ccc2[nH]5)C=C4)C=C3)cc1)c1ccc(C[C@@H]2CCC[C@H]2O)cc1
REMARK SMILES IDX 7 1 6 2 5 3 3 4 4 5 2 6 1 7 74 8 75 9 86 10 76 11 85 12
REMARK SMILES IDX 77 13 78 14 79 15 80 16 83 17 81 18 82 19 84 20 8 22 9 23
REMARK SMILES IDX 10 24 11 25 12 26 13 27 14 28 15 29 73 30 16 31 72 32 17 33
REMARK SMILES IDX 18 34 19 35 66 36 20 37 71 38 65 39 67 40 21 41 70 42 64 43
REMARK SMILES IDX 63 44 22 46 52 47 33 48 51 49 34 50 37 51 50 52 68 53 35 54
REMARK SMILES IDX 36 55 49 57 69 58 38 59 23 60 24 61 32 62 25 63 31 64 26 65
REMARK SMILES IDX 27 66 28 67 29 68 30 69 53 70 54 71 62 72 55 73 61 74 56 75
REMARK SMILES IDX 57 76 58 77 59 78 60 79 39 80 40 81 48 82 41 83 47 84 42 85
REMARK SMILES IDX 43 86 44 87 45 88 46 89
REMARK H PARENT 84 21 67 45 37 56
REMARK Flexibility Score: inf
ROOT
ATOM      1  C   UNL     1      -8.390  -0.261   9.637  1.00  0.00     0.202 C 
ENDROOT
BRANCH   1   2
ATOM      2  C   UNL     1      -7.910   1.099   9.115  1.00  0.00     0.261 C 
BRANCH   2   3
ATOM      3  O   UNL     1      -8.770   1.543   8.051  1.00  0.00    -0.463 OA
BRANCH   3   4
ATOM      4  C   UNL     1      -8.168   1.830   6.862  1.00  0.00     0.313 C 
ATOM      5  O   UNL     1      -6.960   1.940   6.695  1.00  0.00    -0.252 OA
BRANCH   4   6
ATOM      6  C   UNL     1      -9.224   1.937   5.759  1.00  0.00     0.126 C 
ATOM      7  C   UNL     1      -9.468   3.429   5.538  1.00  0.00     0.025 C 
BRANCH   6   8
ATOM      8  C   UNL     1      -8.850   1.141   4.507  1.00  0.00    -0.034 A 
ATOM      9  C   UNL     1      -8.181  -0.086   4.632  1.00  0.00     0.005 A 
ATOM     10  C   UNL     1      -9.175   1.560   3.212  1.00  0.00     0.005 A 
ATOM     11  C   UNL     1      -7.785  -0.827   3.524  1.00  0.00     0.004 A 
ATOM     12  C   UNL     1      -8.707   0.858   2.092  1.00  0.00     0.004 A 
ATOM     13  C   UNL     1      -7.950  -0.309   2.245  1.00  0.00    -0.048 A 
BRANCH  13  14
ATOM     14  C   UNL     1      -7.232  -0.939   1.080  1.00  0.00     0.041 C 
BRANCH  14  15
ATOM     15  C   UNL     1      -5.694  -0.742   1.029  1.00  0.00     0.022 C 
ATOM     16  C   UNL     1      -4.900  -1.464   2.130  1.00  0.00     0.007 C 
ATOM     17  C   UNL     1      -5.215   0.711   1.146  1.00  0.00     0.117 C 
ATOM     18  C   UNL     1      -4.523  -0.417   3.182  1.00  0.00     0.003 C 
ATOM     19  C   UNL     1      -4.941   0.944   2.629  1.00  0.00     0.032 C 
BRANCH  17  20
ATOM     20  O   UNL     1      -3.992   0.860   0.418  1.00  0.00    -0.393 OA
ATOM     21  H   UNL     1      -3.333   0.237   0.762  1.00  0.00     0.210 HD
ENDBRANCH  17  20
ENDBRANCH  14  15
ENDBRANCH  13  14
ENDBRANCH   6   8
ENDBRANCH   4   6
ENDBRANCH   3   4
ENDBRANCH   2   3
ENDBRANCH   1   2
BRANCH   1  22
ATOM     22  O   UNL     1      -8.196  -1.373   8.757  1.00  0.00    -0.374 OA
BRANCH  22  23
ATOM     23  C   UNL     1      -9.107  -1.503   7.669  1.00  0.00     0.202 C 
BRANCH  23  24
ATOM     24  C   UNL     1     -10.432  -2.222   7.925  1.00  0.00     0.261 C 
BRANCH  24  25
ATOM     25  O   UNL     1     -11.213  -1.554   8.920  1.00  0.00    -0.460 OA
BRANCH  25  26
ATOM     26  C   UNL     1     -11.127  -2.115  10.147  1.00  0.00     0.338 C 
ATOM     27  O   UNL     1     -10.548  -3.150  10.450  1.00  0.00    -0.246 OA
BRANCH  26  28
ATOM     28  C   UNL     1     -11.685  -1.190  11.142  1.00  0.00     0.060 A 
ATOM     29  C   UNL     1     -10.908  -0.924  12.276  1.00  0.00     0.016 A 
ATOM     30  C   UNL     1     -12.954  -0.625  10.991  1.00  0.00     0.016 A 
ATOM     31  C   UNL     1     -11.423  -0.137  13.297  1.00  0.00     0.010 A 
ATOM     32  C   UNL     1     -13.473   0.159  12.021  1.00  0.00     0.010 A 
ATOM     33  C   UNL     1     -12.725   0.369  13.193  1.00  0.00    -0.014 A 
BRANCH  33  34
ATOM     34  C   UNL     1     -13.361   0.973  14.384  1.00  0.00     0.031 A 
ATOM     35  C   UNL     1     -14.302   0.131  15.199  1.00  0.00     0.074 A 
ATOM     36  C   UNL     1     -13.073   2.234  14.746  1.00  0.00     0.049 A 
ATOM     37  N   UNL     1     -14.987   0.453  16.264  1.00  0.00    -0.248 NA
ATOM     38  C   UNL     1     -14.497  -1.260  14.753  1.00  0.00     0.031 C 
ATOM     39  C   UNL     1     -12.141   3.122  14.052  1.00  0.00     0.029 A 
ATOM     40  N   UNL     1     -13.542   2.986  15.792  1.00  0.00    -0.354 N 
ATOM     41  C   UNL     1     -15.699  -0.689  16.612  1.00  0.00     0.074 A 
ATOM     42  C   UNL     1     -15.390  -1.701  15.627  1.00  0.00     0.031 C 
ATOM     43  C   UNL     1     -12.113   4.305  14.688  1.00  0.00     0.029 A 
ATOM     44  C   UNL     1     -13.049   4.267  15.810  1.00  0.00     0.049 A 
ATOM     45  H   UNL     1     -14.172   2.640  16.465  1.00  0.00     0.167 HD
ATOM     46  C   UNL     1     -16.530  -0.878  17.664  1.00  0.00     0.031 A 
ATOM     47  C   UNL     1     -13.339   5.298  16.627  1.00  0.00     0.031 A 
ATOM     48  C   UNL     1     -16.844   0.143  18.627  1.00  0.00     0.049 A 
ATOM     49  C   UNL     1     -14.323   5.087  17.747  1.00  0.00     0.074 A 
ATOM     50  C   UNL     1     -17.670   0.058  19.734  1.00  0.00     0.029 A 
ATOM     51  N   UNL     1     -16.351   1.439  18.594  1.00  0.00    -0.354 N 
ATOM     52  N   UNL     1     -14.975   3.997  18.077  1.00  0.00    -0.248 NA
ATOM     53  C   UNL     1     -14.601   6.241  18.612  1.00  0.00     0.031 C 
ATOM     54  C   UNL     1     -17.721   1.319  20.336  1.00  0.00     0.029 A 
ATOM     55  C   UNL     1     -16.875   2.172  19.645  1.00  0.00     0.049 A 
ATOM     56  H   UNL     1     -15.721   1.786  17.922  1.00  0.00     0.167 HD
ATOM     57  C   UNL     1     -15.722   4.327  19.203  1.00  0.00     0.074 A 
ATOM     58  C   UNL     1     -15.428   5.714  19.505  1.00  0.00     0.031 C 
ATOM     59  C   UNL     1     -16.571   3.553  19.925  1.00  0.00     0.031 A 
BRANCH  46  60
ATOM     60  C   UNL     1     -17.183  -2.228  17.799  1.00  0.00    -0.014 A 
ATOM     61  C   UNL     1     -16.438  -3.368  18.155  1.00  0.00     0.010 A 
ATOM     62  C   UNL     1     -18.568  -2.356  17.590  1.00  0.00     0.010 A 
ATOM     63  C   UNL     1     -17.059  -4.615  18.259  1.00  0.00     0.020 A 
ATOM     64  C   UNL     1     -19.198  -3.596  17.721  1.00  0.00     0.020 A 
ATOM     65  C   UNL     1     -18.436  -4.722  18.038  1.00  0.00     0.054 A 
BRANCH  65  66
ATOM     66  S   UNL     1     -19.218  -6.351  18.195  1.00  0.00     0.124 S 
ATOM     67  O   UNL     1     -18.729  -7.037  17.002  1.00  0.00    -0.237 OA
ATOM     68  O   UNL     1     -18.686  -6.840  19.464  1.00  0.00    -0.237 OA
ATOM     69  O   UNL     1     -20.648  -6.050  18.198  1.00  0.00    -0.744 OA
ENDBRANCH  65  66
ENDBRANCH  46  60
BRANCH  47  70
ATOM     70  C   UNL     1     -12.704   6.624  16.399  1.00  0.00    -0.014 A 
ATOM     71  C   UNL     1     -11.757   7.136  17.302  1.00  0.00     0.010 A 
ATOM     72  C   UNL     1     -13.036   7.378  15.257  1.00  0.00     0.010 A 
ATOM     73  C   UNL     1     -11.164   8.383  17.075  1.00  0.00     0.020 A 
ATOM     74  C   UNL     1     -12.425   8.610  15.012  1.00  0.00     0.020 A 
ATOM     75  C   UNL     1     -11.499   9.109  15.929  1.00  0.00     0.054 A 
BRANCH  75  76
ATOM     76  S   UNL     1     -10.673  10.696  15.625  1.00  0.00     0.124 S 
ATOM     77  O   UNL     1     -11.299  11.559  16.622  1.00  0.00    -0.237 OA
ATOM     78  O   UNL     1      -9.269  10.370  15.860  1.00  0.00    -0.237 OA
ATOM     79  O   UNL     1     -11.011  10.996  14.235  1.00  0.00    -0.744 OA
ENDBRANCH  75  76
ENDBRANCH  47  70
BRANCH  59  80
ATOM     80  C   UNL     1     -17.219   4.177  21.133  1.00  0.00    -0.014 A 
ATOM     81  C   UNL     1     -18.229   5.146  21.003  1.00  0.00     0.010 A 
ATOM     82  C   UNL     1     -16.850   3.739  22.419  1.00  0.00     0.010 A 
ATOM     83  C   UNL     1     -18.835   5.690  22.139  1.00  0.00     0.020 A 
ATOM     84  C   UNL     1     -17.474   4.258  23.555  1.00  0.00     0.020 A 
ATOM     85  C   UNL     1     -18.454   5.241  23.408  1.00  0.00     0.054 A 
BRANCH  85  86
ATOM     86  S   UNL     1     -19.286   5.932  24.864  1.00  0.00     0.124 S 
ATOM     87  O   UNL     1     -18.717   7.275  24.931  1.00  0.00    -0.237 OA
ATOM     88  O   UNL     1     -20.696   5.864  24.489  1.00  0.00    -0.237 OA
ATOM     89  O   UNL     1     -18.892   5.034  25.947  1.00  0.00    -0.744 OA
ENDBRANCH  85  86
ENDBRANCH  59  80
ENDBRANCH  33  34
ENDBRANCH  26  28
ENDBRANCH  25  26
ENDBRANCH  24  25
ENDBRANCH  23  24
ENDBRANCH  22  23
ENDBRANCH   1  22
TORSDOF 21
