REMARK SMILES O=C(OCCOCCOC(=O)c1ccccc1C(=O)Nc1ccc(N2C(=O)[C@H]3[C@@H]4CC[C@@H](C4)[C@@H]3C2=O)cc1)c1ccc(-c2c3nc(c(-c4ccc(S(=O)(=O)[O-])cc4)c4ccc([nH]4)c(-c4ccc(S(=O)(=O)[O-])cc4)c4nc(c(-c5ccc(S(=O)(=O)[O-])cc5)c5ccc2[nH]5)C=C4)C=C3)cc1
REMARK SMILES IDX 6 1 5 2 4 3 3 4 2 5 1 6 39 7 40 8 98 9 41 10 97 11 42 12
REMARK SMILES IDX 43 13 44 14 91 15 45 16 96 17 90 18 92 19 46 20 95 21 89 22
REMARK SMILES IDX 88 23 47 25 77 26 58 27 76 28 59 29 62 30 75 31 93 32 60 33
REMARK SMILES IDX 61 34 74 36 94 37 63 38 48 39 49 40 57 41 50 42 56 43 51 44
REMARK SMILES IDX 52 45 53 46 54 47 55 48 78 49 79 50 87 51 80 52 86 53 81 54
REMARK SMILES IDX 82 55 83 56 84 57 85 58 64 59 65 60 73 61 66 62 72 63 67 64
REMARK SMILES IDX 68 65 69 66 70 67 71 68 7 69 8 70 9 71 10 72 11 73 12 74
REMARK SMILES IDX 13 75 17 76 14 77 16 78 15 79 18 80 19 81 20 82 21 84 22 85
REMARK SMILES IDX 38 86 23 87 37 88 24 89 25 90 26 91 35 92 27 93 28 94 34 95
REMARK SMILES IDX 36 96 29 97 32 98 30 99 33 100 31 101
REMARK H PARENT 92 24 62 35 20 83
REMARK Flexibility Score: inf
ROOT
ATOM      1  O   UNL     1       2.240  -0.636  -0.102  1.00  0.00    -0.374 OA
ENDROOT
BRANCH   1   2
ATOM      2  C   UNL     1       3.199  -1.226   0.781  1.00  0.00     0.202 C 
BRANCH   2   3
ATOM      3  C   UNL     1       2.802  -0.990   2.235  1.00  0.00     0.261 C 
BRANCH   3   4
ATOM      4  O   UNL     1       2.779   0.427   2.467  1.00  0.00    -0.460 OA
BRANCH   4   5
ATOM      5  C   UNL     1       1.630   1.059   2.115  1.00  0.00     0.338 C 
ATOM      6  O   UNL     1       0.492   0.624   2.149  1.00  0.00    -0.246 OA
BRANCH   5   7
ATOM      7  C   UNL     1       2.038   2.381   1.611  1.00  0.00     0.060 A 
ATOM      8  C   UNL     1       2.936   2.425   0.543  1.00  0.00     0.016 A 
ATOM      9  C   UNL     1       1.629   3.554   2.243  1.00  0.00     0.016 A 
ATOM     10  C   UNL     1       3.538   3.623   0.204  1.00  0.00     0.010 A 
ATOM     11  C   UNL     1       2.232   4.767   1.884  1.00  0.00     0.010 A 
ATOM     12  C   UNL     1       3.255   4.792   0.919  1.00  0.00    -0.014 A 
BRANCH  12  13
ATOM     13  C   UNL     1       4.207   5.933   0.799  1.00  0.00     0.031 A 
ATOM     14  C   UNL     1       5.066   6.295   1.989  1.00  0.00     0.074 A 
ATOM     15  C   UNL     1       4.485   6.481  -0.402  1.00  0.00     0.049 A 
ATOM     16  N   UNL     1       5.945   7.257   2.112  1.00  0.00    -0.248 NA
ATOM     17  C   UNL     1       4.958   5.433   3.180  1.00  0.00     0.031 C 
ATOM     18  C   UNL     1       3.863   6.098  -1.671  1.00  0.00     0.029 A 
ATOM     19  N   UNL     1       5.412   7.427  -0.761  1.00  0.00    -0.354 N 
ATOM     20  C   UNL     1       6.479   7.123   3.390  1.00  0.00     0.074 A 
ATOM     21  C   UNL     1       5.810   6.006   4.016  1.00  0.00     0.031 C 
ATOM     22  C   UNL     1       4.477   6.745  -2.673  1.00  0.00     0.029 A 
ATOM     23  C   UNL     1       5.449   7.678  -2.113  1.00  0.00     0.049 A 
ATOM     24  H   UNL     1       5.996   7.883  -0.112  1.00  0.00     0.167 HD
ATOM     25  C   UNL     1       7.454   7.848   3.987  1.00  0.00     0.031 A 
ATOM     26  C   UNL     1       6.141   8.595  -2.819  1.00  0.00     0.031 A 
ATOM     27  C   UNL     1       8.137   8.946   3.365  1.00  0.00     0.049 A 
ATOM     28  C   UNL     1       7.032   9.554  -2.078  1.00  0.00     0.074 A 
ATOM     29  C   UNL     1       9.068   9.809   3.916  1.00  0.00     0.029 A 
ATOM     30  N   UNL     1       7.970   9.326   2.044  1.00  0.00    -0.354 N 
ATOM     31  N   UNL     1       7.407   9.527  -0.821  1.00  0.00    -0.248 NA
ATOM     32  C   UNL     1       7.551  10.699  -2.839  1.00  0.00     0.031 C 
ATOM     33  C   UNL     1       9.426  10.744   2.937  1.00  0.00     0.029 A 
ATOM     34  C   UNL     1       8.752  10.432   1.767  1.00  0.00     0.049 A 
ATOM     35  H   UNL     1       7.380   8.874   1.397  1.00  0.00     0.167 HD
ATOM     36  C   UNL     1       8.195  10.657  -0.638  1.00  0.00     0.074 A 
ATOM     37  C   UNL     1       8.269  11.330  -1.919  1.00  0.00     0.031 C 
ATOM     38  C   UNL     1       8.794  11.104   0.494  1.00  0.00     0.031 A 
BRANCH  25  39
ATOM     39  C   UNL     1       7.785   7.501   5.410  1.00  0.00    -0.014 A 
ATOM     40  C   UNL     1       8.591   6.392   5.723  1.00  0.00     0.010 A 
ATOM     41  C   UNL     1       7.266   8.292   6.451  1.00  0.00     0.010 A 
ATOM     42  C   UNL     1       8.837   6.057   7.058  1.00  0.00     0.020 A 
ATOM     43  C   UNL     1       7.523   7.969   7.785  1.00  0.00     0.020 A 
ATOM     44  C   UNL     1       8.292   6.842   8.080  1.00  0.00     0.054 A 
BRANCH  44  45
ATOM     45  S   UNL     1       8.609   6.371   9.803  1.00  0.00     0.124 S 
ATOM     46  O   UNL     1       7.790   5.169   9.941  1.00  0.00    -0.237 OA
ATOM     47  O   UNL     1      10.053   6.153   9.815  1.00  0.00    -0.237 OA
ATOM     48  O   UNL     1       8.149   7.528  10.569  1.00  0.00    -0.744 OA
ENDBRANCH  44  45
ENDBRANCH  25  39
BRANCH  26  49
ATOM     49  C   UNL     1       5.913   8.741  -4.285  1.00  0.00    -0.014 A 
ATOM     50  C   UNL     1       6.944   8.516  -5.213  1.00  0.00     0.010 A 
ATOM     51  C   UNL     1       4.643   9.124  -4.760  1.00  0.00     0.010 A 
ATOM     52  C   UNL     1       6.710   8.676  -6.585  1.00  0.00     0.020 A 
ATOM     53  C   UNL     1       4.396   9.251  -6.128  1.00  0.00     0.020 A 
ATOM     54  C   UNL     1       5.436   9.040  -7.032  1.00  0.00     0.054 A 
BRANCH  54  55
ATOM     55  S   UNL     1       5.124   9.195  -8.813  1.00  0.00     0.124 S 
ATOM     56  O   UNL     1       5.654  10.524  -9.099  1.00  0.00    -0.237 OA
ATOM     57  O   UNL     1       5.880   8.077  -9.373  1.00  0.00    -0.237 OA
ATOM     58  O   UNL     1       3.672   9.064  -8.914  1.00  0.00    -0.744 OA
ENDBRANCH  54  55
ENDBRANCH  26  49
BRANCH  38  59
ATOM     59  C   UNL     1       9.569  12.389   0.404  1.00  0.00    -0.014 A 
ATOM     60  C   UNL     1       8.899  13.623   0.344  1.00  0.00     0.010 A 
ATOM     61  C   UNL     1      10.974  12.368   0.444  1.00  0.00     0.010 A 
ATOM     62  C   UNL     1       9.623  14.817   0.306  1.00  0.00     0.020 A 
ATOM     63  C   UNL     1      11.701  13.560   0.430  1.00  0.00     0.020 A 
ATOM     64  C   UNL     1      11.020  14.778   0.351  1.00  0.00     0.054 A 
BRANCH  64  65
ATOM     65  S   UNL     1      11.939  16.342   0.362  1.00  0.00     0.124 S 
ATOM     66  O   UNL     1      11.869  16.745  -1.040  1.00  0.00    -0.237 OA
ATOM     67  O   UNL     1      11.168  17.163   1.292  1.00  0.00    -0.237 OA
ATOM     68  O   UNL     1      13.267  15.958   0.835  1.00  0.00    -0.744 OA
ENDBRANCH  64  65
ENDBRANCH  38  59
ENDBRANCH  12  13
ENDBRANCH   5   7
ENDBRANCH   4   5
ENDBRANCH   3   4
ENDBRANCH   2   3
ENDBRANCH   1   2
BRANCH   1  69
ATOM     69  C   UNL     1       1.199  -1.498  -0.537  1.00  0.00     0.202 C 
BRANCH  69  70
ATOM     70  C   UNL     1       1.330  -1.768  -2.039  1.00  0.00     0.261 C 
BRANCH  70  71
ATOM     71  O   UNL     1       2.280  -2.803  -2.361  1.00  0.00    -0.460 OA
BRANCH  71  72
ATOM     72  C   UNL     1       3.576  -2.425  -2.330  1.00  0.00     0.339 C 
ATOM     73  O   UNL     1       4.052  -1.396  -1.896  1.00  0.00    -0.246 OA
BRANCH  72  74
ATOM     74  C   UNL     1       4.416  -3.487  -2.873  1.00  0.00     0.072 A 
ATOM     75  C   UNL     1       5.132  -4.270  -1.957  1.00  0.00     0.016 A 
ATOM     76  C   UNL     1       4.550  -3.685  -4.251  1.00  0.00     0.054 A 
ATOM     77  C   UNL     1       5.937  -5.309  -2.419  1.00  0.00     0.001 A 
ATOM     78  C   UNL     1       5.333  -4.758  -4.701  1.00  0.00     0.015 A 
ATOM     79  C   UNL     1       6.024  -5.562  -3.788  1.00  0.00     0.001 A 
BRANCH  76  80
ATOM     80  C   UNL     1       3.836  -2.875  -5.266  1.00  0.00     0.256 C 
ATOM     81  O   UNL     1       3.133  -3.481  -6.075  1.00  0.00    -0.269 OA
ATOM     82  N   UNL     1       3.873  -1.496  -5.287  1.00  0.00    -0.322 N 
ATOM     83  H   UNL     1       3.195  -1.081  -5.867  1.00  0.00     0.170 HD
BRANCH  82  84
ATOM     84  C   UNL     1       4.711  -0.579  -4.624  1.00  0.00     0.041 A 
ATOM     85  C   UNL     1       4.179   0.685  -4.327  1.00  0.00     0.028 A 
ATOM     86  C   UNL     1       5.997  -0.895  -4.185  1.00  0.00     0.028 A 
ATOM     87  C   UNL     1       4.857   1.553  -3.460  1.00  0.00     0.029 A 
ATOM     88  C   UNL     1       6.671  -0.036  -3.312  1.00  0.00     0.029 A 
ATOM     89  C   UNL     1       6.081   1.165  -2.911  1.00  0.00     0.052 A 
BRANCH  89  90
ATOM     90  N   UNL     1       6.652   1.905  -1.867  1.00  0.00    -0.250 N 
ATOM     91  C   UNL     1       7.519   2.996  -2.055  1.00  0.00     0.237 C 
ATOM     92  C   UNL     1       6.649   1.480  -0.528  1.00  0.00     0.237 C 
ATOM     93  O   UNL     1       7.761   3.630  -3.064  1.00  0.00    -0.274 OA
ATOM     94  C   UNL     1       8.287   3.024  -0.757  1.00  0.00     0.095 C 
ATOM     95  C   UNL     1       7.127   2.704   0.176  1.00  0.00     0.095 C 
ATOM     96  O   UNL     1       6.346   0.418  -0.021  1.00  0.00    -0.274 OA
ATOM     97  C   UNL     1       9.079   4.039   0.066  1.00  0.00     0.002 C 
ATOM     98  C   UNL     1       7.678   3.044   1.541  1.00  0.00     0.002 C 
ATOM     99  C   UNL     1      10.026   3.180   0.949  1.00  0.00     0.005 C 
ATOM    100  C   UNL     1       8.120   4.486   1.184  1.00  0.00     0.009 C 
ATOM    101  C   UNL     1       9.034   2.382   1.835  1.00  0.00     0.005 C 
ENDBRANCH  89  90
ENDBRANCH  82  84
ENDBRANCH  76  80
ENDBRANCH  72  74
ENDBRANCH  71  72
ENDBRANCH  70  71
ENDBRANCH  69  70
ENDBRANCH   1  69
TORSDOF 20
