REMARK SMILES O=C(OCCOCCOC(=O)[C@H]1CCCC[C@H]1C(=O)Nc1ccc(Cl)cc1F)c1ccc(-c2c3nc(c(-c4ccc(S(=O)(=O)[O-])cc4)c4ccc([nH]4)c(-c4ccc(S(=O)(=O)[O-])cc4)c4nc(c(-c5ccc(S(=O)(=O)[O-])cc5)c5ccc2[nH]5)C=C4)C=C3)cc1
REMARK SMILES IDX 5 1 4 2 3 3 2 4 1 5 29 6 30 7 88 8 31 9 87 10 32 11 33 12
REMARK SMILES IDX 34 13 81 14 35 15 86 16 80 17 82 18 36 19 85 20 79 21 78 22
REMARK SMILES IDX 37 24 67 25 48 26 66 27 49 28 52 29 65 30 83 31 50 32 51 33
REMARK SMILES IDX 64 35 84 36 53 37 38 38 39 39 47 40 40 41 46 42 41 43 42 44
REMARK SMILES IDX 43 45 44 46 45 47 68 48 69 49 77 50 70 51 76 52 71 53 72 54
REMARK SMILES IDX 73 55 74 56 75 57 54 58 55 59 63 60 56 61 62 62 57 63 58 64
REMARK SMILES IDX 59 65 60 66 61 67 6 68 7 69 8 70 9 71 10 72 11 73 12 74
REMARK SMILES IDX 13 75 17 76 14 77 16 78 15 79 18 80 19 81 20 82 21 84 22 85
REMARK SMILES IDX 27 86 23 87 26 88 28 89 24 90 25 91
REMARK H PARENT 82 23 52 34 20 83
REMARK Flexibility Score: inf
ROOT
ATOM      1  C   UNL     1       6.894  -0.374   1.289  1.00  0.00     0.202 C 
ENDROOT
BRANCH   1   2
ATOM      2  C   UNL     1       7.291   0.229  -0.064  1.00  0.00     0.261 C 
BRANCH   2   3
ATOM      3  O   UNL     1       8.483  -0.342  -0.648  1.00  0.00    -0.460 OA
BRANCH   3   4
ATOM      4  C   UNL     1       9.556  -0.609   0.140  1.00  0.00     0.338 C 
ATOM      5  O   UNL     1       9.940  -1.751   0.360  1.00  0.00    -0.246 OA
BRANCH   4   6
ATOM      6  C   UNL     1      10.417   0.574   0.416  1.00  0.00     0.060 A 
ATOM      7  C   UNL     1       9.924   1.754   0.976  1.00  0.00     0.016 A 
ATOM      8  C   UNL     1      11.791   0.464   0.161  1.00  0.00     0.016 A 
ATOM      9  C   UNL     1      10.776   2.821   1.246  1.00  0.00     0.010 A 
ATOM     10  C   UNL     1      12.652   1.530   0.448  1.00  0.00     0.010 A 
ATOM     11  C   UNL     1      12.143   2.717   0.991  1.00  0.00    -0.014 A 
BRANCH  11  12
ATOM     12  C   UNL     1      13.003   3.891   1.253  1.00  0.00     0.031 A 
ATOM     13  C   UNL     1      13.402   4.769   0.106  1.00  0.00     0.074 A 
ATOM     14  C   UNL     1      13.343   4.211   2.516  1.00  0.00     0.049 A 
ATOM     15  N   UNL     1      14.186   5.813   0.104  1.00  0.00    -0.248 NA
ATOM     16  C   UNL     1      12.829   4.438  -1.210  1.00  0.00     0.031 C 
ATOM     17  C   UNL     1      12.920   3.483   3.713  1.00  0.00     0.029 A 
ATOM     18  N   UNL     1      14.108   5.240   3.004  1.00  0.00    -0.354 N 
ATOM     19  C   UNL     1      14.237   6.240  -1.216  1.00  0.00     0.074 A 
ATOM     20  C   UNL     1      13.384   5.359  -1.984  1.00  0.00     0.031 C 
ATOM     21  C   UNL     1      13.425   4.095   4.798  1.00  0.00     0.029 A 
ATOM     22  C   UNL     1      14.247   5.224   4.374  1.00  0.00     0.049 A 
ATOM     23  H   UNL     1      14.520   5.925   2.429  1.00  0.00     0.167 HD
ATOM     24  C   UNL     1      14.955   7.260  -1.740  1.00  0.00     0.031 A 
ATOM     25  C   UNL     1      14.983   6.011   5.185  1.00  0.00     0.031 A 
ATOM     26  C   UNL     1      15.815   8.114  -0.967  1.00  0.00     0.049 A 
ATOM     27  C   UNL     1      15.836   7.088   4.560  1.00  0.00     0.074 A 
ATOM     28  C   UNL     1      16.626   9.143  -1.408  1.00  0.00     0.029 A 
ATOM     29  N   UNL     1      15.980   8.032   0.408  1.00  0.00    -0.354 N 
ATOM     30  N   UNL     1      15.907   7.458   3.302  1.00  0.00    -0.248 NA
ATOM     31  C   UNL     1      16.727   7.835   5.458  1.00  0.00     0.031 C 
ATOM     32  C   UNL     1      17.325   9.648  -0.307  1.00  0.00     0.029 A 
ATOM     33  C   UNL     1      16.902   8.974   0.828  1.00  0.00     0.049 A 
ATOM     34  H   UNL     1      15.512   7.397   0.997  1.00  0.00     0.167 HD
ATOM     35  C   UNL     1      16.847   8.482   3.261  1.00  0.00     0.074 A 
ATOM     36  C   UNL     1      17.289   8.699   4.623  1.00  0.00     0.031 C 
ATOM     37  C   UNL     1      17.319   9.172   2.193  1.00  0.00     0.031 A 
BRANCH  24  38
ATOM     38  C   UNL     1      14.908   7.449  -3.229  1.00  0.00    -0.014 A 
ATOM     39  C   UNL     1      13.796   8.027  -3.864  1.00  0.00     0.010 A 
ATOM     40  C   UNL     1      16.023   7.072  -4.000  1.00  0.00     0.010 A 
ATOM     41  C   UNL     1      13.793   8.207  -5.250  1.00  0.00     0.020 A 
ATOM     42  C   UNL     1      16.033   7.270  -5.382  1.00  0.00     0.020 A 
ATOM     43  C   UNL     1      14.912   7.829  -6.000  1.00  0.00     0.054 A 
BRANCH  43  44
ATOM     44  S   UNL     1      14.899   8.113  -7.791  1.00  0.00     0.124 S 
ATOM     45  O   UNL     1      13.951   7.100  -8.249  1.00  0.00    -0.237 OA
ATOM     46  O   UNL     1      14.438   9.495  -7.891  1.00  0.00    -0.237 OA
ATOM     47  O   UNL     1      16.287   7.892  -8.189  1.00  0.00    -0.744 OA
ENDBRANCH  43  44
ENDBRANCH  24  38
BRANCH  25  48
ATOM     48  C   UNL     1      15.026   5.771   6.657  1.00  0.00    -0.014 A 
ATOM     49  C   UNL     1      14.585   6.752   7.565  1.00  0.00     0.010 A 
ATOM     50  C   UNL     1      15.567   4.575   7.165  1.00  0.00     0.010 A 
ATOM     51  C   UNL     1      14.724   6.559   8.945  1.00  0.00     0.020 A 
ATOM     52  C   UNL     1      15.674   4.362   8.543  1.00  0.00     0.020 A 
ATOM     53  C   UNL     1      15.274   5.367   9.425  1.00  0.00     0.054 A 
BRANCH  53  54
ATOM     54  S   UNL     1      15.452   5.132  11.215  1.00  0.00     0.124 S 
ATOM     55  O   UNL     1      16.608   5.970  11.516  1.00  0.00    -0.237 OA
ATOM     56  O   UNL     1      14.171   5.612  11.730  1.00  0.00    -0.237 OA
ATOM     57  O   UNL     1      15.668   3.693  11.351  1.00  0.00    -0.744 OA
ENDBRANCH  53  54
ENDBRANCH  25  48
BRANCH  37  58
ATOM     58  C   UNL     1      18.348  10.238   2.456  1.00  0.00    -0.014 A 
ATOM     59  C   UNL     1      19.671   9.902   2.792  1.00  0.00     0.010 A 
ATOM     60  C   UNL     1      18.002  11.592   2.294  1.00  0.00     0.010 A 
ATOM     61  C   UNL     1      20.625  10.904   2.989  1.00  0.00     0.020 A 
ATOM     62  C   UNL     1      18.960  12.595   2.461  1.00  0.00     0.020 A 
ATOM     63  C   UNL     1      20.263  12.244   2.820  1.00  0.00     0.054 A 
BRANCH  63  64
ATOM     64  S   UNL     1      21.532  13.524   3.027  1.00  0.00     0.124 S 
ATOM     65  O   UNL     1      21.699  13.554   4.477  1.00  0.00    -0.237 OA
ATOM     66  O   UNL     1      22.661  12.981   2.275  1.00  0.00    -0.237 OA
ATOM     67  O   UNL     1      20.919  14.716   2.445  1.00  0.00    -0.744 OA
ENDBRANCH  63  64
ENDBRANCH  37  58
ENDBRANCH  11  12
ENDBRANCH   4   6
ENDBRANCH   3   4
ENDBRANCH   2   3
ENDBRANCH   1   2
BRANCH   1  68
ATOM     68  O   UNL     1       7.898  -0.108   2.272  1.00  0.00    -0.374 OA
BRANCH  68  69
ATOM     69  C   UNL     1       7.861  -0.995   3.391  1.00  0.00     0.202 C 
BRANCH  69  70
ATOM     70  C   UNL     1       7.024  -0.461   4.558  1.00  0.00     0.261 C 
BRANCH  70  71
ATOM     71  O   UNL     1       5.790   0.103   4.077  1.00  0.00    -0.463 OA
BRANCH  71  72
ATOM     72  C   UNL     1       5.417   1.284   4.652  1.00  0.00     0.309 C 
ATOM     73  O   UNL     1       5.886   1.734   5.691  1.00  0.00    -0.252 OA
BRANCH  72  74
ATOM     74  C   UNL     1       4.302   1.942   3.857  1.00  0.00     0.111 C 
ATOM     75  C   UNL     1       3.150   2.200   4.856  1.00  0.00     0.016 C 
ATOM     76  C   UNL     1       4.636   3.221   3.040  1.00  0.00     0.093 C 
ATOM     77  C   UNL     1       3.320   3.494   5.656  1.00  0.00     0.001 C 
ATOM     78  C   UNL     1       4.655   4.542   3.820  1.00  0.00     0.014 C 
ATOM     79  C   UNL     1       3.442   4.692   4.729  1.00  0.00     0.001 C 
BRANCH  76  80
ATOM     80  C   UNL     1       5.642   3.144   1.862  1.00  0.00     0.228 C 
ATOM     81  O   UNL     1       5.335   2.499   0.853  1.00  0.00    -0.274 OA
ATOM     82  N   UNL     1       6.745   3.970   1.806  1.00  0.00    -0.323 N 
ATOM     83  H   UNL     1       6.913   4.406   0.940  1.00  0.00     0.170 HD
BRANCH  82  84
ATOM     84  C   UNL     1       7.662   4.267   2.835  1.00  0.00     0.077 A 
ATOM     85  C   UNL     1       8.427   5.430   2.812  1.00  0.00     0.031 A 
ATOM     86  C   UNL     1       7.919   3.344   3.843  1.00  0.00     0.148 A 
ATOM     87  C   UNL     1       9.305   5.701   3.876  1.00  0.00     0.023 A 
ATOM     88  C   UNL     1       8.745   3.605   4.923  1.00  0.00     0.062 A 
ATOM     89  F   UNL     1       7.467   2.107   3.675  1.00  0.00    -0.205 F 
ATOM     90  C   UNL     1       9.419   4.811   4.949  1.00  0.00     0.044 A 
ATOM     91  Cl  UNL     1      10.409   5.194   6.298  1.00  0.00    -0.084 Cl
ENDBRANCH  82  84
ENDBRANCH  76  80
ENDBRANCH  72  74
ENDBRANCH  71  72
ENDBRANCH  70  71
ENDBRANCH  69  70
ENDBRANCH  68  69
ENDBRANCH   1  68
TORSDOF 19
