REMARK SMILES O=C(OCCOCCOC(=O)c1cnn2c(C(F)(F)F)ccnc12)c1ccc(-c2c3nc(c(-c4ccc(S(=O)(=O)[O-])cc4)c4ccc([nH]4)c(-c4ccc(S(=O)(=O)[O-])cc4)c4nc(c(-c5ccc(S(=O)(=O)[O-])cc5)c5ccc2[nH]5)C=C4)C=C3)cc1
REMARK SMILES IDX 5 1 4 2 3 3 2 4 1 5 25 6 26 7 84 8 27 9 83 10 28 11 29 12
REMARK SMILES IDX 30 13 77 14 31 15 82 16 76 17 78 18 32 19 81 20 75 21 74 22
REMARK SMILES IDX 33 24 63 25 44 26 62 27 45 28 48 29 61 30 79 31 46 32 47 33
REMARK SMILES IDX 60 35 80 36 49 37 34 38 35 39 43 40 36 41 42 42 37 43 38 44
REMARK SMILES IDX 39 45 40 46 41 47 64 48 65 49 73 50 66 51 72 52 67 53 68 54
REMARK SMILES IDX 69 55 70 56 71 57 50 58 51 59 59 60 52 61 58 62 53 63 54 64
REMARK SMILES IDX 55 65 56 66 57 67 6 68 7 69 8 70 9 71 10 72 11 73 12 74
REMARK SMILES IDX 13 75 24 76 14 77 15 78 23 79 16 80 22 81 21 82 17 83 18 84
REMARK SMILES IDX 19 85 20 86
REMARK H PARENT 78 23 48 34
REMARK Flexibility Score: inf
ROOT
ATOM      1  C   UNL     1       4.198  -1.349  -1.356  1.00  0.00     0.202 C 
ENDROOT
BRANCH   1   2
ATOM      2  C   UNL     1       3.842  -1.452   0.129  1.00  0.00     0.261 C 
BRANCH   2   3
ATOM      3  O   UNL     1       2.470  -1.069   0.330  1.00  0.00    -0.460 OA
BRANCH   3   4
ATOM      4  C   UNL     1       1.973   0.061   0.884  1.00  0.00     0.338 C 
ATOM      5  O   UNL     1       0.753   0.163   1.004  1.00  0.00    -0.246 OA
BRANCH   4   6
ATOM      6  C   UNL     1       2.819   1.194   1.372  1.00  0.00     0.060 A 
ATOM      7  C   UNL     1       4.068   1.545   0.856  1.00  0.00     0.016 A 
ATOM      8  C   UNL     1       2.263   2.017   2.367  1.00  0.00     0.016 A 
ATOM      9  C   UNL     1       4.791   2.614   1.379  1.00  0.00     0.010 A 
ATOM     10  C   UNL     1       2.960   3.125   2.861  1.00  0.00     0.010 A 
ATOM     11  C   UNL     1       4.246   3.405   2.389  1.00  0.00    -0.014 A 
BRANCH  11  12
ATOM     12  C   UNL     1       5.088   4.456   2.995  1.00  0.00     0.031 A 
ATOM     13  C   UNL     1       5.714   4.196   4.333  1.00  0.00     0.074 A 
ATOM     14  C   UNL     1       5.374   5.569   2.295  1.00  0.00     0.049 A 
ATOM     15  N   UNL     1       6.532   4.946   5.022  1.00  0.00    -0.248 NA
ATOM     16  C   UNL     1       5.386   2.911   4.975  1.00  0.00     0.031 C 
ATOM     17  C   UNL     1       4.879   5.871   0.950  1.00  0.00     0.029 A 
ATOM     18  N   UNL     1       6.182   6.633   2.600  1.00  0.00    -0.354 N 
ATOM     19  C   UNL     1       6.802   4.234   6.185  1.00  0.00     0.074 A 
ATOM     20  C   UNL     1       6.056   2.998   6.114  1.00  0.00     0.031 C 
ATOM     21  C   UNL     1       5.430   7.020   0.528  1.00  0.00     0.029 A 
ATOM     22  C   UNL     1       6.278   7.558   1.587  1.00  0.00     0.049 A 
ATOM     23  H   UNL     1       6.650   6.726   3.461  1.00  0.00     0.167 HD
ATOM     24  C   UNL     1       7.596   4.586   7.223  1.00  0.00     0.031 A 
ATOM     25  C   UNL     1       6.974   8.710   1.528  1.00  0.00     0.031 A 
ATOM     26  C   UNL     1       8.314   5.828   7.289  1.00  0.00     0.049 A 
ATOM     27  C   UNL     1       7.805   9.105   2.718  1.00  0.00     0.074 A 
ATOM     28  C   UNL     1       9.094   6.325   8.316  1.00  0.00     0.029 A 
ATOM     29  N   UNL     1       8.336   6.772   6.272  1.00  0.00    -0.354 N 
ATOM     30  N   UNL     1       8.012   8.444   3.833  1.00  0.00    -0.248 NA
ATOM     31  C   UNL     1       8.490  10.402   2.647  1.00  0.00     0.031 C 
ATOM     32  C   UNL     1       9.561   7.588   7.932  1.00  0.00     0.029 A 
ATOM     33  C   UNL     1       9.107   7.856   6.649  1.00  0.00     0.049 A 
ATOM     34  H   UNL     1       7.871   6.683   5.409  1.00  0.00     0.167 HD
ATOM     35  C   UNL     1       8.863   9.238   4.592  1.00  0.00     0.074 A 
ATOM     36  C   UNL     1       9.144  10.420   3.801  1.00  0.00     0.031 C 
ATOM     37  C   UNL     1       9.366   9.014   5.832  1.00  0.00     0.031 A 
BRANCH  24  38
ATOM     38  C   UNL     1       7.649   3.633   8.384  1.00  0.00    -0.014 A 
ATOM     39  C   UNL     1       8.367   2.425   8.309  1.00  0.00     0.010 A 
ATOM     40  C   UNL     1       6.915   3.924   9.548  1.00  0.00     0.010 A 
ATOM     41  C   UNL     1       8.300   1.499   9.354  1.00  0.00     0.020 A 
ATOM     42  C   UNL     1       6.862   3.009  10.603  1.00  0.00     0.020 A 
ATOM     43  C   UNL     1       7.533   1.790  10.487  1.00  0.00     0.054 A 
BRANCH  43  44
ATOM     44  S   UNL     1       7.418   0.555  11.811  1.00  0.00     0.124 S 
ATOM     45  O   UNL     1       6.462  -0.397  11.250  1.00  0.00    -0.237 OA
ATOM     46  O   UNL     1       8.791   0.071  11.925  1.00  0.00    -0.237 OA
ATOM     47  O   UNL     1       6.934   1.322  12.957  1.00  0.00    -0.744 OA
ENDBRANCH  43  44
ENDBRANCH  24  38
BRANCH  25  48
ATOM     48  C   UNL     1       6.904   9.566   0.312  1.00  0.00    -0.014 A 
ATOM     49  C   UNL     1       8.018   9.709  -0.532  1.00  0.00     0.010 A 
ATOM     50  C   UNL     1       5.709  10.233  -0.018  1.00  0.00     0.010 A 
ATOM     51  C   UNL     1       7.943  10.510  -1.678  1.00  0.00     0.020 A 
ATOM     52  C   UNL     1       5.623  11.014  -1.174  1.00  0.00     0.020 A 
ATOM     53  C   UNL     1       6.745  11.157  -1.992  1.00  0.00     0.054 A 
BRANCH  53  54
ATOM     54  S   UNL     1       6.646  12.147  -3.511  1.00  0.00     0.124 S 
ATOM     55  O   UNL     1       7.328  13.375  -3.117  1.00  0.00    -0.237 OA
ATOM     56  O   UNL     1       7.353  11.314  -4.481  1.00  0.00    -0.237 OA
ATOM     57  O   UNL     1       5.209  12.273  -3.741  1.00  0.00    -0.744 OA
ENDBRANCH  53  54
ENDBRANCH  25  48
BRANCH  37  58
ATOM     58  C   UNL     1      10.289  10.059   6.389  1.00  0.00    -0.014 A 
ATOM     59  C   UNL     1       9.787  11.268   6.902  1.00  0.00     0.010 A 
ATOM     60  C   UNL     1      11.669   9.801   6.449  1.00  0.00     0.010 A 
ATOM     61  C   UNL     1      10.658  12.216   7.442  1.00  0.00     0.020 A 
ATOM     62  C   UNL     1      12.540  10.739   7.006  1.00  0.00     0.020 A 
ATOM     63  C   UNL     1      12.030  11.947   7.488  1.00  0.00     0.054 A 
BRANCH  63  64
ATOM     64  S   UNL     1      13.140  13.170   8.236  1.00  0.00     0.124 S 
ATOM     65  O   UNL     1      13.297  14.138   7.154  1.00  0.00    -0.237 OA
ATOM     66  O   UNL     1      12.379  13.636   9.392  1.00  0.00    -0.237 OA
ATOM     67  O   UNL     1      14.336  12.395   8.559  1.00  0.00    -0.744 OA
ENDBRANCH  63  64
ENDBRANCH  37  58
ENDBRANCH  11  12
ENDBRANCH   4   6
ENDBRANCH   3   4
ENDBRANCH   2   3
ENDBRANCH   1   2
BRANCH   1  68
ATOM     68  O   UNL     1       4.093  -0.027  -1.887  1.00  0.00    -0.374 OA
BRANCH  68  69
ATOM     69  C   UNL     1       2.792   0.349  -2.360  1.00  0.00     0.202 C 
BRANCH  69  70
ATOM     70  C   UNL     1       2.922   1.009  -3.737  1.00  0.00     0.261 C 
BRANCH  70  71
ATOM     71  O   UNL     1       3.430   0.034  -4.660  1.00  0.00    -0.460 OA
BRANCH  71  72
ATOM     72  C   UNL     1       4.790  -0.083  -4.666  1.00  0.00     0.343 C 
ATOM     73  O   UNL     1       5.574   0.796  -4.328  1.00  0.00    -0.246 OA
BRANCH  72  74
ATOM     74  C   UNL     1       5.215  -1.435  -4.931  1.00  0.00     0.124 A 
ATOM     75  C   UNL     1       6.315  -2.088  -4.352  1.00  0.00     0.153 A 
ATOM     76  C   UNL     1       4.632  -2.385  -5.744  1.00  0.00     0.170 A 
ATOM     77  N   UNL     1       6.398  -3.373  -4.696  1.00  0.00    -0.174 NA
ATOM     78  N   UNL     1       5.376  -3.563  -5.565  1.00  0.00    -0.209 N 
ATOM     79  N   UNL     1       3.565  -2.328  -6.600  1.00  0.00    -0.236 NA
ATOM     80  C   UNL     1       5.028  -4.729  -6.240  1.00  0.00     0.150 A 
ATOM     81  C   UNL     1       3.281  -3.420  -7.238  1.00  0.00     0.116 A 
ATOM     82  C   UNL     1       3.993  -4.714  -7.101  1.00  0.00     0.053 A 
BRANCH  80  83
ATOM     83  C   UNL     1       5.836  -5.933  -5.944  1.00  0.00     0.433 C 
ATOM     84  F   UNL     1       7.158  -5.771  -6.192  1.00  0.00    -0.165 F 
ATOM     85  F   UNL     1       5.699  -6.348  -4.659  1.00  0.00    -0.165 F 
ATOM     86  F   UNL     1       5.442  -6.988  -6.715  1.00  0.00    -0.165 F 
ENDBRANCH  80  83
ENDBRANCH  72  74
ENDBRANCH  71  72
ENDBRANCH  70  71
ENDBRANCH  69  70
ENDBRANCH  68  69
ENDBRANCH   1  68
TORSDOF 18
