REMARK SMILES COc1cc(Br)ccc1[C@H]([NH3+])C(=O)OCCOCCOC(=O)c1ccc(-c2c3nc(c(-c4ccc(S(=O)(=O)[O-])cc4)c4ccc([nH]4)c(-c4ccc(S(=O)(=O)[O-])cc4)c4nc(c(-c5ccc(S(=O)(=O)[O-])cc5)c5ccc2[nH]5)C=C4)C=C3)cc1
REMARK SMILES IDX 18 1 17 2 16 3 15 4 14 5 12 6 13 7 10 8 9 9 3 10 4 11 5 12
REMARK SMILES IDX 8 13 6 14 7 15 2 16 1 17 11 18 19 22 20 23 21 24 22 25 23 26
REMARK SMILES IDX 24 27 82 28 25 29 81 30 26 31 27 32 28 33 75 34 29 35 80 36
REMARK SMILES IDX 74 37 76 38 30 39 79 40 73 41 72 42 31 44 61 45 42 46 60 47
REMARK SMILES IDX 43 48 46 49 59 50 77 51 44 52 45 53 58 55 78 56 47 57 32 58
REMARK SMILES IDX 33 59 41 60 34 61 40 62 35 63 36 64 37 65 38 66 39 67 62 68
REMARK SMILES IDX 63 69 71 70 64 71 70 72 65 73 66 74 67 75 68 76 69 77 48 78
REMARK SMILES IDX 49 79 57 80 50 81 56 82 51 83 52 84 53 85 54 86 55 87
REMARK H PARENT 11 19 11 20 11 21 76 43 46 54
REMARK Flexibility Score: inf
ROOT
ATOM      1  C   UNL     1      -0.414   1.041  -5.520  1.00  0.00     0.202 C 
ENDROOT
BRANCH   1   2
ATOM      2  O   UNL     1      -1.418   1.328  -6.493  1.00  0.00    -0.374 OA
BRANCH   2   3
ATOM      3  C   UNL     1      -1.924   2.662  -6.538  1.00  0.00     0.202 C 
BRANCH   3   4
ATOM      4  C   UNL     1      -2.899   3.069  -5.430  1.00  0.00     0.261 C 
BRANCH   4   5
ATOM      5  O   UNL     1      -2.265   3.074  -4.141  1.00  0.00    -0.459 OA
BRANCH   5   6
ATOM      6  C   UNL     1      -2.724   2.140  -3.258  1.00  0.00     0.369 C 
ATOM      7  O   UNL     1      -3.676   1.390  -3.461  1.00  0.00    -0.245 OA
BRANCH   6   8
ATOM      8  C   UNL     1      -1.944   2.141  -1.927  1.00  0.00     0.326 C 
BRANCH   8   9
ATOM      9  C   UNL     1      -2.550   3.152  -0.968  1.00  0.00     0.063 A 
ATOM     10  C   UNL     1      -1.989   4.398  -0.638  1.00  0.00     0.129 A 
ATOM     11  C   UNL     1      -2.706   5.309   0.149  1.00  0.00     0.062 A 
ATOM     12  C   UNL     1      -3.965   4.968   0.641  1.00  0.00     0.021 A 
ATOM     13  C   UNL     1      -3.821   2.831  -0.442  1.00  0.00     0.015 A 
ATOM     14  Br  UNL     1      -4.935   6.209   1.685  1.00  0.00    -0.051 Br
ATOM     15  C   UNL     1      -4.523   3.729   0.357  1.00  0.00     0.016 A 
BRANCH  10  16
ATOM     16  O   UNL     1      -0.773   4.741  -1.173  1.00  0.00    -0.496 OA
ATOM     17  C   UNL     1       0.152   5.241  -0.204  1.00  0.00     0.278 C 
ENDBRANCH  10  16
ENDBRANCH   8   9
BRANCH   8  18
ATOM     18  N   UNL     1      -0.478   2.230  -2.125  1.00  0.00    -0.342 N 
ATOM     19  H   UNL     1      -0.249   3.113  -2.582  1.00  0.00     0.345 HD
ATOM     20  H   UNL     1      -0.166   1.454  -2.708  1.00  0.00     0.345 HD
ATOM     21  H   UNL     1      -0.010   2.185  -1.220  1.00  0.00     0.345 HD
ENDBRANCH   8  18
ENDBRANCH   6   8
ENDBRANCH   5   6
ENDBRANCH   4   5
ENDBRANCH   3   4
ENDBRANCH   2   3
ENDBRANCH   1   2
BRANCH   1  22
ATOM     22  C   UNL     1       1.011   1.528  -5.812  1.00  0.00     0.261 C 
BRANCH  22  23
ATOM     23  O   UNL     1       1.114   2.960  -5.897  1.00  0.00    -0.460 OA
BRANCH  23  24
ATOM     24  C   UNL     1       1.287   3.439  -7.151  1.00  0.00     0.338 C 
ATOM     25  O   UNL     1       1.412   2.787  -8.180  1.00  0.00    -0.246 OA
BRANCH  24  26
ATOM     26  C   UNL     1       1.134   4.905  -7.164  1.00  0.00     0.060 A 
ATOM     27  C   UNL     1       0.250   5.457  -8.101  1.00  0.00     0.016 A 
ATOM     28  C   UNL     1       1.901   5.731  -6.339  1.00  0.00     0.016 A 
ATOM     29  C   UNL     1       0.173   6.839  -8.261  1.00  0.00     0.010 A 
ATOM     30  C   UNL     1       1.830   7.118  -6.508  1.00  0.00     0.010 A 
ATOM     31  C   UNL     1       0.997   7.675  -7.497  1.00  0.00    -0.014 A 
BRANCH  31  32
ATOM     32  C   UNL     1       1.122   9.109  -7.851  1.00  0.00     0.031 A 
ATOM     33  C   UNL     1       2.301   9.547  -8.679  1.00  0.00     0.074 A 
ATOM     34  C   UNL     1       0.197  10.004  -7.462  1.00  0.00     0.049 A 
ATOM     35  N   UNL     1       2.653  10.751  -9.047  1.00  0.00    -0.248 NA
ATOM     36  C   UNL     1       3.203   8.483  -9.153  1.00  0.00     0.031 C 
ATOM     37  C   UNL     1      -1.018   9.694  -6.709  1.00  0.00     0.029 A 
ATOM     38  N   UNL     1       0.143  11.363  -7.644  1.00  0.00    -0.354 N 
ATOM     39  C   UNL     1       3.822  10.593  -9.783  1.00  0.00     0.074 A 
ATOM     40  C   UNL     1       4.132   9.180  -9.791  1.00  0.00     0.031 C 
ATOM     41  C   UNL     1      -1.692  10.835  -6.482  1.00  0.00     0.029 A 
ATOM     42  C   UNL     1      -0.939  11.957  -7.040  1.00  0.00     0.049 A 
ATOM     43  H   UNL     1       0.816  11.865  -8.159  1.00  0.00     0.167 HD
ATOM     44  C   UNL     1       4.571  11.539 -10.398  1.00  0.00     0.031 A 
ATOM     45  C   UNL     1      -1.269  13.259  -6.928  1.00  0.00     0.031 A 
ATOM     46  C   UNL     1       4.265  12.944 -10.380  1.00  0.00     0.049 A 
ATOM     47  C   UNL     1      -0.380  14.302  -7.555  1.00  0.00     0.074 A 
ATOM     48  C   UNL     1       4.960  13.984 -10.973  1.00  0.00     0.029 A 
ATOM     49  N   UNL     1       3.176  13.507  -9.732  1.00  0.00    -0.354 N 
ATOM     50  N   UNL     1       0.722  14.138  -8.248  1.00  0.00    -0.248 NA
ATOM     51  C   UNL     1      -0.783  15.706  -7.389  1.00  0.00     0.031 C 
ATOM     52  C   UNL     1       4.318  15.181 -10.641  1.00  0.00     0.029 A 
ATOM     53  C   UNL     1       3.190  14.882  -9.893  1.00  0.00     0.049 A 
ATOM     54  H   UNL     1       2.494  13.004  -9.231  1.00  0.00     0.167 HD
ATOM     55  C   UNL     1       1.124  15.414  -8.630  1.00  0.00     0.074 A 
ATOM     56  C   UNL     1       0.145  16.339  -8.095  1.00  0.00     0.031 C 
ATOM     57  C   UNL     1       2.202  15.787  -9.363  1.00  0.00     0.031 A 
BRANCH  44  58
ATOM     58  C   UNL     1       5.816  11.086 -11.112  1.00  0.00    -0.014 A 
ATOM     59  C   UNL     1       5.745  10.374 -12.324  1.00  0.00     0.010 A 
ATOM     60  C   UNL     1       7.077  11.407 -10.579  1.00  0.00     0.010 A 
ATOM     61  C   UNL     1       6.914   9.961 -12.970  1.00  0.00     0.020 A 
ATOM     62  C   UNL     1       8.248  11.018 -11.236  1.00  0.00     0.020 A 
ATOM     63  C   UNL     1       8.158  10.283 -12.419  1.00  0.00     0.054 A 
BRANCH  63  64
ATOM     64  S   UNL     1       9.660   9.754 -13.289  1.00  0.00     0.124 S 
ATOM     65  O   UNL     1       9.674   8.318 -13.018  1.00  0.00    -0.237 OA
ATOM     66  O   UNL     1       9.378  10.129 -14.673  1.00  0.00    -0.237 OA
ATOM     67  O   UNL     1      10.723  10.519 -12.643  1.00  0.00    -0.744 OA
ENDBRANCH  63  64
ENDBRANCH  44  58
BRANCH  45  68
ATOM     68  C   UNL     1      -2.486  13.655  -6.168  1.00  0.00    -0.014 A 
ATOM     69  C   UNL     1      -3.605  14.190  -6.830  1.00  0.00     0.010 A 
ATOM     70  C   UNL     1      -2.529  13.500  -4.770  1.00  0.00     0.010 A 
ATOM     71  C   UNL     1      -4.736  14.579  -6.107  1.00  0.00     0.020 A 
ATOM     72  C   UNL     1      -3.668  13.863  -4.046  1.00  0.00     0.020 A 
ATOM     73  C   UNL     1      -4.761  14.412  -4.719  1.00  0.00     0.054 A 
BRANCH  73  74
ATOM     74  S   UNL     1      -6.258  14.880  -3.805  1.00  0.00     0.124 S 
ATOM     75  O   UNL     1      -6.175  16.337  -3.816  1.00  0.00    -0.237 OA
ATOM     76  O   UNL     1      -7.321  14.300  -4.622  1.00  0.00    -0.237 OA
ATOM     77  O   UNL     1      -6.071  14.251  -2.500  1.00  0.00    -0.744 OA
ENDBRANCH  73  74
ENDBRANCH  45  68
BRANCH  57  78
ATOM     78  C   UNL     1       2.361  17.250  -9.680  1.00  0.00    -0.014 A 
ATOM     79  C   UNL     1       2.772  18.172  -8.701  1.00  0.00     0.010 A 
ATOM     80  C   UNL     1       2.165  17.694 -11.001  1.00  0.00     0.010 A 
ATOM     81  C   UNL     1       2.960  19.517  -9.034  1.00  0.00     0.020 A 
ATOM     82  C   UNL     1       2.377  19.031 -11.343  1.00  0.00     0.020 A 
ATOM     83  C   UNL     1       2.763  19.937 -10.354  1.00  0.00     0.054 A 
BRANCH  83  84
ATOM     84  S   UNL     1       3.068  21.676 -10.773  1.00  0.00     0.124 S 
ATOM     85  O   UNL     1       1.901  22.337 -10.195  1.00  0.00    -0.237 OA
ATOM     86  O   UNL     1       4.339  21.949 -10.107  1.00  0.00    -0.237 OA
ATOM     87  O   UNL     1       3.124  21.675 -12.233  1.00  0.00    -0.744 OA
ENDBRANCH  83  84
ENDBRANCH  57  78
ENDBRANCH  31  32
ENDBRANCH  24  26
ENDBRANCH  23  24
ENDBRANCH  22  23
ENDBRANCH   1  22
TORSDOF 20
