REMARK SMILES O=C(OCCOCCOC(=O)[C@H]1CC=CC[C@@H]1c1nc2cc(Cl)ccc2o1)c1ccc(-c2c3nc(c(-c4ccc(S(=O)(=O)[O-])cc4)c4ccc([nH]4)c(-c4ccc(S(=O)(=O)[O-])cc4)c4nc(c(-c5ccc(S(=O)(=O)[O-])cc5)c5ccc2[nH]5)C=C4)C=C3)cc1
REMARK SMILES IDX 5 1 4 2 3 3 2 4 1 5 28 6 29 7 87 8 30 9 86 10 31 11 32 12
REMARK SMILES IDX 33 13 80 14 34 15 85 16 79 17 81 18 35 19 84 20 78 21 77 22
REMARK SMILES IDX 36 24 66 25 47 26 65 27 48 28 51 29 64 30 82 31 49 32 50 33
REMARK SMILES IDX 63 35 83 36 52 37 37 38 38 39 46 40 39 41 45 42 40 43 41 44
REMARK SMILES IDX 42 45 43 46 44 47 67 48 68 49 76 50 69 51 75 52 70 53 71 54
REMARK SMILES IDX 72 55 73 56 74 57 53 58 54 59 62 60 55 61 61 62 56 63 57 64
REMARK SMILES IDX 58 65 59 66 60 67 6 68 7 69 8 70 9 71 10 72 11 73 12 74
REMARK SMILES IDX 13 75 17 76 14 77 16 78 15 79 18 80 19 81 27 82 20 83 26 84
REMARK SMILES IDX 21 85 25 86 22 87 24 88 23 89
REMARK H PARENT 81 23 51 34
REMARK Flexibility Score: inf
ROOT
ATOM      1  C   UNL     1       3.967   0.688   1.295  1.00  0.00     0.202 C 
ENDROOT
BRANCH   1   2
ATOM      2  C   UNL     1       4.121   1.506   0.014  1.00  0.00     0.261 C 
BRANCH   2   3
ATOM      3  O   UNL     1       3.193   1.216  -1.067  1.00  0.00    -0.460 OA
BRANCH   3   4
ATOM      4  C   UNL     1       3.030   0.081  -1.812  1.00  0.00     0.338 C 
ATOM      5  O   UNL     1       2.159   0.048  -2.678  1.00  0.00    -0.246 OA
BRANCH   4   6
ATOM      6  C   UNL     1       3.785  -1.167  -1.500  1.00  0.00     0.060 A 
ATOM      7  C   UNL     1       3.077  -2.384  -1.418  1.00  0.00     0.016 A 
ATOM      8  C   UNL     1       5.107  -1.124  -1.082  1.00  0.00     0.016 A 
ATOM      9  C   UNL     1       3.622  -3.483  -0.728  1.00  0.00     0.010 A 
ATOM     10  C   UNL     1       5.587  -2.164  -0.292  1.00  0.00     0.010 A 
ATOM     11  C   UNL     1       4.842  -3.342  -0.061  1.00  0.00    -0.014 A 
BRANCH  11  12
ATOM     12  C   UNL     1       5.620  -4.470   0.511  1.00  0.00     0.031 A 
ATOM     13  C   UNL     1       6.366  -5.073  -0.600  1.00  0.00     0.074 A 
ATOM     14  C   UNL     1       5.733  -5.051   1.735  1.00  0.00     0.049 A 
ATOM     15  N   UNL     1       5.879  -6.076  -1.254  1.00  0.00    -0.248 NA
ATOM     16  C   UNL     1       7.472  -4.380  -1.270  1.00  0.00     0.031 C 
ATOM     17  C   UNL     1       4.859  -4.933   2.896  1.00  0.00     0.029 A 
ATOM     18  N   UNL     1       6.729  -5.898   2.213  1.00  0.00    -0.354 N 
ATOM     19  C   UNL     1       6.787  -6.305  -2.256  1.00  0.00     0.074 A 
ATOM     20  C   UNL     1       7.531  -5.081  -2.405  1.00  0.00     0.031 C 
ATOM     21  C   UNL     1       5.416  -5.563   3.957  1.00  0.00     0.029 A 
ATOM     22  C   UNL     1       6.750  -6.052   3.609  1.00  0.00     0.049 A 
ATOM     23  H   UNL     1       7.368  -6.354   1.619  1.00  0.00     0.167 HD
ATOM     24  C   UNL     1       7.108  -7.582  -2.577  1.00  0.00     0.031 A 
ATOM     25  C   UNL     1       7.393  -6.947   4.419  1.00  0.00     0.031 A 
ATOM     26  C   UNL     1       6.164  -8.522  -2.019  1.00  0.00     0.049 A 
ATOM     27  C   UNL     1       7.430  -8.197   3.639  1.00  0.00     0.074 A 
ATOM     28  C   UNL     1       4.824  -8.790  -2.208  1.00  0.00     0.029 A 
ATOM     29  N   UNL     1       6.509  -9.015  -0.783  1.00  0.00    -0.354 N 
ATOM     30  N   UNL     1       6.381  -8.944   3.468  1.00  0.00    -0.248 NA
ATOM     31  C   UNL     1       8.548  -8.456   2.738  1.00  0.00     0.031 C 
ATOM     32  C   UNL     1       4.336  -9.269  -0.961  1.00  0.00     0.029 A 
ATOM     33  C   UNL     1       5.395  -9.355  -0.059  1.00  0.00     0.049 A 
ATOM     34  H   UNL     1       7.434  -9.111  -0.460  1.00  0.00     0.167 HD
ATOM     35  C   UNL     1       6.508  -9.372   2.163  1.00  0.00     0.074 A 
ATOM     36  C   UNL     1       7.918  -9.206   1.832  1.00  0.00     0.031 C 
ATOM     37  C   UNL     1       5.405  -9.519   1.383  1.00  0.00     0.031 A 
BRANCH  24  38
ATOM     38  C   UNL     1       8.503  -7.967  -2.970  1.00  0.00    -0.014 A 
ATOM     39  C   UNL     1       9.627  -7.147  -2.732  1.00  0.00     0.010 A 
ATOM     40  C   UNL     1       8.748  -9.277  -3.409  1.00  0.00     0.010 A 
ATOM     41  C   UNL     1      10.922  -7.562  -3.011  1.00  0.00     0.020 A 
ATOM     42  C   UNL     1      10.053  -9.725  -3.647  1.00  0.00     0.020 A 
ATOM     43  C   UNL     1      11.126  -8.851  -3.477  1.00  0.00     0.054 A 
BRANCH  43  44
ATOM     44  S   UNL     1      12.822  -9.347  -3.834  1.00  0.00     0.124 S 
ATOM     45  O   UNL     1      13.145  -8.496  -4.977  1.00  0.00    -0.237 OA
ATOM     46  O   UNL     1      13.512  -9.018  -2.590  1.00  0.00    -0.237 OA
ATOM     47  O   UNL     1      12.706 -10.772  -4.128  1.00  0.00    -0.744 OA
ENDBRANCH  43  44
ENDBRANCH  24  38
BRANCH  25  48
ATOM     48  C   UNL     1       8.549  -6.663   5.341  1.00  0.00    -0.014 A 
ATOM     49  C   UNL     1       9.170  -5.406   5.434  1.00  0.00     0.010 A 
ATOM     50  C   UNL     1       9.148  -7.731   6.057  1.00  0.00     0.010 A 
ATOM     51  C   UNL     1      10.400  -5.250   6.104  1.00  0.00     0.020 A 
ATOM     52  C   UNL     1      10.379  -7.585   6.722  1.00  0.00     0.020 A 
ATOM     53  C   UNL     1      11.021  -6.350   6.702  1.00  0.00     0.054 A 
BRANCH  53  54
ATOM     54  S   UNL     1      12.705  -6.160   7.370  1.00  0.00     0.124 S 
ATOM     55  O   UNL     1      13.489  -5.929   6.160  1.00  0.00    -0.237 OA
ATOM     56  O   UNL     1      12.569  -5.009   8.259  1.00  0.00    -0.237 OA
ATOM     57  O   UNL     1      12.960  -7.432   8.043  1.00  0.00    -0.744 OA
ENDBRANCH  53  54
ENDBRANCH  25  48
BRANCH  37  58
ATOM     58  C   UNL     1       4.071  -9.710   2.067  1.00  0.00    -0.014 A 
ATOM     59  C   UNL     1       3.348 -10.864   1.721  1.00  0.00     0.010 A 
ATOM     60  C   UNL     1       3.456  -8.764   2.910  1.00  0.00     0.010 A 
ATOM     61  C   UNL     1       2.032 -11.042   2.141  1.00  0.00     0.020 A 
ATOM     62  C   UNL     1       2.141  -8.951   3.365  1.00  0.00     0.020 A 
ATOM     63  C   UNL     1       1.429 -10.076   2.947  1.00  0.00     0.054 A 
BRANCH  63  64
ATOM     64  S   UNL     1      -0.309 -10.316   3.402  1.00  0.00     0.124 S 
ATOM     65  O   UNL     1      -0.992 -10.105   2.127  1.00  0.00    -0.237 OA
ATOM     66  O   UNL     1      -0.326 -11.691   3.898  1.00  0.00    -0.237 OA
ATOM     67  O   UNL     1      -0.556  -9.291   4.414  1.00  0.00    -0.744 OA
ENDBRANCH  63  64
ENDBRANCH  37  58
ENDBRANCH  11  12
ENDBRANCH   4   6
ENDBRANCH   3   4
ENDBRANCH   2   3
ENDBRANCH   1   2
BRANCH   1  68
ATOM     68  O   UNL     1       3.377  -0.556   1.033  1.00  0.00    -0.374 OA
BRANCH  68  69
ATOM     69  C   UNL     1       2.085  -0.849   1.520  1.00  0.00     0.202 C 
BRANCH  69  70
ATOM     70  C   UNL     1       2.201  -2.150   2.308  1.00  0.00     0.261 C 
BRANCH  70  71
ATOM     71  O   UNL     1       2.909  -1.853   3.523  1.00  0.00    -0.463 OA
BRANCH  71  72
ATOM     72  C   UNL     1       4.264  -1.723   3.443  1.00  0.00     0.310 C 
ATOM     73  O   UNL     1       4.966  -2.079   2.520  1.00  0.00    -0.252 OA
BRANCH  72  74
ATOM     74  C   UNL     1       4.837  -0.919   4.588  1.00  0.00     0.115 C 
ATOM     75  C   UNL     1       3.863  -0.871   5.770  1.00  0.00     0.043 C 
ATOM     76  C   UNL     1       6.202  -1.540   4.936  1.00  0.00     0.094 C 
ATOM     77  C   UNL     1       3.768  -2.195   6.458  1.00  0.00    -0.030 C 
ATOM     78  C   UNL     1       6.035  -2.897   5.642  1.00  0.00     0.041 C 
ATOM     79  C   UNL     1       4.738  -3.114   6.372  1.00  0.00    -0.030 C 
BRANCH  76  80
ATOM     80  C   UNL     1       7.071  -0.701   5.795  1.00  0.00     0.199 A 
ATOM     81  N   UNL     1       8.258  -1.045   6.255  1.00  0.00    -0.213 NA
ATOM     82  O   UNL     1       6.521   0.402   6.380  1.00  0.00    -0.440 OA
ATOM     83  C   UNL     1       8.398  -0.268   7.364  1.00  0.00     0.111 A 
ATOM     84  C   UNL     1       7.352   0.637   7.429  1.00  0.00     0.154 A 
ATOM     85  C   UNL     1       9.345  -0.307   8.388  1.00  0.00     0.053 A 
ATOM     86  C   UNL     1       7.159   1.560   8.440  1.00  0.00     0.051 A 
ATOM     87  C   UNL     1       9.163   0.586   9.448  1.00  0.00     0.043 A 
ATOM     88  C   UNL     1       8.100   1.504   9.473  1.00  0.00     0.024 A 
ATOM     89  Cl  UNL     1      10.257   0.546  10.777  1.00  0.00    -0.084 Cl
ENDBRANCH  76  80
ENDBRANCH  72  74
ENDBRANCH  71  72
ENDBRANCH  70  71
ENDBRANCH  69  70
ENDBRANCH  68  69
ENDBRANCH   1  68
TORSDOF 18
