REMARK SMILES Cn1cc(C(=O)OCCOCCOC(=O)c2ccc(-c3c4nc(c(-c5ccc(S(=O)(=O)[O-])cc5)c5ccc([nH]5)c(-c5ccc(S(=O)(=O)[O-])cc5)c5nc(c(-c6ccc(S(=O)(=O)[O-])cc6)c6ccc3[nH]6)C=C5)C=C4)cc2)c(C(=O)Nc2ccc(-c3nc4cc(Cl)ccc4o3)cc2)n1
REMARK SMILES IDX 10 1 9 2 8 3 7 4 5 5 6 6 4 7 1 8 2 9 3 10 96 11 76 12 77 13
REMARK SMILES IDX 78 14 79 15 80 17 81 18 95 19 82 20 94 21 83 22 84 23 85 24
REMARK SMILES IDX 93 25 86 26 92 27 87 28 91 29 88 30 90 31 89 32 11 33 12 34
REMARK SMILES IDX 13 35 14 36 15 37 16 38 17 39 75 40 18 41 74 42 19 43 20 44
REMARK SMILES IDX 21 45 68 46 22 47 73 48 67 49 69 50 23 51 72 52 66 53 65 54
REMARK SMILES IDX 24 56 54 57 35 58 53 59 36 60 39 61 52 62 70 63 37 64 38 65
REMARK SMILES IDX 51 67 71 68 40 69 25 70 26 71 34 72 27 73 33 74 28 75 29 76
REMARK SMILES IDX 30 77 31 78 32 79 55 80 56 81 64 82 57 83 63 84 58 85 59 86
REMARK SMILES IDX 60 87 61 88 62 89 41 90 42 91 50 92 43 93 49 94 44 95 45 96
REMARK SMILES IDX 46 97 47 98 48 99
REMARK H PARENT 79 16 69 55 39 66
REMARK Flexibility Score: inf
ROOT
ATOM      1  O   UNL     1       3.530  -3.853  -2.429  1.00  0.00    -0.374 OA
ENDROOT
BRANCH   1   2
ATOM      2  C   UNL     1       2.413  -4.345  -1.690  1.00  0.00     0.202 C 
BRANCH   2   3
ATOM      3  C   UNL     1       2.417  -3.909  -0.234  1.00  0.00     0.261 C 
BRANCH   3   4
ATOM      4  O   UNL     1       1.920  -2.575  -0.222  1.00  0.00    -0.460 OA
BRANCH   4   5
ATOM      5  C   UNL     1       1.907  -1.923   0.966  1.00  0.00     0.342 C 
ATOM      6  O   UNL     1       2.377  -2.318   2.022  1.00  0.00    -0.246 OA
BRANCH   5   7
ATOM      7  C   UNL     1       1.126  -0.733   0.794  1.00  0.00     0.111 A 
ATOM      8  C   UNL     1      -1.975   0.845  -0.100  1.00  0.00     0.173 C 
ATOM      9  N   UNL     1      -0.641   0.441   0.275  1.00  0.00    -0.274 N 
ATOM     10  C   UNL     1      -0.212  -0.824   0.447  1.00  0.00     0.125 A 
ATOM     11  N   UNL     1       0.317   1.354   0.466  1.00  0.00    -0.167 NA
ATOM     12  C   UNL     1       1.431   0.660   0.828  1.00  0.00     0.165 A 
BRANCH  12  13
ATOM     13  C   UNL     1       2.633   1.455   1.214  1.00  0.00     0.277 C 
ATOM     14  O   UNL     1       2.569   2.688   1.308  1.00  0.00    -0.267 OA
ATOM     15  N   UNL     1       3.816   0.912   1.669  1.00  0.00    -0.321 N 
ATOM     16  H   UNL     1       4.210   1.420   2.414  1.00  0.00     0.170 HD
BRANCH  15  17
ATOM     17  C   UNL     1       4.580  -0.200   1.307  1.00  0.00     0.041 A 
ATOM     18  C   UNL     1       5.454  -0.732   2.265  1.00  0.00     0.027 A 
ATOM     19  C   UNL     1       4.557  -0.750   0.035  1.00  0.00     0.027 A 
ATOM     20  C   UNL     1       6.128  -1.938   2.028  1.00  0.00     0.016 A 
ATOM     21  C   UNL     1       5.291  -1.914  -0.221  1.00  0.00     0.016 A 
ATOM     22  C   UNL     1       5.996  -2.572   0.794  1.00  0.00     0.037 A 
BRANCH  22  23
ATOM     23  C   UNL     1       6.389  -3.958   0.561  1.00  0.00     0.227 A 
ATOM     24  N   UNL     1       6.929  -4.495  -0.519  1.00  0.00    -0.209 NA
ATOM     25  O   UNL     1       5.793  -4.863   1.409  1.00  0.00    -0.436 OA
ATOM     26  C   UNL     1       6.600  -5.826  -0.422  1.00  0.00     0.111 A 
ATOM     27  C   UNL     1       5.891  -6.052   0.747  1.00  0.00     0.155 A 
ATOM     28  C   UNL     1       6.821  -6.893  -1.302  1.00  0.00     0.053 A 
ATOM     29  C   UNL     1       5.344  -7.276   1.118  1.00  0.00     0.051 A 
ATOM     30  C   UNL     1       6.288  -8.143  -0.957  1.00  0.00     0.043 A 
ATOM     31  C   UNL     1       5.550  -8.331   0.219  1.00  0.00     0.024 A 
ATOM     32  Cl  UNL     1       6.536  -9.478  -2.019  1.00  0.00    -0.084 Cl
ENDBRANCH  22  23
ENDBRANCH  15  17
ENDBRANCH  12  13
ENDBRANCH   5   7
ENDBRANCH   4   5
ENDBRANCH   3   4
ENDBRANCH   2   3
ENDBRANCH   1   2
BRANCH   1  33
ATOM     33  C   UNL     1       3.423  -2.596  -3.100  1.00  0.00     0.202 C 
BRANCH  33  34
ATOM     34  C   UNL     1       2.304  -2.411  -4.138  1.00  0.00     0.261 C 
BRANCH  34  35
ATOM     35  O   UNL     1       1.815  -3.627  -4.695  1.00  0.00    -0.460 OA
BRANCH  35  36
ATOM     36  C   UNL     1       2.773  -4.442  -5.199  1.00  0.00     0.338 C 
ATOM     37  O   UNL     1       3.816  -4.102  -5.725  1.00  0.00    -0.246 OA
BRANCH  36  38
ATOM     38  C   UNL     1       2.460  -5.782  -4.659  1.00  0.00     0.060 A 
ATOM     39  C   UNL     1       3.513  -6.510  -4.096  1.00  0.00     0.016 A 
ATOM     40  C   UNL     1       1.134  -6.224  -4.531  1.00  0.00     0.016 A 
ATOM     41  C   UNL     1       3.242  -7.689  -3.412  1.00  0.00     0.010 A 
ATOM     42  C   UNL     1       0.865  -7.414  -3.858  1.00  0.00     0.010 A 
ATOM     43  C   UNL     1       1.925  -8.163  -3.325  1.00  0.00    -0.014 A 
BRANCH  43  44
ATOM     44  C   UNL     1       1.725  -9.593  -3.018  1.00  0.00     0.031 A 
ATOM     45  C   UNL     1       1.853 -10.536  -4.181  1.00  0.00     0.074 A 
ATOM     46  C   UNL     1       1.521 -10.051  -1.771  1.00  0.00     0.049 A 
ATOM     47  N   UNL     1       1.742 -11.835  -4.211  1.00  0.00    -0.248 NA
ATOM     48  C   UNL     1       2.172  -9.925  -5.486  1.00  0.00     0.031 C 
ATOM     49  C   UNL     1       1.477  -9.242  -0.554  1.00  0.00     0.029 A 
ATOM     50  N   UNL     1       1.327 -11.335  -1.329  1.00  0.00    -0.354 N 
ATOM     51  C   UNL     1       1.998 -12.194  -5.527  1.00  0.00     0.074 A 
ATOM     52  C   UNL     1       2.250 -10.983  -6.272  1.00  0.00     0.031 C 
ATOM     53  C   UNL     1       1.276 -10.056   0.501  1.00  0.00     0.029 A 
ATOM     54  C   UNL     1       1.143 -11.434   0.029  1.00  0.00     0.049 A 
ATOM     55  H   UNL     1       1.321 -12.115  -1.930  1.00  0.00     0.167 HD
ATOM     56  C   UNL     1       2.017 -13.425  -6.080  1.00  0.00     0.031 A 
ATOM     57  C   UNL     1       0.878 -12.518   0.787  1.00  0.00     0.031 A 
ATOM     58  C   UNL     1       1.700 -14.622  -5.365  1.00  0.00     0.049 A 
ATOM     59  C   UNL     1       0.744 -13.866   0.117  1.00  0.00     0.074 A 
ATOM     60  C   UNL     1       1.597 -15.912  -5.848  1.00  0.00     0.029 A 
ATOM     61  N   UNL     1       1.415 -14.668  -4.010  1.00  0.00    -0.354 N 
ATOM     62  N   UNL     1       0.952 -14.190  -1.138  1.00  0.00    -0.248 NA
ATOM     63  C   UNL     1       0.322 -14.991   0.965  1.00  0.00     0.031 C 
ATOM     64  C   UNL     1       1.200 -16.734  -4.789  1.00  0.00     0.029 A 
ATOM     65  C   UNL     1       1.106 -15.961  -3.640  1.00  0.00     0.049 A 
ATOM     66  H   UNL     1       1.430 -13.893  -3.402  1.00  0.00     0.167 HD
ATOM     67  C   UNL     1       0.699 -15.556  -1.225  1.00  0.00     0.074 A 
ATOM     68  C   UNL     1       0.341 -16.001   0.106  1.00  0.00     0.031 C 
ATOM     69  C   UNL     1       0.751 -16.372  -2.307  1.00  0.00     0.031 A 
BRANCH  56  70
ATOM     70  C   UNL     1       2.319 -13.493  -7.546  1.00  0.00    -0.014 A 
ATOM     71  C   UNL     1       3.634 -13.343  -8.019  1.00  0.00     0.010 A 
ATOM     72  C   UNL     1       1.264 -13.652  -8.461  1.00  0.00     0.010 A 
ATOM     73  C   UNL     1       3.886 -13.320  -9.392  1.00  0.00     0.020 A 
ATOM     74  C   UNL     1       1.516 -13.647  -9.833  1.00  0.00     0.020 A 
ATOM     75  C   UNL     1       2.824 -13.465 -10.290  1.00  0.00     0.054 A 
BRANCH  75  76
ATOM     76  S   UNL     1       3.174 -13.433 -12.068  1.00  0.00     0.124 S 
ATOM     77  O   UNL     1       3.409 -12.010 -12.302  1.00  0.00    -0.237 OA
ATOM     78  O   UNL     1       4.350 -14.291 -12.180  1.00  0.00    -0.237 OA
ATOM     79  O   UNL     1       1.955 -13.970 -12.669  1.00  0.00    -0.744 OA
ENDBRANCH  75  76
ENDBRANCH  56  70
BRANCH  57  80
ATOM     80  C   UNL     1       0.663 -12.387   2.255  1.00  0.00    -0.014 A 
ATOM     81  C   UNL     1       1.565 -12.963   3.168  1.00  0.00     0.010 A 
ATOM     82  C   UNL     1      -0.482 -11.735   2.748  1.00  0.00     0.010 A 
ATOM     83  C   UNL     1       1.313 -12.911   4.543  1.00  0.00     0.020 A 
ATOM     84  C   UNL     1      -0.724 -11.659   4.123  1.00  0.00     0.020 A 
ATOM     85  C   UNL     1       0.167 -12.263   5.012  1.00  0.00     0.054 A 
BRANCH  85  86
ATOM     86  S   UNL     1      -0.137 -12.184   6.800  1.00  0.00     0.124 S 
ATOM     87  O   UNL     1      -0.658 -13.518   7.077  1.00  0.00    -0.237 OA
ATOM     88  O   UNL     1       1.192 -11.897   7.335  1.00  0.00    -0.237 OA
ATOM     89  O   UNL     1      -1.100 -11.093   6.930  1.00  0.00    -0.744 OA
ENDBRANCH  85  86
ENDBRANCH  57  80
BRANCH  69  90
ATOM     90  C   UNL     1       0.424 -17.825  -2.106  1.00  0.00    -0.014 A 
ATOM     91  C   UNL     1      -0.906 -18.249  -1.943  1.00  0.00     0.010 A 
ATOM     92  C   UNL     1       1.450 -18.785  -2.183  1.00  0.00     0.010 A 
ATOM     93  C   UNL     1      -1.203 -19.610  -1.845  1.00  0.00     0.020 A 
ATOM     94  C   UNL     1       1.153 -20.147  -2.109  1.00  0.00     0.020 A 
ATOM     95  C   UNL     1      -0.172 -20.551  -1.931  1.00  0.00     0.054 A 
BRANCH  95  96
ATOM     96  S   UNL     1      -0.589 -22.315  -1.873  1.00  0.00     0.124 S 
ATOM     97  O   UNL     1      -0.830 -22.523  -0.448  1.00  0.00    -0.237 OA
ATOM     98  O   UNL     1      -1.771 -22.395  -2.728  1.00  0.00    -0.237 OA
ATOM     99  O   UNL     1       0.603 -22.970  -2.408  1.00  0.00    -0.744 OA
ENDBRANCH  95  96
ENDBRANCH  69  90
ENDBRANCH  43  44
ENDBRANCH  36  38
ENDBRANCH  35  36
ENDBRANCH  34  35
ENDBRANCH  33  34
ENDBRANCH   1  33
TORSDOF 20
