REMARK SMILES Cc1cccc(C(=O)OCCOCCOC(=O)c2ccc(-c3c4nc(c(-c5ccc(S(=O)(=O)[O-])cc5)c5ccc([nH]5)c(-c5ccc(S(=O)(=O)[O-])cc5)c5nc(c(-c6ccc(S(=O)(=O)[O-])cc6)c6ccc3[nH]6)C=C5)C=C4)cc2)c1OC[C@@H]1C[C@H]2CC[C@@H]1C2
REMARK SMILES IDX 12 1 11 2 10 3 9 4 7 5 8 6 6 7 1 8 2 9 3 10 78 11 4 12 5 13
REMARK SMILES IDX 79 14 80 15 81 16 82 17 86 18 83 19 85 20 87 21 84 22 13 23
REMARK SMILES IDX 14 24 15 25 16 26 17 27 18 28 19 29 77 30 20 31 76 32 21 33
REMARK SMILES IDX 22 34 23 35 70 36 24 37 75 38 69 39 71 40 25 41 74 42 68 43
REMARK SMILES IDX 67 44 26 46 56 47 37 48 55 49 38 50 41 51 54 52 72 53 39 54
REMARK SMILES IDX 40 55 53 57 73 58 42 59 27 60 28 61 36 62 29 63 35 64 30 65
REMARK SMILES IDX 31 66 32 67 33 68 34 69 57 70 58 71 66 72 59 73 65 74 60 75
REMARK SMILES IDX 61 76 62 77 63 78 64 79 43 80 44 81 52 82 45 83 51 84 46 85
REMARK SMILES IDX 47 86 48 87 49 88 50 89
REMARK H PARENT 71 45 41 56
REMARK Flexibility Score: inf
ROOT
ATOM      1  O   UNL     1      -2.179   2.920  -1.840  1.00  0.00    -0.374 OA
ENDROOT
BRANCH   1   2
ATOM      2  C   UNL     1      -0.917   3.572  -1.951  1.00  0.00     0.202 C 
BRANCH   2   3
ATOM      3  C   UNL     1      -0.524   3.977  -0.557  1.00  0.00     0.261 C 
BRANCH   3   4
ATOM      4  O   UNL     1      -0.181   2.858   0.283  1.00  0.00    -0.460 OA
BRANCH   4   5
ATOM      5  C   UNL     1      -1.120   1.919   0.520  1.00  0.00     0.342 C 
ATOM      6  O   UNL     1      -2.291   2.097   0.783  1.00  0.00    -0.246 OA
BRANCH   5   7
ATOM      7  C   UNL     1      -0.536   0.571   0.322  1.00  0.00     0.102 A 
ATOM      8  C   UNL     1       2.224  -1.296  -1.526  1.00  0.00     0.048 C 
ATOM      9  C   UNL     1       1.022  -0.986  -0.678  1.00  0.00    -0.008 A 
ATOM     10  C   UNL     1       0.119  -2.034  -0.419  1.00  0.00     0.007 A 
ATOM     11  C   UNL     1       0.725   0.324  -0.261  1.00  0.00     0.136 A 
ATOM     12  C   UNL     1      -1.105  -1.791   0.191  1.00  0.00     0.001 A 
ATOM     13  C   UNL     1      -1.434  -0.492   0.555  1.00  0.00     0.019 A 
BRANCH  11  14
ATOM     14  O   UNL     1       1.526   1.315  -0.759  1.00  0.00    -0.492 OA
BRANCH  14  15
ATOM     15  C   UNL     1       2.598   1.912  -0.004  1.00  0.00     0.233 C 
BRANCH  15  16
ATOM     16  C   UNL     1       3.016   1.359   1.365  1.00  0.00     0.030 C 
ATOM     17  C   UNL     1       4.039   2.286   2.090  1.00  0.00     0.011 C 
ATOM     18  C   UNL     1       3.818   0.035   1.304  1.00  0.00    -0.004 C 
ATOM     19  C   UNL     1       5.165   1.323   2.511  1.00  0.00    -0.010 C 
ATOM     20  C   UNL     1       3.746  -0.617   2.691  1.00  0.00     0.004 C 
ATOM     21  C   UNL     1       5.285   0.474   1.254  1.00  0.00     0.007 C 
ATOM     22  C   UNL     1       4.632   0.306   3.538  1.00  0.00     0.004 C 
ENDBRANCH  15  16
ENDBRANCH  14  15
ENDBRANCH  11  14
ENDBRANCH   5   7
ENDBRANCH   4   5
ENDBRANCH   3   4
ENDBRANCH   2   3
ENDBRANCH   1   2
BRANCH   1  23
ATOM     23  C   UNL     1      -2.696   2.347  -3.019  1.00  0.00     0.202 C 
BRANCH  23  24
ATOM     24  C   UNL     1      -2.898   3.365  -4.146  1.00  0.00     0.261 C 
BRANCH  24  25
ATOM     25  O   UNL     1      -3.990   4.264  -3.847  1.00  0.00    -0.460 OA
BRANCH  25  26
ATOM     26  C   UNL     1      -3.638   5.514  -3.420  1.00  0.00     0.338 C 
ATOM     27  O   UNL     1      -3.241   6.395  -4.162  1.00  0.00    -0.246 OA
BRANCH  26  28
ATOM     28  C   UNL     1      -3.827   5.634  -1.944  1.00  0.00     0.060 A 
ATOM     29  C   UNL     1      -3.205   6.652  -1.199  1.00  0.00     0.016 A 
ATOM     30  C   UNL     1      -4.466   4.594  -1.281  1.00  0.00     0.016 A 
ATOM     31  C   UNL     1      -3.091   6.544   0.202  1.00  0.00     0.010 A 
ATOM     32  C   UNL     1      -4.251   4.434   0.069  1.00  0.00     0.010 A 
ATOM     33  C   UNL     1      -3.547   5.389   0.828  1.00  0.00    -0.014 A 
BRANCH  33  34
ATOM     34  C   UNL     1      -3.381   4.987   2.234  1.00  0.00     0.031 A 
ATOM     35  C   UNL     1      -4.634   4.746   2.996  1.00  0.00     0.074 A 
ATOM     36  C   UNL     1      -2.221   4.426   2.666  1.00  0.00     0.049 A 
ATOM     37  N   UNL     1      -4.679   4.269   4.187  1.00  0.00    -0.248 NA
ATOM     38  C   UNL     1      -5.972   5.039   2.466  1.00  0.00     0.031 C 
ATOM     39  C   UNL     1      -2.051   3.324   3.620  1.00  0.00     0.029 A 
ATOM     40  N   UNL     1      -0.904   4.730   2.326  1.00  0.00    -0.354 N 
ATOM     41  C   UNL     1      -5.964   3.835   4.406  1.00  0.00     0.074 A 
ATOM     42  C   UNL     1      -6.756   4.449   3.374  1.00  0.00     0.031 C 
ATOM     43  C   UNL     1      -0.757   3.216   3.971  1.00  0.00     0.029 A 
ATOM     44  C   UNL     1      -0.061   4.345   3.380  1.00  0.00     0.049 A 
ATOM     45  H   UNL     1      -0.612   5.147   1.483  1.00  0.00     0.167 HD
ATOM     46  C   UNL     1      -6.166   2.887   5.360  1.00  0.00     0.031 A 
ATOM     47  C   UNL     1       0.702   5.276   4.016  1.00  0.00     0.031 A 
ATOM     48  C   UNL     1      -4.949   2.683   6.153  1.00  0.00     0.049 A 
ATOM     49  C   UNL     1       0.193   5.398   5.426  1.00  0.00     0.074 A 
ATOM     50  C   UNL     1      -4.014   1.667   6.224  1.00  0.00     0.029 A 
ATOM     51  N   UNL     1      -4.375   3.790   6.780  1.00  0.00    -0.354 N 
ATOM     52  N   UNL     1      -1.022   5.052   5.762  1.00  0.00    -0.248 NA
ATOM     53  C   UNL     1       1.005   5.774   6.577  1.00  0.00     0.031 C 
ATOM     54  C   UNL     1      -2.823   2.220   6.787  1.00  0.00     0.029 A 
ATOM     55  C   UNL     1      -3.053   3.553   7.101  1.00  0.00     0.049 A 
ATOM     56  H   UNL     1      -4.851   4.631   6.968  1.00  0.00     0.167 HD
ATOM     57  C   UNL     1      -1.136   5.038   7.114  1.00  0.00     0.074 A 
ATOM     58  C   UNL     1       0.141   5.551   7.586  1.00  0.00     0.031 C 
ATOM     59  C   UNL     1      -2.253   4.589   7.753  1.00  0.00     0.031 A 
BRANCH  46  60
ATOM     60  C   UNL     1      -7.400   2.021   5.471  1.00  0.00    -0.014 A 
ATOM     61  C   UNL     1      -7.507   1.114   6.544  1.00  0.00     0.010 A 
ATOM     62  C   UNL     1      -8.443   1.981   4.520  1.00  0.00     0.010 A 
ATOM     63  C   UNL     1      -8.594   0.233   6.670  1.00  0.00     0.020 A 
ATOM     64  C   UNL     1      -9.551   1.128   4.649  1.00  0.00     0.020 A 
ATOM     65  C   UNL     1      -9.616   0.251   5.724  1.00  0.00     0.054 A 
BRANCH  65  66
ATOM     66  S   UNL     1     -11.014  -0.888   5.906  1.00  0.00     0.124 S 
ATOM     67  O   UNL     1     -10.376  -2.193   5.759  1.00  0.00    -0.237 OA
ATOM     68  O   UNL     1     -11.507  -0.574   7.245  1.00  0.00    -0.237 OA
ATOM     69  O   UNL     1     -11.914  -0.515   4.815  1.00  0.00    -0.744 OA
ENDBRANCH  65  66
ENDBRANCH  46  60
BRANCH  47  70
ATOM     70  C   UNL     1       1.185   6.337   3.065  1.00  0.00    -0.014 A 
ATOM     71  C   UNL     1       2.218   5.949   2.174  1.00  0.00     0.010 A 
ATOM     72  C   UNL     1       0.314   7.365   2.652  1.00  0.00     0.010 A 
ATOM     73  C   UNL     1       2.248   6.413   0.849  1.00  0.00     0.020 A 
ATOM     74  C   UNL     1       0.340   7.826   1.320  1.00  0.00     0.020 A 
ATOM     75  C   UNL     1       1.268   7.304   0.412  1.00  0.00     0.054 A 
BRANCH  75  76
ATOM     76  S   UNL     1       1.072   7.583  -1.386  1.00  0.00     0.124 S 
ATOM     77  O   UNL     1       2.177   8.488  -1.683  1.00  0.00    -0.237 OA
ATOM     78  O   UNL     1       1.206   6.239  -1.949  1.00  0.00    -0.237 OA
ATOM     79  O   UNL     1      -0.265   8.158  -1.496  1.00  0.00    -0.744 OA
ENDBRANCH  75  76
ENDBRANCH  47  70
BRANCH  59  80
ATOM     80  C   UNL     1      -2.644   5.083   9.114  1.00  0.00    -0.014 A 
ATOM     81  C   UNL     1      -2.107   6.254   9.672  1.00  0.00     0.010 A 
ATOM     82  C   UNL     1      -3.709   4.463   9.803  1.00  0.00     0.010 A 
ATOM     83  C   UNL     1      -2.527   6.721  10.915  1.00  0.00     0.020 A 
ATOM     84  C   UNL     1      -4.185   4.962  11.015  1.00  0.00     0.020 A 
ATOM     85  C   UNL     1      -3.557   6.065  11.583  1.00  0.00     0.054 A 
BRANCH  85  86
ATOM     86  S   UNL     1      -4.076   6.690  13.193  1.00  0.00     0.124 S 
ATOM     87  O   UNL     1      -3.018   6.180  14.061  1.00  0.00    -0.237 OA
ATOM     88  O   UNL     1      -4.078   8.137  12.991  1.00  0.00    -0.237 OA
ATOM     89  O   UNL     1      -5.393   6.091  13.389  1.00  0.00    -0.744 OA
ENDBRANCH  85  86
ENDBRANCH  59  80
ENDBRANCH  33  34
ENDBRANCH  26  28
ENDBRANCH  25  26
ENDBRANCH  24  25
ENDBRANCH  23  24
ENDBRANCH   1  23
TORSDOF 20
