REMARK SMILES CCOc1cc(/C=C(\CC(=O)OCCOCCOC(=O)c2ccc(-c3c4nc(c(-c5ccc(S(=O)(=O)[O-])cc5)c5ccc([nH]5)c(-c5ccc(S(=O)(=O)[O-])cc5)c5nc(c(-c6ccc(S(=O)(=O)[O-])cc6)c6ccc3[nH]6)C=C5)C=C4)cc2)c2nc3ccccc3o2)cc(Br)c1OC
REMARK SMILES IDX 14 1 13 2 12 3 10 4 11 5 9 6 8 7 7 8 6 9 4 10 5 11 93 12
REMARK SMILES IDX 91 13 90 14 92 15 3 16 2 17 1 18 94 19 95 20 81 21 82 22
REMARK SMILES IDX 89 23 83 24 88 25 84 26 87 27 85 28 86 29 15 30 16 31 17 32
REMARK SMILES IDX 18 33 19 34 20 35 21 36 22 37 80 38 23 39 79 40 24 41 25 42
REMARK SMILES IDX 26 43 73 44 27 45 78 46 72 47 74 48 28 49 77 50 71 51 70 52
REMARK SMILES IDX 29 54 59 55 40 56 58 57 41 58 44 59 57 60 75 61 42 62 43 63
REMARK SMILES IDX 56 65 76 66 45 67 30 68 31 69 39 70 32 71 38 72 33 73 34 74
REMARK SMILES IDX 35 75 36 76 37 77 60 78 61 79 69 80 62 81 68 82 63 83 64 84
REMARK SMILES IDX 65 85 66 86 67 87 46 88 47 89 55 90 48 91 54 92 49 93 50 94
REMARK SMILES IDX 51 95 52 96 53 97
REMARK H PARENT 74 53 44 64
REMARK Flexibility Score: inf
ROOT
ATOM      1  C   UNL     1       2.292   4.896  -2.471  1.00  0.00     0.202 C 
ENDROOT
BRANCH   1   2
ATOM      2  C   UNL     1       2.005   3.859  -1.379  1.00  0.00     0.261 C 
BRANCH   2   3
ATOM      3  O   UNL     1       2.897   2.728  -1.351  1.00  0.00    -0.463 OA
BRANCH   3   4
ATOM      4  C   UNL     1       2.335   1.523  -1.661  1.00  0.00     0.310 C 
ATOM      5  O   UNL     1       1.177   1.378  -2.043  1.00  0.00    -0.252 OA
BRANCH   4   6
ATOM      6  C   UNL     1       3.240   0.317  -1.404  1.00  0.00     0.163 C 
BRANCH   6   7
ATOM      7  C   UNL     1       4.710   0.600  -1.132  1.00  0.00     0.026 C 
ATOM      8  C   UNL     1       5.222   0.827   0.109  1.00  0.00     0.018 C 
BRANCH   8   9
ATOM      9  C   UNL     1       4.506   0.792   1.427  1.00  0.00    -0.020 A 
ATOM     10  C   UNL     1       2.452   0.654   2.739  1.00  0.00     0.162 A 
ATOM     11  C   UNL     1       3.135   0.994   1.569  1.00  0.00     0.058 A 
ATOM     12  C   UNL     1       3.131   0.294   3.906  1.00  0.00     0.174 A 
ATOM     13  C   UNL     1       4.532   0.285   3.845  1.00  0.00     0.064 A 
ATOM     14  C   UNL     1       5.202   0.513   2.611  1.00  0.00     0.028 A 
ATOM     15  Br  UNL     1       5.670  -0.118   5.314  1.00  0.00    -0.047 Br
BRANCH  10  16
ATOM     16  O   UNL     1       1.080   0.751   2.710  1.00  0.00    -0.490 OA
BRANCH  16  17
ATOM     17  C   UNL     1       0.462  -0.437   2.192  1.00  0.00     0.226 C 
ATOM     18  C   UNL     1       0.121  -0.291   0.716  1.00  0.00     0.049 C 
ENDBRANCH  16  17
ENDBRANCH  10  16
BRANCH  12  19
ATOM     19  O   UNL     1       2.314  -0.132   4.917  1.00  0.00    -0.492 OA
ATOM     20  C   UNL     1       2.611   0.230   6.255  1.00  0.00     0.278 C 
ENDBRANCH  12  19
ENDBRANCH   8   9
BRANCH   7  21
ATOM     21  C   UNL     1       5.558   0.591  -2.307  1.00  0.00     0.223 A 
ATOM     22  N   UNL     1       5.020   0.544  -3.524  1.00  0.00    -0.210 NA
ATOM     23  O   UNL     1       6.944   0.706  -2.367  1.00  0.00    -0.436 OA
ATOM     24  C   UNL     1       6.031   0.798  -4.394  1.00  0.00     0.110 A 
ATOM     25  C   UNL     1       7.225   0.863  -3.705  1.00  0.00     0.155 A 
ATOM     26  C   UNL     1       5.984   1.080  -5.764  1.00  0.00     0.032 A 
ATOM     27  C   UNL     1       8.445   1.127  -4.317  1.00  0.00     0.049 A 
ATOM     28  C   UNL     1       7.180   1.421  -6.400  1.00  0.00     0.003 A 
ATOM     29  C   UNL     1       8.389   1.422  -5.692  1.00  0.00     0.004 A 
ENDBRANCH   7  21
ENDBRANCH   6   7
ENDBRANCH   4   6
ENDBRANCH   3   4
ENDBRANCH   2   3
ENDBRANCH   1   2
BRANCH   1  30
ATOM     30  O   UNL     1       2.524   4.466  -3.804  1.00  0.00    -0.374 OA
BRANCH  30  31
ATOM     31  C   UNL     1       3.568   3.542  -4.066  1.00  0.00     0.202 C 
BRANCH  31  32
ATOM     32  C   UNL     1       4.989   3.797  -3.547  1.00  0.00     0.261 C 
BRANCH  32  33
ATOM     33  O   UNL     1       5.167   4.872  -2.649  1.00  0.00    -0.460 OA
BRANCH  33  34
ATOM     34  C   UNL     1       5.559   6.014  -3.230  1.00  0.00     0.338 C 
ATOM     35  O   UNL     1       5.742   6.245  -4.417  1.00  0.00    -0.246 OA
BRANCH  34  36
ATOM     36  C   UNL     1       5.640   6.993  -2.155  1.00  0.00     0.060 A 
ATOM     37  C   UNL     1       4.775   8.082  -2.214  1.00  0.00     0.016 A 
ATOM     38  C   UNL     1       6.556   6.824  -1.109  1.00  0.00     0.016 A 
ATOM     39  C   UNL     1       4.887   9.071  -1.254  1.00  0.00     0.010 A 
ATOM     40  C   UNL     1       6.657   7.812  -0.138  1.00  0.00     0.010 A 
ATOM     41  C   UNL     1       5.859   8.960  -0.247  1.00  0.00    -0.014 A 
BRANCH  41  42
ATOM     42  C   UNL     1       6.121  10.145   0.586  1.00  0.00     0.031 A 
ATOM     43  C   UNL     1       7.293  11.016   0.241  1.00  0.00     0.074 A 
ATOM     44  C   UNL     1       5.243  10.475   1.547  1.00  0.00     0.049 A 
ATOM     45  N   UNL     1       7.622  12.181   0.728  1.00  0.00    -0.248 NA
ATOM     46  C   UNL     1       8.214  10.514  -0.794  1.00  0.00     0.031 C 
ATOM     47  C   UNL     1       4.067   9.685   1.919  1.00  0.00     0.029 A 
ATOM     48  N   UNL     1       5.184  11.574   2.357  1.00  0.00    -0.354 N 
ATOM     49  C   UNL     1       8.781  12.554   0.058  1.00  0.00     0.074 A 
ATOM     50  C   UNL     1       9.125  11.474  -0.838  1.00  0.00     0.031 C 
ATOM     51  C   UNL     1       3.381  10.347   2.865  1.00  0.00     0.029 A 
ATOM     52  C   UNL     1       4.085  11.586   3.179  1.00  0.00     0.049 A 
ATOM     53  H   UNL     1       5.863  12.287   2.351  1.00  0.00     0.167 HD
ATOM     54  C   UNL     1       9.484  13.704   0.174  1.00  0.00     0.031 A 
ATOM     55  C   UNL     1       3.693  12.507   4.079  1.00  0.00     0.031 A 
ATOM     56  C   UNL     1       9.124  14.755   1.087  1.00  0.00     0.049 A 
ATOM     57  C   UNL     1       4.515  13.758   4.218  1.00  0.00     0.074 A 
ATOM     58  C   UNL     1       9.752  15.968   1.298  1.00  0.00     0.029 A 
ATOM     59  N   UNL     1       8.035  14.710   1.948  1.00  0.00    -0.354 N 
ATOM     60  N   UNL     1       5.595  14.113   3.558  1.00  0.00    -0.248 NA
ATOM     61  C   UNL     1       4.057  14.742   5.204  1.00  0.00     0.031 C 
ATOM     62  C   UNL     1       9.077  16.631   2.329  1.00  0.00     0.029 A 
ATOM     63  C   UNL     1       7.987  15.863   2.712  1.00  0.00     0.049 A 
ATOM     64  H   UNL     1       7.392  13.967   2.007  1.00  0.00     0.167 HD
ATOM     65  C   UNL     1       5.934  15.372   4.036  1.00  0.00     0.074 A 
ATOM     66  C   UNL     1       4.928  15.724   5.021  1.00  0.00     0.031 C 
ATOM     67  C   UNL     1       6.979  16.170   3.696  1.00  0.00     0.031 A 
BRANCH  54  68
ATOM     68  C   UNL     1      10.721  13.856  -0.672  1.00  0.00    -0.014 A 
ATOM     69  C   UNL     1      10.642  14.015  -2.068  1.00  0.00     0.010 A 
ATOM     70  C   UNL     1      11.986  13.860  -0.057  1.00  0.00     0.010 A 
ATOM     71  C   UNL     1      11.805  14.140  -2.835  1.00  0.00     0.020 A 
ATOM     72  C   UNL     1      13.150  14.012  -0.817  1.00  0.00     0.020 A 
ATOM     73  C   UNL     1      13.052  14.137  -2.204  1.00  0.00     0.054 A 
BRANCH  73  74
ATOM     74  S   UNL     1      14.543  14.326  -3.220  1.00  0.00     0.124 S 
ATOM     75  O   UNL     1      14.607  13.039  -3.907  1.00  0.00    -0.237 OA
ATOM     76  O   UNL     1      14.213  15.472  -4.063  1.00  0.00    -0.237 OA
ATOM     77  O   UNL     1      15.603  14.561  -2.241  1.00  0.00    -0.744 OA
ENDBRANCH  73  74
ENDBRANCH  54  68
BRANCH  55  78
ATOM     78  C   UNL     1       2.476  12.268   4.900  1.00  0.00    -0.014 A 
ATOM     79  C   UNL     1       1.319  13.047   4.729  1.00  0.00     0.010 A 
ATOM     80  C   UNL     1       2.463  11.227   5.848  1.00  0.00     0.010 A 
ATOM     81  C   UNL     1       0.180  12.802   5.502  1.00  0.00     0.020 A 
ATOM     82  C   UNL     1       1.318  10.960   6.601  1.00  0.00     0.020 A 
ATOM     83  C   UNL     1       0.186  11.758   6.432  1.00  0.00     0.054 A 
BRANCH  83  84
ATOM     84  S   UNL     1      -1.318  11.427   7.391  1.00  0.00     0.124 S 
ATOM     85  O   UNL     1      -1.340  12.555   8.318  1.00  0.00    -0.237 OA
ATOM     86  O   UNL     1      -2.355  11.431   6.362  1.00  0.00    -0.237 OA
ATOM     87  O   UNL     1      -1.057  10.123   7.997  1.00  0.00    -0.744 OA
ENDBRANCH  83  84
ENDBRANCH  55  78
BRANCH  67  88
ATOM     88  C   UNL     1       7.061  17.506   4.382  1.00  0.00    -0.014 A 
ATOM     89  C   UNL     1       7.388  17.608   5.745  1.00  0.00     0.010 A 
ATOM     90  C   UNL     1       6.831  18.679   3.639  1.00  0.00     0.010 A 
ATOM     91  C   UNL     1       7.428  18.857   6.367  1.00  0.00     0.020 A 
ATOM     92  C   UNL     1       6.905  19.931   4.250  1.00  0.00     0.020 A 
ATOM     93  C   UNL     1       7.181  20.011   5.616  1.00  0.00     0.054 A 
BRANCH  93  94
ATOM     94  S   UNL     1       7.248  21.621   6.444  1.00  0.00     0.124 S 
ATOM     95  O   UNL     1       6.010  21.615   7.218  1.00  0.00    -0.237 OA
ATOM     96  O   UNL     1       8.479  21.528   7.226  1.00  0.00    -0.237 OA
ATOM     97  O   UNL     1       7.289  22.577   5.340  1.00  0.00    -0.744 OA
ENDBRANCH  93  94
ENDBRANCH  67  88
ENDBRANCH  41  42
ENDBRANCH  34  36
ENDBRANCH  33  34
ENDBRANCH  32  33
ENDBRANCH  31  32
ENDBRANCH  30  31
ENDBRANCH   1  30
TORSDOF 23
