REMARK SMILES CCc1ccc2c(CC(=O)OCCOCCOC(=O)c3ccc(-c4c5nc(c(-c6ccc(S(=O)(=O)[O-])cc6)c6ccc([nH]6)c(-c6ccc(S(=O)(=O)[O-])cc6)c6nc(c(-c7ccc(S(=O)(=O)[O-])cc7)c7ccc4[nH]7)C=C6)C=C5)cc3)c(C(=O)c3cc(C)ccn3)[nH]c2c1
REMARK SMILES IDX 14 1 13 2 12 3 11 4 9 5 10 6 8 7 7 8 3 9 4 10 92 11 5 12
REMARK SMILES IDX 91 13 6 14 90 15 80 16 2 18 1 19 81 20 82 21 83 22 84 23
REMARK SMILES IDX 89 24 85 25 88 26 86 27 87 28 15 29 16 30 17 31 18 32 19 33
REMARK SMILES IDX 20 34 21 35 79 36 22 37 78 38 23 39 24 40 25 41 72 42 26 43
REMARK SMILES IDX 77 44 71 45 73 46 27 47 76 48 70 49 69 50 28 52 58 53 39 54
REMARK SMILES IDX 57 55 40 56 43 57 56 58 74 59 41 60 42 61 55 63 75 64 44 65
REMARK SMILES IDX 29 66 30 67 38 68 31 69 37 70 32 71 33 72 34 73 35 74 36 75
REMARK SMILES IDX 59 76 60 77 68 78 61 79 67 80 62 81 63 82 64 83 65 84 66 85
REMARK SMILES IDX 45 86 46 87 54 88 47 89 53 90 48 91 49 92 50 93 51 94 52 95
REMARK H PARENT 90 17 73 51 43 62
REMARK Flexibility Score: inf
ROOT
ATOM      1  O   UNL     1       5.622  -2.359  -9.298  1.00  0.00    -0.374 OA
ENDROOT
BRANCH   1   2
ATOM      2  C   UNL     1       6.362  -1.498  -8.434  1.00  0.00     0.202 C 
BRANCH   2   3
ATOM      3  C   UNL     1       5.717  -0.161  -8.034  1.00  0.00     0.261 C 
BRANCH   3   4
ATOM      4  O   UNL     1       4.391  -0.286  -7.475  1.00  0.00    -0.463 OA
BRANCH   4   5
ATOM      5  C   UNL     1       3.448   0.515  -8.041  1.00  0.00     0.310 C 
ATOM      6  O   UNL     1       3.693   1.362  -8.901  1.00  0.00    -0.252 OA
BRANCH   5   7
ATOM      7  C   UNL     1       2.018   0.259  -7.616  1.00  0.00     0.161 C 
BRANCH   7   8
ATOM      8  C   UNL     1       1.747  -0.545  -6.372  1.00  0.00     0.000 A 
ATOM      9  C   UNL     1       1.149   0.548  -2.327  1.00  0.00    -0.046 A 
ATOM     10  C   UNL     1       1.637   1.554  -3.171  1.00  0.00     0.004 A 
ATOM     11  C   UNL     1       0.993  -0.755  -2.828  1.00  0.00     0.030 A 
ATOM     12  C   UNL     1       1.936   1.299  -4.517  1.00  0.00     0.011 A 
ATOM     13  C   UNL     1       1.277  -0.985  -4.183  1.00  0.00     0.046 A 
ATOM     14  C   UNL     1       1.714   0.012  -5.046  1.00  0.00     0.004 A 
ATOM     15  N   UNL     1       1.179  -2.137  -4.926  1.00  0.00    -0.352 N 
ATOM     16  C   UNL     1       1.277  -1.864  -6.276  1.00  0.00     0.093 A 
ATOM     17  H   UNL     1       1.056  -3.037  -4.546  1.00  0.00     0.167 HD
BRANCH   9  18
ATOM     18  C   UNL     1       0.706   0.909  -0.926  1.00  0.00     0.032 C 
ATOM     19  C   UNL     1       1.211  -0.021   0.167  1.00  0.00     0.009 C 
ENDBRANCH   9  18
BRANCH  16  20
ATOM     20  C   UNL     1       0.927  -2.803  -7.346  1.00  0.00     0.227 C 
ATOM     21  O   UNL     1       0.862  -2.482  -8.531  1.00  0.00    -0.285 OA
BRANCH  20  22
ATOM     22  C   UNL     1       0.666  -4.239  -7.013  1.00  0.00     0.113 A 
ATOM     23  C   UNL     1      -0.464  -4.633  -6.309  1.00  0.00     0.036 A 
ATOM     24  N   UNL     1       1.621  -5.107  -7.431  1.00  0.00    -0.253 NA
ATOM     25  C   UNL     1      -0.596  -5.990  -5.986  1.00  0.00    -0.047 A 
ATOM     26  C   UNL     1       1.488  -6.400  -7.088  1.00  0.00     0.112 A 
ATOM     27  C   UNL     1      -1.794  -6.513  -5.253  1.00  0.00     0.044 C 
ATOM     28  C   UNL     1       0.410  -6.882  -6.372  1.00  0.00     0.023 A 
ENDBRANCH  20  22
ENDBRANCH  16  20
ENDBRANCH   7   8
ENDBRANCH   5   7
ENDBRANCH   4   5
ENDBRANCH   3   4
ENDBRANCH   2   3
ENDBRANCH   1   2
BRANCH   1  29
ATOM     29  C   UNL     1       4.380  -2.858  -8.811  1.00  0.00     0.202 C 
BRANCH  29  30
ATOM     30  C   UNL     1       4.423  -3.781  -7.591  1.00  0.00     0.261 C 
BRANCH  30  31
ATOM     31  O   UNL     1       5.253  -3.335  -6.521  1.00  0.00    -0.460 OA
BRANCH  31  32
ATOM     32  C   UNL     1       6.074  -4.283  -6.025  1.00  0.00     0.338 C 
ATOM     33  O   UNL     1       6.154  -5.462  -6.338  1.00  0.00    -0.246 OA
BRANCH  32  34
ATOM     34  C   UNL     1       6.968  -3.651  -5.058  1.00  0.00     0.060 A 
ATOM     35  C   UNL     1       8.305  -3.469  -5.420  1.00  0.00     0.016 A 
ATOM     36  C   UNL     1       6.505  -3.332  -3.780  1.00  0.00     0.016 A 
ATOM     37  C   UNL     1       9.209  -3.015  -4.468  1.00  0.00     0.010 A 
ATOM     38  C   UNL     1       7.414  -2.873  -2.829  1.00  0.00     0.010 A 
ATOM     39  C   UNL     1       8.774  -2.755  -3.160  1.00  0.00    -0.014 A 
BRANCH  39  40
ATOM     40  C   UNL     1       9.780  -2.496  -2.110  1.00  0.00     0.031 A 
ATOM     41  C   UNL     1      10.199  -3.624  -1.211  1.00  0.00     0.074 A 
ATOM     42  C   UNL     1      10.338  -1.279  -2.002  1.00  0.00     0.049 A 
ATOM     43  N   UNL     1      11.097  -3.634  -0.262  1.00  0.00    -0.248 NA
ATOM     44  C   UNL     1       9.515  -4.914  -1.409  1.00  0.00     0.031 C 
ATOM     45  C   UNL     1      10.010  -0.124  -2.839  1.00  0.00     0.029 A 
ATOM     46  N   UNL     1      11.303  -0.815  -1.148  1.00  0.00    -0.354 N 
ATOM     47  C   UNL     1      11.091  -4.928   0.248  1.00  0.00     0.074 A 
ATOM     48  C   UNL     1      10.073  -5.663  -0.469  1.00  0.00     0.031 C 
ATOM     49  C   UNL     1      10.764   0.919  -2.455  1.00  0.00     0.029 A 
ATOM     50  C   UNL     1      11.609   0.511  -1.336  1.00  0.00     0.049 A 
ATOM     51  H   UNL     1      11.735  -1.377  -0.465  1.00  0.00     0.167 HD
ATOM     52  C   UNL     1      11.874  -5.455   1.219  1.00  0.00     0.031 A 
ATOM     53  C   UNL     1      12.468   1.305  -0.670  1.00  0.00     0.031 A 
ATOM     54  C   UNL     1      12.864  -4.703   1.940  1.00  0.00     0.049 A 
ATOM     55  C   UNL     1      13.296   0.710   0.436  1.00  0.00     0.074 A 
ATOM     56  C   UNL     1      13.715  -5.133   2.943  1.00  0.00     0.029 A 
ATOM     57  N   UNL     1      13.130  -3.355   1.738  1.00  0.00    -0.354 N 
ATOM     58  N   UNL     1      13.304  -0.523   0.885  1.00  0.00    -0.248 NA
ATOM     59  C   UNL     1      14.241   1.607   1.114  1.00  0.00     0.031 C 
ATOM     60  C   UNL     1      14.462  -4.033   3.380  1.00  0.00     0.029 A 
ATOM     61  C   UNL     1      14.116  -2.931   2.611  1.00  0.00     0.049 A 
ATOM     62  H   UNL     1      12.683  -2.785   1.072  1.00  0.00     0.167 HD
ATOM     63  C   UNL     1      14.266  -0.556   1.888  1.00  0.00     0.074 A 
ATOM     64  C   UNL     1      14.830   0.778   1.965  1.00  0.00     0.031 C 
ATOM     65  C   UNL     1      14.651  -1.593   2.674  1.00  0.00     0.031 A 
BRANCH  52  66
ATOM     66  C   UNL     1      11.657  -6.904   1.569  1.00  0.00    -0.014 A 
ATOM     67  C   UNL     1      12.032  -7.931   0.682  1.00  0.00     0.010 A 
ATOM     68  C   UNL     1      11.071  -7.246   2.801  1.00  0.00     0.010 A 
ATOM     69  C   UNL     1      11.781  -9.269   1.000  1.00  0.00     0.020 A 
ATOM     70  C   UNL     1      10.842  -8.585   3.134  1.00  0.00     0.020 A 
ATOM     71  C   UNL     1      11.179  -9.587   2.221  1.00  0.00     0.054 A 
BRANCH  71  72
ATOM     72  S   UNL     1      10.859 -11.330   2.609  1.00  0.00     0.124 S 
ATOM     73  O   UNL     1       9.718 -11.625   1.745  1.00  0.00    -0.237 OA
ATOM     74  O   UNL     1      12.113 -11.979   2.235  1.00  0.00    -0.237 OA
ATOM     75  O   UNL     1      10.569 -11.320   4.040  1.00  0.00    -0.744 OA
ENDBRANCH  71  72
ENDBRANCH  52  66
BRANCH  53  76
ATOM     76  C   UNL     1      12.573   2.743  -1.036  1.00  0.00    -0.014 A 
ATOM     77  C   UNL     1      13.708   3.242  -1.696  1.00  0.00     0.010 A 
ATOM     78  C   UNL     1      11.504   3.616  -0.758  1.00  0.00     0.010 A 
ATOM     79  C   UNL     1      13.776   4.589  -2.065  1.00  0.00     0.020 A 
ATOM     80  C   UNL     1      11.558   4.957  -1.148  1.00  0.00     0.020 A 
ATOM     81  C   UNL     1      12.698   5.437  -1.793  1.00  0.00     0.054 A 
BRANCH  81  82
ATOM     82  S   UNL     1      12.777   7.164  -2.344  1.00  0.00     0.124 S 
ATOM     83  O   UNL     1      13.702   7.749  -1.379  1.00  0.00    -0.237 OA
ATOM     84  O   UNL     1      13.283   7.038  -3.709  1.00  0.00    -0.237 OA
ATOM     85  O   UNL     1      11.392   7.619  -2.241  1.00  0.00    -0.744 OA
ENDBRANCH  81  82
ENDBRANCH  53  76
BRANCH  65  86
ATOM     86  C   UNL     1      15.745  -1.328   3.672  1.00  0.00    -0.014 A 
ATOM     87  C   UNL     1      15.499  -0.578   4.835  1.00  0.00     0.010 A 
ATOM     88  C   UNL     1      17.020  -1.884   3.467  1.00  0.00     0.010 A 
ATOM     89  C   UNL     1      16.522  -0.362   5.762  1.00  0.00     0.020 A 
ATOM     90  C   UNL     1      18.037  -1.692   4.404  1.00  0.00     0.020 A 
ATOM     91  C   UNL     1      17.785  -0.919   5.540  1.00  0.00     0.054 A 
BRANCH  91  92
ATOM     92  S   UNL     1      19.085  -0.660   6.778  1.00  0.00     0.124 S 
ATOM     93  O   UNL     1      19.469   0.726   6.527  1.00  0.00    -0.237 OA
ATOM     94  O   UNL     1      18.383  -0.900   8.036  1.00  0.00    -0.237 OA
ATOM     95  O   UNL     1      20.094  -1.659   6.434  1.00  0.00    -0.744 OA
ENDBRANCH  91  92
ENDBRANCH  65  86
ENDBRANCH  39  40
ENDBRANCH  32  34
ENDBRANCH  31  32
ENDBRANCH  30  31
ENDBRANCH  29  30
ENDBRANCH   1  29
TORSDOF 21
