REMARK SMILES C[C@H](NC(=O)N1CC[C@H](C(=O)OCCOCCOC(=O)c2ccc(-c3c4nc(c(-c5ccc(S(=O)(=O)[O-])cc5)c5ccc([nH]5)c(-c5ccc(S(=O)(=O)[O-])cc5)c5nc(c(-c6ccc(S(=O)(=O)[O-])cc6)c6ccc3[nH]6)C=C5)C=C4)cc2)[C@@H]1C)[C@@H]1CCCO1
REMARK SMILES IDX 15 1 14 2 13 3 12 4 10 5 11 6 9 7 6 8 7 9 81 10 8 11 82 12
REMARK SMILES IDX 4 13 3 14 5 16 2 17 1 18 83 19 84 20 87 21 85 22 86 23 16 24
REMARK SMILES IDX 17 25 18 26 19 27 20 28 21 29 22 30 80 31 23 32 79 33 24 34
REMARK SMILES IDX 25 35 26 36 73 37 27 38 78 39 72 40 74 41 28 42 77 43 71 44
REMARK SMILES IDX 70 45 29 47 59 48 40 49 58 50 41 51 44 52 57 53 75 54 42 55
REMARK SMILES IDX 43 56 56 58 76 59 45 60 30 61 31 62 39 63 32 64 38 65 33 66
REMARK SMILES IDX 34 67 35 68 36 69 37 70 60 71 61 72 69 73 62 74 68 75 63 76
REMARK SMILES IDX 64 77 65 78 66 79 67 80 46 81 47 82 55 83 48 84 54 85 49 86
REMARK SMILES IDX 50 87 51 88 52 89 53 90
REMARK H PARENT 3 15 74 46 44 57
REMARK Flexibility Score: inf
ROOT
ATOM      1  O   UNL     1       5.576  -6.082  -1.962  1.00  0.00    -0.374 OA
ENDROOT
BRANCH   1   2
ATOM      2  C   UNL     1       4.636  -7.049  -2.441  1.00  0.00     0.202 C 
BRANCH   2   3
ATOM      3  C   UNL     1       3.368  -7.291  -1.616  1.00  0.00     0.261 C 
BRANCH   3   4
ATOM      4  O   UNL     1       2.454  -6.180  -1.718  1.00  0.00    -0.463 OA
BRANCH   4   5
ATOM      5  C   UNL     1       2.126  -5.546  -0.557  1.00  0.00     0.311 C 
ATOM      6  O   UNL     1       2.545  -5.839   0.553  1.00  0.00    -0.252 OA
BRANCH   5   7
ATOM      7  C   UNL     1       1.157  -4.421  -0.834  1.00  0.00     0.123 C 
ATOM      8  N   UNL     1       0.695  -2.379   0.278  1.00  0.00    -0.321 N 
ATOM      9  C   UNL     1       0.140  -3.426   1.104  1.00  0.00     0.122 C 
ATOM     10  C   UNL     1       1.660  -2.968  -0.643  1.00  0.00     0.098 C 
ATOM     11  C   UNL     1      -0.051  -4.555   0.112  1.00  0.00     0.039 C 
ATOM     12  C   UNL     1       3.081  -2.729  -0.122  1.00  0.00     0.032 C 
BRANCH   8  13
ATOM     13  C   UNL     1       0.687  -1.086   0.692  1.00  0.00     0.317 C 
ATOM     14  N   UNL     1       0.956  -0.099  -0.195  1.00  0.00    -0.333 N 
ATOM     15  H   UNL     1       1.682   0.513   0.063  1.00  0.00     0.165 HD
ATOM     16  O   UNL     1       0.493  -0.772   1.866  1.00  0.00    -0.249 OA
BRANCH  14  17
ATOM     17  C   UNL     1       0.319   0.192  -1.490  1.00  0.00     0.109 C 
ATOM     18  C   UNL     1       1.031  -0.347  -2.729  1.00  0.00     0.034 C 
BRANCH  17  19
ATOM     19  C   UNL     1      -1.226   0.058  -1.494  1.00  0.00     0.140 C 
ATOM     20  C   UNL     1      -1.845  -1.217  -2.058  1.00  0.00     0.036 C 
ATOM     21  O   UNL     1      -1.771   1.151  -2.276  1.00  0.00    -0.376 OA
ATOM     22  C   UNL     1      -3.162  -0.720  -2.609  1.00  0.00     0.031 C 
ATOM     23  C   UNL     1      -2.780   0.637  -3.150  1.00  0.00     0.160 C 
ENDBRANCH  17  19
ENDBRANCH  14  17
ENDBRANCH   8  13
ENDBRANCH   5   7
ENDBRANCH   4   5
ENDBRANCH   3   4
ENDBRANCH   2   3
ENDBRANCH   1   2
BRANCH   1  24
ATOM     24  C   UNL     1       5.148  -4.731  -1.894  1.00  0.00     0.202 C 
BRANCH  24  25
ATOM     25  C   UNL     1       5.089  -3.889  -3.179  1.00  0.00     0.261 C 
BRANCH  25  26
ATOM     26  O   UNL     1       4.728  -4.628  -4.338  1.00  0.00    -0.460 OA
BRANCH  26  27
ATOM     27  C   UNL     1       5.799  -5.173  -4.961  1.00  0.00     0.338 C 
ATOM     28  O   UNL     1       6.981  -5.021  -4.689  1.00  0.00    -0.246 OA
BRANCH  27  29
ATOM     29  C   UNL     1       5.306  -6.137  -5.944  1.00  0.00     0.060 A 
ATOM     30  C   UNL     1       5.753  -7.457  -5.831  1.00  0.00     0.016 A 
ATOM     31  C   UNL     1       4.435  -5.744  -6.962  1.00  0.00     0.016 A 
ATOM     32  C   UNL     1       5.370  -8.389  -6.782  1.00  0.00     0.010 A 
ATOM     33  C   UNL     1       4.057  -6.679  -7.920  1.00  0.00     0.010 A 
ATOM     34  C   UNL     1       4.559  -7.989  -7.853  1.00  0.00    -0.014 A 
BRANCH  34  35
ATOM     35  C   UNL     1       4.388  -8.905  -8.995  1.00  0.00     0.031 A 
ATOM     36  C   UNL     1       5.231  -8.681 -10.217  1.00  0.00     0.074 A 
ATOM     37  C   UNL     1       3.519  -9.927  -8.915  1.00  0.00     0.049 A 
ATOM     38  N   UNL     1       5.248  -9.347 -11.339  1.00  0.00    -0.248 NA
ATOM     39  C   UNL     1       6.179  -7.551 -10.173  1.00  0.00     0.031 C 
ATOM     40  C   UNL     1       2.680 -10.234  -7.756  1.00  0.00     0.029 A 
ATOM     41  N   UNL     1       3.197 -10.893  -9.830  1.00  0.00    -0.354 N 
ATOM     42  C   UNL     1       6.188  -8.709 -12.140  1.00  0.00     0.074 A 
ATOM     43  C   UNL     1       6.707  -7.590 -11.387  1.00  0.00     0.031 C 
ATOM     44  C   UNL     1       1.929 -11.312  -8.036  1.00  0.00     0.029 A 
ATOM     45  C   UNL     1       2.211 -11.747  -9.401  1.00  0.00     0.049 A 
ATOM     46  H   UNL     1       3.631 -10.967 -10.711  1.00  0.00     0.167 HD
ATOM     47  C   UNL     1       6.580  -9.034 -13.393  1.00  0.00     0.031 A 
ATOM     48  C   UNL     1       1.591 -12.749 -10.053  1.00  0.00     0.031 A 
ATOM     49  C   UNL     1       6.051 -10.156 -14.121  1.00  0.00     0.049 A 
ATOM     50  C   UNL     1       2.025 -13.067 -11.461  1.00  0.00     0.074 A 
ATOM     51  C   UNL     1       6.407 -10.607 -15.379  1.00  0.00     0.029 A 
ATOM     52  N   UNL     1       5.049 -10.996 -13.659  1.00  0.00    -0.354 N 
ATOM     53  N   UNL     1       2.954 -12.489 -12.187  1.00  0.00    -0.248 NA
ATOM     54  C   UNL     1       1.338 -14.178 -12.132  1.00  0.00     0.031 C 
ATOM     55  C   UNL     1       5.569 -11.676 -15.706  1.00  0.00     0.029 A 
ATOM     56  C   UNL     1       4.745 -11.940 -14.622  1.00  0.00     0.049 A 
ATOM     57  H   UNL     1       4.618 -10.930 -12.776  1.00  0.00     0.167 HD
ATOM     58  C   UNL     1       2.982 -13.186 -13.390  1.00  0.00     0.074 A 
ATOM     59  C   UNL     1       1.991 -14.238 -13.284  1.00  0.00     0.031 C 
ATOM     60  C   UNL     1       3.754 -12.978 -14.486  1.00  0.00     0.031 A 
BRANCH  47  61
ATOM     61  C   UNL     1       7.589  -8.149 -14.073  1.00  0.00    -0.014 A 
ATOM     62  C   UNL     1       8.938  -8.126 -13.675  1.00  0.00     0.010 A 
ATOM     63  C   UNL     1       7.189  -7.378 -15.180  1.00  0.00     0.010 A 
ATOM     64  C   UNL     1       9.864  -7.336 -14.363  1.00  0.00     0.020 A 
ATOM     65  C   UNL     1       8.116  -6.608 -15.886  1.00  0.00     0.020 A 
ATOM     66  C   UNL     1       9.448  -6.587 -15.469  1.00  0.00     0.054 A 
BRANCH  66  67
ATOM     67  S   UNL     1      10.683  -5.624 -16.383  1.00  0.00     0.124 S 
ATOM     68  O   UNL     1      10.992  -4.554 -15.437  1.00  0.00    -0.237 OA
ATOM     69  O   UNL     1      11.750  -6.598 -16.599  1.00  0.00    -0.237 OA
ATOM     70  O   UNL     1       9.974  -5.202 -17.588  1.00  0.00    -0.744 OA
ENDBRANCH  66  67
ENDBRANCH  47  61
BRANCH  48  71
ATOM     71  C   UNL     1       0.478 -13.490  -9.401  1.00  0.00    -0.014 A 
ATOM     72  C   UNL     1       0.603 -14.850  -9.070  1.00  0.00     0.010 A 
ATOM     73  C   UNL     1      -0.732 -12.828  -9.116  1.00  0.00     0.010 A 
ATOM     74  C   UNL     1      -0.470 -15.541  -8.498  1.00  0.00     0.020 A 
ATOM     75  C   UNL     1      -1.794 -13.506  -8.514  1.00  0.00     0.020 A 
ATOM     76  C   UNL     1      -1.663 -14.864  -8.226  1.00  0.00     0.054 A 
BRANCH  76  77
ATOM     77  S   UNL     1      -3.035 -15.774  -7.463  1.00  0.00     0.124 S 
ATOM     78  O   UNL     1      -3.492 -16.613  -8.566  1.00  0.00    -0.237 OA
ATOM     79  O   UNL     1      -2.375 -16.475  -6.364  1.00  0.00    -0.237 OA
ATOM     80  O   UNL     1      -3.958 -14.718  -7.053  1.00  0.00    -0.744 OA
ENDBRANCH  76  77
ENDBRANCH  48  71
BRANCH  60  81
ATOM     81  C   UNL     1       3.588 -13.930 -15.639  1.00  0.00    -0.014 A 
ATOM     82  C   UNL     1       2.435 -13.915 -16.441  1.00  0.00     0.010 A 
ATOM     83  C   UNL     1       4.636 -14.815 -15.957  1.00  0.00     0.010 A 
ATOM     84  C   UNL     1       2.316 -14.794 -17.520  1.00  0.00     0.020 A 
ATOM     85  C   UNL     1       4.535 -15.671 -17.055  1.00  0.00     0.020 A 
ATOM     86  C   UNL     1       3.367 -15.666 -17.820  1.00  0.00     0.054 A 
BRANCH  86  87
ATOM     87  S   UNL     1       3.203 -16.770 -19.248  1.00  0.00     0.124 S 
ATOM     88  O   UNL     1       2.225 -17.742 -18.769  1.00  0.00    -0.237 OA
ATOM     89  O   UNL     1       2.733 -15.868 -20.296  1.00  0.00    -0.237 OA
ATOM     90  O   UNL     1       4.555 -17.290 -19.442  1.00  0.00    -0.744 OA
ENDBRANCH  86  87
ENDBRANCH  60  81
ENDBRANCH  34  35
ENDBRANCH  27  29
ENDBRANCH  26  27
ENDBRANCH  25  26
ENDBRANCH  24  25
ENDBRANCH   1  24
TORSDOF 20
