REMARK SMILES CCCC[C@H](CC)Cn1ccc(C(=O)OCCOCCOC(=O)c2ccc(-c3c4nc(c(-c5ccc(S(=O)(=O)[O-])cc5)c5ccc([nH]5)c(-c5ccc(S(=O)(=O)[O-])cc5)c5nc(c(-c6ccc(S(=O)(=O)[O-])cc6)c6ccc3[nH]6)C=C5)C=C4)cc2)c1
REMARK SMILES IDX 17 1 16 2 15 3 13 4 14 5 12 6 9 7 10 8 84 9 11 10 8 11 5 12
REMARK SMILES IDX 4 13 3 14 2 15 1 16 6 17 7 18 18 19 19 20 20 21 21 22 22 23
REMARK SMILES IDX 23 24 24 25 25 26 83 27 26 28 82 29 27 30 28 31 29 32 76 33
REMARK SMILES IDX 30 34 81 35 75 36 77 37 31 38 80 39 74 40 73 41 32 43 62 44
REMARK SMILES IDX 43 45 61 46 44 47 47 48 60 49 78 50 45 51 46 52 59 54 79 55
REMARK SMILES IDX 48 56 33 57 34 58 42 59 35 60 41 61 36 62 37 63 38 64 39 65
REMARK SMILES IDX 40 66 63 67 64 68 72 69 65 70 71 71 66 72 67 73 68 74 69 75
REMARK SMILES IDX 70 76 49 77 50 78 58 79 51 80 57 81 52 82 53 83 54 84 55 85
REMARK SMILES IDX 56 86
REMARK H PARENT 77 42 47 53
REMARK Flexibility Score: inf
ROOT
ATOM      1  C   UNL     1      -1.015  -9.165  -0.766  1.00  0.00     0.202 C 
ENDROOT
BRANCH   1   2
ATOM      2  C   UNL     1      -2.363  -8.441  -0.753  1.00  0.00     0.261 C 
BRANCH   2   3
ATOM      3  O   UNL     1      -2.246  -7.094  -1.229  1.00  0.00    -0.460 OA
BRANCH   3   4
ATOM      4  C   UNL     1      -2.239  -6.142  -0.244  1.00  0.00     0.339 C 
ATOM      5  O   UNL     1      -2.497  -6.344   0.923  1.00  0.00    -0.246 OA
BRANCH   4   6
ATOM      6  C   UNL     1      -1.722  -4.864  -0.728  1.00  0.00     0.077 A 
ATOM      7  N   UNL     1      -1.202  -3.102  -2.010  1.00  0.00    -0.353 N 
ATOM      8  C   UNL     1      -0.712  -2.838  -0.761  1.00  0.00     0.086 A 
ATOM      9  C   UNL     1      -1.740  -4.371  -2.018  1.00  0.00     0.101 A 
ATOM     10  C   UNL     1      -1.030  -3.899   0.056  1.00  0.00     0.035 A 
BRANCH   7  11
ATOM     11  C   UNL     1      -1.320  -2.200  -3.154  1.00  0.00     0.125 C 
BRANCH  11  12
ATOM     12  C   UNL     1      -0.935  -0.720  -2.933  1.00  0.00     0.008 C 
BRANCH  12  13
ATOM     13  C   UNL     1      -1.616   0.317  -3.874  1.00  0.00     0.005 C 
BRANCH  13  14
ATOM     14  C   UNL     1      -2.746  -0.137  -4.806  1.00  0.00     0.000 C 
BRANCH  14  15
ATOM     15  C   UNL     1      -4.117  -0.400  -4.173  1.00  0.00    -0.003 C 
ATOM     16  C   UNL     1      -4.730   0.808  -3.486  1.00  0.00     0.004 C 
ENDBRANCH  14  15
ENDBRANCH  13  14
ENDBRANCH  12  13
BRANCH  12  17
ATOM     17  C   UNL     1       0.608  -0.526  -2.943  1.00  0.00     0.002 C 
ATOM     18  C   UNL     1       1.302  -0.822  -4.270  1.00  0.00     0.004 C 
ENDBRANCH  12  17
ENDBRANCH  11  12
ENDBRANCH   7  11
ENDBRANCH   4   6
ENDBRANCH   3   4
ENDBRANCH   2   3
ENDBRANCH   1   2
BRANCH   1  19
ATOM     19  O   UNL     1       0.000  -8.687   0.118  1.00  0.00    -0.374 OA
BRANCH  19  20
ATOM     20  C   UNL     1       0.721  -7.505  -0.216  1.00  0.00     0.202 C 
BRANCH  20  21
ATOM     21  C   UNL     1       1.734  -7.536  -1.352  1.00  0.00     0.261 C 
BRANCH  21  22
ATOM     22  O   UNL     1       1.185  -7.947  -2.595  1.00  0.00    -0.460 OA
BRANCH  22  23
ATOM     23  C   UNL     1       1.397  -9.263  -2.816  1.00  0.00     0.338 C 
ATOM     24  O   UNL     1       1.576 -10.137  -1.983  1.00  0.00    -0.246 OA
BRANCH  23  25
ATOM     25  C   UNL     1       1.594  -9.498  -4.239  1.00  0.00     0.060 A 
ATOM     26  C   UNL     1       1.556 -10.833  -4.647  1.00  0.00     0.016 A 
ATOM     27  C   UNL     1       2.179  -8.482  -5.007  1.00  0.00     0.016 A 
ATOM     28  C   UNL     1       2.266 -11.186  -5.768  1.00  0.00     0.010 A 
ATOM     29  C   UNL     1       2.931  -8.843  -6.098  1.00  0.00     0.010 A 
ATOM     30  C   UNL     1       2.992 -10.196  -6.445  1.00  0.00    -0.014 A 
BRANCH  30  31
ATOM     31  C   UNL     1       3.651 -10.582  -7.690  1.00  0.00     0.031 A 
ATOM     32  C   UNL     1       2.589 -10.495  -8.825  1.00  0.00     0.074 A 
ATOM     33  C   UNL     1       4.953 -11.006  -7.547  1.00  0.00     0.049 A 
ATOM     34  N   UNL     1       2.474 -11.208  -9.896  1.00  0.00    -0.248 NA
ATOM     35  C   UNL     1       1.418  -9.562  -8.712  1.00  0.00     0.031 C 
ATOM     36  C   UNL     1       5.760 -10.944  -6.292  1.00  0.00     0.029 A 
ATOM     37  N   UNL     1       5.880 -11.573  -8.393  1.00  0.00    -0.354 N 
ATOM     38  C   UNL     1       1.396 -10.698 -10.659  1.00  0.00     0.074 A 
ATOM     39  C   UNL     1       0.713  -9.762  -9.829  1.00  0.00     0.031 C 
ATOM     40  C   UNL     1       6.968 -11.545  -6.442  1.00  0.00     0.029 A 
ATOM     41  C   UNL     1       7.093 -12.044  -7.797  1.00  0.00     0.049 A 
ATOM     42  H   UNL     1       5.717 -11.651  -9.360  1.00  0.00     0.167 HD
ATOM     43  C   UNL     1       1.230 -10.998 -11.980  1.00  0.00     0.031 A 
ATOM     44  C   UNL     1       8.072 -12.832  -8.365  1.00  0.00     0.031 A 
ATOM     45  C   UNL     1       2.237 -11.924 -12.376  1.00  0.00     0.049 A 
ATOM     46  C   UNL     1       7.634 -12.959  -9.765  1.00  0.00     0.074 A 
ATOM     47  C   UNL     1       2.400 -13.253 -12.088  1.00  0.00     0.029 A 
ATOM     48  N   UNL     1       3.443 -11.375 -12.746  1.00  0.00    -0.354 N 
ATOM     49  N   UNL     1       7.653 -12.006 -10.647  1.00  0.00    -0.248 NA
ATOM     50  C   UNL     1       6.971 -14.206 -10.169  1.00  0.00     0.031 C 
ATOM     51  C   UNL     1       3.761 -13.307 -11.728  1.00  0.00     0.029 A 
ATOM     52  C   UNL     1       4.413 -12.139 -12.147  1.00  0.00     0.049 A 
ATOM     53  H   UNL     1       3.583 -10.591 -13.325  1.00  0.00     0.167 HD
ATOM     54  C   UNL     1       6.689 -12.410 -11.534  1.00  0.00     0.074 A 
ATOM     55  C   UNL     1       6.564 -13.848 -11.382  1.00  0.00     0.031 C 
ATOM     56  C   UNL     1       5.711 -11.552 -11.928  1.00  0.00     0.031 A 
BRANCH  43  57
ATOM     57  C   UNL     1       0.404 -10.400 -13.081  1.00  0.00    -0.014 A 
ATOM     58  C   UNL     1       0.281 -11.181 -14.260  1.00  0.00     0.010 A 
ATOM     59  C   UNL     1       0.084  -9.039 -13.164  1.00  0.00     0.010 A 
ATOM     60  C   UNL     1       0.009 -10.607 -15.498  1.00  0.00     0.020 A 
ATOM     61  C   UNL     1      -0.237  -8.459 -14.407  1.00  0.00     0.020 A 
ATOM     62  C   UNL     1      -0.221  -9.239 -15.570  1.00  0.00     0.054 A 
BRANCH  62  63
ATOM     63  S   UNL     1      -0.433  -8.508 -17.216  1.00  0.00     0.124 S 
ATOM     64  O   UNL     1       0.899  -8.655 -17.796  1.00  0.00    -0.237 OA
ATOM     65  O   UNL     1      -1.467  -9.359 -17.803  1.00  0.00    -0.237 OA
ATOM     66  O   UNL     1      -0.851  -7.138 -16.933  1.00  0.00    -0.744 OA
ENDBRANCH  62  63
ENDBRANCH  43  57
BRANCH  44  67
ATOM     67  C   UNL     1       9.281 -13.688  -7.984  1.00  0.00    -0.014 A 
ATOM     68  C   UNL     1       9.998 -13.685  -6.781  1.00  0.00     0.010 A 
ATOM     69  C   UNL     1       9.704 -14.685  -8.919  1.00  0.00     0.010 A 
ATOM     70  C   UNL     1      10.945 -14.712  -6.482  1.00  0.00     0.020 A 
ATOM     71  C   UNL     1      10.584 -15.732  -8.621  1.00  0.00     0.020 A 
ATOM     72  C   UNL     1      11.183 -15.763  -7.380  1.00  0.00     0.054 A 
BRANCH  72  73
ATOM     73  S   UNL     1      12.150 -17.233  -6.905  1.00  0.00     0.124 S 
ATOM     74  O   UNL     1      13.527 -16.766  -7.034  1.00  0.00    -0.237 OA
ATOM     75  O   UNL     1      11.693 -17.489  -5.541  1.00  0.00    -0.237 OA
ATOM     76  O   UNL     1      11.743 -18.244  -7.881  1.00  0.00    -0.744 OA
ENDBRANCH  72  73
ENDBRANCH  44  67
BRANCH  56  77
ATOM     77  C   UNL     1       6.000 -10.060 -11.776  1.00  0.00    -0.014 A 
ATOM     78  C   UNL     1       7.091  -9.499 -12.461  1.00  0.00     0.010 A 
ATOM     79  C   UNL     1       5.263  -9.192 -10.941  1.00  0.00     0.010 A 
ATOM     80  C   UNL     1       7.424  -8.139 -12.338  1.00  0.00     0.020 A 
ATOM     81  C   UNL     1       5.593  -7.827 -10.798  1.00  0.00     0.020 A 
ATOM     82  C   UNL     1       6.669  -7.305 -11.514  1.00  0.00     0.054 A 
BRANCH  82  83
ATOM     83  S   UNL     1       7.107  -5.540 -11.418  1.00  0.00     0.124 S 
ATOM     84  O   UNL     1       8.494  -5.573 -10.961  1.00  0.00    -0.237 OA
ATOM     85  O   UNL     1       6.914  -5.094 -12.795  1.00  0.00    -0.237 OA
ATOM     86  O   UNL     1       6.155  -4.992 -10.452  1.00  0.00    -0.744 OA
ENDBRANCH  82  83
ENDBRANCH  56  77
ENDBRANCH  30  31
ENDBRANCH  23  25
ENDBRANCH  22  23
ENDBRANCH  21  22
ENDBRANCH  20  21
ENDBRANCH  19  20
ENDBRANCH   1  19
TORSDOF 23
