REMARK SMILES O=C(OCCOCCOC(=O)c1cccnc1C(=O)Nc1ccc([N+](=O)[O-])cc1)c1ccc(-c2c3nc(c(-c4ccc(S(=O)(=O)[O-])cc4)c4ccc([nH]4)c(-c4ccc(S(=O)(=O)[O-])cc4)c4nc(c(-c5ccc(S(=O)(=O)[O-])cc5)c5ccc2[nH]5)C=C4)C=C3)cc1
REMARK SMILES IDX 6 1 5 2 4 3 3 4 2 5 1 6 30 7 31 8 89 9 32 10 88 11 33 12
REMARK SMILES IDX 34 13 35 14 82 15 36 16 87 17 81 18 83 19 37 20 86 21 80 22
REMARK SMILES IDX 79 23 38 25 68 26 49 27 67 28 50 29 53 30 66 31 84 32 51 33
REMARK SMILES IDX 52 34 65 36 85 37 54 38 39 39 40 40 48 41 41 42 47 43 42 44
REMARK SMILES IDX 43 45 44 46 45 47 46 48 69 49 70 50 78 51 71 52 77 53 72 54
REMARK SMILES IDX 73 55 74 56 75 57 76 58 55 59 56 60 64 61 57 62 63 63 58 64
REMARK SMILES IDX 59 65 60 66 61 67 62 68 7 69 8 70 9 71 10 72 11 73 12 74
REMARK SMILES IDX 13 75 17 76 14 77 16 78 15 79 18 80 19 81 20 82 21 84 22 85
REMARK SMILES IDX 29 86 23 87 28 88 24 89 25 90 26 91 27 92
REMARK H PARENT 83 24 53 35 20 83
REMARK Flexibility Score: inf
ROOT
ATOM      1  O   UNL     1       4.080  -0.338   0.711  1.00  0.00    -0.374 OA
ENDROOT
BRANCH   1   2
ATOM      2  C   UNL     1       4.095   0.745   1.629  1.00  0.00     0.202 C 
BRANCH   2   3
ATOM      3  C   UNL     1       3.618   2.056   1.010  1.00  0.00     0.261 C 
BRANCH   3   4
ATOM      4  O   UNL     1       2.267   1.913   0.544  1.00  0.00    -0.460 OA
BRANCH   4   5
ATOM      5  C   UNL     1       1.835   1.891  -0.739  1.00  0.00     0.338 C 
ATOM      6  O   UNL     1       0.625   1.984  -0.945  1.00  0.00    -0.246 OA
BRANCH   5   7
ATOM      7  C   UNL     1       2.725   1.681  -1.925  1.00  0.00     0.060 A 
ATOM      8  C   UNL     1       3.938   0.987  -1.912  1.00  0.00     0.016 A 
ATOM      9  C   UNL     1       2.234   2.102  -3.170  1.00  0.00     0.016 A 
ATOM     10  C   UNL     1       4.628   0.675  -3.073  1.00  0.00     0.010 A 
ATOM     11  C   UNL     1       2.939   1.833  -4.347  1.00  0.00     0.010 A 
ATOM     12  C   UNL     1       4.140   1.116  -4.294  1.00  0.00    -0.014 A 
BRANCH  12  13
ATOM     13  C   UNL     1       5.040   1.024  -5.452  1.00  0.00     0.031 A 
ATOM     14  C   UNL     1       5.859   2.237  -5.767  1.00  0.00     0.074 A 
ATOM     15  C   UNL     1       5.212  -0.140  -6.100  1.00  0.00     0.049 A 
ATOM     16  N   UNL     1       6.628   2.473  -6.791  1.00  0.00    -0.248 NA
ATOM     17  C   UNL     1       5.810   3.332  -4.779  1.00  0.00     0.031 C 
ATOM     18  C   UNL     1       4.586  -1.413  -5.737  1.00  0.00     0.029 A 
ATOM     19  N   UNL     1       5.980  -0.443  -7.191  1.00  0.00    -0.354 N 
ATOM     20  C   UNL     1       7.110   3.762  -6.599  1.00  0.00     0.074 A 
ATOM     21  C   UNL     1       6.570   4.249  -5.353  1.00  0.00     0.031 C 
ATOM     22  C   UNL     1       4.994  -2.361  -6.598  1.00  0.00     0.029 A 
ATOM     23  C   UNL     1       5.845  -1.745  -7.611  1.00  0.00     0.049 A 
ATOM     24  H   UNL     1       6.572   0.208  -7.632  1.00  0.00     0.167 HD
ATOM     25  C   UNL     1       7.911   4.479  -7.419  1.00  0.00     0.031 A 
ATOM     26  C   UNL     1       6.316  -2.340  -8.725  1.00  0.00     0.031 A 
ATOM     27  C   UNL     1       8.406   3.959  -8.662  1.00  0.00     0.049 A 
ATOM     28  C   UNL     1       7.120  -1.494  -9.680  1.00  0.00     0.074 A 
ATOM     29  C   UNL     1       9.150   4.596  -9.634  1.00  0.00     0.029 A 
ATOM     30  N   UNL     1       8.195   2.656  -9.097  1.00  0.00    -0.354 N 
ATOM     31  N   UNL     1       7.489  -0.238  -9.554  1.00  0.00    -0.248 NA
ATOM     32  C   UNL     1       7.552  -2.128 -10.930  1.00  0.00     0.031 C 
ATOM     33  C   UNL     1       9.348   3.689 -10.682  1.00  0.00     0.029 A 
ATOM     34  C   UNL     1       8.781   2.470 -10.333  1.00  0.00     0.049 A 
ATOM     35  H   UNL     1       7.701   1.967  -8.597  1.00  0.00     0.167 HD
ATOM     36  C   UNL     1       8.206   0.066 -10.705  1.00  0.00     0.074 A 
ATOM     37  C   UNL     1       8.236  -1.146 -11.503  1.00  0.00     0.031 C 
ATOM     38  C   UNL     1       8.783   1.236 -11.080  1.00  0.00     0.031 A 
BRANCH  25  39
ATOM     39  C   UNL     1       8.171   5.909  -7.034  1.00  0.00    -0.014 A 
ATOM     40  C   UNL     1       8.991   6.248  -5.942  1.00  0.00     0.010 A 
ATOM     41  C   UNL     1       7.520   6.934  -7.744  1.00  0.00     0.010 A 
ATOM     42  C   UNL     1       9.109   7.581  -5.535  1.00  0.00     0.020 A 
ATOM     43  C   UNL     1       7.657   8.269  -7.357  1.00  0.00     0.020 A 
ATOM     44  C   UNL     1       8.432   8.582  -6.239  1.00  0.00     0.054 A 
BRANCH  44  45
ATOM     45  S   UNL     1       8.579  10.300  -5.676  1.00  0.00     0.124 S 
ATOM     46  O   UNL     1       7.758  10.291  -4.468  1.00  0.00    -0.237 OA
ATOM     47  O   UNL     1      10.016  10.443  -5.456  1.00  0.00    -0.237 OA
ATOM     48  O   UNL     1       8.041  11.077  -6.789  1.00  0.00    -0.744 OA
ENDBRANCH  44  45
ENDBRANCH  25  39
BRANCH  26  49
ATOM     49  C   UNL     1       5.965  -3.756  -9.032  1.00  0.00    -0.014 A 
ATOM     50  C   UNL     1       6.948  -4.760  -9.083  1.00  0.00     0.010 A 
ATOM     51  C   UNL     1       4.623  -4.113  -9.272  1.00  0.00     0.010 A 
ATOM     52  C   UNL     1       6.598  -6.084  -9.377  1.00  0.00     0.020 A 
ATOM     53  C   UNL     1       4.265  -5.439  -9.535  1.00  0.00     0.020 A 
ATOM     54  C   UNL     1       5.258  -6.416  -9.597  1.00  0.00     0.054 A 
BRANCH  54  55
ATOM     55  S   UNL     1       4.820  -8.147  -9.927  1.00  0.00     0.124 S 
ATOM     56  O   UNL     1       5.317  -8.332 -11.286  1.00  0.00    -0.237 OA
ATOM     57  O   UNL     1       5.550  -8.861  -8.882  1.00  0.00    -0.237 OA
ATOM     58  O   UNL     1       3.366  -8.165  -9.784  1.00  0.00    -0.744 OA
ENDBRANCH  54  55
ENDBRANCH  26  49
BRANCH  38  59
ATOM     59  C   UNL     1       9.520   1.243 -12.389  1.00  0.00    -0.014 A 
ATOM     60  C   UNL     1       8.829   1.256 -13.612  1.00  0.00     0.010 A 
ATOM     61  C   UNL     1      10.924   1.326 -12.383  1.00  0.00     0.010 A 
ATOM     62  C   UNL     1       9.536   1.329 -14.813  1.00  0.00     0.020 A 
ATOM     63  C   UNL     1      11.631   1.427 -13.581  1.00  0.00     0.020 A 
ATOM     64  C   UNL     1      10.932   1.418 -14.789  1.00  0.00     0.054 A 
BRANCH  64  65
ATOM     65  S   UNL     1      11.822   1.577 -16.360  1.00  0.00     0.124 S 
ATOM     66  O   UNL     1      11.738   0.220 -16.894  1.00  0.00    -0.237 OA
ATOM     67  O   UNL     1      11.039   2.584 -17.072  1.00  0.00    -0.237 OA
ATOM     68  O   UNL     1      13.159   2.006 -15.957  1.00  0.00    -0.744 OA
ENDBRANCH  64  65
ENDBRANCH  38  59
ENDBRANCH  12  13
ENDBRANCH   5   7
ENDBRANCH   4   5
ENDBRANCH   3   4
ENDBRANCH   2   3
ENDBRANCH   1   2
BRANCH   1  69
ATOM     69  C   UNL     1       2.880  -1.099   0.572  1.00  0.00     0.202 C 
BRANCH  69  70
ATOM     70  C   UNL     1       3.203  -2.606  -0.061  1.00  0.00     0.261 C 
BRANCH  70  71
ATOM     71  O   UNL     1       4.213  -4.145   0.774  1.00  0.00    -0.460 OA
BRANCH  71  72
ATOM     72  C   UNL     1       5.053  -4.948   1.622  1.00  0.00     0.340 C 
ATOM     73  O   UNL     1       5.272  -6.124   1.337  1.00  0.00    -0.246 OA
BRANCH  72  74
ATOM     74  C   UNL     1       5.527  -4.469   2.976  1.00  0.00     0.091 A 
ATOM     75  C   UNL     1       4.896  -5.109   4.059  1.00  0.00     0.020 A 
ATOM     76  C   UNL     1       6.370  -3.385   3.283  1.00  0.00     0.142 A 
ATOM     77  C   UNL     1       5.065  -4.637   5.360  1.00  0.00     0.021 A 
ATOM     78  N   UNL     1       6.547  -2.931   4.566  1.00  0.00    -0.250 NA
ATOM     79  C   UNL     1       5.890  -3.550   5.562  1.00  0.00     0.112 A 
BRANCH  76  80
ATOM     80  C   UNL     1       7.100  -2.502   2.306  1.00  0.00     0.275 C 
ATOM     81  O   UNL     1       8.229  -2.084   2.561  1.00  0.00    -0.267 OA
ATOM     82  N   UNL     1       6.518  -2.161   1.116  1.00  0.00    -0.321 N 
ATOM     83  H   UNL     1       7.029  -1.600   0.489  1.00  0.00     0.170 HD
BRANCH  82  84
ATOM     84  C   UNL     1       5.249  -2.566   0.750  1.00  0.00     0.042 A 
ATOM     85  C   UNL     1       5.185  -3.507  -0.780  1.00  0.00     0.033 A 
ATOM     86  C   UNL     1       3.907  -2.713   1.997  1.00  0.00     0.033 A 
ATOM     87  C   UNL     1       3.793  -4.596  -1.080  1.00  0.00     0.088 A 
ATOM     88  C   UNL     1       2.522  -3.831   1.672  1.00  0.00     0.088 A 
ATOM     89  C   UNL     1       2.504  -4.786   0.146  1.00  0.00     0.269 A 
BRANCH  89  90
ATOM     90  N   UNL     1       1.348  -5.592  -0.170  1.00  0.00     0.062 N 
ATOM     91  O   UNL     1       1.283  -6.075  -1.305  1.00  0.00    -0.258 OA
ATOM     92  O   UNL     1       0.479  -5.689   0.707  1.00  0.00    -0.258 OA
ENDBRANCH  89  90
ENDBRANCH  82  84
ENDBRANCH  76  80
ENDBRANCH  72  74
ENDBRANCH  71  72
ENDBRANCH  70  71
ENDBRANCH  69  70
ENDBRANCH   1  69
TORSDOF 20
