REMARK SMILES CCOc1cc(OCC)cc(-c2ccc([C@@H](C)C(=O)OCCOCCOC(=O)c3ccc(-c4c5nc(c(-c6ccc(S(=O)(=O)[O-])cc6)c6ccc([nH]6)c(-c6ccc(S(=O)(=O)[O-])cc6)c6nc(c(-c7ccc(S(=O)(=O)[O-])cc7)c7ccc4[nH]7)C=C6)C=C5)cc3)cc2F)c1
REMARK SMILES IDX 22 1 21 2 20 3 18 4 19 5 16 6 17 7 15 8 12 9 13 10 90 11
REMARK SMILES IDX 14 12 89 13 91 14 11 15 4 16 5 17 92 18 6 19 10 20 3 21 2 22
REMARK SMILES IDX 1 23 7 24 8 25 9 26 23 27 24 28 25 29 26 30 27 31 28 32
REMARK SMILES IDX 29 33 30 34 88 35 31 36 87 37 32 38 33 39 34 40 81 41 35 42
REMARK SMILES IDX 86 43 80 44 82 45 36 46 85 47 79 48 78 49 37 51 67 52 48 53
REMARK SMILES IDX 66 54 49 55 52 56 65 57 83 58 50 59 51 60 64 62 84 63 53 64
REMARK SMILES IDX 38 65 39 66 47 67 40 68 46 69 41 70 42 71 43 72 44 73 45 74
REMARK SMILES IDX 68 75 69 76 77 77 70 78 76 79 71 80 72 81 73 82 74 83 75 84
REMARK SMILES IDX 54 85 55 86 63 87 56 88 62 89 57 90 58 91 59 92 60 93 61 94
REMARK H PARENT 82 50 52 61
REMARK Flexibility Score: inf
ROOT
ATOM      1  C   UNL     1       8.089  -0.017   4.854  1.00  0.00     0.202 C 
ENDROOT
BRANCH   1   2
ATOM      2  C   UNL     1       9.310  -0.780   4.335  1.00  0.00     0.261 C 
BRANCH   2   3
ATOM      3  O   UNL     1       9.026  -1.417   3.077  1.00  0.00    -0.463 OA
BRANCH   3   4
ATOM      4  C   UNL     1       9.046  -2.775   3.075  1.00  0.00     0.313 C 
ATOM      5  O   UNL     1       9.405  -3.468   4.022  1.00  0.00    -0.252 OA
BRANCH   4   6
ATOM      6  C   UNL     1       8.611  -3.388   1.753  1.00  0.00     0.126 C 
ATOM      7  C   UNL     1       9.842  -3.687   0.900  1.00  0.00     0.025 C 
BRANCH   6   8
ATOM      8  C   UNL     1       7.537  -2.660   0.954  1.00  0.00    -0.031 A 
ATOM      9  C   UNL     1       5.583  -1.498  -0.768  1.00  0.00     0.018 A 
ATOM     10  C   UNL     1       6.802  -0.850  -0.502  1.00  0.00     0.012 A 
ATOM     11  C   UNL     1       5.340  -2.701  -0.096  1.00  0.00     0.131 A 
ATOM     12  C   UNL     1       7.765  -1.422   0.339  1.00  0.00     0.005 A 
ATOM     13  C   UNL     1       6.291  -3.275   0.749  1.00  0.00     0.044 A 
ATOM     14  F   UNL     1       4.193  -3.370  -0.293  1.00  0.00    -0.206 F 
BRANCH   9  15
ATOM     15  C   UNL     1       4.653  -0.966  -1.778  1.00  0.00    -0.008 A 
ATOM     16  C   UNL     1       2.436  -0.296  -2.508  1.00  0.00     0.123 A 
ATOM     17  C   UNL     1       2.928   0.013  -3.776  1.00  0.00     0.092 A 
ATOM     18  C   UNL     1       3.286  -0.801  -1.524  1.00  0.00     0.055 A 
ATOM     19  C   UNL     1       4.279  -0.172  -4.066  1.00  0.00     0.123 A 
ATOM     20  C   UNL     1       5.128  -0.650  -3.066  1.00  0.00     0.055 A 
BRANCH  16  21
ATOM     21  O   UNL     1       1.083  -0.225  -2.309  1.00  0.00    -0.494 OA
BRANCH  21  22
ATOM     22  C   UNL     1       0.692   0.784  -1.371  1.00  0.00     0.226 C 
ATOM     23  C   UNL     1       0.538   0.214   0.030  1.00  0.00     0.049 C 
ENDBRANCH  21  22
ENDBRANCH  16  21
BRANCH  19  24
ATOM     24  O   UNL     1       4.663   0.152  -5.339  1.00  0.00    -0.494 OA
BRANCH  24  25
ATOM     25  C   UNL     1       5.910  -0.362  -5.813  1.00  0.00     0.226 C 
ATOM     26  C   UNL     1       7.052   0.604  -5.538  1.00  0.00     0.049 C 
ENDBRANCH  24  25
ENDBRANCH  19  24
ENDBRANCH   9  15
ENDBRANCH   6   8
ENDBRANCH   4   6
ENDBRANCH   3   4
ENDBRANCH   2   3
ENDBRANCH   1   2
BRANCH   1  27
ATOM     27  O   UNL     1       6.969  -0.815   5.239  1.00  0.00    -0.374 OA
BRANCH  27  28
ATOM     28  C   UNL     1       6.132  -1.313   4.194  1.00  0.00     0.202 C 
BRANCH  28  29
ATOM     29  C   UNL     1       5.146  -0.319   3.569  1.00  0.00     0.261 C 
BRANCH  29  30
ATOM     30  O   UNL     1       5.810   0.696   2.796  1.00  0.00    -0.460 OA
BRANCH  30  31
ATOM     31  C   UNL     1       5.793   1.932   3.345  1.00  0.00     0.338 C 
ATOM     32  O   UNL     1       5.237   2.270   4.382  1.00  0.00    -0.246 OA
BRANCH  31  33
ATOM     33  C   UNL     1       6.708   2.827   2.612  1.00  0.00     0.060 A 
ATOM     34  C   UNL     1       7.628   3.571   3.363  1.00  0.00     0.016 A 
ATOM     35  C   UNL     1       6.612   3.002   1.230  1.00  0.00     0.016 A 
ATOM     36  C   UNL     1       8.414   4.542   2.745  1.00  0.00     0.010 A 
ATOM     37  C   UNL     1       7.394   3.984   0.613  1.00  0.00     0.010 A 
ATOM     38  C   UNL     1       8.265   4.787   1.375  1.00  0.00    -0.014 A 
BRANCH  38  39
ATOM     39  C   UNL     1       8.861   6.003   0.771  1.00  0.00     0.031 A 
ATOM     40  C   UNL     1       7.979   7.205   0.566  1.00  0.00     0.074 A 
ATOM     41  C   UNL     1      10.157   6.045   0.416  1.00  0.00     0.049 A 
ATOM     42  N   UNL     1       8.243   8.334  -0.039  1.00  0.00    -0.248 NA
ATOM     43  C   UNL     1       6.614   7.120   1.115  1.00  0.00     0.031 C 
ATOM     44  C   UNL     1      11.130   4.974   0.625  1.00  0.00     0.029 A 
ATOM     45  N   UNL     1      10.874   7.034  -0.211  1.00  0.00    -0.354 N 
ATOM     46  C   UNL     1       7.074   9.083   0.036  1.00  0.00     0.074 A 
ATOM     47  C   UNL     1       6.095   8.276   0.730  1.00  0.00     0.031 C 
ATOM     48  C   UNL     1      12.315   5.357   0.117  1.00  0.00     0.029 A 
ATOM     49  C   UNL     1      12.173   6.680  -0.489  1.00  0.00     0.049 A 
ATOM     50  H   UNL     1      10.494   7.913  -0.440  1.00  0.00     0.167 HD
ATOM     51  C   UNL     1       6.837  10.330  -0.433  1.00  0.00     0.031 A 
ATOM     52  C   UNL     1      13.127   7.335  -1.181  1.00  0.00     0.031 A 
ATOM     53  C   UNL     1       7.811  11.126  -1.129  1.00  0.00     0.049 A 
ATOM     54  C   UNL     1      12.819   8.691  -1.763  1.00  0.00     0.074 A 
ATOM     55  C   UNL     1       7.670  12.402  -1.644  1.00  0.00     0.029 A 
ATOM     56  N   UNL     1       9.107  10.721  -1.407  1.00  0.00    -0.354 N 
ATOM     57  N   UNL     1      11.708   9.386  -1.690  1.00  0.00    -0.248 NA
ATOM     58  C   UNL     1      13.893   9.354  -2.519  1.00  0.00     0.031 C 
ATOM     59  C   UNL     1       8.866  12.749  -2.279  1.00  0.00     0.029 A 
ATOM     60  C   UNL     1       9.771  11.714  -2.103  1.00  0.00     0.049 A 
ATOM     61  H   UNL     1       9.497   9.854  -1.149  1.00  0.00     0.167 HD
ATOM     62  C   UNL     1      11.964  10.582  -2.353  1.00  0.00     0.074 A 
ATOM     63  C   UNL     1      13.331  10.516  -2.825  1.00  0.00     0.031 C 
ATOM     64  C   UNL     1      11.141  11.642  -2.546  1.00  0.00     0.031 A 
BRANCH  51  65
ATOM     65  C   UNL     1       5.453  10.893  -0.247  1.00  0.00    -0.014 A 
ATOM     66  C   UNL     1       4.992  11.295   1.019  1.00  0.00     0.010 A 
ATOM     67  C   UNL     1       4.613  11.050  -1.364  1.00  0.00     0.010 A 
ATOM     68  C   UNL     1       3.700  11.807   1.170  1.00  0.00     0.020 A 
ATOM     69  C   UNL     1       3.331  11.586  -1.222  1.00  0.00     0.020 A 
ATOM     70  C   UNL     1       2.876  11.945   0.049  1.00  0.00     0.054 A 
BRANCH  70  71
ATOM     71  S   UNL     1       1.210  12.626   0.270  1.00  0.00     0.124 S 
ATOM     72  O   UNL     1       0.512  11.511   0.906  1.00  0.00    -0.237 OA
ATOM     73  O   UNL     1       1.448  13.787   1.124  1.00  0.00    -0.237 OA
ATOM     74  O   UNL     1       0.778  12.935  -1.091  1.00  0.00    -0.744 OA
ENDBRANCH  70  71
ENDBRANCH  51  65
BRANCH  52  75
ATOM     75  C   UNL     1      14.459   6.704  -1.387  1.00  0.00    -0.014 A 
ATOM     76  C   UNL     1      15.603   7.213  -0.748  1.00  0.00     0.010 A 
ATOM     77  C   UNL     1      14.588   5.580  -2.225  1.00  0.00     0.010 A 
ATOM     78  C   UNL     1      16.852   6.620  -0.953  1.00  0.00     0.020 A 
ATOM     79  C   UNL     1      15.831   4.968  -2.411  1.00  0.00     0.020 A 
ATOM     80  C   UNL     1      16.957   5.498  -1.781  1.00  0.00     0.054 A 
BRANCH  80  81
ATOM     81  S   UNL     1      18.579   4.710  -1.988  1.00  0.00     0.124 S 
ATOM     82  O   UNL     1      19.267   5.656  -2.861  1.00  0.00    -0.237 OA
ATOM     83  O   UNL     1      19.073   4.639  -0.615  1.00  0.00    -0.237 OA
ATOM     84  O   UNL     1      18.255   3.420  -2.593  1.00  0.00    -0.744 OA
ENDBRANCH  80  81
ENDBRANCH  52  75
BRANCH  64  85
ATOM     85  C   UNL     1      11.701  12.856  -3.238  1.00  0.00    -0.014 A 
ATOM     86  C   UNL     1      11.902  12.880  -4.628  1.00  0.00     0.010 A 
ATOM     87  C   UNL     1      11.920  14.029  -2.491  1.00  0.00     0.010 A 
ATOM     88  C   UNL     1      12.318  14.057  -5.259  1.00  0.00     0.020 A 
ATOM     89  C   UNL     1      12.313  15.212  -3.120  1.00  0.00     0.020 A 
ATOM     90  C   UNL     1      12.515  15.217  -4.502  1.00  0.00     0.054 A 
BRANCH  90  91
ATOM     91  S   UNL     1      12.969  16.753  -5.355  1.00  0.00     0.124 S 
ATOM     92  O   UNL     1      14.368  16.509  -5.695  1.00  0.00    -0.237 OA
ATOM     93  O   UNL     1      12.042  16.778  -6.484  1.00  0.00    -0.237 OA
ATOM     94  O   UNL     1      12.743  17.788  -4.348  1.00  0.00    -0.744 OA
ENDBRANCH  90  91
ENDBRANCH  64  85
ENDBRANCH  38  39
ENDBRANCH  31  33
ENDBRANCH  30  31
ENDBRANCH  29  30
ENDBRANCH  28  29
ENDBRANCH  27  28
ENDBRANCH   1  27
TORSDOF 23
