REMARK SMILES O=C(OCCOCCOC(=O)c1ccn(-c2cc(-c3ccncc3)nc(-c3ccccc3F)n2)n1)c1ccc(-c2c3nc(c(-c4ccc(S(=O)(=O)[O-])cc4)c4ccc([nH]4)c(-c4ccc(S(=O)(=O)[O-])cc4)c4nc(c(-c5ccc(S(=O)(=O)[O-])cc5)c5ccc2[nH]5)C=C4)C=C3)cc1
REMARK SMILES IDX 5 1 4 2 3 3 2 4 1 5 36 6 37 7 95 8 38 9 94 10 39 11 40 12
REMARK SMILES IDX 41 13 88 14 42 15 93 16 87 17 89 18 43 19 92 20 86 21 85 22
REMARK SMILES IDX 44 24 74 25 55 26 73 27 56 28 59 29 72 30 90 31 57 32 58 33
REMARK SMILES IDX 71 35 91 36 60 37 45 38 46 39 54 40 47 41 53 42 48 43 49 44
REMARK SMILES IDX 50 45 51 46 52 47 75 48 76 49 84 50 77 51 83 52 78 53 79 54
REMARK SMILES IDX 80 55 81 56 82 57 61 58 62 59 70 60 63 61 69 62 64 63 65 64
REMARK SMILES IDX 66 65 67 66 68 67 6 68 7 69 8 70 9 71 10 72 11 73 12 74
REMARK SMILES IDX 13 75 35 76 14 77 15 78 16 79 17 80 34 81 18 82 26 83 25 84
REMARK SMILES IDX 19 85 20 86 24 87 21 88 23 89 22 90 27 91 28 92 32 93 29 94
REMARK SMILES IDX 31 95 33 96 30 97
REMARK H PARENT 89 23 59 34
REMARK Flexibility Score: inf
ROOT
ATOM      1  C   UNL     1       4.768   1.124   0.018  1.00  0.00     0.202 C 
ENDROOT
BRANCH   1   2
ATOM      2  C   UNL     1       4.676   0.302  -1.263  1.00  0.00     0.261 C 
BRANCH   2   3
ATOM      3  O   UNL     1       3.339   0.116  -1.778  1.00  0.00    -0.460 OA
BRANCH   3   4
ATOM      4  C   UNL     1       2.283  -0.102  -0.959  1.00  0.00     0.338 C 
ATOM      5  O   UNL     1       1.347   0.686  -0.881  1.00  0.00    -0.246 OA
BRANCH   4   6
ATOM      6  C   UNL     1       2.179  -1.485  -0.427  1.00  0.00     0.060 A 
ATOM      7  C   UNL     1       3.274  -2.342  -0.335  1.00  0.00     0.016 A 
ATOM      8  C   UNL     1       0.898  -1.968  -0.120  1.00  0.00     0.016 A 
ATOM      9  C   UNL     1       3.084  -3.695  -0.172  1.00  0.00     0.010 A 
ATOM     10  C   UNL     1       0.706  -3.325   0.099  1.00  0.00     0.010 A 
ATOM     11  C   UNL     1       1.792  -4.190  -0.030  1.00  0.00    -0.014 A 
BRANCH  11  12
ATOM     12  C   UNL     1       1.665  -5.639  -0.046  1.00  0.00     0.031 A 
ATOM     13  C   UNL     1       2.423  -6.363   1.010  1.00  0.00     0.074 A 
ATOM     14  C   UNL     1       0.900  -6.277  -0.950  1.00  0.00     0.049 A 
ATOM     15  N   UNL     1       3.360  -7.245   0.874  1.00  0.00    -0.248 NA
ATOM     16  C   UNL     1       2.175  -5.953   2.400  1.00  0.00     0.031 C 
ATOM     17  C   UNL     1      -0.070  -5.690  -1.879  1.00  0.00     0.029 A 
ATOM     18  N   UNL     1       0.738  -7.615  -1.134  1.00  0.00    -0.354 N 
ATOM     19  C   UNL     1       3.691  -7.647   2.166  1.00  0.00     0.074 A 
ATOM     20  C   UNL     1       3.040  -6.722   3.059  1.00  0.00     0.031 C 
ATOM     21  C   UNL     1      -0.898  -6.661  -2.316  1.00  0.00     0.029 A 
ATOM     22  C   UNL     1      -0.426  -7.939  -1.813  1.00  0.00     0.049 A 
ATOM     23  H   UNL     1       1.384  -8.287  -0.816  1.00  0.00     0.167 HD
ATOM     24  C   UNL     1       4.292  -8.841   2.429  1.00  0.00     0.031 A 
ATOM     25  C   UNL     1      -1.019  -9.155  -1.860  1.00  0.00     0.031 A 
ATOM     26  C   UNL     1       4.941  -9.396   1.273  1.00  0.00     0.049 A 
ATOM     27  C   UNL     1       0.001 -10.171  -1.507  1.00  0.00     0.074 A 
ATOM     28  C   UNL     1       5.969  -8.994   0.444  1.00  0.00     0.029 A 
ATOM     29  N   UNL     1       4.306 -10.422   0.616  1.00  0.00    -0.354 N 
ATOM     30  N   UNL     1       1.036 -10.444  -2.252  1.00  0.00    -0.248 NA
ATOM     31  C   UNL     1       0.103 -10.606  -0.123  1.00  0.00     0.031 C 
ATOM     32  C   UNL     1       5.615  -9.478  -0.849  1.00  0.00     0.029 A 
ATOM     33  C   UNL     1       4.411 -10.174  -0.727  1.00  0.00     0.049 A 
ATOM     34  H   UNL     1       3.859 -11.194   1.034  1.00  0.00     0.167 HD
ATOM     35  C   UNL     1       2.065 -10.704  -1.359  1.00  0.00     0.074 A 
ATOM     36  C   UNL     1       1.404 -10.903  -0.072  1.00  0.00     0.031 C 
ATOM     37  C   UNL     1       3.369 -10.464  -1.690  1.00  0.00     0.031 A 
BRANCH  24  38
ATOM     38  C   UNL     1       3.930  -9.684   3.632  1.00  0.00    -0.014 A 
ATOM     39  C   UNL     1       4.586 -10.917   3.829  1.00  0.00     0.010 A 
ATOM     40  C   UNL     1       2.765  -9.454   4.395  1.00  0.00     0.010 A 
ATOM     41  C   UNL     1       4.039 -11.906   4.659  1.00  0.00     0.020 A 
ATOM     42  C   UNL     1       2.239 -10.412   5.261  1.00  0.00     0.020 A 
ATOM     43  C   UNL     1       2.852 -11.653   5.347  1.00  0.00     0.054 A 
BRANCH  43  44
ATOM     44  S   UNL     1       2.054 -12.986   6.273  1.00  0.00     0.124 S 
ATOM     45  O   UNL     1       1.639 -13.883   5.199  1.00  0.00    -0.237 OA
ATOM     46  O   UNL     1       3.139 -13.469   7.121  1.00  0.00    -0.237 OA
ATOM     47  O   UNL     1       0.969 -12.308   6.980  1.00  0.00    -0.744 OA
ENDBRANCH  43  44
ENDBRANCH  24  38
BRANCH  25  48
ATOM     48  C   UNL     1      -2.479  -9.414  -1.833  1.00  0.00    -0.014 A 
ATOM     49  C   UNL     1      -3.000 -10.681  -2.145  1.00  0.00     0.010 A 
ATOM     50  C   UNL     1      -3.353  -8.469  -1.252  1.00  0.00     0.010 A 
ATOM     51  C   UNL     1      -4.334 -11.003  -1.843  1.00  0.00     0.020 A 
ATOM     52  C   UNL     1      -4.684  -8.777  -0.962  1.00  0.00     0.020 A 
ATOM     53  C   UNL     1      -5.163 -10.052  -1.239  1.00  0.00     0.054 A 
BRANCH  53  54
ATOM     54  S   UNL     1      -6.833 -10.525  -0.706  1.00  0.00     0.124 S 
ATOM     55  O   UNL     1      -7.535 -10.670  -1.978  1.00  0.00    -0.237 OA
ATOM     56  O   UNL     1      -6.593 -11.764   0.029  1.00  0.00    -0.237 OA
ATOM     57  O   UNL     1      -7.266  -9.395   0.115  1.00  0.00    -0.744 OA
ENDBRANCH  53  54
ENDBRANCH  25  48
BRANCH  37  58
ATOM     58  C   UNL     1       3.706 -10.202  -3.140  1.00  0.00    -0.014 A 
ATOM     59  C   UNL     1       3.189  -9.112  -3.866  1.00  0.00     0.010 A 
ATOM     60  C   UNL     1       4.704 -10.992  -3.738  1.00  0.00     0.010 A 
ATOM     61  C   UNL     1       3.639  -8.836  -5.165  1.00  0.00     0.020 A 
ATOM     62  C   UNL     1       5.170 -10.712  -5.026  1.00  0.00     0.020 A 
ATOM     63  C   UNL     1       4.630  -9.639  -5.737  1.00  0.00     0.054 A 
BRANCH  63  64
ATOM     64  S   UNL     1       5.252  -9.239  -7.394  1.00  0.00     0.124 S 
ATOM     65  O   UNL     1       4.120  -9.581  -8.250  1.00  0.00    -0.237 OA
ATOM     66  O   UNL     1       5.557  -7.814  -7.291  1.00  0.00    -0.237 OA
ATOM     67  O   UNL     1       6.423 -10.103  -7.544  1.00  0.00    -0.744 OA
ENDBRANCH  63  64
ENDBRANCH  37  58
ENDBRANCH  11  12
ENDBRANCH   4   6
ENDBRANCH   3   4
ENDBRANCH   2   3
ENDBRANCH   1   2
BRANCH   1  68
ATOM     68  O   UNL     1       4.298   0.498   1.209  1.00  0.00    -0.374 OA
BRANCH  68  69
ATOM     69  C   UNL     1       3.185   1.135   1.858  1.00  0.00     0.202 C 
BRANCH  69  70
ATOM     70  C   UNL     1       3.371   2.566   2.390  1.00  0.00     0.261 C 
BRANCH  70  71
ATOM     71  O   UNL     1       3.486   3.530   1.325  1.00  0.00    -0.458 OA
BRANCH  71  72
ATOM     72  C   UNL     1       4.745   4.017   1.102  1.00  0.00     0.358 C 
ATOM     73  O   UNL     1       5.692   3.869   1.855  1.00  0.00    -0.244 OA
BRANCH  72  74
ATOM     74  C   UNL     1       4.863   4.679  -0.205  1.00  0.00     0.170 A 
ATOM     75  C   UNL     1       4.449   5.994  -0.519  1.00  0.00     0.058 A 
ATOM     76  N   UNL     1       5.458   4.086  -1.267  1.00  0.00    -0.159 NA
ATOM     77  C   UNL     1       5.009   6.251  -1.745  1.00  0.00     0.118 A 
ATOM     78  N   UNL     1       5.627   5.093  -2.159  1.00  0.00    -0.222 N 
BRANCH  78  79
ATOM     79  C   UNL     1       6.465   4.978  -3.301  1.00  0.00     0.158 A 
ATOM     80  C   UNL     1       6.385   3.864  -4.114  1.00  0.00     0.078 A 
ATOM     81  N   UNL     1       7.281   6.026  -3.550  1.00  0.00    -0.209 NA
ATOM     82  C   UNL     1       7.160   3.910  -5.262  1.00  0.00     0.077 A 
ATOM     83  C   UNL     1       8.082   5.912  -4.616  1.00  0.00     0.165 A 
ATOM     84  N   UNL     1       8.052   4.900  -5.492  1.00  0.00    -0.228 NA
BRANCH  82  85
ATOM     85  C   UNL     1       7.007   2.975  -6.387  1.00  0.00     0.003 A 
ATOM     86  C   UNL     1       5.766   2.793  -7.013  1.00  0.00     0.030 A 
ATOM     87  C   UNL     1       8.116   2.329  -6.948  1.00  0.00     0.030 A 
ATOM     88  C   UNL     1       5.693   2.003  -8.150  1.00  0.00     0.111 A 
ATOM     89  C   UNL     1       7.941   1.550  -8.082  1.00  0.00     0.111 A 
ATOM     90  N   UNL     1       6.755   1.382  -8.700  1.00  0.00    -0.265 NA
ENDBRANCH  82  85
BRANCH  83  91
ATOM     91  C   UNL     1       9.113   6.924  -4.771  1.00  0.00     0.055 A 
ATOM     92  C   UNL     1      10.179   7.009  -3.855  1.00  0.00     0.015 A 
ATOM     93  C   UNL     1       9.064   7.854  -5.811  1.00  0.00     0.134 A 
ATOM     94  C   UNL     1      11.160   7.996  -3.985  1.00  0.00     0.001 A 
ATOM     95  C   UNL     1      10.036   8.845  -5.943  1.00  0.00     0.040 A 
ATOM     96  F   UNL     1       8.055   7.832  -6.694  1.00  0.00    -0.206 F 
ATOM     97  C   UNL     1      11.086   8.916  -5.029  1.00  0.00     0.003 A 
ENDBRANCH  83  91
ENDBRANCH  78  79
ENDBRANCH  72  74
ENDBRANCH  71  72
ENDBRANCH  70  71
ENDBRANCH  69  70
ENDBRANCH  68  69
ENDBRANCH   1  68
TORSDOF 20
