REMARK SMILES CN1C(=O)[C@@H]2CC=CC[C@]2(C(=O)OCCOCCOC(=O)c2ccc(-c3c4nc(c(-c5ccc(S(=O)(=O)[O-])cc5)c5ccc([nH]5)c(-c5ccc(S(=O)(=O)[O-])cc5)c5nc(c(-c6ccc(S(=O)(=O)[O-])cc6)c6ccc3[nH]6)C=C5)C=C4)cc2)[C@H]1c1ccccc1
REMARK SMILES IDX 17 1 16 2 15 3 14 4 13 5 11 6 12 7 10 8 1 9 2 10 3 11 82 12
REMARK SMILES IDX 4 13 5 14 6 15 9 16 7 17 8 18 83 19 84 20 88 21 85 22 87 23
REMARK SMILES IDX 86 24 18 25 19 26 20 27 21 28 22 29 23 30 81 31 24 32 80 33
REMARK SMILES IDX 25 34 26 35 27 36 74 37 28 38 79 39 73 40 75 41 29 42 78 43
REMARK SMILES IDX 72 44 71 45 30 47 60 48 41 49 59 50 42 51 45 52 58 53 76 54
REMARK SMILES IDX 43 55 44 56 57 58 77 59 46 60 31 61 32 62 40 63 33 64 39 65
REMARK SMILES IDX 34 66 35 67 36 68 37 69 38 70 61 71 62 72 70 73 63 74 69 75
REMARK SMILES IDX 64 76 65 77 66 78 67 79 68 80 47 81 48 82 56 83 49 84 55 85
REMARK SMILES IDX 50 86 51 87 52 88 53 89 54 90
REMARK H PARENT 75 46 45 57
REMARK Flexibility Score: inf
ROOT
ATOM      1  C   UNL     1       1.191   2.950  -6.714  1.00  0.00     0.202 C 
ENDROOT
BRANCH   1   2
ATOM      2  O   UNL     1      -0.125   2.930  -6.151  1.00  0.00    -0.374 OA
BRANCH   2   3
ATOM      3  C   UNL     1      -0.528   4.079  -5.397  1.00  0.00     0.202 C 
BRANCH   3   4
ATOM      4  C   UNL     1      -1.770   3.717  -4.558  1.00  0.00     0.261 C 
BRANCH   4   5
ATOM      5  O   UNL     1      -1.380   2.599  -3.743  1.00  0.00    -0.463 OA
BRANCH   5   6
ATOM      6  C   UNL     1      -2.058   1.402  -3.712  1.00  0.00     0.315 C 
ATOM      7  O   UNL     1      -3.218   1.221  -4.042  1.00  0.00    -0.251 OA
BRANCH   6   8
ATOM      8  C   UNL     1      -0.998   0.318  -3.421  1.00  0.00     0.108 C 
ATOM      9  C   UNL     1       1.220  -0.241  -0.383  1.00  0.00     0.147 C 
ATOM     10  N   UNL     1       0.274  -0.319  -1.481  1.00  0.00    -0.337 N 
ATOM     11  C   UNL     1      -0.386  -1.459  -1.868  1.00  0.00     0.227 C 
ATOM     12  C   UNL     1      -0.211   0.855  -2.154  1.00  0.00     0.133 C 
ATOM     13  O   UNL     1      -0.242  -2.558  -1.352  1.00  0.00    -0.275 OA
ATOM     14  C   UNL     1      -1.357  -1.135  -3.010  1.00  0.00     0.102 C 
ATOM     15  C   UNL     1      -1.207  -2.276  -4.043  1.00  0.00     0.041 C 
ATOM     16  C   UNL     1      -0.272   0.361  -4.785  1.00  0.00     0.049 C 
ATOM     17  C   UNL     1      -0.196  -2.069  -5.122  1.00  0.00    -0.030 C 
ATOM     18  C   UNL     1       0.253  -0.859  -5.440  1.00  0.00    -0.030 C 
BRANCH  12  19
ATOM     19  C   UNL     1      -1.086   1.667  -1.173  1.00  0.00    -0.024 A 
ATOM     20  C   UNL     1      -2.305   1.154  -0.693  1.00  0.00     0.006 A 
ATOM     21  C   UNL     1      -0.773   3.009  -0.900  1.00  0.00     0.006 A 
ATOM     22  C   UNL     1      -3.251   1.993  -0.109  1.00  0.00     0.000 A 
ATOM     23  C   UNL     1      -1.716   3.842  -0.293  1.00  0.00     0.000 A 
ATOM     24  C   UNL     1      -2.967   3.343   0.066  1.00  0.00     0.000 A 
ENDBRANCH  12  19
ENDBRANCH   6   8
ENDBRANCH   5   6
ENDBRANCH   4   5
ENDBRANCH   3   4
ENDBRANCH   2   3
ENDBRANCH   1   2
BRANCH   1  25
ATOM     25  C   UNL     1       2.344   2.578  -5.751  1.00  0.00     0.261 C 
BRANCH  25  26
ATOM     26  O   UNL     1       2.520   3.526  -4.696  1.00  0.00    -0.460 OA
BRANCH  26  27
ATOM     27  C   UNL     1       3.040   4.690  -5.142  1.00  0.00     0.338 C 
ATOM     28  O   UNL     1       3.400   4.949  -6.274  1.00  0.00    -0.246 OA
BRANCH  27  29
ATOM     29  C   UNL     1       2.940   5.687  -4.077  1.00  0.00     0.060 A 
ATOM     30  C   UNL     1       2.185   6.829  -4.348  1.00  0.00     0.016 A 
ATOM     31  C   UNL     1       3.678   5.553  -2.900  1.00  0.00     0.016 A 
ATOM     32  C   UNL     1       2.252   7.905  -3.477  1.00  0.00     0.010 A 
ATOM     33  C   UNL     1       3.737   6.632  -2.022  1.00  0.00     0.010 A 
ATOM     34  C   UNL     1       3.080   7.832  -2.348  1.00  0.00    -0.014 A 
BRANCH  34  35
ATOM     35  C   UNL     1       3.424   9.087  -1.648  1.00  0.00     0.031 A 
ATOM     36  C   UNL     1       4.751   9.735  -1.946  1.00  0.00     0.074 A 
ATOM     37  C   UNL     1       2.534   9.673  -0.831  1.00  0.00     0.049 A 
ATOM     38  N   UNL     1       5.239  10.861  -1.497  1.00  0.00    -0.248 NA
ATOM     39  C   UNL     1       5.646   9.019  -2.872  1.00  0.00     0.031 C 
ATOM     40  C   UNL     1       1.206   9.148  -0.512  1.00  0.00     0.029 A 
ATOM     41  N   UNL     1       2.611  10.849  -0.134  1.00  0.00    -0.354 N 
ATOM     42  C   UNL     1       6.497  10.983  -2.078  1.00  0.00     0.074 A 
ATOM     43  C   UNL     1       6.714   9.800  -2.878  1.00  0.00     0.031 C 
ATOM     44  C   UNL     1       0.587  10.008   0.314  1.00  0.00     0.029 A 
ATOM     45  C   UNL     1       1.485  11.124   0.602  1.00  0.00     0.049 A 
ATOM     46  H   UNL     1       3.398  11.440  -0.158  1.00  0.00     0.167 HD
ATOM     47  C   UNL     1       7.385  11.998  -1.965  1.00  0.00     0.031 A 
ATOM     48  C   UNL     1       1.217  12.159   1.419  1.00  0.00     0.031 A 
ATOM     49  C   UNL     1       7.160  13.168  -1.158  1.00  0.00     0.049 A 
ATOM     50  C   UNL     1       2.243  13.251   1.571  1.00  0.00     0.074 A 
ATOM     51  C   UNL     1       7.986  14.262  -0.976  1.00  0.00     0.029 A 
ATOM     52  N   UNL     1       6.023  13.392  -0.395  1.00  0.00    -0.354 N 
ATOM     53  N   UNL     1       3.420  13.363   0.999  1.00  0.00    -0.248 NA
ATOM     54  C   UNL     1       1.894  14.364   2.461  1.00  0.00     0.031 C 
ATOM     55  C   UNL     1       7.375  15.120  -0.057  1.00  0.00     0.029 A 
ATOM     56  C   UNL     1       6.135  14.597   0.277  1.00  0.00     0.049 A 
ATOM     57  H   UNL     1       5.250  12.784  -0.340  1.00  0.00     0.167 HD
ATOM     58  C   UNL     1       3.937  14.579   1.435  1.00  0.00     0.074 A 
ATOM     59  C   UNL     1       2.937  15.168   2.304  1.00  0.00     0.031 C 
ATOM     60  C   UNL     1       5.128  15.160   1.141  1.00  0.00     0.031 A 
BRANCH  47  61
ATOM     61  C   UNL     1       8.693  11.867  -2.703  1.00  0.00    -0.014 A 
ATOM     62  C   UNL     1       8.753  11.930  -4.107  1.00  0.00     0.010 A 
ATOM     63  C   UNL     1       9.886  11.702  -1.976  1.00  0.00     0.010 A 
ATOM     64  C   UNL     1       9.976  11.791  -4.771  1.00  0.00     0.020 A 
ATOM     65  C   UNL     1      11.114  11.594  -2.634  1.00  0.00     0.020 A 
ATOM     66  C   UNL     1      11.149  11.622  -4.029  1.00  0.00     0.054 A 
BRANCH  66  67
ATOM     67  S   UNL     1      12.724  11.468  -4.916  1.00  0.00     0.124 S 
ATOM     68  O   UNL     1      12.606  10.138  -5.510  1.00  0.00    -0.237 OA
ATOM     69  O   UNL     1      12.671  12.583  -5.857  1.00  0.00    -0.237 OA
ATOM     70  O   UNL     1      13.729  11.591  -3.863  1.00  0.00    -0.744 OA
ENDBRANCH  66  67
ENDBRANCH  47  61
BRANCH  48  71
ATOM     71  C   UNL     1      -0.077  12.209   2.152  1.00  0.00    -0.014 A 
ATOM     72  C   UNL     1      -1.046  13.180   1.842  1.00  0.00     0.010 A 
ATOM     73  C   UNL     1      -0.349  11.272   3.166  1.00  0.00     0.010 A 
ATOM     74  C   UNL     1      -2.252  13.227   2.547  1.00  0.00     0.020 A 
ATOM     75  C   UNL     1      -1.566  11.296   3.851  1.00  0.00     0.020 A 
ATOM     76  C   UNL     1      -2.505  12.281   3.546  1.00  0.00     0.054 A 
BRANCH  76  77
ATOM     77  S   UNL     1      -4.097  12.332   4.414  1.00  0.00     0.124 S 
ATOM     78  O   UNL     1      -3.952  13.521   5.246  1.00  0.00    -0.237 OA
ATOM     79  O   UNL     1      -5.051  12.440   3.313  1.00  0.00    -0.237 OA
ATOM     80  O   UNL     1      -4.132  11.061   5.136  1.00  0.00    -0.744 OA
ENDBRANCH  76  77
ENDBRANCH  48  71
BRANCH  60  81
ATOM     81  C   UNL     1       5.390  16.524   1.725  1.00  0.00    -0.014 A 
ATOM     82  C   UNL     1       5.606  16.708   3.102  1.00  0.00     0.010 A 
ATOM     83  C   UNL     1       5.448  17.639   0.868  1.00  0.00     0.010 A 
ATOM     84  C   UNL     1       5.819  17.989   3.618  1.00  0.00     0.020 A 
ATOM     85  C   UNL     1       5.696  18.916   1.375  1.00  0.00     0.020 A 
ATOM     86  C   UNL     1       5.857  19.086   2.751  1.00  0.00     0.054 A 
BRANCH  86  87
ATOM     87  S   UNL     1       6.143  20.737   3.443  1.00  0.00     0.124 S 
ATOM     88  O   UNL     1       4.864  21.020   4.088  1.00  0.00    -0.237 OA
ATOM     89  O   UNL     1       7.268  20.516   4.347  1.00  0.00    -0.237 OA
ATOM     90  O   UNL     1       6.444  21.557   2.271  1.00  0.00    -0.744 OA
ENDBRANCH  86  87
ENDBRANCH  60  81
ENDBRANCH  34  35
ENDBRANCH  27  29
ENDBRANCH  26  27
ENDBRANCH  25  26
ENDBRANCH   1  25
TORSDOF 18
