REMARK SMILES Cc1nc2ccccc2c2c1C(=O)N(c1cccc(C(=O)OCCOCCOC(=O)c3ccc(-c4c5nc(c(-c6ccc(S(=O)(=O)[O-])cc6)c6ccc([nH]6)c(-c6ccc(S(=O)(=O)[O-])cc6)c6nc(c(-c7ccc(S(=O)(=O)[O-])cc7)c7ccc4[nH]7)C=C6)C=C5)cc3)c1)C2=O
REMARK SMILES IDX 26 1 25 2 24 3 23 4 22 5 20 6 21 7 19 8 15 9 16 10 91 11
REMARK SMILES IDX 17 12 18 13 14 14 1 15 2 16 3 17 11 18 4 19 10 20 12 21 5 22
REMARK SMILES IDX 9 23 92 24 13 25 6 26 8 27 93 28 7 29 27 30 28 31 29 32
REMARK SMILES IDX 30 33 31 34 32 35 90 36 33 37 89 38 34 39 35 40 36 41 83 42
REMARK SMILES IDX 37 43 88 44 82 45 84 46 38 47 87 48 81 49 80 50 39 52 69 53
REMARK SMILES IDX 50 54 68 55 51 56 54 57 67 58 85 59 52 60 53 61 66 63 86 64
REMARK SMILES IDX 55 65 40 66 41 67 49 68 42 69 48 70 43 71 44 72 45 73 46 74
REMARK SMILES IDX 47 75 70 76 71 77 79 78 72 79 78 80 73 81 74 82 75 83 76 84
REMARK SMILES IDX 77 85 56 86 57 87 65 88 58 89 64 90 59 91 60 92 61 93 62 94
REMARK SMILES IDX 63 95
REMARK H PARENT 84 51 54 62
REMARK Flexibility Score: inf
ROOT
ATOM      1  C   UNL     1      -0.335   7.396  -5.360  1.00  0.00     0.202 C 
ENDROOT
BRANCH   1   2
ATOM      2  O   UNL     1      -0.512   8.726  -5.852  1.00  0.00    -0.374 OA
BRANCH   2   3
ATOM      3  C   UNL     1       0.459   9.680  -5.423  1.00  0.00     0.202 C 
BRANCH   3   4
ATOM      4  C   UNL     1       0.154  10.355  -4.084  1.00  0.00     0.261 C 
BRANCH   4   5
ATOM      5  O   UNL     1       0.100   9.416  -2.992  1.00  0.00    -0.460 OA
BRANCH   5   6
ATOM      6  C   UNL     1      -1.082   9.363  -2.329  1.00  0.00     0.338 C 
ATOM      7  O   UNL     1      -2.085  10.009  -2.597  1.00  0.00    -0.246 OA
BRANCH   6   8
ATOM      8  C   UNL     1      -1.072   8.352  -1.233  1.00  0.00     0.062 A 
ATOM      9  C   UNL     1       0.004   6.645   0.161  1.00  0.00     0.053 A 
ATOM     10  C   UNL     1      -1.236   6.391   0.768  1.00  0.00     0.027 A 
ATOM     11  C   UNL     1       0.082   7.679  -0.802  1.00  0.00     0.042 A 
ATOM     12  C   UNL     1      -2.386   7.063   0.344  1.00  0.00     0.003 A 
ATOM     13  C   UNL     1      -2.307   8.022  -0.663  1.00  0.00     0.016 A 
BRANCH   9  14
ATOM     14  N   UNL     1       1.053   5.662   0.240  1.00  0.00    -0.242 N 
ATOM     15  C   UNL     1       0.947   1.226   1.464  1.00  0.00     0.067 C 
ATOM     16  C   UNL     1       0.560   2.173   0.371  1.00  0.00     0.052 A 
ATOM     17  N   UNL     1      -0.436   1.783  -0.464  1.00  0.00    -0.252 NA
ATOM     18  C   UNL     1       1.242   3.353   0.159  1.00  0.00     0.075 A 
ATOM     19  C   UNL     1      -0.737   2.563  -1.522  1.00  0.00     0.071 A 
ATOM     20  C   UNL     1       1.196   3.903  -1.107  1.00  0.00     0.064 A 
ATOM     21  C   UNL     1       1.016   4.538   1.048  1.00  0.00     0.268 C 
ATOM     22  C   UNL     1      -1.967   2.419  -2.149  1.00  0.00     0.029 A 
ATOM     23  C   UNL     1       0.104   3.611  -1.940  1.00  0.00     0.014 A 
ATOM     24  C   UNL     1       1.617   5.289  -0.943  1.00  0.00     0.266 C 
ATOM     25  O   UNL     1       0.708   4.433   2.223  1.00  0.00    -0.268 OA
ATOM     26  C   UNL     1      -2.387   3.294  -3.155  1.00  0.00     0.002 A 
ATOM     27  C   UNL     1      -0.289   4.448  -3.004  1.00  0.00     0.011 A 
ATOM     28  O   UNL     1       2.286   5.897  -1.758  1.00  0.00    -0.268 OA
ATOM     29  C   UNL     1      -1.540   4.302  -3.592  1.00  0.00     0.001 A 
ENDBRANCH   9  14
ENDBRANCH   6   8
ENDBRANCH   5   6
ENDBRANCH   4   5
ENDBRANCH   3   4
ENDBRANCH   2   3
ENDBRANCH   1   2
BRANCH   1  30
ATOM     30  C   UNL     1       0.751   6.587  -6.081  1.00  0.00     0.261 C 
BRANCH  30  31
ATOM     31  O   UNL     1       2.056   6.998  -5.636  1.00  0.00    -0.460 OA
BRANCH  31  32
ATOM     32  C   UNL     1       2.895   7.418  -6.614  1.00  0.00     0.338 C 
ATOM     33  O   UNL     1       2.723   7.323  -7.817  1.00  0.00    -0.246 OA
BRANCH  32  34
ATOM     34  C   UNL     1       3.981   8.223  -6.014  1.00  0.00     0.060 A 
ATOM     35  C   UNL     1       4.702   7.793  -4.897  1.00  0.00     0.016 A 
ATOM     36  C   UNL     1       4.276   9.453  -6.616  1.00  0.00     0.016 A 
ATOM     37  C   UNL     1       5.750   8.584  -4.410  1.00  0.00     0.010 A 
ATOM     38  C   UNL     1       5.314  10.243  -6.124  1.00  0.00     0.010 A 
ATOM     39  C   UNL     1       6.072   9.804  -5.031  1.00  0.00    -0.014 A 
BRANCH  39  40
ATOM     40  C   UNL     1       7.282  10.563  -4.630  1.00  0.00     0.031 A 
ATOM     41  C   UNL     1       7.194  11.772  -3.750  1.00  0.00     0.074 A 
ATOM     42  C   UNL     1       8.476  10.158  -5.103  1.00  0.00     0.049 A 
ATOM     43  N   UNL     1       8.165  12.501  -3.265  1.00  0.00    -0.248 NA
ATOM     44  C   UNL     1       5.848  12.222  -3.367  1.00  0.00     0.031 C 
ATOM     45  C   UNL     1       8.678   9.006  -5.982  1.00  0.00     0.029 A 
ATOM     46  N   UNL     1       9.738  10.658  -4.908  1.00  0.00    -0.354 N 
ATOM     47  C   UNL     1       7.555  13.476  -2.487  1.00  0.00     0.074 A 
ATOM     48  C   UNL     1       6.125  13.280  -2.614  1.00  0.00     0.031 C 
ATOM     49  C   UNL     1       9.990   8.866  -6.222  1.00  0.00     0.029 A 
ATOM     50  C   UNL     1      10.719   9.930  -5.535  1.00  0.00     0.049 A 
ATOM     51  H   UNL     1       9.923  11.462  -4.369  1.00  0.00     0.167 HD
ATOM     52  C   UNL     1       8.137  14.431  -1.723  1.00  0.00     0.031 A 
ATOM     53  C   UNL     1      12.058  10.084  -5.546  1.00  0.00     0.031 A 
ATOM     54  C   UNL     1       9.560  14.649  -1.641  1.00  0.00     0.049 A 
ATOM     55  C   UNL     1      12.680  11.192  -4.748  1.00  0.00     0.074 A 
ATOM     56  C   UNL     1      10.241  15.592  -0.891  1.00  0.00     0.029 A 
ATOM     57  N   UNL     1      10.518  13.927  -2.337  1.00  0.00    -0.354 N 
ATOM     58  N   UNL     1      12.091  12.078  -3.981  1.00  0.00    -0.248 NA
ATOM     59  C   UNL     1      14.142  11.317  -4.803  1.00  0.00     0.031 C 
ATOM     60  C   UNL     1      11.605  15.476  -1.175  1.00  0.00     0.029 A 
ATOM     61  C   UNL     1      11.782  14.419  -2.053  1.00  0.00     0.049 A 
ATOM     62  H   UNL     1      10.328  13.175  -2.943  1.00  0.00     0.167 HD
ATOM     63  C   UNL     1      13.111  12.855  -3.446  1.00  0.00     0.074 A 
ATOM     64  C   UNL     1      14.356  12.330  -3.971  1.00  0.00     0.031 C 
ATOM     65  C   UNL     1      13.018  13.903  -2.591  1.00  0.00     0.031 A 
BRANCH  52  66
ATOM     66  C   UNL     1       7.238  15.309  -0.893  1.00  0.00    -0.014 A 
ATOM     67  C   UNL     1       7.111  16.679  -1.187  1.00  0.00     0.010 A 
ATOM     68  C   UNL     1       6.581  14.789   0.237  1.00  0.00     0.010 A 
ATOM     69  C   UNL     1       6.352  17.514  -0.362  1.00  0.00     0.020 A 
ATOM     70  C   UNL     1       5.801  15.616   1.050  1.00  0.00     0.020 A 
ATOM     71  C   UNL     1       5.704  16.977   0.754  1.00  0.00     0.054 A 
BRANCH  71  72
ATOM     72  S   UNL     1       4.703  18.067   1.804  1.00  0.00     0.124 S 
ATOM     73  O   UNL     1       5.717  18.729   2.618  1.00  0.00    -0.237 OA
ATOM     74  O   UNL     1       4.021  18.916   0.829  1.00  0.00    -0.237 OA
ATOM     75  O   UNL     1       3.831  17.139   2.521  1.00  0.00    -0.744 OA
ENDBRANCH  71  72
ENDBRANCH  52  66
BRANCH  53  76
ATOM     76  C   UNL     1      12.882   9.092  -6.287  1.00  0.00    -0.014 A 
ATOM     77  C   UNL     1      12.875   9.063  -7.694  1.00  0.00     0.010 A 
ATOM     78  C   UNL     1      13.571   8.090  -5.582  1.00  0.00     0.010 A 
ATOM     79  C   UNL     1      13.489   8.013  -8.382  1.00  0.00     0.020 A 
ATOM     80  C   UNL     1      14.206   7.051  -6.268  1.00  0.00     0.020 A 
ATOM     81  C   UNL     1      14.131   7.002  -7.662  1.00  0.00     0.054 A 
BRANCH  81  82
ATOM     82  S   UNL     1      14.842   5.600  -8.568  1.00  0.00     0.124 S 
ATOM     83  O   UNL     1      13.649   4.831  -8.912  1.00  0.00    -0.237 OA
ATOM     84  O   UNL     1      15.515   6.251  -9.689  1.00  0.00    -0.237 OA
ATOM     85  O   UNL     1      15.729   4.975  -7.591  1.00  0.00    -0.744 OA
ENDBRANCH  81  82
ENDBRANCH  53  76
BRANCH  65  86
ATOM     86  C   UNL     1      14.291  14.580  -2.158  1.00  0.00    -0.014 A 
ATOM     87  C   UNL     1      14.726  14.459  -0.824  1.00  0.00     0.010 A 
ATOM     88  C   UNL     1      14.985  15.438  -3.029  1.00  0.00     0.010 A 
ATOM     89  C   UNL     1      15.808  15.211  -0.359  1.00  0.00     0.020 A 
ATOM     90  C   UNL     1      16.083  16.174  -2.574  1.00  0.00     0.020 A 
ATOM     91  C   UNL     1      16.471  16.075  -1.234  1.00  0.00     0.054 A 
BRANCH  91  92
ATOM     92  S   UNL     1      17.848  17.075  -0.605  1.00  0.00     0.124 S 
ATOM     93  O   UNL     1      17.152  18.148   0.098  1.00  0.00    -0.237 OA
ATOM     94  O   UNL     1      18.571  16.132   0.245  1.00  0.00    -0.237 OA
ATOM     95  O   UNL     1      18.558  17.479  -1.817  1.00  0.00    -0.744 OA
ENDBRANCH  91  92
ENDBRANCH  65  86
ENDBRANCH  39  40
ENDBRANCH  32  34
ENDBRANCH  31  32
ENDBRANCH  30  31
ENDBRANCH   1  30
TORSDOF 18
