REMARK SMILES CC(C)Cc1ccc([C@H](C)C(=O)OCCOCCOC(=O)c2ccc(-c3c4nc(c(-c5ccc(S(=O)(=O)[O-])cc5)c5ccc([nH]5)c(-c5ccc(S(=O)(=O)[O-])cc5)c5nc(c(-c6ccc(S(=O)(=O)[O-])cc6)c6ccc3[nH]6)C=C5)C=C4)cc2)cc1
REMARK SMILES IDX 16 1 15 2 14 3 13 4 11 5 12 6 9 7 10 8 8 9 5 10 6 11 83 12
REMARK SMILES IDX 7 13 82 14 4 15 2 16 1 17 3 18 17 19 18 20 19 21 20 22 21 23
REMARK SMILES IDX 22 24 23 25 81 26 24 27 80 28 25 29 26 30 27 31 74 32 28 33
REMARK SMILES IDX 79 34 73 35 75 36 29 37 78 38 72 39 71 40 30 42 60 43 41 44
REMARK SMILES IDX 59 45 42 46 45 47 58 48 76 49 43 50 44 51 57 53 77 54 46 55
REMARK SMILES IDX 31 56 32 57 40 58 33 59 39 60 34 61 35 62 36 63 37 64 38 65
REMARK SMILES IDX 61 66 62 67 70 68 63 69 69 70 64 71 65 72 66 73 67 74 68 75
REMARK SMILES IDX 47 76 48 77 56 78 49 79 55 80 50 81 51 82 52 83 53 84 54 85
REMARK H PARENT 75 41 45 52
REMARK Flexibility Score: inf
ROOT
ATOM      1  O   UNL     1      -6.169   5.770  -0.653  1.00  0.00    -0.374 OA
ENDROOT
BRANCH   1   2
ATOM      2  C   UNL     1      -5.292   6.588  -1.429  1.00  0.00     0.202 C 
BRANCH   2   3
ATOM      3  C   UNL     1      -4.139   7.257  -0.675  1.00  0.00     0.261 C 
BRANCH   3   4
ATOM      4  O   UNL     1      -3.166   6.292  -0.237  1.00  0.00    -0.463 OA
BRANCH   4   5
ATOM      5  C   UNL     1      -3.021   6.151   1.111  1.00  0.00     0.313 C 
ATOM      6  O   UNL     1      -3.623   6.807   1.954  1.00  0.00    -0.252 OA
BRANCH   5   7
ATOM      7  C   UNL     1      -1.998   5.076   1.474  1.00  0.00     0.126 C 
ATOM      8  C   UNL     1      -2.002   3.850   0.559  1.00  0.00     0.025 C 
BRANCH   7   9
ATOM      9  C   UNL     1      -0.625   5.695   1.614  1.00  0.00    -0.034 A 
ATOM     10  C   UNL     1       1.764   7.133   1.919  1.00  0.00    -0.048 A 
ATOM     11  C   UNL     1       1.294   6.809   0.642  1.00  0.00     0.004 A 
ATOM     12  C   UNL     1       1.071   6.671   3.044  1.00  0.00     0.004 A 
ATOM     13  C   UNL     1       0.106   6.099   0.489  1.00  0.00     0.005 A 
ATOM     14  C   UNL     1      -0.118   5.963   2.893  1.00  0.00     0.005 A 
BRANCH  10  15
ATOM     15  C   UNL     1       2.925   8.082   2.079  1.00  0.00     0.038 C 
BRANCH  15  16
ATOM     16  C   UNL     1       2.537   9.533   1.722  1.00  0.00    -0.013 C 
ATOM     17  C   UNL     1       1.408  10.075   2.606  1.00  0.00     0.008 C 
ATOM     18  C   UNL     1       3.761  10.441   1.833  1.00  0.00     0.008 C 
ENDBRANCH  15  16
ENDBRANCH  10  15
ENDBRANCH   7   9
ENDBRANCH   5   7
ENDBRANCH   4   5
ENDBRANCH   3   4
ENDBRANCH   2   3
ENDBRANCH   1   2
BRANCH   1  19
ATOM     19  C   UNL     1      -5.683   4.497  -0.235  1.00  0.00     0.202 C 
BRANCH  19  20
ATOM     20  C   UNL     1      -5.646   3.387  -1.293  1.00  0.00     0.261 C 
BRANCH  20  21
ATOM     21  O   UNL     1      -4.737   3.672  -2.371  1.00  0.00    -0.460 OA
BRANCH  21  22
ATOM     22  C   UNL     1      -5.335   3.904  -3.564  1.00  0.00     0.338 C 
ATOM     23  O   UNL     1      -6.536   3.837  -3.810  1.00  0.00    -0.246 OA
BRANCH  22  24
ATOM     24  C   UNL     1      -4.368   4.424  -4.545  1.00  0.00     0.060 A 
ATOM     25  C   UNL     1      -4.689   5.624  -5.193  1.00  0.00     0.016 A 
ATOM     26  C   UNL     1      -3.224   3.709  -4.906  1.00  0.00     0.016 A 
ATOM     27  C   UNL     1      -3.899   6.086  -6.243  1.00  0.00     0.010 A 
ATOM     28  C   UNL     1      -2.436   4.170  -5.968  1.00  0.00     0.010 A 
ATOM     29  C   UNL     1      -2.792   5.340  -6.666  1.00  0.00    -0.014 A 
BRANCH  29  30
ATOM     30  C   UNL     1      -2.101   5.709  -7.926  1.00  0.00     0.031 A 
ATOM     31  C   UNL     1      -2.439   4.964  -9.190  1.00  0.00     0.074 A 
ATOM     32  C   UNL     1      -1.202   6.710  -7.952  1.00  0.00     0.049 A 
ATOM     33  N   UNL     1      -1.937   5.101 -10.390  1.00  0.00    -0.248 NA
ATOM     34  C   UNL     1      -3.480   3.926  -9.089  1.00  0.00     0.031 C 
ATOM     35  C   UNL     1      -0.815   7.530  -6.805  1.00  0.00     0.029 A 
ATOM     36  N   UNL     1      -0.444   7.199  -8.987  1.00  0.00    -0.354 N 
ATOM     37  C   UNL     1      -2.585   4.159 -11.182  1.00  0.00     0.074 A 
ATOM     38  C   UNL     1      -3.507   3.447 -10.324  1.00  0.00     0.031 C 
ATOM     39  C   UNL     1       0.126   8.408  -7.195  1.00  0.00     0.029 A 
ATOM     40  C   UNL     1       0.426   8.194  -8.610  1.00  0.00     0.049 A 
ATOM     41  H   UNL     1      -0.516   6.868  -9.912  1.00  0.00     0.167 HD
ATOM     42  C   UNL     1      -2.426   3.910 -12.503  1.00  0.00     0.031 A 
ATOM     43  C   UNL     1       1.375   8.840  -9.316  1.00  0.00     0.031 A 
ATOM     44  C   UNL     1      -1.513   4.622 -13.357  1.00  0.00     0.049 A 
ATOM     45  C   UNL     1       1.565   8.513 -10.775  1.00  0.00     0.074 A 
ATOM     46  C   UNL     1      -1.313   4.468 -14.717  1.00  0.00     0.029 A 
ATOM     47  N   UNL     1      -0.643   5.614 -12.933  1.00  0.00    -0.354 N 
ATOM     48  N   UNL     1       0.911   7.651 -11.517  1.00  0.00    -0.248 NA
ATOM     49  C   UNL     1       2.615   9.250 -11.492  1.00  0.00     0.031 C 
ATOM     50  C   UNL     1      -0.282   5.328 -15.107  1.00  0.00     0.029 A 
ATOM     51  C   UNL     1       0.120   6.058 -14.000  1.00  0.00     0.049 A 
ATOM     52  H   UNL     1      -0.577   5.953 -12.011  1.00  0.00     0.167 HD
ATOM     53  C   UNL     1       1.455   7.761 -12.793  1.00  0.00     0.074 A 
ATOM     54  C   UNL     1       2.481   8.781 -12.726  1.00  0.00     0.031 C 
ATOM     55  C   UNL     1       1.133   7.079 -13.920  1.00  0.00     0.031 A 
BRANCH  42  56
ATOM     56  C   UNL     1      -3.234   2.795 -13.109  1.00  0.00    -0.014 A 
ATOM     57  C   UNL     1      -4.608   2.941 -13.363  1.00  0.00     0.010 A 
ATOM     58  C   UNL     1      -2.588   1.605 -13.492  1.00  0.00     0.010 A 
ATOM     59  C   UNL     1      -5.328   1.907 -13.969  1.00  0.00     0.020 A 
ATOM     60  C   UNL     1      -3.299   0.578 -14.117  1.00  0.00     0.020 A 
ATOM     61  C   UNL     1      -4.668   0.731 -14.342  1.00  0.00     0.054 A 
BRANCH  61  62
ATOM     62  S   UNL     1      -5.616  -0.578 -15.166  1.00  0.00     0.124 S 
ATOM     63  O   UNL     1      -6.396  -1.126 -14.059  1.00  0.00    -0.237 OA
ATOM     64  O   UNL     1      -6.380   0.161 -16.167  1.00  0.00    -0.237 OA
ATOM     65  O   UNL     1      -4.588  -1.466 -15.702  1.00  0.00    -0.744 OA
ENDBRANCH  61  62
ENDBRANCH  42  56
BRANCH  43  66
ATOM     66  C   UNL     1       2.254   9.835  -8.643  1.00  0.00    -0.014 A 
ATOM     67  C   UNL     1       2.155  11.206  -8.938  1.00  0.00     0.010 A 
ATOM     68  C   UNL     1       3.212   9.404  -7.707  1.00  0.00     0.010 A 
ATOM     69  C   UNL     1       3.013  12.125  -8.325  1.00  0.00     0.020 A 
ATOM     70  C   UNL     1       4.052  10.322  -7.072  1.00  0.00     0.020 A 
ATOM     71  C   UNL     1       3.958  11.676  -7.396  1.00  0.00     0.054 A 
BRANCH  71  72
ATOM     72  S   UNL     1       5.035  12.886  -6.580  1.00  0.00     0.124 S 
ATOM     73  O   UNL     1       6.003  13.186  -7.631  1.00  0.00    -0.237 OA
ATOM     74  O   UNL     1       4.107  13.964  -6.247  1.00  0.00    -0.237 OA
ATOM     75  O   UNL     1       5.562  12.152  -5.432  1.00  0.00    -0.744 OA
ENDBRANCH  71  72
ENDBRANCH  43  66
BRANCH  55  76
ATOM     76  C   UNL     1       1.869   7.431 -15.185  1.00  0.00    -0.014 A 
ATOM     77  C   UNL     1       3.202   7.034 -15.387  1.00  0.00     0.010 A 
ATOM     78  C   UNL     1       1.190   8.108 -16.215  1.00  0.00     0.010 A 
ATOM     79  C   UNL     1       3.852   7.330 -16.588  1.00  0.00     0.020 A 
ATOM     80  C   UNL     1       1.829   8.383 -17.427  1.00  0.00     0.020 A 
ATOM     81  C   UNL     1       3.161   8.002 -17.602  1.00  0.00     0.054 A 
BRANCH  81  82
ATOM     82  S   UNL     1       4.008   8.327 -19.172  1.00  0.00     0.124 S 
ATOM     83  O   UNL     1       4.893   9.433 -18.817  1.00  0.00    -0.237 OA
ATOM     84  O   UNL     1       4.671   7.055 -19.450  1.00  0.00    -0.237 OA
ATOM     85  O   UNL     1       2.921   8.668 -20.088  1.00  0.00    -0.744 OA
ENDBRANCH  81  82
ENDBRANCH  55  76
ENDBRANCH  29  30
ENDBRANCH  22  24
ENDBRANCH  21  22
ENDBRANCH  20  21
ENDBRANCH  19  20
ENDBRANCH   1  19
TORSDOF 20
