REMARK SMILES [NH3+]CC(=O)N1C[C@H](O)C[C@H]1C(=O)OCCOCCOC(=O)c1ccc(-c2c3nc(c(-c4ccc(S(=O)(=O)[O-])cc4)c4ccc([nH]4)c(-c4ccc(S(=O)(=O)[O-])cc4)c4nc(c(-c5ccc(S(=O)(=O)[O-])cc5)c5ccc2[nH]5)C=C4)C=C3)cc1
REMARK SMILES IDX 16 1 15 2 14 3 13 4 11 5 12 6 10 7 5 8 6 9 7 10 9 11 3 12
REMARK SMILES IDX 4 13 2 14 1 15 8 19 17 21 18 22 19 23 20 24 21 25 22 26
REMARK SMILES IDX 23 27 81 28 24 29 80 30 25 31 26 32 27 33 74 34 28 35 79 36
REMARK SMILES IDX 73 37 75 38 29 39 78 40 72 41 71 42 30 44 60 45 41 46 59 47
REMARK SMILES IDX 42 48 45 49 58 50 76 51 43 52 44 53 57 55 77 56 46 57 31 58
REMARK SMILES IDX 32 59 40 60 33 61 39 62 34 63 35 64 36 65 37 66 38 67 61 68
REMARK SMILES IDX 62 69 70 70 63 71 69 72 64 73 65 74 66 75 67 76 68 77 47 78
REMARK SMILES IDX 48 79 56 80 49 81 55 82 50 83 51 84 52 85 53 86 54 87
REMARK H PARENT 1 16 1 17 1 18 8 20 75 43 45 54
REMARK Flexibility Score: inf
ROOT
ATOM      1  O   UNL     1       0.565  -4.918  -4.940  1.00  0.00    -0.374 OA
ENDROOT
BRANCH   1   2
ATOM      2  C   UNL     1       0.928  -5.990  -4.074  1.00  0.00     0.202 C 
BRANCH   2   3
ATOM      3  C   UNL     1       2.297  -5.898  -3.390  1.00  0.00     0.261 C 
BRANCH   3   4
ATOM      4  O   UNL     1       2.544  -4.648  -2.726  1.00  0.00    -0.462 OA
BRANCH   4   5
ATOM      5  C   UNL     1       3.388  -3.811  -3.378  1.00  0.00     0.329 C 
ATOM      6  O   UNL     1       3.910  -4.047  -4.466  1.00  0.00    -0.250 OA
BRANCH   5   7
ATOM      7  C   UNL     1       3.628  -2.476  -2.664  1.00  0.00     0.198 C 
ATOM      8  N   UNL     1       3.073  -2.168  -1.340  1.00  0.00    -0.321 N 
ATOM      9  C   UNL     1       4.078  -1.562  -0.473  1.00  0.00     0.152 C 
ATOM     10  C   UNL     1       5.272  -1.281  -1.383  1.00  0.00     0.136 C 
ATOM     11  C   UNL     1       5.145  -2.344  -2.458  1.00  0.00     0.070 C 
BRANCH   8  12
ATOM     12  C   UNL     1       1.734  -1.917  -1.134  1.00  0.00     0.278 C 
ATOM     13  O   UNL     1       0.973  -2.770  -0.683  1.00  0.00    -0.268 OA
BRANCH  12  14
ATOM     14  C   UNL     1       1.265  -0.475  -1.372  1.00  0.00     0.360 C 
BRANCH  14  15
ATOM     15  N   UNL     1       0.886   0.161  -0.102  1.00  0.00    -0.350 N 
ATOM     16  H   UNL     1       0.578   1.117  -0.279  1.00  0.00     0.344 HD
ATOM     17  H   UNL     1       1.690   0.173   0.525  1.00  0.00     0.344 HD
ATOM     18  H   UNL     1       0.127  -0.367   0.329  1.00  0.00     0.344 HD
ENDBRANCH  14  15
ENDBRANCH  12  14
ENDBRANCH   8  12
BRANCH  10  19
ATOM     19  O   UNL     1       5.196   0.019  -1.966  1.00  0.00    -0.391 OA
ATOM     20  H   UNL     1       4.367   0.103  -2.462  1.00  0.00     0.211 HD
ENDBRANCH  10  19
ENDBRANCH   5   7
ENDBRANCH   4   5
ENDBRANCH   3   4
ENDBRANCH   2   3
ENDBRANCH   1   2
BRANCH   1  21
ATOM     21  C   UNL     1       0.133  -3.696  -4.336  1.00  0.00     0.202 C 
BRANCH  21  22
ATOM     22  C   UNL     1      -1.120  -3.762  -3.459  1.00  0.00     0.261 C 
BRANCH  22  23
ATOM     23  O   UNL     1      -0.852  -4.453  -2.228  1.00  0.00    -0.460 OA
BRANCH  23  24
ATOM     24  C   UNL     1      -1.807  -5.326  -1.842  1.00  0.00     0.338 C 
ATOM     25  O   UNL     1      -2.894  -5.508  -2.375  1.00  0.00    -0.246 OA
BRANCH  24  26
ATOM     26  C   UNL     1      -1.297  -6.199  -0.770  1.00  0.00     0.060 A 
ATOM     27  C   UNL     1      -1.244  -7.574  -1.026  1.00  0.00     0.016 A 
ATOM     28  C   UNL     1      -0.993  -5.701   0.499  1.00  0.00     0.016 A 
ATOM     29  C   UNL     1      -0.951  -8.464   0.006  1.00  0.00     0.010 A 
ATOM     30  C   UNL     1      -0.710  -6.598   1.537  1.00  0.00     0.010 A 
ATOM     31  C   UNL     1      -0.729  -7.986   1.306  1.00  0.00    -0.014 A 
BRANCH  31  32
ATOM     32  C   UNL     1      -0.664  -8.956   2.429  1.00  0.00     0.031 A 
ATOM     33  C   UNL     1      -1.904  -9.226   3.241  1.00  0.00     0.074 A 
ATOM     34  C   UNL     1       0.466  -9.640   2.685  1.00  0.00     0.049 A 
ATOM     35  N   UNL     1      -2.083 -10.080   4.216  1.00  0.00    -0.248 NA
ATOM     36  C   UNL     1      -3.099  -8.436   2.904  1.00  0.00     0.031 C 
ATOM     37  C   UNL     1       1.724  -9.499   1.954  1.00  0.00     0.029 A 
ATOM     38  N   UNL     1       0.730 -10.599   3.631  1.00  0.00    -0.354 N 
ATOM     39  C   UNL     1      -3.410  -9.935   4.608  1.00  0.00     0.074 A 
ATOM     40  C   UNL     1      -3.980  -8.889   3.785  1.00  0.00     0.031 C 
ATOM     41  C   UNL     1       2.628 -10.346   2.477  1.00  0.00     0.029 A 
ATOM     42  C   UNL     1       2.020 -11.071   3.592  1.00  0.00     0.049 A 
ATOM     43  H   UNL     1       0.059 -10.919   4.277  1.00  0.00     0.167 HD
ATOM     44  C   UNL     1      -4.096 -10.614   5.558  1.00  0.00     0.031 A 
ATOM     45  C   UNL     1       2.644 -11.979   4.369  1.00  0.00     0.031 A 
ATOM     46  C   UNL     1      -3.531 -11.643   6.390  1.00  0.00     0.049 A 
ATOM     47  C   UNL     1       1.880 -12.672   5.466  1.00  0.00     0.074 A 
ATOM     48  C   UNL     1      -4.156 -12.398   7.369  1.00  0.00     0.029 A 
ATOM     49  N   UNL     1      -2.208 -12.053   6.354  1.00  0.00    -0.354 N 
ATOM     50  N   UNL     1       0.617 -12.548   5.796  1.00  0.00    -0.248 NA
ATOM     51  C   UNL     1       2.626 -13.634   6.290  1.00  0.00     0.031 C 
ATOM     52  C   UNL     1      -3.197 -13.230   7.958  1.00  0.00     0.029 A 
ATOM     53  C   UNL     1      -1.988 -13.029   7.311  1.00  0.00     0.049 A 
ATOM     54  H   UNL     1      -1.525 -11.702   5.737  1.00  0.00     0.167 HD
ATOM     55  C   UNL     1       0.412 -13.432   6.852  1.00  0.00     0.074 A 
ATOM     56  C   UNL     1       1.677 -14.093   7.096  1.00  0.00     0.031 C 
ATOM     57  C   UNL     1      -0.723 -13.675   7.553  1.00  0.00     0.031 A 
BRANCH  44  58
ATOM     58  C   UNL     1      -5.540 -10.243   5.766  1.00  0.00    -0.014 A 
ATOM     59  C   UNL     1      -6.527 -10.615   4.835  1.00  0.00     0.010 A 
ATOM     60  C   UNL     1      -5.920  -9.543   6.925  1.00  0.00     0.010 A 
ATOM     61  C   UNL     1      -7.862 -10.260   5.042  1.00  0.00     0.020 A 
ATOM     62  C   UNL     1      -7.258  -9.206   7.146  1.00  0.00     0.020 A 
ATOM     63  C   UNL     1      -8.219  -9.553   6.194  1.00  0.00     0.054 A 
BRANCH  63  64
ATOM     64  S   UNL     1      -9.961  -9.117   6.447  1.00  0.00     0.124 S 
ATOM     65  O   UNL     1     -10.137  -8.018   5.501  1.00  0.00    -0.237 OA
ATOM     66  O   UNL     1     -10.656 -10.356   6.106  1.00  0.00    -0.237 OA
ATOM     67  O   UNL     1     -10.023  -8.740   7.857  1.00  0.00    -0.744 OA
ENDBRANCH  63  64
ENDBRANCH  44  58
BRANCH  45  68
ATOM     68  C   UNL     1       4.084 -12.279   4.144  1.00  0.00    -0.014 A 
ATOM     69  C   UNL     1       4.487 -13.510   3.601  1.00  0.00     0.010 A 
ATOM     70  C   UNL     1       5.061 -11.323   4.476  1.00  0.00     0.010 A 
ATOM     71  C   UNL     1       5.843 -13.786   3.402  1.00  0.00     0.020 A 
ATOM     72  C   UNL     1       6.416 -11.585   4.258  1.00  0.00     0.020 A 
ATOM     73  C   UNL     1       6.799 -12.820   3.731  1.00  0.00     0.054 A 
BRANCH  73  74
ATOM     74  S   UNL     1       8.551 -13.171   3.411  1.00  0.00     0.124 S 
ATOM     75  O   UNL     1       8.885 -14.071   4.509  1.00  0.00    -0.237 OA
ATOM     76  O   UNL     1       8.515 -13.778   2.082  1.00  0.00    -0.237 OA
ATOM     77  O   UNL     1       9.177 -11.852   3.466  1.00  0.00    -0.744 OA
ENDBRANCH  73  74
ENDBRANCH  45  68
BRANCH  57  78
ATOM     78  C   UNL     1      -0.659 -14.715   8.640  1.00  0.00    -0.014 A 
ATOM     79  C   UNL     1      -0.011 -14.452   9.860  1.00  0.00     0.010 A 
ATOM     80  C   UNL     1      -1.301 -15.953   8.458  1.00  0.00     0.010 A 
ATOM     81  C   UNL     1       0.020 -15.421  10.867  1.00  0.00     0.020 A 
ATOM     82  C   UNL     1      -1.293 -16.916   9.472  1.00  0.00     0.020 A 
ATOM     83  C   UNL     1      -0.619 -16.648  10.665  1.00  0.00     0.054 A 
BRANCH  83  84
ATOM     84  S   UNL     1      -0.600 -17.876  12.002  1.00  0.00     0.124 S 
ATOM     85  O   UNL     1       0.758 -18.404  11.909  1.00  0.00    -0.237 OA
ATOM     86  O   UNL     1      -0.881 -17.069  13.186  1.00  0.00    -0.237 OA
ATOM     87  O   UNL     1      -1.659 -18.811  11.627  1.00  0.00    -0.744 OA
ENDBRANCH  83  84
ENDBRANCH  57  78
ENDBRANCH  31  32
ENDBRANCH  24  26
ENDBRANCH  23  24
ENDBRANCH  22  23
ENDBRANCH  21  22
ENDBRANCH   1  21
TORSDOF 21
