REMARK SMILES CCN1CC(=O)N(C[C@@H]([NH3+])C(=O)OCCOCCOC(=O)c2ccc(-c3c4nc(c(-c5ccc(S(=O)(=O)[O-])cc5)c5ccc([nH]5)c(-c5ccc(S(=O)(=O)[O-])cc5)c5nc(c(-c6ccc(S(=O)(=O)[O-])cc6)c6ccc3[nH]6)C=C5)C=C4)cc2)CC1=O
REMARK SMILES IDX 16 1 15 2 14 3 13 4 11 5 12 6 9 7 8 8 7 9 3 10 4 11 83 12
REMARK SMILES IDX 5 13 82 14 84 15 6 16 2 17 1 18 10 19 17 23 18 24 19 25
REMARK SMILES IDX 20 26 21 27 22 28 23 29 81 30 24 31 80 32 25 33 26 34 27 35
REMARK SMILES IDX 74 36 28 37 79 38 73 39 75 40 29 41 78 42 72 43 71 44 30 46
REMARK SMILES IDX 60 47 41 48 59 49 42 50 45 51 58 52 76 53 43 54 44 55 57 57
REMARK SMILES IDX 77 58 46 59 31 60 32 61 40 62 33 63 39 64 34 65 35 66 36 67
REMARK SMILES IDX 37 68 38 69 61 70 62 71 70 72 63 73 69 74 64 75 65 76 66 77
REMARK SMILES IDX 67 78 68 79 47 80 48 81 56 82 49 83 55 84 50 85 51 86 52 87
REMARK SMILES IDX 53 88 54 89
REMARK H PARENT 10 20 10 21 10 22 75 45 45 56
REMARK Flexibility Score: inf
ROOT
ATOM      1  O   UNL     1       5.700   9.861   0.486  1.00  0.00    -0.374 OA
ENDROOT
BRANCH   1   2
ATOM      2  C   UNL     1       4.650  10.567   1.148  1.00  0.00     0.202 C 
BRANCH   2   3
ATOM      3  C   UNL     1       3.278  10.533   0.472  1.00  0.00     0.261 C 
BRANCH   3   4
ATOM      4  O   UNL     1       2.792   9.189   0.316  1.00  0.00    -0.459 OA
BRANCH   4   5
ATOM      5  C   UNL     1       2.610   8.780  -0.964  1.00  0.00     0.366 C 
ATOM      6  O   UNL     1       2.756   9.488  -1.959  1.00  0.00    -0.245 OA
BRANCH   5   7
ATOM      7  C   UNL     1       2.159   7.316  -1.096  1.00  0.00     0.311 C 
BRANCH   7   8
ATOM      8  C   UNL     1       2.122   6.526   0.230  1.00  0.00     0.197 C 
BRANCH   8   9
ATOM      9  N   UNL     1       1.831   5.091   0.068  1.00  0.00    -0.325 N 
ATOM     10  N   UNL     1       1.122   2.421   0.411  1.00  0.00    -0.332 N 
ATOM     11  C   UNL     1       2.407   2.716  -0.226  1.00  0.00     0.219 C 
ATOM     12  C   UNL     1       0.073   3.329   0.290  1.00  0.00     0.242 C 
ATOM     13  C   UNL     1       2.864   4.171  -0.054  1.00  0.00     0.242 C 
ATOM     14  C   UNL     1       0.472   4.686  -0.288  1.00  0.00     0.220 C 
ATOM     15  O   UNL     1      -1.103   3.033   0.490  1.00  0.00    -0.273 OA
ATOM     16  O   UNL     1       4.045   4.499  -0.153  1.00  0.00    -0.273 OA
BRANCH  10  17
ATOM     17  C   UNL     1       0.871   1.085   0.944  1.00  0.00     0.116 C 
ATOM     18  C   UNL     1       1.094  -0.025  -0.073  1.00  0.00     0.027 C 
ENDBRANCH  10  17
ENDBRANCH   8   9
ENDBRANCH   7   8
BRANCH   7  19
ATOM     19  N   UNL     1       0.848   7.308  -1.804  1.00  0.00    -0.344 N 
ATOM     20  H   UNL     1       0.158   7.814  -1.249  1.00  0.00     0.345 HD
ATOM     21  H   UNL     1       0.538   6.345  -1.936  1.00  0.00     0.345 HD
ATOM     22  H   UNL     1       0.950   7.760  -2.713  1.00  0.00     0.345 HD
ENDBRANCH   7  19
ENDBRANCH   5   7
ENDBRANCH   4   5
ENDBRANCH   3   4
ENDBRANCH   2   3
ENDBRANCH   1   2
BRANCH   1  23
ATOM     23  C   UNL     1       5.718   8.438   0.603  1.00  0.00     0.202 C 
BRANCH  23  24
ATOM     24  C   UNL     1       6.130   7.853   1.960  1.00  0.00     0.261 C 
BRANCH  24  25
ATOM     25  O   UNL     1       5.197   8.170   3.011  1.00  0.00    -0.460 OA
BRANCH  25  26
ATOM     26  C   UNL     1       5.700   8.952   3.995  1.00  0.00     0.338 C 
ATOM     27  O   UNL     1       6.859   9.342   4.104  1.00  0.00    -0.246 OA
BRANCH  26  28
ATOM     28  C   UNL     1       4.626   9.454   4.870  1.00  0.00     0.060 A 
ATOM     29  C   UNL     1       4.564  10.838   5.080  1.00  0.00     0.016 A 
ATOM     30  C   UNL     1       3.758   8.597   5.552  1.00  0.00     0.016 A 
ATOM     31  C   UNL     1       3.678  11.364   6.017  1.00  0.00     0.010 A 
ATOM     32  C   UNL     1       2.871   9.129   6.498  1.00  0.00     0.010 A 
ATOM     33  C   UNL     1       2.857  10.510   6.764  1.00  0.00    -0.014 A 
BRANCH  33  34
ATOM     34  C   UNL     1       2.101  11.068   7.914  1.00  0.00     0.031 A 
ATOM     35  C   UNL     1       2.664  10.925   9.304  1.00  0.00     0.074 A 
ATOM     36  C   UNL     1       0.965  11.762   7.718  1.00  0.00     0.049 A 
ATOM     37  N   UNL     1       2.209  11.403  10.435  1.00  0.00    -0.248 NA
ATOM     38  C   UNL     1       3.905  10.146   9.435  1.00  0.00     0.031 C 
ATOM     39  C   UNL     1       0.337  12.005   6.420  1.00  0.00     0.029 A 
ATOM     40  N   UNL     1       0.147  12.403   8.614  1.00  0.00    -0.354 N 
ATOM     41  C   UNL     1       3.108  10.987  11.410  1.00  0.00     0.074 A 
ATOM     42  C   UNL     1       4.114  10.188  10.743  1.00  0.00     0.031 C 
ATOM     43  C   UNL     1      -0.764  12.754   6.603  1.00  0.00     0.029 A 
ATOM     44  C   UNL     1      -0.931  13.023   8.030  1.00  0.00     0.049 A 
ATOM     45  H   UNL     1       0.316  12.417   9.584  1.00  0.00     0.167 HD
ATOM     46  C   UNL     1       3.107  11.253  12.739  1.00  0.00     0.031 A 
ATOM     47  C   UNL     1      -1.939  13.727   8.582  1.00  0.00     0.031 A 
ATOM     48  C   UNL     1       2.097  12.029  13.409  1.00  0.00     0.049 A 
ATOM     49  C   UNL     1      -1.957  13.955  10.070  1.00  0.00     0.074 A 
ATOM     50  C   UNL     1       2.011  12.358  14.751  1.00  0.00     0.029 A 
ATOM     51  N   UNL     1       0.991  12.592  12.790  1.00  0.00    -0.354 N 
ATOM     52  N   UNL     1      -1.086  13.573  10.974  1.00  0.00    -0.248 NA
ATOM     53  C   UNL     1      -3.089  14.721  10.608  1.00  0.00     0.031 C 
ATOM     54  C   UNL     1       0.826  13.077  14.951  1.00  0.00     0.029 A 
ATOM     55  C   UNL     1       0.204  13.245  13.725  1.00  0.00     0.049 A 
ATOM     56  H   UNL     1       0.794  12.536  11.827  1.00  0.00     0.167 HD
ATOM     57  C   UNL     1      -1.553  14.073  12.185  1.00  0.00     0.074 A 
ATOM     58  C   UNL     1      -2.774  14.798  11.894  1.00  0.00     0.031 C 
ATOM     59  C   UNL     1      -1.018  13.948  13.426  1.00  0.00     0.031 A 
BRANCH  46  60
ATOM     60  C   UNL     1       4.223  10.663  13.560  1.00  0.00    -0.014 A 
ATOM     61  C   UNL     1       5.538  11.155  13.462  1.00  0.00     0.010 A 
ATOM     62  C   UNL     1       3.952   9.610  14.452  1.00  0.00     0.010 A 
ATOM     63  C   UNL     1       6.569  10.573  14.206  1.00  0.00     0.020 A 
ATOM     64  C   UNL     1       4.975   9.042  15.216  1.00  0.00     0.020 A 
ATOM     65  C   UNL     1       6.282   9.514  15.072  1.00  0.00     0.054 A 
BRANCH  65  66
ATOM     66  S   UNL     1       7.636   8.774  16.025  1.00  0.00     0.124 S 
ATOM     67  O   UNL     1       8.333   7.997  15.003  1.00  0.00    -0.237 OA
ATOM     68  O   UNL     1       8.356   9.943  16.524  1.00  0.00    -0.237 OA
ATOM     69  O   UNL     1       6.951   7.986  17.047  1.00  0.00    -0.744 OA
ENDBRANCH  65  66
ENDBRANCH  46  60
BRANCH  47  70
ATOM     70  C   UNL     1      -3.019  14.274   7.716  1.00  0.00    -0.014 A 
ATOM     71  C   UNL     1      -3.119  15.656   7.480  1.00  0.00     0.010 A 
ATOM     72  C   UNL     1      -3.947  13.407   7.112  1.00  0.00     0.010 A 
ATOM     73  C   UNL     1      -4.133  16.162   6.662  1.00  0.00     0.020 A 
ATOM     74  C   UNL     1      -4.948  13.906   6.274  1.00  0.00     0.020 A 
ATOM     75  C   UNL     1      -5.039  15.283   6.060  1.00  0.00     0.054 A 
BRANCH  75  76
ATOM     76  S   UNL     1      -6.306  15.954   4.947  1.00  0.00     0.124 S 
ATOM     77  O   UNL     1      -7.249  16.553   5.886  1.00  0.00    -0.237 OA
ATOM     78  O   UNL     1      -5.542  16.894   4.130  1.00  0.00    -0.237 OA
ATOM     79  O   UNL     1      -6.792  14.775   4.234  1.00  0.00    -0.744 OA
ENDBRANCH  75  76
ENDBRANCH  47  70
BRANCH  59  80
ATOM     80  C   UNL     1      -1.741  14.630  14.558  1.00  0.00    -0.014 A 
ATOM     81  C   UNL     1      -2.970  14.143  15.038  1.00  0.00     0.010 A 
ATOM     82  C   UNL     1      -1.171  15.765  15.163  1.00  0.00     0.010 A 
ATOM     83  C   UNL     1      -3.640  14.808  16.070  1.00  0.00     0.020 A 
ATOM     84  C   UNL     1      -1.825  16.417  16.213  1.00  0.00     0.020 A 
ATOM     85  C   UNL     1      -3.066  15.946  16.645  1.00  0.00     0.054 A 
BRANCH  85  86
ATOM     86  S   UNL     1      -3.948  16.789  17.988  1.00  0.00     0.124 S 
ATOM     87  O   UNL     1      -4.993  17.505  17.261  1.00  0.00    -0.237 OA
ATOM     88  O   UNL     1      -4.409  15.679  18.819  1.00  0.00    -0.237 OA
ATOM     89  O   UNL     1      -2.923  17.632  18.598  1.00  0.00    -0.744 OA
ENDBRANCH  85  86
ENDBRANCH  59  80
ENDBRANCH  33  34
ENDBRANCH  26  28
ENDBRANCH  25  26
ENDBRANCH  24  25
ENDBRANCH  23  24
ENDBRANCH   1  23
TORSDOF 21
