REMARK SMILES Cc1cc(C)c2c(c1)C=C(C(=O)OCCOCCOC(=O)c1ccc(-c3c4nc(c(-c5ccc(S(=O)(=O)[O-])cc5)c5ccc([nH]5)c(-c5ccc(S(=O)(=O)[O-])cc5)c5nc(c(-c6ccc(S(=O)(=O)[O-])cc6)c6ccc3[nH]6)C=C5)C=C4)cc1)[C@@H](C(F)(F)F)O2
REMARK SMILES IDX 17 1 16 2 15 3 14 4 13 5 11 6 12 7 10 8 1 9 2 10 3 11 8 12
REMARK SMILES IDX 4 13 7 14 5 15 6 16 9 17 87 18 82 19 83 20 84 21 85 22 86 23
REMARK SMILES IDX 18 24 19 25 20 26 21 27 22 28 23 29 81 30 24 31 80 32 25 33
REMARK SMILES IDX 26 34 27 35 74 36 28 37 79 38 73 39 75 40 29 41 78 42 72 43
REMARK SMILES IDX 71 44 30 46 60 47 41 48 59 49 42 50 45 51 58 52 76 53 43 54
REMARK SMILES IDX 44 55 57 57 77 58 46 59 31 60 32 61 40 62 33 63 39 64 34 65
REMARK SMILES IDX 35 66 36 67 37 68 38 69 61 70 62 71 70 72 63 73 69 74 64 75
REMARK SMILES IDX 65 76 66 77 67 78 68 79 47 80 48 81 56 82 49 83 55 84 50 85
REMARK SMILES IDX 51 86 52 87 53 88 54 89
REMARK H PARENT 75 45 45 56
REMARK Flexibility Score: inf
ROOT
ATOM      1  C   UNL     1       0.743   7.884   1.600  1.00  0.00     0.202 C 
ENDROOT
BRANCH   1   2
ATOM      2  O   UNL     1       1.778   8.868   1.636  1.00  0.00    -0.374 OA
BRANCH   2   3
ATOM      3  C   UNL     1       1.878   9.754   0.520  1.00  0.00     0.202 C 
BRANCH   3   4
ATOM      4  C   UNL     1       2.587   9.195  -0.717  1.00  0.00     0.261 C 
BRANCH   4   5
ATOM      5  O   UNL     1       1.870   8.070  -1.254  1.00  0.00    -0.460 OA
BRANCH   5   6
ATOM      6  C   UNL     1       2.538   6.896  -1.208  1.00  0.00     0.338 C 
ATOM      7  O   UNL     1       3.708   6.730  -0.887  1.00  0.00    -0.246 OA
BRANCH   6   8
ATOM      8  C   UNL     1       1.613   5.780  -1.473  1.00  0.00     0.087 C 
ATOM      9  C   UNL     1       0.901  -0.125   0.055  1.00  0.00     0.044 C 
ATOM     10  C   UNL     1       0.596   1.147  -0.679  1.00  0.00    -0.050 A 
ATOM     11  C   UNL     1      -0.338   1.180  -1.720  1.00  0.00     0.010 A 
ATOM     12  C   UNL     1       1.255   2.326  -0.321  1.00  0.00     0.015 A 
ATOM     13  C   UNL     1      -0.615   2.375  -2.406  1.00  0.00    -0.008 A 
ATOM     14  C   UNL     1       1.005   3.517  -1.010  1.00  0.00     0.018 A 
ATOM     15  C   UNL     1      -1.595   2.375  -3.546  1.00  0.00     0.048 C 
ATOM     16  C   UNL     1       0.058   3.550  -2.036  1.00  0.00     0.130 A 
ATOM     17  C   UNL     1       1.787   4.699  -0.704  1.00  0.00     0.027 C 
ATOM     18  O   UNL     1      -0.265   4.697  -2.709  1.00  0.00    -0.475 OA
ATOM     19  C   UNL     1       0.581   5.873  -2.563  1.00  0.00     0.316 C 
BRANCH  19  20
ATOM     20  C   UNL     1       1.196   6.199  -3.932  1.00  0.00     0.430 C 
ATOM     21  F   UNL     1       0.247   6.231  -4.898  1.00  0.00    -0.167 F 
ATOM     22  F   UNL     1       1.799   7.409  -3.935  1.00  0.00    -0.167 F 
ATOM     23  F   UNL     1       2.120   5.282  -4.300  1.00  0.00    -0.167 F 
ENDBRANCH  19  20
ENDBRANCH   6   8
ENDBRANCH   5   6
ENDBRANCH   4   5
ENDBRANCH   3   4
ENDBRANCH   2   3
ENDBRANCH   1   2
BRANCH   1  24
ATOM     24  C   UNL     1      -0.676   8.360   1.931  1.00  0.00     0.261 C 
BRANCH  24  25
ATOM     25  O   UNL     1      -1.191   9.277   0.949  1.00  0.00    -0.460 OA
BRANCH  25  26
ATOM     26  C   UNL     1      -1.287  10.560   1.371  1.00  0.00     0.338 C 
ATOM     27  O   UNL     1      -1.037  10.986   2.493  1.00  0.00    -0.246 OA
BRANCH  26  28
ATOM     28  C   UNL     1      -1.578  11.452   0.236  1.00  0.00     0.060 A 
ATOM     29  C   UNL     1      -0.758  12.576   0.068  1.00  0.00     0.016 A 
ATOM     30  C   UNL     1      -2.676  11.243  -0.602  1.00  0.00     0.016 A 
ATOM     31  C   UNL     1      -1.063  13.524  -0.906  1.00  0.00     0.010 A 
ATOM     32  C   UNL     1      -2.988  12.202  -1.570  1.00  0.00     0.010 A 
ATOM     33  C   UNL     1      -2.204  13.363  -1.702  1.00  0.00    -0.014 A 
BRANCH  33  34
ATOM     34  C   UNL     1      -2.657  14.472  -2.574  1.00  0.00     0.031 A 
ATOM     35  C   UNL     1      -3.730  15.400  -2.072  1.00  0.00     0.074 A 
ATOM     36  C   UNL     1      -2.104  14.664  -3.785  1.00  0.00     0.049 A 
ATOM     37  N   UNL     1      -4.321  16.390  -2.689  1.00  0.00    -0.248 NA
ATOM     38  C   UNL     1      -4.195  15.187  -0.691  1.00  0.00     0.031 C 
ATOM     39  C   UNL     1      -1.013  13.872  -4.351  1.00  0.00     0.029 A 
ATOM     40  N   UNL     1      -2.391  15.588  -4.757  1.00  0.00    -0.354 N 
ATOM     41  C   UNL     1      -5.228  16.916  -1.776  1.00  0.00     0.074 A 
ATOM     42  C   UNL     1      -5.125  16.124  -0.571  1.00  0.00     0.031 C 
ATOM     43  C   UNL     1      -0.727  14.341  -5.579  1.00  0.00     0.029 A 
ATOM     44  C   UNL     1      -1.639  15.439  -5.897  1.00  0.00     0.049 A 
ATOM     45  H   UNL     1      -3.072  16.291  -4.649  1.00  0.00     0.167 HD
ATOM     46  C   UNL     1      -6.068  17.967  -1.929  1.00  0.00     0.031 A 
ATOM     47  C   UNL     1      -1.694  16.098  -7.071  1.00  0.00     0.031 A 
ATOM     48  C   UNL     1      -6.181  18.741  -3.137  1.00  0.00     0.049 A 
ATOM     49  C   UNL     1      -2.696  17.207  -7.247  1.00  0.00     0.074 A 
ATOM     50  C   UNL     1      -7.020  19.810  -3.399  1.00  0.00     0.029 A 
ATOM     51  N   UNL     1      -5.432  18.530  -4.285  1.00  0.00    -0.354 N 
ATOM     52  N   UNL     1      -3.568  17.674  -6.385  1.00  0.00    -0.248 NA
ATOM     53  C   UNL     1      -2.717  17.883  -8.551  1.00  0.00     0.031 C 
ATOM     54  C   UNL     1      -6.808  20.218  -4.720  1.00  0.00     0.029 A 
ATOM     55  C   UNL     1      -5.796  19.441  -5.261  1.00  0.00     0.049 A 
ATOM     56  H   UNL     1      -4.742  17.835  -4.389  1.00  0.00     0.167 HD
ATOM     57  C   UNL     1      -4.219  18.720  -7.032  1.00  0.00     0.074 A 
ATOM     58  C   UNL     1      -3.635  18.820  -8.354  1.00  0.00     0.031 C 
ATOM     59  C   UNL     1      -5.205  19.528  -6.572  1.00  0.00     0.031 A 
BRANCH  46  60
ATOM     60  C   UNL     1      -6.954  18.329  -0.768  1.00  0.00    -0.014 A 
ATOM     61  C   UNL     1      -6.433  18.973   0.368  1.00  0.00     0.010 A 
ATOM     62  C   UNL     1      -8.336  18.078  -0.841  1.00  0.00     0.010 A 
ATOM     63  C   UNL     1      -7.277  19.344   1.419  1.00  0.00     0.020 A 
ATOM     64  C   UNL     1      -9.187  18.468   0.197  1.00  0.00     0.020 A 
ATOM     65  C   UNL     1      -8.649  19.091   1.325  1.00  0.00     0.054 A 
BRANCH  65  66
ATOM     66  S   UNL     1      -9.727  19.628   2.683  1.00  0.00     0.124 S 
ATOM     67  O   UNL     1      -9.365  18.691   3.743  1.00  0.00    -0.237 OA
ATOM     68  O   UNL     1      -9.308  21.010   2.896  1.00  0.00    -0.237 OA
ATOM     69  O   UNL     1     -11.074  19.464   2.143  1.00  0.00    -0.744 OA
ENDBRANCH  65  66
ENDBRANCH  46  60
BRANCH  47  70
ATOM     70  C   UNL     1      -0.778  15.716  -8.179  1.00  0.00    -0.014 A 
ATOM     71  C   UNL     1       0.272  16.567  -8.566  1.00  0.00     0.010 A 
ATOM     72  C   UNL     1      -0.946  14.489  -8.848  1.00  0.00     0.010 A 
ATOM     73  C   UNL     1       1.130  16.204  -9.608  1.00  0.00     0.020 A 
ATOM     74  C   UNL     1      -0.074  14.111  -9.872  1.00  0.00     0.020 A 
ATOM     75  C   UNL     1       0.954  14.976 -10.252  1.00  0.00     0.054 A 
BRANCH  75  76
ATOM     76  S   UNL     1       2.118  14.500 -11.561  1.00  0.00     0.124 S 
ATOM     77  O   UNL     1       1.719  15.378 -12.656  1.00  0.00    -0.237 OA
ATOM     78  O   UNL     1       3.413  14.794 -10.952  1.00  0.00    -0.237 OA
ATOM     79  O   UNL     1       1.841  13.079 -11.763  1.00  0.00    -0.744 OA
ENDBRANCH  75  76
ENDBRANCH  47  70
BRANCH  59  80
ATOM     80  C   UNL     1      -5.685  20.625  -7.484  1.00  0.00    -0.014 A 
ATOM     81  C   UNL     1      -6.486  20.348  -8.605  1.00  0.00     0.010 A 
ATOM     82  C   UNL     1      -5.366  21.962  -7.181  1.00  0.00     0.010 A 
ATOM     83  C   UNL     1      -6.927  21.387  -9.430  1.00  0.00     0.020 A 
ATOM     84  C   UNL     1      -5.826  23.005  -7.988  1.00  0.00     0.020 A 
ATOM     85  C   UNL     1      -6.591  22.709  -9.118  1.00  0.00     0.054 A 
BRANCH  85  86
ATOM     86  S   UNL     1      -7.196  24.041 -10.190  1.00  0.00     0.124 S 
ATOM     87  O   UNL     1      -6.350  23.889 -11.370  1.00  0.00    -0.237 OA
ATOM     88  O   UNL     1      -8.602  23.690 -10.376  1.00  0.00    -0.237 OA
ATOM     89  O   UNL     1      -6.961  25.251  -9.406  1.00  0.00    -0.744 OA
ENDBRANCH  85  86
ENDBRANCH  59  80
ENDBRANCH  33  34
ENDBRANCH  26  28
ENDBRANCH  25  26
ENDBRANCH  24  25
ENDBRANCH   1  24
TORSDOF 18
