REMARK SMILES O=C(OCCOCCOC(=O)[C@H](Cc1ccc(O)cc1)NC(=O)c1ccc(Cl)s1)c1ccc(-c2c3nc(c(-c4ccc(S(=O)(=O)[O-])cc4)c4ccc([nH]4)c(-c4ccc(S(=O)(=O)[O-])cc4)c4nc(c(-c5ccc(S(=O)(=O)[O-])cc5)c5ccc2[nH]5)C=C4)C=C3)cc1
REMARK SMILES IDX 6 1 5 2 4 3 3 4 2 5 1 6 30 7 31 8 89 9 32 10 88 11 33 12
REMARK SMILES IDX 34 13 35 14 82 15 36 16 87 17 81 18 83 19 37 20 86 21 80 22
REMARK SMILES IDX 79 23 38 25 68 26 49 27 67 28 50 29 53 30 66 31 84 32 51 33
REMARK SMILES IDX 52 34 65 36 85 37 54 38 39 39 40 40 48 41 41 42 47 43 42 44
REMARK SMILES IDX 43 45 44 46 45 47 46 48 69 49 70 50 78 51 71 52 77 53 72 54
REMARK SMILES IDX 73 55 74 56 75 57 76 58 55 59 56 60 64 61 57 62 63 63 58 64
REMARK SMILES IDX 59 65 60 66 61 67 62 68 7 69 8 70 9 71 10 72 11 73 12 74
REMARK SMILES IDX 21 75 22 76 23 78 24 79 25 80 29 81 26 82 27 83 28 84 13 85
REMARK SMILES IDX 14 86 15 87 20 88 16 89 19 90 17 91 18 92
REMARK H PARENT 83 24 53 35 21 77 18 93
REMARK Flexibility Score: inf
ROOT
ATOM      1  O   UNL     1       4.168   2.225   2.001  1.00  0.00    -0.374 OA
ENDROOT
BRANCH   1   2
ATOM      2  C   UNL     1       4.804   1.476   0.970  1.00  0.00     0.202 C 
BRANCH   2   3
ATOM      3  C   UNL     1       4.518   1.962  -0.448  1.00  0.00     0.261 C 
BRANCH   3   4
ATOM      4  O   UNL     1       4.970   3.317  -0.602  1.00  0.00    -0.460 OA
BRANCH   4   5
ATOM      5  C   UNL     1       4.201   4.393  -0.894  1.00  0.00     0.338 C 
ATOM      6  O   UNL     1       4.744   5.444  -1.226  1.00  0.00    -0.246 OA
BRANCH   5   7
ATOM      7  C   UNL     1       2.714   4.358  -0.802  1.00  0.00     0.060 A 
ATOM      8  C   UNL     1       2.017   3.632   0.168  1.00  0.00     0.016 A 
ATOM      9  C   UNL     1       1.990   5.207  -1.649  1.00  0.00     0.016 A 
ATOM     10  C   UNL     1       0.637   3.707   0.277  1.00  0.00     0.010 A 
ATOM     11  C   UNL     1       0.605   5.334  -1.508  1.00  0.00     0.010 A 
ATOM     12  C   UNL     1      -0.070   4.591  -0.532  1.00  0.00    -0.014 A 
BRANCH  12  13
ATOM     13  C   UNL     1      -1.516   4.748  -0.300  1.00  0.00     0.031 A 
ATOM     14  C   UNL     1      -2.479   4.153  -1.274  1.00  0.00     0.074 A 
ATOM     15  C   UNL     1      -1.927   5.373   0.820  1.00  0.00     0.049 A 
ATOM     16  N   UNL     1      -3.776   4.274  -1.319  1.00  0.00    -0.248 NA
ATOM     17  C   UNL     1      -1.911   3.301  -2.333  1.00  0.00     0.031 C 
ATOM     18  C   UNL     1      -1.042   5.889   1.873  1.00  0.00     0.029 A 
ATOM     19  N   UNL     1      -3.183   5.671   1.273  1.00  0.00    -0.354 N 
ATOM     20  C   UNL     1      -4.179   3.553  -2.434  1.00  0.00     0.074 A 
ATOM     21  C   UNL     1      -2.994   2.975  -3.026  1.00  0.00     0.031 C 
ATOM     22  C   UNL     1      -1.787   6.428   2.851  1.00  0.00     0.029 A 
ATOM     23  C   UNL     1      -3.188   6.372   2.457  1.00  0.00     0.049 A 
ATOM     24  H   UNL     1      -4.005   5.410   0.797  1.00  0.00     0.167 HD
ATOM     25  C   UNL     1      -5.432   3.418  -2.924  1.00  0.00     0.031 A 
ATOM     26  C   UNL     1      -4.209   6.954   3.114  1.00  0.00     0.031 A 
ATOM     27  C   UNL     1      -6.585   4.016  -2.308  1.00  0.00     0.049 A 
ATOM     28  C   UNL     1      -5.577   6.862   2.496  1.00  0.00     0.074 A 
ATOM     29  C   UNL     1      -7.901   3.983  -2.726  1.00  0.00     0.029 A 
ATOM     30  N   UNL     1      -6.548   4.766  -1.140  1.00  0.00    -0.354 N 
ATOM     31  N   UNL     1      -5.948   6.206   1.419  1.00  0.00    -0.248 NA
ATOM     32  C   UNL     1      -6.656   7.608   3.153  1.00  0.00     0.031 C 
ATOM     33  C   UNL     1      -8.653   4.758  -1.837  1.00  0.00     0.029 A 
ATOM     34  C   UNL     1      -7.813   5.234  -0.840  1.00  0.00     0.049 A 
ATOM     35  H   UNL     1      -5.740   4.940  -0.605  1.00  0.00     0.167 HD
ATOM     36  C   UNL     1      -7.302   6.468   1.265  1.00  0.00     0.074 A 
ATOM     37  C   UNL     1      -7.692   7.311   2.380  1.00  0.00     0.031 C 
ATOM     38  C   UNL     1      -8.149   6.069   0.285  1.00  0.00     0.031 A 
BRANCH  25  39
ATOM     39  C   UNL     1      -5.597   2.678  -4.220  1.00  0.00    -0.014 A 
ATOM     40  C   UNL     1      -5.535   1.276  -4.283  1.00  0.00     0.010 A 
ATOM     41  C   UNL     1      -5.838   3.409  -5.397  1.00  0.00     0.010 A 
ATOM     42  C   UNL     1      -5.691   0.619  -5.509  1.00  0.00     0.020 A 
ATOM     43  C   UNL     1      -6.011   2.756  -6.620  1.00  0.00     0.020 A 
ATOM     44  C   UNL     1      -5.925   1.364  -6.669  1.00  0.00     0.054 A 
BRANCH  44  45
ATOM     45  S   UNL     1      -6.150   0.487  -8.241  1.00  0.00     0.124 S 
ATOM     46  O   UNL     1      -4.788   0.049  -8.539  1.00  0.00    -0.237 OA
ATOM     47  O   UNL     1      -7.086  -0.576  -7.884  1.00  0.00    -0.237 OA
ATOM     48  O   UNL     1      -6.684   1.509  -9.137  1.00  0.00    -0.744 OA
ENDBRANCH  44  45
ENDBRANCH  25  39
BRANCH  26  49
ATOM     49  C   UNL     1      -3.963   7.766   4.340  1.00  0.00    -0.014 A 
ATOM     50  C   UNL     1      -4.503   7.392   5.583  1.00  0.00     0.010 A 
ATOM     51  C   UNL     1      -3.201   8.948   4.260  1.00  0.00     0.010 A 
ATOM     52  C   UNL     1      -4.313   8.200   6.711  1.00  0.00     0.020 A 
ATOM     53  C   UNL     1      -2.981   9.740   5.390  1.00  0.00     0.020 A 
ATOM     54  C   UNL     1      -3.558   9.372   6.606  1.00  0.00     0.054 A 
BRANCH  54  55
ATOM     55  S   UNL     1      -3.315  10.405   8.078  1.00  0.00     0.124 S 
ATOM     56  O   UNL     1      -4.599  11.090   8.181  1.00  0.00    -0.237 OA
ATOM     57  O   UNL     1      -3.037   9.419   9.118  1.00  0.00    -0.237 OA
ATOM     58  O   UNL     1      -2.180  11.252   7.715  1.00  0.00    -0.744 OA
ENDBRANCH  54  55
ENDBRANCH  26  49
BRANCH  38  59
ATOM     59  C   UNL     1      -9.569   6.540   0.384  1.00  0.00    -0.014 A 
ATOM     60  C   UNL     1      -9.909   7.860   0.041  1.00  0.00     0.010 A 
ATOM     61  C   UNL     1     -10.580   5.632   0.744  1.00  0.00     0.010 A 
ATOM     62  C   UNL     1     -11.242   8.268   0.066  1.00  0.00     0.020 A 
ATOM     63  C   UNL     1     -11.916   6.031   0.746  1.00  0.00     0.020 A 
ATOM     64  C   UNL     1     -12.238   7.350   0.414  1.00  0.00     0.054 A 
BRANCH  64  65
ATOM     65  S   UNL     1     -13.970   7.881   0.363  1.00  0.00     0.124 S 
ATOM     66  O   UNL     1     -14.077   8.682   1.579  1.00  0.00    -0.237 OA
ATOM     67  O   UNL     1     -14.040   8.628  -0.891  1.00  0.00    -0.237 OA
ATOM     68  O   UNL     1     -14.717   6.625   0.374  1.00  0.00    -0.744 OA
ENDBRANCH  64  65
ENDBRANCH  38  59
ENDBRANCH  12  13
ENDBRANCH   5   7
ENDBRANCH   4   5
ENDBRANCH   3   4
ENDBRANCH   2   3
ENDBRANCH   1   2
BRANCH   1  69
ATOM     69  C   UNL     1       4.843   3.419   2.425  1.00  0.00     0.202 C 
BRANCH  69  70
ATOM     70  C   UNL     1       4.603   3.585   3.927  1.00  0.00     0.261 C 
BRANCH  70  71
ATOM     71  O   UNL     1       5.102   2.396   4.559  1.00  0.00    -0.462 OA
BRANCH  71  72
ATOM     72  C   UNL     1       4.204   1.370   4.677  1.00  0.00     0.329 C 
ATOM     73  O   UNL     1       2.987   1.477   4.711  1.00  0.00    -0.250 OA
BRANCH  72  74
ATOM     74  C   UNL     1       4.972   0.059   4.820  1.00  0.00     0.197 C 
BRANCH  74  75
ATOM     75  N   UNL     1       4.873  -0.343   6.220  1.00  0.00    -0.338 N 
ATOM     76  C   UNL     1       5.851  -0.392   7.185  1.00  0.00     0.262 C 
ATOM     77  H   UNL     1       3.976  -0.619   6.516  1.00  0.00     0.164 HD
ATOM     78  O   UNL     1       5.524  -0.727   8.315  1.00  0.00    -0.268 OA
BRANCH  76  79
ATOM     79  C   UNL     1       7.220  -0.096   6.800  1.00  0.00     0.093 A 
ATOM     80  C   UNL     1       7.762   1.023   6.189  1.00  0.00     0.027 A 
ATOM     81  S   UNL     1       8.429  -1.271   7.128  1.00  0.00    -0.118 S 
ATOM     82  C   UNL     1       9.141   0.848   5.866  1.00  0.00     0.033 A 
ATOM     83  C   UNL     1       9.600  -0.361   6.318  1.00  0.00     0.094 A 
ATOM     84  Cl  UNL     1      11.188  -0.987   6.133  1.00  0.00    -0.072 Cl
ENDBRANCH  76  79
ENDBRANCH  74  75
BRANCH  74  85
ATOM     85  C   UNL     1       4.419  -1.010   3.858  1.00  0.00     0.072 C 
BRANCH  85  86
ATOM     86  C   UNL     1       5.313  -2.208   3.575  1.00  0.00    -0.045 A 
ATOM     87  C   UNL     1       4.736  -3.366   3.025  1.00  0.00     0.007 A 
ATOM     88  C   UNL     1       6.700  -2.207   3.783  1.00  0.00     0.007 A 
ATOM     89  C   UNL     1       5.508  -4.505   2.764  1.00  0.00     0.046 A 
ATOM     90  C   UNL     1       7.471  -3.347   3.541  1.00  0.00     0.046 A 
ATOM     91  C   UNL     1       6.868  -4.491   3.047  1.00  0.00     0.115 A 
BRANCH  91  92
ATOM     92  O   UNL     1       7.653  -5.587   2.848  1.00  0.00    -0.508 OA
ATOM     93  H   UNL     1       7.277  -6.378   2.515  1.00  0.00     0.293 HD
ENDBRANCH  91  92
ENDBRANCH  85  86
ENDBRANCH  74  85
ENDBRANCH  72  74
ENDBRANCH  71  72
ENDBRANCH  70  71
ENDBRANCH  69  70
ENDBRANCH   1  69
TORSDOF 22
