REMARK SMILES Cc1ccc(C)c(N2C(=O)S[C@H](CC(=O)Nc3ccc(C(=O)OCCOCCOC(=O)c4ccc(-c5c6nc(c(-c7ccc(S(=O)(=O)[O-])cc7)c7ccc([nH]7)c(-c7ccc(S(=O)(=O)[O-])cc7)c7nc(c(-c8ccc(S(=O)(=O)[O-])cc8)c8ccc5[nH]8)C=C7)C=C6)cc4)c(O)c3)C2=O)c1
REMARK SMILES IDX 25 1 24 2 23 3 21 4 22 5 20 6 17 7 18 8 94 9 19 10 92 11
REMARK SMILES IDX 16 12 14 13 15 14 13 16 12 17 8 18 9 19 95 20 10 21 11 22
REMARK SMILES IDX 96 23 7 24 1 25 2 26 3 27 97 28 4 29 5 30 6 31 93 32 26 34
REMARK SMILES IDX 27 35 28 36 29 37 30 38 31 39 32 40 33 41 91 42 34 43 90 44
REMARK SMILES IDX 35 45 36 46 37 47 84 48 38 49 89 50 83 51 85 52 39 53 88 54
REMARK SMILES IDX 82 55 81 56 40 58 70 59 51 60 69 61 52 62 55 63 68 64 86 65
REMARK SMILES IDX 53 66 54 67 67 69 87 70 56 71 41 72 42 73 50 74 43 75 49 76
REMARK SMILES IDX 44 77 45 78 46 79 47 80 48 81 71 82 72 83 80 84 73 85 79 86
REMARK SMILES IDX 74 87 75 88 76 89 77 90 78 91 57 92 58 93 66 94 59 95 65 96
REMARK SMILES IDX 60 97 61 98 62 99 63 100 64 101
REMARK H PARENT 16 15 93 33 85 57 55 68
REMARK Flexibility Score: inf
ROOT
ATOM      1  C   UNL     1       3.828   6.516  -2.635  1.00  0.00     0.202 C 
ENDROOT
BRANCH   1   2
ATOM      2  C   UNL     1       3.108   7.571  -3.488  1.00  0.00     0.261 C 
BRANCH   2   3
ATOM      3  O   UNL     1       2.030   8.108  -2.687  1.00  0.00    -0.460 OA
BRANCH   3   4
ATOM      4  C   UNL     1       0.940   7.297  -2.760  1.00  0.00     0.341 C 
ATOM      5  O   UNL     1       0.752   6.484  -3.623  1.00  0.00    -0.246 OA
BRANCH   4   6
ATOM      6  C   UNL     1       0.059   7.426  -1.576  1.00  0.00     0.101 A 
ATOM      7  C   UNL     1      -1.799   7.439   0.532  1.00  0.00     0.044 A 
ATOM      8  C   UNL     1      -1.796   6.446  -0.423  1.00  0.00     0.027 A 
ATOM      9  C   UNL     1      -0.941   8.524   0.356  1.00  0.00     0.073 A 
ATOM     10  C   UNL     1      -0.802   6.356  -1.373  1.00  0.00     0.022 A 
ATOM     11  C   UNL     1      -0.020   8.519  -0.711  1.00  0.00     0.132 A 
BRANCH   7  12
ATOM     12  N   UNL     1      -2.699   7.322   1.604  1.00  0.00    -0.326 N 
ATOM     13  C   UNL     1      -3.180   6.146   2.164  1.00  0.00     0.226 C 
ATOM     14  O   UNL     1      -4.216   6.171   2.828  1.00  0.00    -0.275 OA
ATOM     15  H   UNL     1      -3.022   8.163   2.001  1.00  0.00     0.169 HD
BRANCH  13  16
ATOM     16  C   UNL     1      -2.288   4.888   2.156  1.00  0.00     0.125 C 
BRANCH  16  17
ATOM     17  C   UNL     1      -2.940   3.560   1.753  1.00  0.00     0.156 C 
ATOM     18  N   UNL     1      -1.433   1.914   0.825  1.00  0.00    -0.240 N 
ATOM     19  C   UNL     1      -1.821   2.512  -0.335  1.00  0.00     0.293 C 
ATOM     20  C   UNL     1      -1.996   2.378   2.007  1.00  0.00     0.248 C 
ATOM     21  O   UNL     1      -1.314   2.432  -1.440  1.00  0.00    -0.261 OA
ATOM     22  S   UNL     1      -3.237   3.433  -0.014  1.00  0.00    -0.050 SA
ATOM     23  O   UNL     1      -1.748   1.954   3.132  1.00  0.00    -0.273 OA
BRANCH  18  24
ATOM     24  C   UNL     1      -0.667   0.739   0.724  1.00  0.00     0.056 A 
ATOM     25  C   UNL     1       2.992  -0.151   0.132  1.00  0.00     0.044 C 
ATOM     26  C   UNL     1       1.506  -0.265   0.296  1.00  0.00    -0.049 A 
ATOM     27  C   UNL     1       0.878  -1.499   0.097  1.00  0.00     0.004 A 
ATOM     28  C   UNL     1       0.728   0.850   0.630  1.00  0.00     0.030 A 
ATOM     29  C   UNL     1      -0.511  -1.608   0.170  1.00  0.00     0.006 A 
ATOM     30  C   UNL     1      -1.304  -0.487   0.445  1.00  0.00    -0.027 A 
ATOM     31  C   UNL     1      -2.801  -0.652   0.376  1.00  0.00     0.046 C 
ENDBRANCH  18  24
ENDBRANCH  16  17
ENDBRANCH  13  16
ENDBRANCH   7  12
BRANCH  11  32
ATOM     32  O   UNL     1       0.785   9.617  -0.842  1.00  0.00    -0.507 OA
ATOM     33  H   UNL     1       1.412   9.658  -1.537  1.00  0.00     0.293 HD
ENDBRANCH  11  32
ENDBRANCH   4   6
ENDBRANCH   3   4
ENDBRANCH   2   3
ENDBRANCH   1   2
BRANCH   1  34
ATOM     34  O   UNL     1       2.965   5.396  -2.471  1.00  0.00    -0.374 OA
BRANCH  34  35
ATOM     35  C   UNL     1       3.148   4.581  -1.326  1.00  0.00     0.202 C 
BRANCH  35  36
ATOM     36  C   UNL     1       4.452   3.775  -1.351  1.00  0.00     0.261 C 
BRANCH  36  37
ATOM     37  O   UNL     1       4.494   2.759  -2.377  1.00  0.00    -0.460 OA
BRANCH  37  38
ATOM     38  C   UNL     1       4.566   3.229  -3.655  1.00  0.00     0.338 C 
ATOM     39  O   UNL     1       5.572   3.703  -4.156  1.00  0.00    -0.246 OA
BRANCH  38  40
ATOM     40  C   UNL     1       3.208   3.209  -4.269  1.00  0.00     0.060 A 
ATOM     41  C   UNL     1       2.900   4.098  -5.306  1.00  0.00     0.016 A 
ATOM     42  C   UNL     1       2.187   2.508  -3.626  1.00  0.00     0.016 A 
ATOM     43  C   UNL     1       1.556   4.376  -5.604  1.00  0.00     0.010 A 
ATOM     44  C   UNL     1       0.866   2.862  -3.858  1.00  0.00     0.010 A 
ATOM     45  C   UNL     1       0.526   3.817  -4.829  1.00  0.00    -0.014 A 
BRANCH  45  46
ATOM     46  C   UNL     1      -0.887   3.796  -5.274  1.00  0.00     0.031 A 
ATOM     47  C   UNL     1      -1.016   2.788  -6.334  1.00  0.00     0.074 A 
ATOM     48  C   UNL     1      -1.999   4.463  -4.870  1.00  0.00     0.049 A 
ATOM     49  N   UNL     1      -1.080   3.096  -7.588  1.00  0.00    -0.248 NA
ATOM     50  C   UNL     1      -0.785   1.360  -6.064  1.00  0.00     0.031 C 
ATOM     51  C   UNL     1      -2.078   5.656  -4.052  1.00  0.00     0.029 A 
ATOM     52  N   UNL     1      -3.342   4.184  -5.053  1.00  0.00    -0.354 N 
ATOM     53  C   UNL     1      -1.248   1.886  -8.218  1.00  0.00     0.074 A 
ATOM     54  C   UNL     1      -0.749   0.882  -7.310  1.00  0.00     0.031 C 
ATOM     55  C   UNL     1      -3.315   5.834  -3.542  1.00  0.00     0.029 A 
ATOM     56  C   UNL     1      -4.189   4.857  -4.159  1.00  0.00     0.049 A 
ATOM     57  H   UNL     1      -3.673   3.569  -5.747  1.00  0.00     0.167 HD
ATOM     58  C   UNL     1      -2.200   1.779  -9.180  1.00  0.00     0.031 A 
ATOM     59  C   UNL     1      -5.548   4.893  -4.078  1.00  0.00     0.031 A 
ATOM     60  C   UNL     1      -2.641   3.065  -9.666  1.00  0.00     0.049 A 
ATOM     61  C   UNL     1      -6.035   4.846  -5.457  1.00  0.00     0.074 A 
ATOM     62  C   UNL     1      -2.086   4.093 -10.399  1.00  0.00     0.029 A 
ATOM     63  N   UNL     1      -3.730   3.584  -9.009  1.00  0.00    -0.354 N 
ATOM     64  N   UNL     1      -5.888   5.846  -6.278  1.00  0.00    -0.248 NA
ATOM     65  C   UNL     1      -6.361   3.564  -6.061  1.00  0.00     0.031 C 
ATOM     66  C   UNL     1      -2.822   5.272 -10.081  1.00  0.00     0.029 A 
ATOM     67  C   UNL     1      -3.829   4.943  -9.180  1.00  0.00     0.049 A 
ATOM     68  H   UNL     1      -4.363   3.046  -8.481  1.00  0.00     0.167 HD
ATOM     69  C   UNL     1      -5.596   5.224  -7.473  1.00  0.00     0.074 A 
ATOM     70  C   UNL     1      -6.097   3.863  -7.335  1.00  0.00     0.031 C 
ATOM     71  C   UNL     1      -4.674   5.753  -8.324  1.00  0.00     0.031 A 
BRANCH  58  72
ATOM     72  C   UNL     1      -3.067   0.555  -9.267  1.00  0.00    -0.014 A 
ATOM     73  C   UNL     1      -3.838   0.344 -10.417  1.00  0.00     0.010 A 
ATOM     74  C   UNL     1      -3.325  -0.274  -8.150  1.00  0.00     0.010 A 
ATOM     75  C   UNL     1      -4.808  -0.666 -10.450  1.00  0.00     0.020 A 
ATOM     76  C   UNL     1      -4.247  -1.312  -8.188  1.00  0.00     0.020 A 
ATOM     77  C   UNL     1      -4.999  -1.490  -9.336  1.00  0.00     0.054 A 
BRANCH  77  78
ATOM     78  S   UNL     1      -6.269  -2.772  -9.375  1.00  0.00     0.124 S 
ATOM     79  O   UNL     1      -7.494  -1.979  -9.359  1.00  0.00    -0.237 OA
ATOM     80  O   UNL     1      -5.972  -3.464 -10.625  1.00  0.00    -0.237 OA
ATOM     81  O   UNL     1      -6.007  -3.547  -8.164  1.00  0.00    -0.744 OA
ENDBRANCH  77  78
ENDBRANCH  58  72
BRANCH  59  82
ATOM     82  C   UNL     1      -6.450   4.913  -2.898  1.00  0.00    -0.014 A 
ATOM     83  C   UNL     1      -7.842   5.079  -2.978  1.00  0.00     0.010 A 
ATOM     84  C   UNL     1      -5.949   4.434  -1.686  1.00  0.00     0.010 A 
ATOM     85  C   UNL     1      -8.687   4.675  -1.919  1.00  0.00     0.020 A 
ATOM     86  C   UNL     1      -6.766   4.025  -0.624  1.00  0.00     0.020 A 
ATOM     87  C   UNL     1      -8.142   4.116  -0.759  1.00  0.00     0.054 A 
BRANCH  87  88
ATOM     88  S   UNL     1      -9.222   3.356   0.494  1.00  0.00     0.124 S 
ATOM     89  O   UNL     1      -9.763   4.519   1.190  1.00  0.00    -0.237 OA
ATOM     90  O   UNL     1     -10.176   2.605  -0.317  1.00  0.00    -0.237 OA
ATOM     91  O   UNL     1      -8.306   2.529   1.281  1.00  0.00    -0.744 OA
ENDBRANCH  87  88
ENDBRANCH  59  82
BRANCH  71  92
ATOM     92  C   UNL     1      -4.446   7.241  -8.266  1.00  0.00    -0.014 A 
ATOM     93  C   UNL     1      -3.873   7.920  -7.174  1.00  0.00     0.010 A 
ATOM     94  C   UNL     1      -4.802   7.985  -9.404  1.00  0.00     0.010 A 
ATOM     95  C   UNL     1      -3.676   9.311  -7.218  1.00  0.00     0.020 A 
ATOM     96  C   UNL     1      -4.595   9.365  -9.461  1.00  0.00     0.020 A 
ATOM     97  C   UNL     1      -4.039  10.024  -8.365  1.00  0.00     0.054 A 
BRANCH  97  98
ATOM     98  S   UNL     1      -3.740  11.813  -8.442  1.00  0.00     0.124 S 
ATOM     99  O   UNL     1      -4.708  12.341  -7.484  1.00  0.00    -0.237 OA
ATOM    100  O   UNL     1      -2.338  11.927  -8.046  1.00  0.00    -0.237 OA
ATOM    101  O   UNL     1      -4.007  12.152  -9.840  1.00  0.00    -0.744 OA
ENDBRANCH  97  98
ENDBRANCH  71  92
ENDBRANCH  45  46
ENDBRANCH  38  40
ENDBRANCH  37  38
ENDBRANCH  36  37
ENDBRANCH  35  36
ENDBRANCH  34  35
ENDBRANCH   1  34
TORSDOF 22
