REMARK SMILES CCc1ccnc(C(=O)c2[nH]c3ccc(OC(F)(F)F)cc3c2CC(=O)OCCOCCOC(=O)c2ccc(-c3c4nc(c(-c5ccc(S(=O)(=O)[O-])cc5)c5ccc([nH]5)c(-c5ccc(S(=O)(=O)[O-])cc5)c5nc(c(-c6ccc(S(=O)(=O)[O-])cc6)c6ccc3[nH]6)C=C5)C=C4)cc2)c1
REMARK SMILES IDX 29 1 28 2 27 3 25 4 26 5 24 6 23 7 10 8 11 9 12 10 22 12
REMARK SMILES IDX 13 13 21 14 14 15 15 16 8 17 9 18 7 19 3 20 4 21 96 22 5 23
REMARK SMILES IDX 6 24 2 25 1 26 16 27 17 28 18 29 19 30 20 31 30 32 31 33
REMARK SMILES IDX 32 34 33 35 34 36 35 37 36 38 37 39 95 40 38 41 94 42 39 43
REMARK SMILES IDX 40 44 41 45 88 46 42 47 93 48 87 49 89 50 43 51 92 52 86 53
REMARK SMILES IDX 85 54 44 56 74 57 55 58 73 59 56 60 59 61 72 62 90 63 57 64
REMARK SMILES IDX 58 65 71 67 91 68 60 69 45 70 46 71 54 72 47 73 53 74 48 75
REMARK SMILES IDX 49 76 50 77 51 78 52 79 75 80 76 81 84 82 77 83 83 84 78 85
REMARK SMILES IDX 79 86 80 87 81 88 82 89 61 90 62 91 70 92 63 93 69 94 64 95
REMARK SMILES IDX 65 96 66 97 67 98 68 99
REMARK H PARENT 11 11 89 55 59 66
REMARK Flexibility Score: inf
ROOT
ATOM      1  C   UNL     1       2.750   5.440   7.889  1.00  0.00     0.202 C 
ENDROOT
BRANCH   1   2
ATOM      2  C   UNL     1       3.626   5.977   6.750  1.00  0.00     0.261 C 
BRANCH   2   3
ATOM      3  O   UNL     1       3.195   5.499   5.454  1.00  0.00    -0.463 OA
BRANCH   3   4
ATOM      4  C   UNL     1       4.175   4.983   4.665  1.00  0.00     0.310 C 
ATOM      5  O   UNL     1       5.369   4.982   4.962  1.00  0.00    -0.252 OA
BRANCH   4   6
ATOM      6  C   UNL     1       3.716   4.471   3.318  1.00  0.00     0.161 C 
BRANCH   6   7
ATOM      7  C   UNL     1       2.251   4.192   3.102  1.00  0.00     0.000 A 
ATOM      8  C   UNL     1       1.562   3.014   3.399  1.00  0.00     0.093 A 
ATOM      9  N   UNL     1       0.243   3.232   3.054  1.00  0.00    -0.352 N 
ATOM     10  C   UNL     1       0.137   4.347   2.256  1.00  0.00     0.046 A 
ATOM     11  H   UNL     1      -0.514   2.669   3.338  1.00  0.00     0.167 HD
ATOM     12  C   UNL     1       1.371   4.989   2.298  1.00  0.00     0.008 A 
ATOM     13  C   UNL     1      -0.938   4.829   1.499  1.00  0.00     0.030 A 
ATOM     14  C   UNL     1       1.539   6.163   1.537  1.00  0.00     0.057 A 
ATOM     15  C   UNL     1      -0.724   5.971   0.711  1.00  0.00     0.049 A 
ATOM     16  C   UNL     1       0.506   6.626   0.711  1.00  0.00     0.130 A 
BRANCH   8  17
ATOM     17  C   UNL     1       2.111   1.782   3.957  1.00  0.00     0.227 C 
ATOM     18  O   UNL     1       3.119   1.785   4.661  1.00  0.00    -0.285 OA
BRANCH  17  19
ATOM     19  C   UNL     1       1.541   0.449   3.579  1.00  0.00     0.113 A 
ATOM     20  C   UNL     1       0.771  -1.083   1.891  1.00  0.00    -0.044 A 
ATOM     21  C   UNL     1       0.953  -2.112   2.821  1.00  0.00     0.024 A 
ATOM     22  C   UNL     1       1.050   0.227   2.296  1.00  0.00     0.036 A 
ATOM     23  C   UNL     1       1.415  -1.798   4.090  1.00  0.00     0.112 A 
ATOM     24  N   UNL     1       1.709  -0.545   4.489  1.00  0.00    -0.253 NA
BRANCH  20  25
ATOM     25  C   UNL     1       0.298  -1.411   0.495  1.00  0.00     0.032 C 
ATOM     26  C   UNL     1       0.817  -0.475  -0.591  1.00  0.00     0.009 C 
ENDBRANCH  20  25
ENDBRANCH  17  19
ENDBRANCH   8  17
BRANCH  16  27
ATOM     27  O   UNL     1       0.847   7.715  -0.041  1.00  0.00    -0.406 OA
BRANCH  27  28
ATOM     28  C   UNL     1      -0.000   8.065  -1.121  1.00  0.00     0.573 C 
ATOM     29  F   UNL     1      -0.222   7.009  -1.936  1.00  0.00    -0.132 F 
ATOM     30  F   UNL     1      -1.181   8.543  -0.677  1.00  0.00    -0.132 F 
ATOM     31  F   UNL     1       0.602   9.030  -1.851  1.00  0.00    -0.132 F 
ENDBRANCH  27  28
ENDBRANCH  16  27
ENDBRANCH   6   7
ENDBRANCH   4   6
ENDBRANCH   3   4
ENDBRANCH   2   3
ENDBRANCH   1   2
BRANCH   1  32
ATOM     32  O   UNL     1       2.892   4.054   8.215  1.00  0.00    -0.374 OA
BRANCH  32  33
ATOM     33  C   UNL     1       2.423   3.129   7.237  1.00  0.00     0.202 C 
BRANCH  33  34
ATOM     34  C   UNL     1       0.921   2.821   7.260  1.00  0.00     0.261 C 
BRANCH  34  35
ATOM     35  O   UNL     1       0.116   4.009   7.188  1.00  0.00    -0.460 OA
BRANCH  35  36
ATOM     36  C   UNL     1      -0.491   4.332   8.353  1.00  0.00     0.338 C 
ATOM     37  O   UNL     1      -0.564   3.646   9.367  1.00  0.00    -0.246 OA
BRANCH  36  38
ATOM     38  C   UNL     1      -0.940   5.732   8.324  1.00  0.00     0.060 A 
ATOM     39  C   UNL     1      -0.517   6.556   9.374  1.00  0.00     0.016 A 
ATOM     40  C   UNL     1      -1.799   6.220   7.336  1.00  0.00     0.016 A 
ATOM     41  C   UNL     1      -1.000   7.855   9.475  1.00  0.00     0.010 A 
ATOM     42  C   UNL     1      -2.289   7.526   7.442  1.00  0.00     0.010 A 
ATOM     43  C   UNL     1      -1.921   8.333   8.534  1.00  0.00    -0.014 A 
BRANCH  43  44
ATOM     44  C   UNL     1      -2.591   9.630   8.788  1.00  0.00     0.031 A 
ATOM     45  C   UNL     1      -3.967   9.633   9.394  1.00  0.00     0.074 A 
ATOM     46  C   UNL     1      -1.946  10.784   8.543  1.00  0.00     0.049 A 
ATOM     47  N   UNL     1      -4.708  10.648   9.759  1.00  0.00    -0.248 NA
ATOM     48  C   UNL     1      -4.593   8.320   9.620  1.00  0.00     0.031 C 
ATOM     49  C   UNL     1      -0.598  10.895   7.985  1.00  0.00     0.029 A 
ATOM     50  N   UNL     1      -2.337  12.084   8.741  1.00  0.00    -0.354 N 
ATOM     51  C   UNL     1      -5.885  10.097  10.255  1.00  0.00     0.074 A 
ATOM     52  C   UNL     1      -5.774   8.662  10.113  1.00  0.00     0.031 C 
ATOM     53  C   UNL     1      -0.272  12.195   7.890  1.00  0.00     0.029 A 
ATOM     54  C   UNL     1      -1.395  13.006   8.355  1.00  0.00     0.049 A 
ATOM     55  H   UNL     1      -3.210  12.332   9.123  1.00  0.00     0.167 HD
ATOM     56  C   UNL     1      -6.957  10.732  10.786  1.00  0.00     0.031 A 
ATOM     57  C   UNL     1      -1.437  14.352   8.367  1.00  0.00     0.031 A 
ATOM     58  C   UNL     1      -7.061  12.162  10.907  1.00  0.00     0.049 A 
ATOM     59  C   UNL     1      -2.661  15.037   8.916  1.00  0.00     0.074 A 
ATOM     60  C   UNL     1      -8.093  12.908  11.449  1.00  0.00     0.029 A 
ATOM     61  N   UNL     1      -6.103  13.065  10.469  1.00  0.00    -0.354 N 
ATOM     62  N   UNL     1      -3.749  14.502   9.419  1.00  0.00    -0.248 NA
ATOM     63  C   UNL     1      -2.657  16.506   8.910  1.00  0.00     0.031 C 
ATOM     64  C   UNL     1      -7.785  14.263  11.283  1.00  0.00     0.029 A 
ATOM     65  C   UNL     1      -6.533  14.361  10.696  1.00  0.00     0.049 A 
ATOM     66  H   UNL     1      -5.243  12.819  10.056  1.00  0.00     0.167 HD
ATOM     67  C   UNL     1      -4.552  15.568   9.807  1.00  0.00     0.074 A 
ATOM     68  C   UNL     1      -3.815  16.778   9.499  1.00  0.00     0.031 C 
ATOM     69  C   UNL     1      -5.788  15.551  10.367  1.00  0.00     0.031 A 
BRANCH  56  70
ATOM     70  C   UNL     1      -8.118   9.882  11.235  1.00  0.00    -0.014 A 
ATOM     71  C   UNL     1      -8.028   9.059  12.372  1.00  0.00     0.010 A 
ATOM     72  C   UNL     1      -9.329   9.927  10.519  1.00  0.00     0.010 A 
ATOM     73  C   UNL     1      -9.113   8.265  12.760  1.00  0.00     0.020 A 
ATOM     74  C   UNL     1     -10.424   9.156  10.919  1.00  0.00     0.020 A 
ATOM     75  C   UNL     1     -10.303   8.316  12.027  1.00  0.00     0.054 A 
BRANCH  75  76
ATOM     76  S   UNL     1     -11.699   7.286  12.559  1.00  0.00     0.124 S 
ATOM     77  O   UNL     1     -11.249   5.949  12.176  1.00  0.00    -0.237 OA
ATOM     78  O   UNL     1     -11.757   7.541  13.996  1.00  0.00    -0.237 OA
ATOM     79  O   UNL     1     -12.827   7.806  11.790  1.00  0.00    -0.744 OA
ENDBRANCH  75  76
ENDBRANCH  56  70
BRANCH  57  80
ATOM     80  C   UNL     1      -0.289  15.133   7.831  1.00  0.00    -0.014 A 
ATOM     81  C   UNL     1       0.540  15.881   8.685  1.00  0.00     0.010 A 
ATOM     82  C   UNL     1      -0.006  15.111   6.452  1.00  0.00     0.010 A 
ATOM     83  C   UNL     1       1.625  16.598   8.169  1.00  0.00     0.020 A 
ATOM     84  C   UNL     1       1.093  15.803   5.937  1.00  0.00     0.020 A 
ATOM     85  C   UNL     1       1.897  16.550   6.798  1.00  0.00     0.054 A 
BRANCH  85  86
ATOM     86  S   UNL     1       3.348  17.435   6.160  1.00  0.00     0.124 S 
ATOM     87  O   UNL     1       2.913  18.826   6.233  1.00  0.00    -0.237 OA
ATOM     88  O   UNL     1       4.394  17.047   7.104  1.00  0.00    -0.237 OA
ATOM     89  O   UNL     1       3.508  16.898   4.810  1.00  0.00    -0.744 OA
ENDBRANCH  85  86
ENDBRANCH  57  80
BRANCH  69  90
ATOM     90  C   UNL     1      -6.412  16.881  10.698  1.00  0.00    -0.014 A 
ATOM     91  C   UNL     1      -6.884  17.735   9.685  1.00  0.00     0.010 A 
ATOM     92  C   UNL     1      -6.570  17.259  12.043  1.00  0.00     0.010 A 
ATOM     93  C   UNL     1      -7.467  18.962  10.012  1.00  0.00     0.020 A 
ATOM     94  C   UNL     1      -7.179  18.472  12.375  1.00  0.00     0.020 A 
ATOM     95  C   UNL     1      -7.609  19.323  11.355  1.00  0.00     0.054 A 
BRANCH  95  96
ATOM     96  S   UNL     1      -8.398  20.907  11.754  1.00  0.00     0.124 S 
ATOM     97  O   UNL     1      -7.351  21.864  11.404  1.00  0.00    -0.237 OA
ATOM     98  O   UNL     1      -9.570  20.911  10.883  1.00  0.00    -0.237 OA
ATOM     99  O   UNL     1      -8.690  20.799  13.182  1.00  0.00    -0.744 OA
ENDBRANCH  95  96
ENDBRANCH  69  90
ENDBRANCH  43  44
ENDBRANCH  36  38
ENDBRANCH  35  36
ENDBRANCH  34  35
ENDBRANCH  33  34
ENDBRANCH  32  33
ENDBRANCH   1  32
TORSDOF 23
