REMARK SMILES Cc1cc(Br)cc2c1O[C@H](C(F)(F)F)C(C(=O)OCCOCCOC(=O)c1ccc(-c3c4nc(c(-c5ccc(S(=O)(=O)[O-])cc5)c5ccc([nH]5)c(-c5ccc(S(=O)(=O)[O-])cc5)c5nc(c(-c6ccc(S(=O)(=O)[O-])cc6)c6ccc3[nH]6)C=C5)C=C4)cc1)=C2
REMARK SMILES IDX 22 1 21 2 20 3 19 4 18 5 16 6 17 7 15 8 1 9 2 10 3 11 8 12
REMARK SMILES IDX 4 13 7 14 9 15 5 16 6 17 87 18 10 19 11 20 12 21 13 22 14 23
REMARK SMILES IDX 23 24 24 25 25 26 26 27 27 28 28 29 86 30 29 31 85 32 30 33
REMARK SMILES IDX 31 34 32 35 79 36 33 37 84 38 78 39 80 40 34 41 83 42 77 43
REMARK SMILES IDX 76 44 35 46 65 47 46 48 64 49 47 50 50 51 63 52 81 53 48 54
REMARK SMILES IDX 49 55 62 57 82 58 51 59 36 60 37 61 45 62 38 63 44 64 39 65
REMARK SMILES IDX 40 66 41 67 42 68 43 69 66 70 67 71 75 72 68 73 74 74 69 75
REMARK SMILES IDX 70 76 71 77 72 78 73 79 52 80 53 81 61 82 54 83 60 84 55 85
REMARK SMILES IDX 56 86 57 87 58 88 59 89
REMARK H PARENT 80 45 50 56
REMARK Flexibility Score: inf
ROOT
ATOM      1  C   UNL     1      -0.371  -7.676  -1.218  1.00  0.00     0.202 C 
ENDROOT
BRANCH   1   2
ATOM      2  O   UNL     1       0.489  -8.761  -1.569  1.00  0.00    -0.374 OA
BRANCH   2   3
ATOM      3  C   UNL     1       1.580  -9.053  -0.697  1.00  0.00     0.202 C 
BRANCH   3   4
ATOM      4  C   UNL     1       2.813  -8.153  -0.810  1.00  0.00     0.261 C 
BRANCH   4   5
ATOM      5  O   UNL     1       2.484  -6.771  -0.598  1.00  0.00    -0.460 OA
BRANCH   5   6
ATOM      6  C   UNL     1       2.592  -5.992  -1.699  1.00  0.00     0.338 C 
ATOM      7  O   UNL     1       3.027  -6.321  -2.792  1.00  0.00    -0.246 OA
BRANCH   6   8
ATOM      8  C   UNL     1       1.972  -4.677  -1.447  1.00  0.00     0.087 C 
ATOM      9  C   UNL     1       0.900   0.059   0.143  1.00  0.00     0.048 C 
ATOM     10  C   UNL     1       0.568  -0.764  -1.070  1.00  0.00    -0.007 A 
ATOM     11  C   UNL     1      -0.085  -0.171  -2.162  1.00  0.00     0.023 A 
ATOM     12  C   UNL     1       0.956  -2.111  -1.153  1.00  0.00     0.130 A 
ATOM     13  C   UNL     1      -0.355  -0.917  -3.308  1.00  0.00     0.019 A 
ATOM     14  C   UNL     1       0.719  -2.839  -2.323  1.00  0.00     0.019 A 
ATOM     15  O   UNL     1       1.558  -2.653  -0.051  1.00  0.00    -0.475 OA
ATOM     16  Br  UNL     1      -1.234  -0.107  -4.773  1.00  0.00    -0.051 Br
ATOM     17  C   UNL     1       0.044  -2.247  -3.395  1.00  0.00     0.027 A 
ATOM     18  C   UNL     1       1.244  -4.184  -2.456  1.00  0.00     0.027 C 
ATOM     19  C   UNL     1       2.192  -3.961  -0.144  1.00  0.00     0.316 C 
BRANCH  19  20
ATOM     20  C   UNL     1       3.678  -3.791   0.204  1.00  0.00     0.430 C 
ATOM     21  F   UNL     1       3.831  -3.098   1.358  1.00  0.00    -0.167 F 
ATOM     22  F   UNL     1       4.295  -4.981   0.377  1.00  0.00    -0.167 F 
ATOM     23  F   UNL     1       4.345  -3.122  -0.764  1.00  0.00    -0.167 F 
ENDBRANCH  19  20
ENDBRANCH   6   8
ENDBRANCH   5   6
ENDBRANCH   4   5
ENDBRANCH   3   4
ENDBRANCH   2   3
ENDBRANCH   1   2
BRANCH   1  24
ATOM     24  C   UNL     1      -1.326  -7.884  -0.036  1.00  0.00     0.261 C 
BRANCH  24  25
ATOM     25  O   UNL     1      -0.631  -7.969   1.221  1.00  0.00    -0.460 OA
BRANCH  25  26
ATOM     26  C   UNL     1      -0.713  -9.175   1.835  1.00  0.00     0.338 C 
ATOM     27  O   UNL     1      -1.348 -10.152   1.461  1.00  0.00    -0.246 OA
BRANCH  26  28
ATOM     28  C   UNL     1       0.242  -9.232   2.954  1.00  0.00     0.060 A 
ATOM     29  C   UNL     1       1.221 -10.234   2.925  1.00  0.00     0.016 A 
ATOM     30  C   UNL     1       0.134  -8.374   4.050  1.00  0.00     0.016 A 
ATOM     31  C   UNL     1       2.074 -10.406   4.012  1.00  0.00     0.010 A 
ATOM     32  C   UNL     1       0.984  -8.557   5.147  1.00  0.00     0.010 A 
ATOM     33  C   UNL     1       1.936  -9.592   5.145  1.00  0.00    -0.014 A 
BRANCH  33  34
ATOM     34  C   UNL     1       2.696  -9.924   6.374  1.00  0.00     0.031 A 
ATOM     35  C   UNL     1       2.016 -10.712   7.461  1.00  0.00     0.074 A 
ATOM     36  C   UNL     1       3.990  -9.579   6.495  1.00  0.00     0.049 A 
ATOM     37  N   UNL     1       2.495 -11.124   8.605  1.00  0.00    -0.248 NA
ATOM     38  C   UNL     1       0.612 -11.091   7.224  1.00  0.00     0.031 C 
ATOM     39  C   UNL     1       4.773  -8.868   5.485  1.00  0.00     0.029 A 
ATOM     40  N   UNL     1       4.878  -9.794   7.519  1.00  0.00    -0.354 N 
ATOM     41  C   UNL     1       1.460 -11.819   9.220  1.00  0.00     0.074 A 
ATOM     42  C   UNL     1       0.314 -11.739   8.342  1.00  0.00     0.031 C 
ATOM     43  C   UNL     1       6.030  -8.716   5.936  1.00  0.00     0.029 A 
ATOM     44  C   UNL     1       6.133  -9.289   7.277  1.00  0.00     0.049 A 
ATOM     45  H   UNL     1       4.639 -10.266   8.350  1.00  0.00     0.167 HD
ATOM     46  C   UNL     1       1.467 -12.476  10.404  1.00  0.00     0.031 A 
ATOM     47  C   UNL     1       7.237  -9.282   8.052  1.00  0.00     0.031 A 
ATOM     48  C   UNL     1       2.602 -12.540  11.285  1.00  0.00     0.049 A 
ATOM     49  C   UNL     1       7.187  -9.926   9.412  1.00  0.00     0.074 A 
ATOM     50  C   UNL     1       2.704 -13.174  12.511  1.00  0.00     0.029 A 
ATOM     51  N   UNL     1       3.830 -11.947  11.037  1.00  0.00    -0.354 N 
ATOM     52  N   UNL     1       6.200 -10.581   9.978  1.00  0.00    -0.248 NA
ATOM     53  C   UNL     1       8.399  -9.832  10.240  1.00  0.00     0.031 C 
ATOM     54  C   UNL     1       3.977 -12.919  13.029  1.00  0.00     0.029 A 
ATOM     55  C   UNL     1       4.688 -12.177  12.099  1.00  0.00     0.049 A 
ATOM     56  H   UNL     1       4.059 -11.437  10.226  1.00  0.00     0.167 HD
ATOM     57  C   UNL     1       6.681 -10.997  11.215  1.00  0.00     0.074 A 
ATOM     58  C   UNL     1       8.049 -10.530  11.313  1.00  0.00     0.031 C 
ATOM     59  C   UNL     1       6.047 -11.705  12.182  1.00  0.00     0.031 A 
BRANCH  46  60
ATOM     60  C   UNL     1       0.200 -13.171  10.823  1.00  0.00    -0.014 A 
ATOM     61  C   UNL     1      -0.216 -14.356  10.190  1.00  0.00     0.010 A 
ATOM     62  C   UNL     1      -0.553 -12.668  11.899  1.00  0.00     0.010 A 
ATOM     63  C   UNL     1      -1.377 -15.010  10.608  1.00  0.00     0.020 A 
ATOM     64  C   UNL     1      -1.702 -13.333  12.336  1.00  0.00     0.020 A 
ATOM     65  C   UNL     1      -2.113 -14.494  11.679  1.00  0.00     0.054 A 
BRANCH  65  66
ATOM     66  S   UNL     1      -3.599 -15.384  12.219  1.00  0.00     0.124 S 
ATOM     67  O   UNL     1      -4.515 -15.144  11.107  1.00  0.00    -0.237 OA
ATOM     68  O   UNL     1      -3.118 -16.757  12.350  1.00  0.00    -0.237 OA
ATOM     69  O   UNL     1      -3.960 -14.730  13.474  1.00  0.00    -0.744 OA
ENDBRANCH  65  66
ENDBRANCH  46  60
BRANCH  47  70
ATOM     70  C   UNL     1       8.487  -8.642   7.559  1.00  0.00    -0.014 A 
ATOM     71  C   UNL     1       9.607  -9.424   7.231  1.00  0.00     0.010 A 
ATOM     72  C   UNL     1       8.560  -7.244   7.408  1.00  0.00     0.010 A 
ATOM     73  C   UNL     1      10.781  -8.821   6.769  1.00  0.00     0.020 A 
ATOM     74  C   UNL     1       9.723  -6.640   6.922  1.00  0.00     0.020 A 
ATOM     75  C   UNL     1      10.830  -7.432   6.613  1.00  0.00     0.054 A 
BRANCH  75  76
ATOM     76  S   UNL     1      12.347  -6.680   5.962  1.00  0.00     0.124 S 
ATOM     77  O   UNL     1      13.274  -6.851   7.076  1.00  0.00    -0.237 OA
ATOM     78  O   UNL     1      12.619  -7.495   4.781  1.00  0.00    -0.237 OA
ATOM     79  O   UNL     1      11.953  -5.301   5.681  1.00  0.00    -0.744 OA
ENDBRANCH  75  76
ENDBRANCH  47  70
BRANCH  59  80
ATOM     80  C   UNL     1       6.819 -12.043  13.429  1.00  0.00    -0.014 A 
ATOM     81  C   UNL     1       7.082 -11.065  14.404  1.00  0.00     0.010 A 
ATOM     82  C   UNL     1       7.193 -13.377  13.676  1.00  0.00     0.010 A 
ATOM     83  C   UNL     1       7.714 -11.415  15.601  1.00  0.00     0.020 A 
ATOM     84  C   UNL     1       7.802 -13.735  14.882  1.00  0.00     0.020 A 
ATOM     85  C   UNL     1       8.063 -12.749  15.835  1.00  0.00     0.054 A 
BRANCH  85  86
ATOM     86  S   UNL     1       8.807 -13.185  17.431  1.00  0.00     0.124 S 
ATOM     87  O   UNL     1      10.136 -12.589  17.321  1.00  0.00    -0.237 OA
ATOM     88  O   UNL     1       7.909 -12.544  18.388  1.00  0.00    -0.237 OA
ATOM     89  O   UNL     1       8.780 -14.646  17.440  1.00  0.00    -0.744 OA
ENDBRANCH  85  86
ENDBRANCH  59  80
ENDBRANCH  33  34
ENDBRANCH  26  28
ENDBRANCH  25  26
ENDBRANCH  24  25
ENDBRANCH   1  24
TORSDOF 18
