REMARK SMILES CC(C)c1cc(OCC(=O)OCCOCCOC(=O)c2ccc(-c3c4nc(c(-c5ccc(S(=O)(=O)[O-])cc5)c5ccc([nH]5)c(-c5ccc(S(=O)(=O)[O-])cc5)c5nc(c(-c6ccc(S(=O)(=O)[O-])cc6)c6ccc3[nH]6)C=C5)C=C4)cc2)nc(Nc2ccc(F)cc2F)n1
REMARK SMILES IDX 13 1 12 2 11 3 9 4 10 5 8 6 7 7 6 8 4 9 5 10 91 11 81 12
REMARK SMILES IDX 80 13 2 14 1 15 3 16 82 17 83 19 84 20 89 21 85 22 88 23
REMARK SMILES IDX 90 24 86 25 87 26 14 27 15 28 16 29 17 30 18 31 19 32 20 33
REMARK SMILES IDX 21 34 79 35 22 36 78 37 23 38 24 39 25 40 72 41 26 42 77 43
REMARK SMILES IDX 71 44 73 45 27 46 76 47 70 48 69 49 28 51 58 52 39 53 57 54
REMARK SMILES IDX 40 55 43 56 56 57 74 58 41 59 42 60 55 62 75 63 44 64 29 65
REMARK SMILES IDX 30 66 38 67 31 68 37 69 32 70 33 71 34 72 35 73 36 74 59 75
REMARK SMILES IDX 60 76 68 77 61 78 67 79 62 80 63 81 64 82 65 83 66 84 45 85
REMARK SMILES IDX 46 86 54 87 47 88 53 89 48 90 49 91 50 92 51 93 52 94
REMARK H PARENT 82 18 73 50 43 61
REMARK Flexibility Score: inf
ROOT
ATOM      1  C   UNL     1      -1.524  -3.878  -5.422  1.00  0.00     0.202 C 
ENDROOT
BRANCH   1   2
ATOM      2  C   UNL     1      -2.171  -5.021  -4.622  1.00  0.00     0.261 C 
BRANCH   2   3
ATOM      3  O   UNL     1      -2.921  -4.538  -3.482  1.00  0.00    -0.461 OA
BRANCH   3   4
ATOM      4  C   UNL     1      -2.369  -4.730  -2.252  1.00  0.00     0.344 C 
ATOM      5  O   UNL     1      -1.332  -5.343  -2.028  1.00  0.00    -0.248 OA
BRANCH   4   6
ATOM      6  C   UNL     1      -3.202  -4.094  -1.135  1.00  0.00     0.353 C 
BRANCH   6   7
ATOM      7  O   UNL     1      -3.664  -2.768  -1.292  1.00  0.00    -0.466 OA
BRANCH   7   8
ATOM      8  C   UNL     1      -2.888  -1.700  -0.945  1.00  0.00     0.218 A 
ATOM      9  C   UNL     1      -0.893  -0.517  -0.553  1.00  0.00     0.052 A 
ATOM     10  C   UNL     1      -1.542  -1.739  -0.627  1.00  0.00     0.092 A 
ATOM     11  N   UNL     1      -1.579   0.637  -0.656  1.00  0.00    -0.217 NA
ATOM     12  C   UNL     1      -2.891   0.595  -0.915  1.00  0.00     0.230 A 
ATOM     13  N   UNL     1      -3.568  -0.545  -1.068  1.00  0.00    -0.177 NA
BRANCH   9  14
ATOM     14  C   UNL     1       0.614  -0.319  -0.518  1.00  0.00     0.032 C 
ATOM     15  C   UNL     1       1.089   0.088   0.873  1.00  0.00     0.014 C 
ATOM     16  C   UNL     1       1.480  -1.450  -1.074  1.00  0.00     0.014 C 
ENDBRANCH   9  14
BRANCH  12  17
ATOM     17  N   UNL     1      -3.598   1.788  -1.027  1.00  0.00    -0.322 N 
ATOM     18  H   UNL     1      -4.578   1.731  -0.945  1.00  0.00     0.170 HD
BRANCH  17  19
ATOM     19  C   UNL     1      -3.058   3.062  -1.245  1.00  0.00     0.077 A 
ATOM     20  C   UNL     1      -3.407   4.113  -0.388  1.00  0.00     0.032 A 
ATOM     21  C   UNL     1      -2.209   3.342  -2.330  1.00  0.00     0.149 A 
ATOM     22  C   UNL     1      -2.857   5.386  -0.568  1.00  0.00     0.041 A 
ATOM     23  C   UNL     1      -1.671   4.610  -2.528  1.00  0.00     0.080 A 
ATOM     24  F   UNL     1      -1.915   2.381  -3.220  1.00  0.00    -0.205 F 
ATOM     25  C   UNL     1      -1.990   5.619  -1.631  1.00  0.00     0.126 A 
ATOM     26  F   UNL     1      -1.458   6.838  -1.789  1.00  0.00    -0.207 F 
ENDBRANCH  17  19
ENDBRANCH  12  17
ENDBRANCH   7   8
ENDBRANCH   6   7
ENDBRANCH   4   6
ENDBRANCH   3   4
ENDBRANCH   2   3
ENDBRANCH   1   2
BRANCH   1  27
ATOM     27  O   UNL     1      -0.481  -3.190  -4.730  1.00  0.00    -0.374 OA
BRANCH  27  28
ATOM     28  C   UNL     1      -0.949  -2.297  -3.724  1.00  0.00     0.202 C 
BRANCH  28  29
ATOM     29  C   UNL     1      -0.724  -0.828  -4.056  1.00  0.00     0.261 C 
BRANCH  29  30
ATOM     30  O   UNL     1      -1.714  -0.459  -5.015  1.00  0.00    -0.460 OA
BRANCH  30  31
ATOM     31  C   UNL     1      -1.250  -0.364  -6.271  1.00  0.00     0.338 C 
ATOM     32  O   UNL     1      -0.085  -0.286  -6.633  1.00  0.00    -0.246 OA
BRANCH  31  33
ATOM     33  C   UNL     1      -2.380  -0.588  -7.181  1.00  0.00     0.060 A 
ATOM     34  C   UNL     1      -2.107  -1.317  -8.340  1.00  0.00     0.016 A 
ATOM     35  C   UNL     1      -3.671  -0.117  -6.907  1.00  0.00     0.016 A 
ATOM     36  C   UNL     1      -3.104  -1.501  -9.281  1.00  0.00     0.010 A 
ATOM     37  C   UNL     1      -4.678  -0.313  -7.848  1.00  0.00     0.010 A 
ATOM     38  C   UNL     1      -4.375  -0.956  -9.058  1.00  0.00    -0.014 A 
BRANCH  38  39
ATOM     39  C   UNL     1      -5.316  -0.903 -10.190  1.00  0.00     0.031 A 
ATOM     40  C   UNL     1      -5.423   0.381 -10.961  1.00  0.00     0.074 A 
ATOM     41  C   UNL     1      -5.982  -2.010 -10.558  1.00  0.00     0.049 A 
ATOM     42  N   UNL     1      -6.120   0.642 -12.034  1.00  0.00    -0.248 NA
ATOM     43  C   UNL     1      -4.638   1.524 -10.460  1.00  0.00     0.031 C 
ATOM     44  C   UNL     1      -5.903  -3.306  -9.882  1.00  0.00     0.029 A 
ATOM     45  N   UNL     1      -6.841  -2.223 -11.600  1.00  0.00    -0.354 N 
ATOM     46  C   UNL     1      -5.861   1.974 -12.333  1.00  0.00     0.074 A 
ATOM     47  C   UNL     1      -4.974   2.481 -11.311  1.00  0.00     0.031 C 
ATOM     48  C   UNL     1      -6.678  -4.186 -10.537  1.00  0.00     0.029 A 
ATOM     49  C   UNL     1      -7.324  -3.507 -11.657  1.00  0.00     0.049 A 
ATOM     50  H   UNL     1      -7.089  -1.524 -12.247  1.00  0.00     0.167 HD
ATOM     51  C   UNL     1      -6.317   2.704 -13.376  1.00  0.00     0.031 A 
ATOM     52  C   UNL     1      -8.198  -4.062 -12.518  1.00  0.00     0.031 A 
ATOM     53  C   UNL     1      -7.208   2.180 -14.374  1.00  0.00     0.049 A 
ATOM     54  C   UNL     1      -8.733  -3.214 -13.640  1.00  0.00     0.074 A 
ATOM     55  C   UNL     1      -7.731   2.817 -15.483  1.00  0.00     0.029 A 
ATOM     56  N   UNL     1      -7.711   0.886 -14.376  1.00  0.00    -0.354 N 
ATOM     57  N   UNL     1      -8.457  -1.963 -13.929  1.00  0.00    -0.248 NA
ATOM     58  C   UNL     1      -9.684  -3.852 -14.557  1.00  0.00     0.031 C 
ATOM     59  C   UNL     1      -8.597   1.925 -16.125  1.00  0.00     0.029 A 
ATOM     60  C   UNL     1      -8.562   0.712 -15.452  1.00  0.00     0.049 A 
ATOM     61  H   UNL     1      -7.494   0.195 -13.710  1.00  0.00     0.167 HD
ATOM     62  C   UNL     1      -9.185  -1.670 -15.076  1.00  0.00     0.074 A 
ATOM     63  C   UNL     1      -9.898  -2.881 -15.435  1.00  0.00     0.031 C 
ATOM     64  C   UNL     1      -9.259  -0.508 -15.773  1.00  0.00     0.031 A 
BRANCH  51  65
ATOM     65  C   UNL     1      -5.890   4.146 -13.459  1.00  0.00    -0.014 A 
ATOM     66  C   UNL     1      -4.565   4.501 -13.773  1.00  0.00     0.010 A 
ATOM     67  C   UNL     1      -6.835   5.163 -13.236  1.00  0.00     0.010 A 
ATOM     68  C   UNL     1      -4.186   5.846 -13.828  1.00  0.00     0.020 A 
ATOM     69  C   UNL     1      -6.467   6.509 -13.316  1.00  0.00     0.020 A 
ATOM     70  C   UNL     1      -5.140   6.842 -13.597  1.00  0.00     0.054 A 
BRANCH  70  71
ATOM     71  S   UNL     1      -4.628   8.579 -13.700  1.00  0.00     0.124 S 
ATOM     72  O   UNL     1      -3.835   8.733 -12.483  1.00  0.00    -0.237 OA
ATOM     73  O   UNL     1      -3.874   8.618 -14.950  1.00  0.00    -0.237 OA
ATOM     74  O   UNL     1      -5.891   9.313 -13.715  1.00  0.00    -0.744 OA
ENDBRANCH  70  71
ENDBRANCH  51  65
BRANCH  52  75
ATOM     75  C   UNL     1      -8.617  -5.478 -12.339  1.00  0.00    -0.014 A 
ATOM     76  C   UNL     1      -8.223  -6.471 -13.252  1.00  0.00     0.010 A 
ATOM     77  C   UNL     1      -9.399  -5.845 -11.227  1.00  0.00     0.010 A 
ATOM     78  C   UNL     1      -8.616  -7.800 -13.065  1.00  0.00     0.020 A 
ATOM     79  C   UNL     1      -9.770  -7.176 -11.021  1.00  0.00     0.020 A 
ATOM     80  C   UNL     1      -9.384  -8.145 -11.949  1.00  0.00     0.054 A 
BRANCH  80  81
ATOM     81  S   UNL     1      -9.836  -9.884 -11.697  1.00  0.00     0.124 S 
ATOM     82  O   UNL     1     -10.857 -10.084 -12.720  1.00  0.00    -0.237 OA
ATOM     83  O   UNL     1      -8.569 -10.575 -11.922  1.00  0.00    -0.237 OA
ATOM     84  O   UNL     1     -10.317  -9.915 -10.317  1.00  0.00    -0.744 OA
ENDBRANCH  80  81
ENDBRANCH  52  75
BRANCH  64  85
ATOM     85  C   UNL     1     -10.121  -0.504 -17.006  1.00  0.00    -0.014 A 
ATOM     86  C   UNL     1     -11.524  -0.516 -16.912  1.00  0.00     0.010 A 
ATOM     87  C   UNL     1      -9.515  -0.424 -18.273  1.00  0.00     0.010 A 
ATOM     88  C   UNL     1     -12.305  -0.481 -18.068  1.00  0.00     0.020 A 
ATOM     89  C   UNL     1     -10.294  -0.360 -19.429  1.00  0.00     0.020 A 
ATOM     90  C   UNL     1     -11.685  -0.404 -19.319  1.00  0.00     0.054 A 
BRANCH  90  91
ATOM     91  S   UNL     1     -12.723  -0.316 -20.802  1.00  0.00     0.124 S 
ATOM     92  O   UNL     1     -13.212  -1.688 -20.912  1.00  0.00    -0.237 OA
ATOM     93  O   UNL     1     -13.726   0.681 -20.434  1.00  0.00    -0.237 OA
ATOM     94  O   UNL     1     -11.795   0.101 -21.851  1.00  0.00    -0.744 OA
ENDBRANCH  90  91
ENDBRANCH  64  85
ENDBRANCH  38  39
ENDBRANCH  31  33
ENDBRANCH  30  31
ENDBRANCH  29  30
ENDBRANCH  28  29
ENDBRANCH  27  28
ENDBRANCH   1  27
TORSDOF 22
