REMARK SMILES C[C@@H]1C(C(=O)OCCOCCOC(=O)c2ccc(-c3c4nc(c(-c5ccc(S(=O)(=O)[O-])cc5)c5ccc([nH]5)c(-c5ccc(S(=O)(=O)[O-])cc5)c5nc(c(-c6ccc(S(=O)(=O)[O-])cc6)c6ccc3[nH]6)C=C5)C=C4)cc2)=NC2=C1C(=O)C[C@H](c1ccccc1)C2
REMARK SMILES IDX 10 1 9 2 8 3 7 4 6 5 4 6 5 7 3 8 1 9 2 10 77 11 75 12 76 13
REMARK SMILES IDX 78 14 88 15 79 16 80 17 81 18 82 19 83 20 87 21 84 22 86 23
REMARK SMILES IDX 85 24 11 25 12 26 13 27 14 28 15 29 16 30 74 31 17 32 73 33
REMARK SMILES IDX 18 34 19 35 20 36 67 37 21 38 72 39 66 40 68 41 22 42 71 43
REMARK SMILES IDX 65 44 64 45 23 47 53 48 34 49 52 50 35 51 38 52 51 53 69 54
REMARK SMILES IDX 36 55 37 56 50 58 70 59 39 60 24 61 25 62 33 63 26 64 32 65
REMARK SMILES IDX 27 66 28 67 29 68 30 69 31 70 54 71 55 72 63 73 56 74 62 75
REMARK SMILES IDX 57 76 58 77 59 78 60 79 61 80 40 81 41 82 49 83 42 84 48 85
REMARK SMILES IDX 43 86 44 87 45 88 46 89 47 90
REMARK H PARENT 68 46 38 57
REMARK Flexibility Score: inf
ROOT
ATOM      1  C   UNL     1      -2.195   2.545  -1.139  1.00  0.00     0.202 C 
ENDROOT
BRANCH   1   2
ATOM      2  O   UNL     1      -2.124   2.441  -2.558  1.00  0.00    -0.374 OA
BRANCH   2   3
ATOM      3  C   UNL     1      -1.886   1.116  -3.030  1.00  0.00     0.202 C 
BRANCH   3   4
ATOM      4  C   UNL     1      -0.384   0.813  -3.086  1.00  0.00     0.261 C 
BRANCH   4   5
ATOM      5  O   UNL     1       0.184   0.879  -1.758  1.00  0.00    -0.459 OA
BRANCH   5   6
ATOM      6  C   UNL     1       1.074   1.870  -1.511  1.00  0.00     0.353 C 
ATOM      7  O   UNL     1       1.674   2.545  -2.325  1.00  0.00    -0.245 OA
BRANCH   6   8
ATOM      8  C   UNL     1       1.079   2.163  -0.011  1.00  0.00     0.133 C 
ATOM      9  C   UNL     1       1.993   0.333   1.370  1.00  0.00     0.020 C 
ATOM     10  C   UNL     1       0.718   1.073   0.975  1.00  0.00     0.078 C 
ATOM     11  C   UNL     1       0.297   2.049   2.012  1.00  0.00     0.026 C 
ATOM     12  N   UNL     1       1.318   3.348   0.501  1.00  0.00    -0.249 NA
ATOM     13  C   UNL     1       0.820   3.252   1.782  1.00  0.00     0.049 C 
ATOM     14  C   UNL     1      -0.876   1.959   2.885  1.00  0.00     0.161 C 
ATOM     15  C   UNL     1       0.479   4.426   2.645  1.00  0.00     0.065 C 
ATOM     16  O   UNL     1      -1.234   0.857   3.291  1.00  0.00    -0.294 OA
ATOM     17  C   UNL     1      -1.683   3.240   3.163  1.00  0.00     0.089 C 
ATOM     18  C   UNL     1      -1.053   4.593   2.682  1.00  0.00     0.033 C 
BRANCH  18  19
ATOM     19  C   UNL     1      -1.629   5.206   1.391  1.00  0.00    -0.044 A 
ATOM     20  C   UNL     1      -0.802   5.733   0.377  1.00  0.00     0.004 A 
ATOM     21  C   UNL     1      -3.013   5.308   1.186  1.00  0.00     0.004 A 
ATOM     22  C   UNL     1      -1.313   6.184  -0.842  1.00  0.00     0.000 A 
ATOM     23  C   UNL     1      -3.531   5.769  -0.037  1.00  0.00     0.000 A 
ATOM     24  C   UNL     1      -2.680   6.170  -1.064  1.00  0.00     0.000 A 
ENDBRANCH  18  19
ENDBRANCH   6   8
ENDBRANCH   5   6
ENDBRANCH   4   5
ENDBRANCH   3   4
ENDBRANCH   2   3
ENDBRANCH   1   2
BRANCH   1  25
ATOM     25  C   UNL     1      -3.624   2.623  -0.655  1.00  0.00     0.261 C 
BRANCH  25  26
ATOM     26  O   UNL     1      -4.087   1.297  -0.495  1.00  0.00    -0.460 OA
BRANCH  26  27
ATOM     27  C   UNL     1      -4.794   0.696  -1.459  1.00  0.00     0.338 C 
ATOM     28  O   UNL     1      -5.108   1.125  -2.562  1.00  0.00    -0.246 OA
BRANCH  27  29
ATOM     29  C   UNL     1      -5.268  -0.521  -0.797  1.00  0.00     0.060 A 
ATOM     30  C   UNL     1      -6.541  -0.979  -1.129  1.00  0.00     0.016 A 
ATOM     31  C   UNL     1      -4.598  -0.936   0.369  1.00  0.00     0.016 A 
ATOM     32  C   UNL     1      -7.233  -1.699  -0.178  1.00  0.00     0.010 A 
ATOM     33  C   UNL     1      -5.323  -1.551   1.348  1.00  0.00     0.010 A 
ATOM     34  C   UNL     1      -6.645  -1.891   1.076  1.00  0.00    -0.014 A 
BRANCH  34  35
ATOM     35  C   UNL     1      -7.362  -2.621   2.094  1.00  0.00     0.031 A 
ATOM     36  C   UNL     1      -7.117  -4.075   1.987  1.00  0.00     0.074 A 
ATOM     37  C   UNL     1      -7.967  -2.017   3.129  1.00  0.00     0.049 A 
ATOM     38  N   UNL     1      -7.868  -4.962   1.421  1.00  0.00    -0.248 NA
ATOM     39  C   UNL     1      -5.747  -4.544   2.279  1.00  0.00     0.031 C 
ATOM     40  C   UNL     1      -7.913  -0.600   3.499  1.00  0.00     0.029 A 
ATOM     41  N   UNL     1      -8.660  -2.582   4.149  1.00  0.00    -0.354 N 
ATOM     42  C   UNL     1      -7.149  -6.144   1.547  1.00  0.00     0.074 A 
ATOM     43  C   UNL     1      -5.778  -5.753   1.724  1.00  0.00     0.031 C 
ATOM     44  C   UNL     1      -8.360  -0.460   4.769  1.00  0.00     0.029 A 
ATOM     45  C   UNL     1      -8.838  -1.749   5.245  1.00  0.00     0.049 A 
ATOM     46  H   UNL     1      -9.007  -3.503   4.115  1.00  0.00     0.167 HD
ATOM     47  C   UNL     1      -7.754  -7.300   1.939  1.00  0.00     0.031 A 
ATOM     48  C   UNL     1      -9.271  -2.134   6.471  1.00  0.00     0.031 A 
ATOM     49  C   UNL     1      -9.190  -7.180   1.868  1.00  0.00     0.049 A 
ATOM     50  C   UNL     1      -9.924  -3.459   6.313  1.00  0.00     0.074 A 
ATOM     51  C   UNL     1     -10.117  -6.975   0.869  1.00  0.00     0.029 A 
ATOM     52  N   UNL     1      -9.802  -6.865   3.060  1.00  0.00    -0.354 N 
ATOM     53  N   UNL     1     -11.022  -3.644   5.634  1.00  0.00    -0.248 NA
ATOM     54  C   UNL     1      -9.153  -4.668   6.578  1.00  0.00     0.031 C 
ATOM     55  C   UNL     1     -11.183  -6.249   1.477  1.00  0.00     0.029 A 
ATOM     56  C   UNL     1     -10.894  -6.073   2.832  1.00  0.00     0.049 A 
ATOM     57  H   UNL     1      -9.498  -7.166   3.946  1.00  0.00     0.167 HD
ATOM     58  C   UNL     1     -10.865  -4.884   5.033  1.00  0.00     0.074 A 
ATOM     59  C   UNL     1      -9.783  -5.526   5.770  1.00  0.00     0.031 C 
ATOM     60  C   UNL     1     -11.421  -5.140   3.812  1.00  0.00     0.031 A 
BRANCH  47  61
ATOM     61  C   UNL     1      -7.097  -8.306   2.873  1.00  0.00    -0.014 A 
ATOM     62  C   UNL     1      -7.843  -9.434   3.265  1.00  0.00     0.010 A 
ATOM     63  C   UNL     1      -5.911  -8.056   3.598  1.00  0.00     0.010 A 
ATOM     64  C   UNL     1      -7.476 -10.200   4.381  1.00  0.00     0.020 A 
ATOM     65  C   UNL     1      -5.514  -8.832   4.684  1.00  0.00     0.020 A 
ATOM     66  C   UNL     1      -6.322  -9.877   5.095  1.00  0.00     0.054 A 
BRANCH  66  67
ATOM     67  S   UNL     1      -5.919 -10.778   6.608  1.00  0.00     0.124 S 
ATOM     68  O   UNL     1      -7.024 -10.398   7.482  1.00  0.00    -0.237 OA
ATOM     69  O   UNL     1      -5.915 -12.163   6.147  1.00  0.00    -0.237 OA
ATOM     70  O   UNL     1      -4.610 -10.246   6.983  1.00  0.00    -0.744 OA
ENDBRANCH  66  67
ENDBRANCH  47  61
BRANCH  48  71
ATOM     71  C   UNL     1      -8.901  -1.584   7.798  1.00  0.00    -0.014 A 
ATOM     72  C   UNL     1      -9.639  -1.924   8.947  1.00  0.00     0.010 A 
ATOM     73  C   UNL     1      -7.655  -0.951   7.981  1.00  0.00     0.010 A 
ATOM     74  C   UNL     1      -9.116  -1.706  10.232  1.00  0.00     0.020 A 
ATOM     75  C   UNL     1      -7.132  -0.721   9.259  1.00  0.00     0.020 A 
ATOM     76  C   UNL     1      -7.854  -1.126  10.379  1.00  0.00     0.054 A 
BRANCH  76  77
ATOM     77  S   UNL     1      -7.106  -1.023  12.033  1.00  0.00     0.124 S 
ATOM     78  O   UNL     1      -7.915   0.007  12.676  1.00  0.00    -0.237 OA
ATOM     79  O   UNL     1      -7.282  -2.378  12.547  1.00  0.00    -0.237 OA
ATOM     80  O   UNL     1      -5.721  -0.642  11.761  1.00  0.00    -0.744 OA
ENDBRANCH  76  77
ENDBRANCH  48  71
BRANCH  60  81
ATOM     81  C   UNL     1     -12.559  -4.257   3.363  1.00  0.00    -0.014 A 
ATOM     82  C   UNL     1     -12.432  -2.881   3.091  1.00  0.00     0.010 A 
ATOM     83  C   UNL     1     -13.788  -4.886   3.101  1.00  0.00     0.010 A 
ATOM     84  C   UNL     1     -13.521  -2.152   2.589  1.00  0.00     0.020 A 
ATOM     85  C   UNL     1     -14.868  -4.170   2.584  1.00  0.00     0.020 A 
ATOM     86  C   UNL     1     -14.733  -2.803   2.339  1.00  0.00     0.054 A 
BRANCH  86  87
ATOM     87  S   UNL     1     -16.125  -1.868   1.646  1.00  0.00     0.124 S 
ATOM     88  O   UNL     1     -16.511  -1.003   2.757  1.00  0.00    -0.237 OA
ATOM     89  O   UNL     1     -15.522  -1.190   0.500  1.00  0.00    -0.237 OA
ATOM     90  O   UNL     1     -17.100  -2.901   1.299  1.00  0.00    -0.744 OA
ENDBRANCH  86  87
ENDBRANCH  60  81
ENDBRANCH  34  35
ENDBRANCH  27  29
ENDBRANCH  26  27
ENDBRANCH  25  26
ENDBRANCH   1  25
TORSDOF 18
