REMARK SMILES O=C(OCCOCCOC(=O)[C@H]1Cc2c([nH]c3ccccc23)[C@H](c2c[nH]c3ccccc23)[NH2+]1)c1ccc(-c2c3nc(c(-c4ccc(S(=O)(=O)[O-])cc4)c4ccc([nH]4)c(-c4ccc(S(=O)(=O)[O-])cc4)c4nc(c(-c5ccc(S(=O)(=O)[O-])cc5)c5ccc2[nH]5)C=C4)C=C3)cc1
REMARK SMILES IDX 5 1 4 2 3 3 2 4 1 5 34 6 35 7 93 8 36 9 92 10 37 11 38 12
REMARK SMILES IDX 39 13 86 14 40 15 91 16 85 17 87 18 41 19 90 20 84 21 83 22
REMARK SMILES IDX 42 24 72 25 53 26 71 27 54 28 57 29 70 30 88 31 55 32 56 33
REMARK SMILES IDX 69 35 89 36 58 37 43 38 44 39 52 40 45 41 51 42 46 43 47 44
REMARK SMILES IDX 48 45 49 46 50 47 73 48 74 49 82 50 75 51 81 52 76 53 77 54
REMARK SMILES IDX 78 55 79 56 80 57 59 58 60 59 68 60 61 61 67 62 62 63 63 64
REMARK SMILES IDX 64 65 65 66 66 67 6 68 7 69 8 70 9 71 10 72 11 73 12 74
REMARK SMILES IDX 13 75 33 76 14 77 23 78 15 81 22 82 16 83 17 84 21 85 18 87
REMARK SMILES IDX 20 88 19 89 24 90 25 91 32 92 26 93 27 94 31 95 28 97 30 98
REMARK SMILES IDX 29 99
REMARK H PARENT 87 23 57 34 33 79 33 80 16 86 26 96
REMARK Flexibility Score: inf
ROOT
ATOM      1  C   UNL     1       4.480   0.993  -0.668  1.00  0.00     0.202 C 
ENDROOT
BRANCH   1   2
ATOM      2  C   UNL     1       4.221  -0.481  -1.019  1.00  0.00     0.261 C 
BRANCH   2   3
ATOM      3  O   UNL     1       2.840  -0.834  -0.842  1.00  0.00    -0.460 OA
BRANCH   3   4
ATOM      4  C   UNL     1       2.255  -1.319   0.282  1.00  0.00     0.338 C 
ATOM      5  O   UNL     1       1.046  -1.541   0.266  1.00  0.00    -0.246 OA
BRANCH   4   6
ATOM      6  C   UNL     1       3.010  -1.595   1.544  1.00  0.00     0.060 A 
ATOM      7  C   UNL     1       4.230  -1.013   1.875  1.00  0.00     0.016 A 
ATOM      8  C   UNL     1       2.421  -2.451   2.489  1.00  0.00     0.016 A 
ATOM      9  C   UNL     1       4.878  -1.276   3.054  1.00  0.00     0.010 A 
ATOM     10  C   UNL     1       3.058  -2.716   3.708  1.00  0.00     0.010 A 
ATOM     11  C   UNL     1       4.295  -2.124   3.979  1.00  0.00    -0.014 A 
BRANCH  11  12
ATOM     12  C   UNL     1       5.155  -2.447   5.119  1.00  0.00     0.031 A 
ATOM     13  C   UNL     1       5.942  -3.715   5.044  1.00  0.00     0.074 A 
ATOM     14  C   UNL     1       5.437  -1.468   5.999  1.00  0.00     0.049 A 
ATOM     15  N   UNL     1       6.822  -4.184   5.880  1.00  0.00    -0.248 NA
ATOM     16  C   UNL     1       5.740  -4.551   3.843  1.00  0.00     0.031 C 
ATOM     17  C   UNL     1       4.858  -0.116   5.971  1.00  0.00     0.029 A 
ATOM     18  N   UNL     1       6.332  -1.422   7.028  1.00  0.00    -0.354 N 
ATOM     19  C   UNL     1       7.257  -5.381   5.325  1.00  0.00     0.074 A 
ATOM     20  C   UNL     1       6.553  -5.567   4.079  1.00  0.00     0.031 C 
ATOM     21  C   UNL     1       5.440   0.631   6.922  1.00  0.00     0.029 A 
ATOM     22  C   UNL     1       6.362  -0.208   7.674  1.00  0.00     0.049 A 
ATOM     23  H   UNL     1       6.902  -2.183   7.282  1.00  0.00     0.167 HD
ATOM     24  C   UNL     1       8.159  -6.246   5.836  1.00  0.00     0.031 A 
ATOM     25  C   UNL     1       7.033   0.154   8.783  1.00  0.00     0.031 A 
ATOM     26  C   UNL     1       8.817  -6.019   7.091  1.00  0.00     0.049 A 
ATOM     27  C   UNL     1       7.914  -0.889   9.415  1.00  0.00     0.074 A 
ATOM     28  C   UNL     1       9.640  -6.864   7.807  1.00  0.00     0.029 A 
ATOM     29  N   UNL     1       8.720  -4.835   7.815  1.00  0.00    -0.354 N 
ATOM     30  N   UNL     1       8.210  -2.091   8.971  1.00  0.00    -0.248 NA
ATOM     31  C   UNL     1       8.534  -0.546  10.697  1.00  0.00     0.031 C 
ATOM     32  C   UNL     1      10.006  -6.206   8.987  1.00  0.00     0.029 A 
ATOM     33  C   UNL     1       9.461  -4.929   8.976  1.00  0.00     0.049 A 
ATOM     34  H   UNL     1       8.200  -4.046   7.539  1.00  0.00     0.167 HD
ATOM     35  C   UNL     1       9.056  -2.648   9.918  1.00  0.00     0.074 A 
ATOM     36  C   UNL     1       9.250  -1.635  10.941  1.00  0.00     0.031 C 
ATOM     37  C   UNL     1       9.617  -3.883   9.956  1.00  0.00     0.031 A 
BRANCH  24  38
ATOM     38  C   UNL     1       8.380  -7.527   5.083  1.00  0.00    -0.014 A 
ATOM     39  C   UNL     1       9.100  -7.558   3.875  1.00  0.00     0.010 A 
ATOM     40  C   UNL     1       7.814  -8.717   5.573  1.00  0.00     0.010 A 
ATOM     41  C   UNL     1       9.220  -8.751   3.155  1.00  0.00     0.020 A 
ATOM     42  C   UNL     1       7.951  -9.915   4.869  1.00  0.00     0.020 A 
ATOM     43  C   UNL     1       8.640  -9.921   3.655  1.00  0.00     0.054 A 
BRANCH  43  44
ATOM     44  S   UNL     1       8.815 -11.457   2.705  1.00  0.00     0.124 S 
ATOM     45  O   UNL     1       7.925 -11.214   1.572  1.00  0.00    -0.237 OA
ATOM     46  O   UNL     1      10.241 -11.477   2.389  1.00  0.00    -0.237 OA
ATOM     47  O   UNL     1       8.371 -12.493   3.634  1.00  0.00    -0.744 OA
ENDBRANCH  43  44
ENDBRANCH  24  38
BRANCH  25  48
ATOM     48  C   UNL     1       6.800   1.485   9.413  1.00  0.00    -0.014 A 
ATOM     49  C   UNL     1       7.839   2.414   9.586  1.00  0.00     0.010 A 
ATOM     50  C   UNL     1       5.512   1.817   9.880  1.00  0.00     0.010 A 
ATOM     51  C   UNL     1       7.603   3.630  10.242  1.00  0.00     0.020 A 
ATOM     52  C   UNL     1       5.263   3.043  10.503  1.00  0.00     0.020 A 
ATOM     53  C   UNL     1       6.317   3.933  10.701  1.00  0.00     0.054 A 
BRANCH  53  54
ATOM     54  S   UNL     1       6.028   5.510  11.551  1.00  0.00     0.124 S 
ATOM     55  O   UNL     1       6.652   5.272  12.849  1.00  0.00    -0.237 OA
ATOM     56  O   UNL     1       6.712   6.468  10.685  1.00  0.00    -0.237 OA
ATOM     57  O   UNL     1       4.572   5.628  11.569  1.00  0.00    -0.744 OA
ENDBRANCH  53  54
ENDBRANCH  25  48
BRANCH  37  58
ATOM     58  C   UNL     1      10.512  -4.174  11.124  1.00  0.00    -0.014 A 
ATOM     59  C   UNL     1       9.982  -4.393  12.406  1.00  0.00     0.010 A 
ATOM     60  C   UNL     1      11.899  -4.278  10.915  1.00  0.00     0.010 A 
ATOM     61  C   UNL     1      10.834  -4.676  13.474  1.00  0.00     0.020 A 
ATOM     62  C   UNL     1      12.748  -4.592  11.974  1.00  0.00     0.020 A 
ATOM     63  C   UNL     1      12.211  -4.773  13.251  1.00  0.00     0.054 A 
BRANCH  63  64
ATOM     64  S   UNL     1      13.292  -5.183  14.645  1.00  0.00     0.124 S 
ATOM     65  O   UNL     1      13.327  -3.923  15.381  1.00  0.00    -0.237 OA
ATOM     66  O   UNL     1      12.574  -6.275  15.297  1.00  0.00    -0.237 OA
ATOM     67  O   UNL     1      14.549  -5.567  14.005  1.00  0.00    -0.744 OA
ENDBRANCH  63  64
ENDBRANCH  37  58
ENDBRANCH  11  12
ENDBRANCH   4   6
ENDBRANCH   3   4
ENDBRANCH   2   3
ENDBRANCH   1   2
BRANCH   1  68
ATOM     68  O   UNL     1       3.932   1.486   0.555  1.00  0.00    -0.374 OA
BRANCH  68  69
ATOM     69  C   UNL     1       2.548   1.851   0.525  1.00  0.00     0.202 C 
BRANCH  69  70
ATOM     70  C   UNL     1       2.376   3.363   0.622  1.00  0.00     0.261 C 
BRANCH  70  71
ATOM     71  O   UNL     1       2.773   3.934  -0.634  1.00  0.00    -0.459 OA
BRANCH  71  72
ATOM     72  C   UNL     1       4.101   4.197  -0.738  1.00  0.00     0.365 C 
ATOM     73  O   UNL     1       4.886   4.245   0.206  1.00  0.00    -0.245 OA
BRANCH  72  74
ATOM     74  C   UNL     1       4.524   4.464  -2.176  1.00  0.00     0.298 C 
ATOM     75  C   UNL     1       4.059   3.364  -3.153  1.00  0.00     0.115 C 
ATOM     76  N   UNL     1       4.098   5.838  -2.554  1.00  0.00    -0.323 N 
ATOM     77  C   UNL     1       4.275   3.802  -4.546  1.00  0.00    -0.006 A 
ATOM     78  C   UNL     1       4.649   6.256  -3.848  1.00  0.00     0.264 C 
ATOM     79  H   UNL     1       4.416   6.489  -1.836  1.00  0.00     0.347 HD
ATOM     80  H   UNL     1       3.081   5.838  -2.633  1.00  0.00     0.347 HD
ATOM     81  C   UNL     1       4.537   5.124  -4.840  1.00  0.00     0.083 A 
ATOM     82  C   UNL     1       4.312   3.044  -5.740  1.00  0.00     0.003 A 
ATOM     83  N   UNL     1       4.630   5.212  -6.204  1.00  0.00    -0.353 N 
ATOM     84  C   UNL     1       4.515   3.957  -6.775  1.00  0.00     0.046 A 
ATOM     85  C   UNL     1       4.198   1.672  -6.042  1.00  0.00     0.010 A 
ATOM     86  H   UNL     1       4.759   6.049  -6.707  1.00  0.00     0.166 HD
ATOM     87  C   UNL     1       4.580   3.555  -8.116  1.00  0.00     0.026 A 
ATOM     88  C   UNL     1       4.289   1.254  -7.373  1.00  0.00     0.001 A 
ATOM     89  C   UNL     1       4.468   2.186  -8.393  1.00  0.00     0.002 A 
BRANCH  78  90
ATOM     90  C   UNL     1       6.048   6.850  -3.725  1.00  0.00     0.041 A 
ATOM     91  C   UNL     1       6.611   7.612  -4.742  1.00  0.00     0.093 A 
ATOM     92  C   UNL     1       7.035   6.860  -2.649  1.00  0.00     0.009 A 
ATOM     93  N   UNL     1       7.857   8.019  -4.369  1.00  0.00    -0.361 N 
ATOM     94  C   UNL     1       8.152   7.567  -3.110  1.00  0.00     0.046 A 
ATOM     95  C   UNL     1       7.127   6.367  -1.323  1.00  0.00     0.011 A 
ATOM     96  H   UNL     1       8.460   8.561  -4.926  1.00  0.00     0.166 HD
ATOM     97  C   UNL     1       9.320   7.753  -2.353  1.00  0.00     0.026 A 
ATOM     98  C   UNL     1       8.294   6.513  -0.562  1.00  0.00     0.001 A 
ATOM     99  C   UNL     1       9.381   7.198  -1.076  1.00  0.00     0.002 A 
ENDBRANCH  78  90
ENDBRANCH  72  74
ENDBRANCH  71  72
ENDBRANCH  70  71
ENDBRANCH  69  70
ENDBRANCH  68  69
ENDBRANCH   1  68
TORSDOF 18
