REMARK SMILES CCOc1ccc(C(=O)N2CCC(C(=O)OCCOCCOC(=O)c3ccc(-c4c5nc(c(-c6ccc(S(=O)(=O)[O-])cc6)c6ccc([nH]6)c(-c6ccc(S(=O)(=O)[O-])cc6)c6nc(c(-c7ccc(S(=O)(=O)[O-])cc7)c7ccc4[nH]7)C=C6)C=C5)cc3)(c3ccccc3)CC2)cc1OC
REMARK SMILES IDX 19 1 18 2 17 3 16 4 14 5 15 6 13 7 8 8 9 9 10 10 11 11 92 12
REMARK SMILES IDX 12 13 91 14 7 15 4 16 5 17 94 18 6 19 93 20 3 21 2 22 1 23
REMARK SMILES IDX 95 24 96 25 85 26 86 27 90 28 87 29 89 30 88 31 20 32 21 33
REMARK SMILES IDX 22 34 23 35 24 36 25 37 26 38 84 39 27 40 83 41 28 42 29 43
REMARK SMILES IDX 30 44 77 45 31 46 82 47 76 48 78 49 32 50 81 51 75 52 74 53
REMARK SMILES IDX 33 55 63 56 44 57 62 58 45 59 48 60 61 61 79 62 46 63 47 64
REMARK SMILES IDX 60 66 80 67 49 68 34 69 35 70 43 71 36 72 42 73 37 74 38 75
REMARK SMILES IDX 39 76 40 77 41 78 64 79 65 80 73 81 66 82 72 83 67 84 68 85
REMARK SMILES IDX 69 86 70 87 71 88 50 89 51 90 59 91 52 92 58 93 53 94 54 95
REMARK SMILES IDX 55 96 56 97 57 98
REMARK H PARENT 78 54 48 65
REMARK Flexibility Score: inf
ROOT
ATOM      1  O   UNL     1      14.076   3.213   0.201  1.00  0.00    -0.374 OA
ENDROOT
BRANCH   1   2
ATOM      2  C   UNL     1      13.812   4.237   1.160  1.00  0.00     0.202 C 
BRANCH   2   3
ATOM      3  C   UNL     1      12.439   4.911   1.079  1.00  0.00     0.261 C 
BRANCH   3   4
ATOM      4  O   UNL     1      11.383   3.948   1.212  1.00  0.00    -0.463 OA
BRANCH   4   5
ATOM      5  C   UNL     1      10.416   3.991   0.257  1.00  0.00     0.316 C 
ATOM      6  O   UNL     1      10.323   4.884  -0.580  1.00  0.00    -0.251 OA
BRANCH   5   7
ATOM      7  C   UNL     1       9.436   2.782   0.320  1.00  0.00     0.096 C 
ATOM      8  C   UNL     1       6.407   0.908   2.890  1.00  0.00     0.253 C 
ATOM      9  O   UNL     1       6.752   0.225   3.853  1.00  0.00    -0.269 OA
ATOM     10  N   UNL     1       7.325   1.552   2.043  1.00  0.00    -0.339 N 
ATOM     11  C   UNL     1       8.623   0.905   1.906  1.00  0.00     0.121 C 
ATOM     12  C   UNL     1       6.963   2.629   1.121  1.00  0.00     0.121 C 
ATOM     13  C   UNL     1       9.763   1.822   1.491  1.00  0.00     0.045 C 
ATOM     14  C   UNL     1       8.112   3.507   0.669  1.00  0.00     0.045 C 
BRANCH   8  15
ATOM     15  C   UNL     1       4.955   0.934   2.563  1.00  0.00     0.043 A 
ATOM     16  C   UNL     1       2.234   0.753   1.930  1.00  0.00     0.161 A 
ATOM     17  C   UNL     1       2.645   0.841   3.268  1.00  0.00     0.051 A 
ATOM     18  C   UNL     1       3.176   0.781   0.902  1.00  0.00     0.161 A 
ATOM     19  C   UNL     1       4.005   0.935   3.586  1.00  0.00     0.018 A 
ATOM     20  C   UNL     1       4.529   0.793   1.238  1.00  0.00     0.064 A 
BRANCH  16  21
ATOM     21  O   UNL     1       0.899   0.642   1.654  1.00  0.00    -0.490 OA
BRANCH  21  22
ATOM     22  C   UNL     1       0.409  -0.678   1.917  1.00  0.00     0.226 C 
ATOM     23  C   UNL     1      -0.202  -1.231   0.642  1.00  0.00     0.049 C 
ENDBRANCH  21  22
ENDBRANCH  16  21
BRANCH  18  24
ATOM     24  O   UNL     1       2.959   0.725  -0.446  1.00  0.00    -0.493 OA
ATOM     25  C   UNL     1       1.758   1.299  -0.944  1.00  0.00     0.278 C 
ENDBRANCH  18  24
ENDBRANCH   8  15
BRANCH   7  26
ATOM     26  C   UNL     1       9.450   2.013  -1.039  1.00  0.00    -0.031 A 
ATOM     27  C   UNL     1      10.508   2.174  -1.962  1.00  0.00     0.005 A 
ATOM     28  C   UNL     1       8.456   1.089  -1.406  1.00  0.00     0.005 A 
ATOM     29  C   UNL     1      10.544   1.490  -3.185  1.00  0.00     0.000 A 
ATOM     30  C   UNL     1       8.489   0.400  -2.627  1.00  0.00     0.000 A 
ATOM     31  C   UNL     1       9.530   0.606  -3.521  1.00  0.00     0.000 A 
ENDBRANCH   7  26
ENDBRANCH   5   7
ENDBRANCH   4   5
ENDBRANCH   3   4
ENDBRANCH   2   3
ENDBRANCH   1   2
BRANCH   1  32
ATOM     32  C   UNL     1      13.432   1.952   0.385  1.00  0.00     0.202 C 
BRANCH  32  33
ATOM     33  C   UNL     1      13.898   1.081   1.559  1.00  0.00     0.261 C 
BRANCH  33  34
ATOM     34  O   UNL     1      13.598   1.667   2.840  1.00  0.00    -0.460 OA
BRANCH  34  35
ATOM     35  C   UNL     1      14.691   1.943   3.598  1.00  0.00     0.338 C 
ATOM     36  O   UNL     1      15.852   1.687   3.331  1.00  0.00    -0.246 OA
BRANCH  35  37
ATOM     37  C   UNL     1      14.322   2.789   4.749  1.00  0.00     0.060 A 
ATOM     38  C   UNL     1      14.989   4.013   4.881  1.00  0.00     0.016 A 
ATOM     39  C   UNL     1      13.436   2.353   5.736  1.00  0.00     0.016 A 
ATOM     40  C   UNL     1      14.816   4.782   6.029  1.00  0.00     0.010 A 
ATOM     41  C   UNL     1      13.271   3.122   6.895  1.00  0.00     0.010 A 
ATOM     42  C   UNL     1      13.991   4.319   7.063  1.00  0.00    -0.014 A 
BRANCH  42  43
ATOM     43  C   UNL     1      14.021   5.019   8.371  1.00  0.00     0.031 A 
ATOM     44  C   UNL     1      14.914   4.492   9.463  1.00  0.00     0.074 A 
ATOM     45  C   UNL     1      13.320   6.152   8.561  1.00  0.00     0.049 A 
ATOM     46  N   UNL     1      15.138   4.978  10.657  1.00  0.00    -0.248 NA
ATOM     47  C   UNL     1      15.660   3.258   9.164  1.00  0.00     0.031 C 
ATOM     48  C   UNL     1      12.459   6.790   7.566  1.00  0.00     0.029 A 
ATOM     49  N   UNL     1      13.235   6.972   9.657  1.00  0.00    -0.354 N 
ATOM     50  C   UNL     1      16.052   4.114  11.251  1.00  0.00     0.074 A 
ATOM     51  C   UNL     1      16.315   3.057  10.299  1.00  0.00     0.031 C 
ATOM     52  C   UNL     1      11.937   7.909   8.096  1.00  0.00     0.029 A 
ATOM     53  C   UNL     1      12.407   8.053   9.473  1.00  0.00     0.049 A 
ATOM     54  H   UNL     1      13.721   6.803  10.496  1.00  0.00     0.167 HD
ATOM     55  C   UNL     1      16.628   4.196  12.475  1.00  0.00     0.031 A 
ATOM     56  C   UNL     1      12.062   9.042  10.321  1.00  0.00     0.031 A 
ATOM     57  C   UNL     1      16.348   5.232  13.432  1.00  0.00     0.049 A 
ATOM     58  C   UNL     1      12.651   9.067  11.706  1.00  0.00     0.074 A 
ATOM     59  C   UNL     1      16.877   5.401  14.700  1.00  0.00     0.029 A 
ATOM     60  N   UNL     1      15.454   6.273  13.231  1.00  0.00    -0.354 N 
ATOM     61  N   UNL     1      13.525   8.250  12.246  1.00  0.00    -0.248 NA
ATOM     62  C   UNL     1      12.213  10.154  12.592  1.00  0.00     0.031 C 
ATOM     63  C   UNL     1      16.266   6.518  15.284  1.00  0.00     0.029 A 
ATOM     64  C   UNL     1      15.397   7.074  14.360  1.00  0.00     0.049 A 
ATOM     65  H   UNL     1      14.935   6.421  12.408  1.00  0.00     0.167 HD
ATOM     66  C   UNL     1      13.757   8.739  13.528  1.00  0.00     0.074 A 
ATOM     67  C   UNL     1      12.944   9.929  13.676  1.00  0.00     0.031 C 
ATOM     68  C   UNL     1      14.572   8.248  14.495  1.00  0.00     0.031 A 
BRANCH  55  69
ATOM     69  C   UNL     1      17.596   3.107  12.853  1.00  0.00    -0.014 A 
ATOM     70  C   UNL     1      18.873   3.035  12.267  1.00  0.00     0.010 A 
ATOM     71  C   UNL     1      17.228   2.148  13.814  1.00  0.00     0.010 A 
ATOM     72  C   UNL     1      19.748   1.997  12.603  1.00  0.00     0.020 A 
ATOM     73  C   UNL     1      18.109   1.123  14.170  1.00  0.00     0.020 A 
ATOM     74  C   UNL     1      19.356   1.043  13.547  1.00  0.00     0.054 A 
BRANCH  74  75
ATOM     75  S   UNL     1      20.509  -0.294  13.966  1.00  0.00     0.124 S 
ATOM     76  O   UNL     1      20.412  -1.154  12.789  1.00  0.00    -0.237 OA
ATOM     77  O   UNL     1      21.778   0.412  14.125  1.00  0.00    -0.237 OA
ATOM     78  O   UNL     1      19.955  -0.856  15.195  1.00  0.00    -0.744 OA
ENDBRANCH  74  75
ENDBRANCH  55  69
BRANCH  56  79
ATOM     79  C   UNL     1      11.102  10.092   9.884  1.00  0.00    -0.014 A 
ATOM     80  C   UNL     1      11.537  11.408   9.651  1.00  0.00     0.010 A 
ATOM     81  C   UNL     1       9.744   9.775   9.696  1.00  0.00     0.010 A 
ATOM     82  C   UNL     1      10.628  12.392   9.249  1.00  0.00     0.020 A 
ATOM     83  C   UNL     1       8.838  10.750   9.271  1.00  0.00     0.020 A 
ATOM     84  C   UNL     1       9.285  12.056   9.059  1.00  0.00     0.054 A 
BRANCH  84  85
ATOM     85  S   UNL     1       8.134  13.333   8.479  1.00  0.00     0.124 S 
ATOM     86  O   UNL     1       7.928  14.128   9.686  1.00  0.00    -0.237 OA
ATOM     87  O   UNL     1       8.893  13.984   7.414  1.00  0.00    -0.237 OA
ATOM     88  O   UNL     1       6.974  12.567   8.027  1.00  0.00    -0.744 OA
ENDBRANCH  84  85
ENDBRANCH  56  79
BRANCH  68  89
ATOM     89  C   UNL     1      14.641   9.014  15.790  1.00  0.00    -0.014 A 
ATOM     90  C   UNL     1      13.575   8.993  16.706  1.00  0.00     0.010 A 
ATOM     91  C   UNL     1      15.803   9.741  16.107  1.00  0.00     0.010 A 
ATOM     92  C   UNL     1      13.652   9.719  17.898  1.00  0.00     0.020 A 
ATOM     93  C   UNL     1      15.895  10.448  17.309  1.00  0.00     0.020 A 
ATOM     94  C   UNL     1      14.810  10.447  18.189  1.00  0.00     0.054 A 
BRANCH  94  95
ATOM     95  S   UNL     1      14.899  11.366  19.751  1.00  0.00     0.124 S 
ATOM     96  O   UNL     1      14.070  12.534  19.463  1.00  0.00    -0.237 OA
ATOM     97  O   UNL     1      14.339  10.421  20.714  1.00  0.00    -0.237 OA
ATOM     98  O   UNL     1      16.326  11.638  19.912  1.00  0.00    -0.744 OA
ENDBRANCH  94  95
ENDBRANCH  68  89
ENDBRANCH  42  43
ENDBRANCH  35  37
ENDBRANCH  34  35
ENDBRANCH  33  34
ENDBRANCH  32  33
ENDBRANCH   1  32
TORSDOF 22
