REMARK SMILES CC(C)(C)OC(=O)N1C[C@@H](C(=O)OCCOCCOC(=O)c2ccc(-c3c4nc(c(-c5ccc(S(=O)(=O)[O-])cc5)c5ccc([nH]5)c(-c5ccc(S(=O)(=O)[O-])cc5)c5nc(c(-c6ccc(S(=O)(=O)[O-])cc6)c6ccc3[nH]6)C=C5)C=C4)cc2)[C@@]2(C1)C(=O)Nc1ccccc12
REMARK SMILES IDX 16 1 15 2 14 3 13 4 11 5 12 6 10 7 8 8 9 9 83 10 82 11 84 12
REMARK SMILES IDX 92 13 85 14 86 15 87 16 91 17 88 19 90 20 89 21 6 22 7 23
REMARK SMILES IDX 5 24 2 25 1 26 3 27 4 28 17 29 18 30 19 31 20 32 21 33 22 34
REMARK SMILES IDX 23 35 81 36 24 37 80 38 25 39 26 40 27 41 74 42 28 43 79 44
REMARK SMILES IDX 73 45 75 46 29 47 78 48 72 49 71 50 30 52 60 53 41 54 59 55
REMARK SMILES IDX 42 56 45 57 58 58 76 59 43 60 44 61 57 63 77 64 46 65 31 66
REMARK SMILES IDX 32 67 40 68 33 69 39 70 34 71 35 72 36 73 37 74 38 75 61 76
REMARK SMILES IDX 62 77 70 78 63 79 69 80 64 81 65 82 66 83 67 84 68 85 47 86
REMARK SMILES IDX 48 87 56 88 49 89 55 90 50 91 51 92 52 93 53 94 54 95
REMARK H PARENT 86 18 75 51 45 62
REMARK Flexibility Score: inf
ROOT
ATOM      1  O   UNL     1       1.780  -1.473  10.583  1.00  0.00    -0.374 OA
ENDROOT
BRANCH   1   2
ATOM      2  C   UNL     1       1.630  -2.562   9.679  1.00  0.00     0.202 C 
BRANCH   2   3
ATOM      3  C   UNL     1       1.135  -2.262   8.253  1.00  0.00     0.261 C 
BRANCH   3   4
ATOM      4  O   UNL     1       1.688  -1.095   7.611  1.00  0.00    -0.463 OA
BRANCH   4   5
ATOM      5  C   UNL     1       0.945   0.021   7.808  1.00  0.00     0.312 C 
ATOM      6  O   UNL     1      -0.029   0.075   8.557  1.00  0.00    -0.252 OA
BRANCH   5   7
ATOM      7  C   UNL     1       1.325   1.226   6.991  1.00  0.00     0.140 C 
ATOM      8  N   UNL     1       0.901   1.016   4.658  1.00  0.00    -0.306 N 
ATOM      9  C   UNL     1       0.246   1.348   5.908  1.00  0.00     0.140 C 
ATOM     10  C   UNL     1       2.327   0.775   4.832  1.00  0.00     0.146 C 
ATOM     11  C   UNL     1       2.638   1.397   6.192  1.00  0.00     0.109 C 
ATOM     12  C   UNL     1       2.778   2.957   6.062  1.00  0.00     0.237 C 
ATOM     13  C   UNL     1       3.977   1.081   6.820  1.00  0.00    -0.006 A 
ATOM     14  O   UNL     1       2.056   3.736   5.462  1.00  0.00    -0.274 OA
ATOM     15  N   UNL     1       3.853   3.354   6.835  1.00  0.00    -0.325 N 
ATOM     16  C   UNL     1       4.591   2.266   7.245  1.00  0.00     0.045 A 
ATOM     17  C   UNL     1       4.701  -0.092   6.894  1.00  0.00     0.007 A 
ATOM     18  H   UNL     1       4.063   4.288   7.061  1.00  0.00     0.169 HD
ATOM     19  C   UNL     1       5.833   2.331   7.844  1.00  0.00     0.026 A 
ATOM     20  C   UNL     1       5.992  -0.046   7.452  1.00  0.00     0.000 A 
ATOM     21  C   UNL     1       6.542   1.144   7.951  1.00  0.00     0.002 A 
BRANCH   8  22
ATOM     22  C   UNL     1       0.252   1.215   3.466  1.00  0.00     0.410 C 
ATOM     23  O   UNL     1      -0.856   1.743   3.407  1.00  0.00    -0.224 OA
BRANCH  22  24
ATOM     24  O   UNL     1       0.962   0.768   2.403  1.00  0.00    -0.444 OA
BRANCH  24  25
ATOM     25  C   UNL     1       0.494   0.994   1.044  1.00  0.00     0.106 C 
ATOM     26  C   UNL     1       1.239  -0.036   0.182  1.00  0.00     0.056 C 
ATOM     27  C   UNL     1       0.911   2.406   0.623  1.00  0.00     0.056 C 
ATOM     28  C   UNL     1      -1.013   0.776   0.837  1.00  0.00     0.056 C 
ENDBRANCH  24  25
ENDBRANCH  22  24
ENDBRANCH   8  22
ENDBRANCH   5   7
ENDBRANCH   4   5
ENDBRANCH   3   4
ENDBRANCH   2   3
ENDBRANCH   1   2
BRANCH   1  29
ATOM     29  C   UNL     1       2.897  -0.602  10.397  1.00  0.00     0.202 C 
BRANCH  29  30
ATOM     30  C   UNL     1       4.278  -1.259  10.433  1.00  0.00     0.261 C 
BRANCH  30  31
ATOM     31  O   UNL     1       4.464  -2.092   9.274  1.00  0.00    -0.460 OA
BRANCH  31  32
ATOM     32  C   UNL     1       5.317  -3.125   9.450  1.00  0.00     0.338 C 
ATOM     33  O   UNL     1       6.035  -3.332  10.413  1.00  0.00    -0.246 OA
BRANCH  32  34
ATOM     34  C   UNL     1       5.157  -4.068   8.330  1.00  0.00     0.060 A 
ATOM     35  C   UNL     1       4.408  -5.230   8.537  1.00  0.00     0.016 A 
ATOM     36  C   UNL     1       5.815  -3.857   7.117  1.00  0.00     0.016 A 
ATOM     37  C   UNL     1       4.357  -6.206   7.541  1.00  0.00     0.010 A 
ATOM     38  C   UNL     1       5.743  -4.824   6.113  1.00  0.00     0.010 A 
ATOM     39  C   UNL     1       5.050  -6.023   6.335  1.00  0.00    -0.014 A 
BRANCH  39  40
ATOM     40  C   UNL     1       5.157  -7.131   5.355  1.00  0.00     0.031 A 
ATOM     41  C   UNL     1       6.440  -7.914   5.258  1.00  0.00     0.074 A 
ATOM     42  C   UNL     1       4.117  -7.442   4.559  1.00  0.00     0.049 A 
ATOM     43  N   UNL     1       6.735  -8.923   4.479  1.00  0.00    -0.248 NA
ATOM     44  C   UNL     1       7.536  -7.504   6.153  1.00  0.00     0.031 C 
ATOM     45  C   UNL     1       2.821  -6.765   4.558  1.00  0.00     0.029 A 
ATOM     46  N   UNL     1       3.994  -8.409   3.594  1.00  0.00    -0.354 N 
ATOM     47  C   UNL     1       8.044  -9.270   4.789  1.00  0.00     0.074 A 
ATOM     48  C   UNL     1       8.502  -8.339   5.797  1.00  0.00     0.031 C 
ATOM     49  C   UNL     1       2.029  -7.343   3.639  1.00  0.00     0.029 A 
ATOM     50  C   UNL     1       2.771  -8.410   2.969  1.00  0.00     0.049 A 
ATOM     51  H   UNL     1       4.714  -9.043   3.371  1.00  0.00     0.167 HD
ATOM     52  C   UNL     1       8.795 -10.282   4.291  1.00  0.00     0.031 A 
ATOM     53  C   UNL     1       2.304  -9.175   1.963  1.00  0.00     0.031 A 
ATOM     54  C   UNL     1       8.347 -11.203   3.281  1.00  0.00     0.049 A 
ATOM     55  C   UNL     1       3.181 -10.248   1.376  1.00  0.00     0.074 A 
ATOM     56  C   UNL     1       9.022 -12.286   2.745  1.00  0.00     0.029 A 
ATOM     57  N   UNL     1       7.118 -11.142   2.644  1.00  0.00    -0.354 N 
ATOM     58  N   UNL     1       4.395 -10.602   1.725  1.00  0.00    -0.248 NA
ATOM     59  C   UNL     1       2.623 -11.027   0.261  1.00  0.00     0.031 C 
ATOM     60  C   UNL     1       8.223 -12.845   1.742  1.00  0.00     0.029 A 
ATOM     61  C   UNL     1       7.029 -12.144   1.692  1.00  0.00     0.049 A 
ATOM     62  H   UNL     1       6.412 -10.484   2.839  1.00  0.00     0.167 HD
ATOM     63  C   UNL     1       4.739 -11.655   0.883  1.00  0.00     0.074 A 
ATOM     64  C   UNL     1       3.600 -11.892   0.021  1.00  0.00     0.031 C 
ATOM     65  C   UNL     1       5.895 -12.362   0.830  1.00  0.00     0.031 A 
BRANCH  52  66
ATOM     66  C   UNL     1      10.196 -10.433   4.822  1.00  0.00    -0.014 A 
ATOM     67  C   UNL     1      10.430 -10.915   6.122  1.00  0.00     0.010 A 
ATOM     68  C   UNL     1      11.292 -10.128   3.996  1.00  0.00     0.010 A 
ATOM     69  C   UNL     1      11.736 -11.053   6.600  1.00  0.00     0.020 A 
ATOM     70  C   UNL     1      12.600 -10.287   4.462  1.00  0.00     0.020 A 
ATOM     71  C   UNL     1      12.813 -10.733   5.768  1.00  0.00     0.054 A 
BRANCH  71  72
ATOM     72  S   UNL     1      14.498 -10.935   6.409  1.00  0.00     0.124 S 
ATOM     73  O   UNL     1      14.606  -9.806   7.329  1.00  0.00    -0.237 OA
ATOM     74  O   UNL     1      14.447 -12.253   7.036  1.00  0.00    -0.237 OA
ATOM     75  O   UNL     1      15.335 -10.849   5.215  1.00  0.00    -0.744 OA
ENDBRANCH  71  72
ENDBRANCH  52  66
BRANCH  53  76
ATOM     76  C   UNL     1       0.933  -8.943   1.434  1.00  0.00    -0.014 A 
ATOM     77  C   UNL     1      -0.094  -9.872   1.674  1.00  0.00     0.010 A 
ATOM     78  C   UNL     1       0.649  -7.783   0.691  1.00  0.00     0.010 A 
ATOM     79  C   UNL     1      -1.379  -9.650   1.171  1.00  0.00     0.020 A 
ATOM     80  C   UNL     1      -0.640  -7.545   0.208  1.00  0.00     0.020 A 
ATOM     81  C   UNL     1      -1.644  -8.487   0.442  1.00  0.00     0.054 A 
BRANCH  81  82
ATOM     82  S   UNL     1      -3.332  -8.192  -0.154  1.00  0.00     0.124 S 
ATOM     83  O   UNL     1      -3.423  -9.122  -1.275  1.00  0.00    -0.237 OA
ATOM     84  O   UNL     1      -4.142  -8.526   1.015  1.00  0.00    -0.237 OA
ATOM     85  O   UNL     1      -3.323  -6.775  -0.513  1.00  0.00    -0.744 OA
ENDBRANCH  81  82
ENDBRANCH  53  76
BRANCH  65  86
ATOM     86  C   UNL     1       5.992 -13.464  -0.191  1.00  0.00    -0.014 A 
ATOM     87  C   UNL     1       6.150 -13.173  -1.557  1.00  0.00     0.010 A 
ATOM     88  C   UNL     1       5.989 -14.808   0.228  1.00  0.00     0.010 A 
ATOM     89  C   UNL     1       6.283 -14.206  -2.489  1.00  0.00     0.020 A 
ATOM     90  C   UNL     1       6.146 -15.842  -0.698  1.00  0.00     0.020 A 
ATOM     91  C   UNL     1       6.281 -15.534  -2.054  1.00  0.00     0.054 A 
BRANCH  91  92
ATOM     92  S   UNL     1       6.511 -16.855  -3.277  1.00  0.00     0.124 S 
ATOM     93  O   UNL     1       5.213 -16.879  -3.945  1.00  0.00    -0.237 OA
ATOM     94  O   UNL     1       7.623 -16.357  -4.082  1.00  0.00    -0.237 OA
ATOM     95  O   UNL     1       6.816 -18.030  -2.464  1.00  0.00    -0.744 OA
ENDBRANCH  91  92
ENDBRANCH  65  86
ENDBRANCH  39  40
ENDBRANCH  32  34
ENDBRANCH  31  32
ENDBRANCH  30  31
ENDBRANCH  29  30
ENDBRANCH   1  29
TORSDOF 20
