REMARK SMILES CCOc1cc2c(cc1/C=C1/C(=O)N(c3cccc(C(=O)OCCOCCOC(=O)c4ccc(-c5c6nc(c(-c7ccc(S(=O)(=O)[O-])cc7)c7ccc([nH]7)c(-c7ccc(S(=O)(=O)[O-])cc7)c7nc(c(-c8ccc(S(=O)(=O)[O-])cc8)c8ccc5[nH]8)C=C7)C=C6)cc4)c3)C(=S)N=C1O)OCO2
REMARK SMILES IDX 24 1 23 2 22 3 20 4 21 5 19 6 15 7 16 8 91 9 17 10 18 11
REMARK SMILES IDX 14 12 10 13 11 14 12 15 95 16 13 17 94 18 92 19 93 20 9 21
REMARK SMILES IDX 4 22 5 23 6 24 8 25 7 26 99 27 97 28 98 29 3 30 2 31 1 32
REMARK SMILES IDX 96 33 25 35 26 36 27 37 28 38 29 39 30 40 31 41 32 42 90 43
REMARK SMILES IDX 33 44 89 45 34 46 35 47 36 48 83 49 37 50 88 51 82 52 84 53
REMARK SMILES IDX 38 54 87 55 81 56 80 57 39 59 69 60 50 61 68 62 51 63 54 64
REMARK SMILES IDX 67 65 85 66 52 67 53 68 66 70 86 71 55 72 40 73 41 74 49 75
REMARK SMILES IDX 42 76 48 77 43 78 44 79 45 80 46 81 47 82 70 83 71 84 79 85
REMARK SMILES IDX 72 86 78 87 73 88 74 89 75 90 76 91 77 92 56 93 57 94 65 95
REMARK SMILES IDX 58 96 64 97 59 98 60 99 61 100 62 101 63 102
REMARK H PARENT 96 34 84 58 54 69
REMARK Flexibility Score: inf
ROOT
ATOM      1  C   UNL     1      -1.979  11.277   4.703  1.00  0.00     0.202 C 
ENDROOT
BRANCH   1   2
ATOM      2  C   UNL     1      -2.628  10.260   3.757  1.00  0.00     0.261 C 
BRANCH   2   3
ATOM      3  O   UNL     1      -1.789   9.985   2.624  1.00  0.00    -0.460 OA
BRANCH   3   4
ATOM      4  C   UNL     1      -2.234  10.477   1.444  1.00  0.00     0.338 C 
ATOM      5  O   UNL     1      -3.314  11.006   1.227  1.00  0.00    -0.246 OA
BRANCH   4   6
ATOM      6  C   UNL     1      -1.126  10.485   0.460  1.00  0.00     0.062 A 
ATOM      7  C   UNL     1       0.950   9.609  -0.457  1.00  0.00     0.052 A 
ATOM      8  C   UNL     1       0.960  10.682  -1.370  1.00  0.00     0.027 A 
ATOM      9  C   UNL     1      -0.114   9.514   0.454  1.00  0.00     0.042 A 
ATOM     10  C   UNL     1      -0.041  11.656  -1.354  1.00  0.00     0.003 A 
ATOM     11  C   UNL     1      -1.082  11.558  -0.439  1.00  0.00     0.016 A 
BRANCH   7  12
ATOM     12  N   UNL     1       1.999   8.614  -0.494  1.00  0.00    -0.251 N 
ATOM     13  C   UNL     1       2.428   4.964  -0.393  1.00  0.00     0.031 C 
ATOM     14  C   UNL     1       2.720   6.264  -0.648  1.00  0.00     0.103 C 
ATOM     15  C   UNL     1       1.605   7.262  -0.500  1.00  0.00     0.270 C 
ATOM     16  C   UNL     1       3.968   6.874  -1.101  1.00  0.00     0.226 C 
ATOM     17  O   UNL     1       0.438   6.876  -0.437  1.00  0.00    -0.268 OA
ATOM     18  N   UNL     1       4.269   8.115  -1.071  1.00  0.00    -0.184 NA
ATOM     19  C   UNL     1       3.355   9.005  -0.564  1.00  0.00     0.210 C 
ATOM     20  S   UNL     1       3.957  10.508  -0.035  1.00  0.00    -0.038 S 
BRANCH  13  21
ATOM     21  C   UNL     1       3.236   3.715  -0.483  1.00  0.00     0.021 A 
ATOM     22  C   UNL     1       2.623   2.464  -0.786  1.00  0.00     0.130 A 
ATOM     23  C   UNL     1       3.385   1.329  -1.101  1.00  0.00     0.097 A 
ATOM     24  C   UNL     1       4.748   1.423  -0.991  1.00  0.00     0.169 A 
ATOM     25  C   UNL     1       4.622   3.713  -0.263  1.00  0.00     0.062 A 
ATOM     26  C   UNL     1       5.348   2.576  -0.560  1.00  0.00     0.166 A 
ATOM     27  O   UNL     1       5.640   0.436  -1.267  1.00  0.00    -0.453 OA
ATOM     28  O   UNL     1       6.703   2.463  -0.506  1.00  0.00    -0.454 OA
ATOM     29  C   UNL     1       6.881   1.112  -0.982  1.00  0.00     0.468 C 
BRANCH  22  30
ATOM     30  O   UNL     1       1.254   2.334  -0.850  1.00  0.00    -0.493 OA
BRANCH  30  31
ATOM     31  C   UNL     1       0.720   1.670   0.317  1.00  0.00     0.226 C 
ATOM     32  C   UNL     1       0.721   0.149   0.199  1.00  0.00     0.049 C 
ENDBRANCH  30  31
ENDBRANCH  22  30
ENDBRANCH  13  21
BRANCH  16  33
ATOM     33  O   UNL     1       4.878   6.083  -1.665  1.00  0.00    -0.493 OA
ATOM     34  H   UNL     1       4.726   5.161  -1.723  1.00  0.00     0.295 HD
ENDBRANCH  16  33
ENDBRANCH   7  12
ENDBRANCH   4   6
ENDBRANCH   3   4
ENDBRANCH   2   3
ENDBRANCH   1   2
BRANCH   1  35
ATOM     35  O   UNL     1      -1.721  12.581   4.181  1.00  0.00    -0.374 OA
BRANCH  35  36
ATOM     36  C   UNL     1      -0.568  12.744   3.355  1.00  0.00     0.202 C 
BRANCH  36  37
ATOM     37  C   UNL     1       0.801  12.822   4.042  1.00  0.00     0.261 C 
BRANCH  37  38
ATOM     38  O   UNL     1       1.132  11.626   4.767  1.00  0.00    -0.460 OA
BRANCH  38  39
ATOM     39  C   UNL     1       1.019  11.748   6.112  1.00  0.00     0.338 C 
ATOM     40  O   UNL     1       0.733  12.757   6.737  1.00  0.00    -0.246 OA
BRANCH  39  41
ATOM     41  C   UNL     1       1.113  10.425   6.755  1.00  0.00     0.060 A 
ATOM     42  C   UNL     1       0.093  10.080   7.649  1.00  0.00     0.016 A 
ATOM     43  C   UNL     1       2.208   9.580   6.564  1.00  0.00     0.016 A 
ATOM     44  C   UNL     1       0.200   8.922   8.412  1.00  0.00     0.010 A 
ATOM     45  C   UNL     1       2.312   8.413   7.332  1.00  0.00     0.010 A 
ATOM     46  C   UNL     1       1.332   8.104   8.293  1.00  0.00    -0.014 A 
BRANCH  46  47
ATOM     47  C   UNL     1       1.526   7.007   9.274  1.00  0.00     0.031 A 
ATOM     48  C   UNL     1       2.520   7.177  10.392  1.00  0.00     0.074 A 
ATOM     49  C   UNL     1       0.766   5.899   9.209  1.00  0.00     0.049 A 
ATOM     50  N   UNL     1       2.778   6.379  11.396  1.00  0.00    -0.248 NA
ATOM     51  C   UNL     1       3.330   8.405  10.377  1.00  0.00     0.031 C 
ATOM     52  C   UNL     1      -0.245   5.628   8.186  1.00  0.00     0.029 A 
ATOM     53  N   UNL     1       0.718   4.800  10.029  1.00  0.00    -0.354 N 
ATOM     54  C   UNL     1       3.785   7.001  12.126  1.00  0.00     0.074 A 
ATOM     55  C   UNL     1       4.116   8.225  11.428  1.00  0.00     0.031 C 
ATOM     56  C   UNL     1      -0.823   4.444   8.447  1.00  0.00     0.029 A 
ATOM     57  C   UNL     1      -0.204   3.859   9.635  1.00  0.00     0.049 A 
ATOM     58  H   UNL     1       1.289   4.695  10.824  1.00  0.00     0.167 HD
ATOM     59  C   UNL     1       4.376   6.595  13.276  1.00  0.00     0.031 A 
ATOM     60  C   UNL     1      -0.511   2.659  10.165  1.00  0.00     0.031 A 
ATOM     61  C   UNL     1       4.049   5.370  13.960  1.00  0.00     0.049 A 
ATOM     62  C   UNL     1       0.181   2.211  11.424  1.00  0.00     0.074 A 
ATOM     63  C   UNL     1       4.566   4.886  15.150  1.00  0.00     0.029 A 
ATOM     64  N   UNL     1       3.132   4.430  13.512  1.00  0.00    -0.354 N 
ATOM     65  N   UNL     1       1.099   2.833  12.127  1.00  0.00    -0.248 NA
ATOM     66  C   UNL     1      -0.219   0.909  11.973  1.00  0.00     0.031 C 
ATOM     67  C   UNL     1       4.015   3.622  15.383  1.00  0.00     0.029 A 
ATOM     68  C   UNL     1       3.093   3.354  14.383  1.00  0.00     0.049 A 
ATOM     69  H   UNL     1       2.590   4.516  12.695  1.00  0.00     0.167 HD
ATOM     70  C   UNL     1       1.363   2.012  13.218  1.00  0.00     0.074 A 
ATOM     71  C   UNL     1       0.497   0.857  13.088  1.00  0.00     0.031 C 
ATOM     72  C   UNL     1       2.236   2.202  14.240  1.00  0.00     0.031 A 
BRANCH  59  73
ATOM     73  C   UNL     1       5.472   7.463  13.844  1.00  0.00    -0.014 A 
ATOM     74  C   UNL     1       5.203   8.733  14.386  1.00  0.00     0.010 A 
ATOM     75  C   UNL     1       6.794   6.980  13.866  1.00  0.00     0.010 A 
ATOM     76  C   UNL     1       6.240   9.521  14.896  1.00  0.00     0.020 A 
ATOM     77  C   UNL     1       7.829   7.750  14.405  1.00  0.00     0.020 A 
ATOM     78  C   UNL     1       7.548   9.024  14.899  1.00  0.00     0.054 A 
BRANCH  78  79
ATOM     79  S   UNL     1       8.873  10.062  15.577  1.00  0.00     0.124 S 
ATOM     80  O   UNL     1       8.990  11.104  14.560  1.00  0.00    -0.237 OA
ATOM     81  O   UNL     1       8.317  10.493  16.857  1.00  0.00    -0.237 OA
ATOM     82  O   UNL     1      10.013   9.153  15.670  1.00  0.00    -0.744 OA
ENDBRANCH  78  79
ENDBRANCH  59  73
BRANCH  60  83
ATOM     83  C   UNL     1      -1.525   1.799   9.495  1.00  0.00    -0.014 A 
ATOM     84  C   UNL     1      -2.778   1.558  10.084  1.00  0.00     0.010 A 
ATOM     85  C   UNL     1      -1.242   1.237   8.235  1.00  0.00     0.010 A 
ATOM     86  C   UNL     1      -3.726   0.765   9.429  1.00  0.00     0.020 A 
ATOM     87  C   UNL     1      -2.197   0.471   7.565  1.00  0.00     0.020 A 
ATOM     88  C   UNL     1      -3.432   0.233   8.170  1.00  0.00     0.054 A 
BRANCH  88  89
ATOM     89  S   UNL     1      -4.703  -0.732   7.306  1.00  0.00     0.124 S 
ATOM     90  O   UNL     1      -4.732  -1.964   8.087  1.00  0.00    -0.237 OA
ATOM     91  O   UNL     1      -5.881   0.124   7.426  1.00  0.00    -0.237 OA
ATOM     92  O   UNL     1      -4.171  -0.861   5.951  1.00  0.00    -0.744 OA
ENDBRANCH  88  89
ENDBRANCH  60  83
BRANCH  72  93
ATOM     93  C   UNL     1       2.271   1.157  15.327  1.00  0.00    -0.014 A 
ATOM     94  C   UNL     1       2.773  -0.136  15.095  1.00  0.00     0.010 A 
ATOM     95  C   UNL     1       1.821   1.493  16.618  1.00  0.00     0.010 A 
ATOM     96  C   UNL     1       2.777  -1.088  16.120  1.00  0.00     0.020 A 
ATOM     97  C   UNL     1       1.856   0.556  17.654  1.00  0.00     0.020 A 
ATOM     98  C   UNL     1       2.315  -0.736  17.392  1.00  0.00     0.054 A 
BRANCH  98  99
ATOM     99  S   UNL     1       2.344  -1.983  18.709  1.00  0.00     0.124 S 
ATOM    100  O   UNL     1       1.261  -2.877  18.304  1.00  0.00    -0.237 OA
ATOM    101  O   UNL     1       3.691  -2.537  18.596  1.00  0.00    -0.237 OA
ATOM    102  O   UNL     1       2.093  -1.212  19.924  1.00  0.00    -0.744 OA
ENDBRANCH  98  99
ENDBRANCH  72  93
ENDBRANCH  46  47
ENDBRANCH  39  41
ENDBRANCH  38  39
ENDBRANCH  37  38
ENDBRANCH  36  37
ENDBRANCH  35  36
ENDBRANCH   1  35
TORSDOF 22
