REMARK SMILES O=C(NC1CCCCCC1)N[C@@H]1C=C[C@H](C(=O)OCCOCCOC(=O)c2ccc(-c3c4nc(c(-c5ccc(S(=O)(=O)[O-])cc5)c5ccc([nH]5)c(-c5ccc(S(=O)(=O)[O-])cc5)c5nc(c(-c6ccc(S(=O)(=O)[O-])cc6)c6ccc3[nH]6)C=C5)C=C4)cc2)C1
REMARK SMILES IDX 20 1 19 2 18 3 16 4 17 5 15 6 12 7 13 8 87 9 14 10 11 11
REMARK SMILES IDX 1 12 2 13 3 14 4 17 5 18 6 19 7 20 10 22 9 23 8 24 21 26
REMARK SMILES IDX 22 27 23 28 24 29 25 30 26 31 27 32 28 33 86 34 29 35 85 36
REMARK SMILES IDX 30 37 31 38 32 39 79 40 33 41 84 42 78 43 80 44 34 45 83 46
REMARK SMILES IDX 77 47 76 48 35 50 65 51 46 52 64 53 47 54 50 55 63 56 81 57
REMARK SMILES IDX 48 58 49 59 62 61 82 62 51 63 36 64 37 65 45 66 38 67 44 68
REMARK SMILES IDX 39 69 40 70 41 71 42 72 43 73 66 74 67 75 75 76 68 77 74 78
REMARK SMILES IDX 69 79 70 80 71 81 72 82 73 83 52 84 53 85 61 86 54 87 60 88
REMARK SMILES IDX 55 89 56 90 57 91 58 92 59 93
REMARK H PARENT 3 15 11 16 80 49 50 60
REMARK Flexibility Score: 90.00
ROOT
ATOM      1  C   UNL     1      -1.390   7.077   0.642  1.00  0.00     0.202 C 
ENDROOT
BRANCH   1   2
ATOM      2  C   UNL     1      -0.432   6.926   1.831  1.00  0.00     0.261 C 
BRANCH   2   3
ATOM      3  O   UNL     1       0.832   6.344   1.464  1.00  0.00    -0.463 OA
BRANCH   3   4
ATOM      4  C   UNL     1       1.443   5.699   2.500  1.00  0.00     0.312 C 
ATOM      5  O   UNL     1       1.115   5.840   3.675  1.00  0.00    -0.252 OA
BRANCH   4   6
ATOM      6  C   UNL     1       2.672   4.901   2.048  1.00  0.00     0.124 C 
ATOM      7  C   UNL     1       2.416   2.520   1.412  1.00  0.00     0.107 C 
ATOM      8  C   UNL     1       2.854   2.666   2.825  1.00  0.00    -0.006 C 
ATOM      9  C   UNL     1       2.530   3.945   0.850  1.00  0.00     0.048 C 
ATOM     10  C   UNL     1       3.058   3.947   3.150  1.00  0.00    -0.014 C 
BRANCH   7  11
ATOM     11  N   UNL     1       1.142   1.839   1.306  1.00  0.00    -0.332 N 
ATOM     12  O   UNL     1      -0.283   3.497   1.901  1.00  0.00    -0.249 OA
ATOM     13  C   UNL     1      -0.087   2.355   1.500  1.00  0.00     0.315 C 
ATOM     14  N   UNL     1      -1.170   1.628   1.133  1.00  0.00    -0.335 N 
ATOM     15  H   UNL     1      -1.923   2.203   0.865  1.00  0.00     0.165 HD
ATOM     16  H   UNL     1       1.179   0.885   1.063  1.00  0.00     0.165 HD
BRANCH  14  17
ATOM     17  C   UNL     1      -1.514   0.193   1.031  1.00  0.00     0.083 C 
BRANCH  17  18
ATOM     18  C   UNL     1      -2.753   0.014   0.123  1.00  0.00     0.025 C 
BRANCH  18  19
ATOM     19  C   UNL     1      -2.465  -0.248  -1.358  1.00  0.00     0.002 C 
BRANCH  19  20
ATOM     20  C   UNL     1      -2.257  -1.729  -1.683  1.00  0.00     0.000 CG0
ATOM     21  G   UNL     1      -0.956  -2.333  -1.168  1.00  0.00     0.000 G0
ENDBRANCH  19  20
ENDBRANCH  18  19
ENDBRANCH  17  18
BRANCH  17  22
ATOM     22  C   UNL     1      -0.353  -0.748   0.707  1.00  0.00     0.025 C 
BRANCH  22  23
ATOM     23  C   UNL     1      -0.737  -2.176   0.334  1.00  0.00     0.002 C 
BRANCH  23  24
ATOM     24  C   UNL     1      -0.956  -2.333  -1.168  1.00  0.00     0.000 CG0
ATOM     25  G   UNL     1      -2.257  -1.729  -1.683  1.00  0.00     0.000 G0
ENDBRANCH  23  24
ENDBRANCH  22  23
ENDBRANCH  17  22
ENDBRANCH  14  17
ENDBRANCH   7  11
ENDBRANCH   4   6
ENDBRANCH   3   4
ENDBRANCH   2   3
ENDBRANCH   1   2
BRANCH   1  26
ATOM     26  O   UNL     1      -1.806   5.915  -0.080  1.00  0.00    -0.374 OA
BRANCH  26  27
ATOM     27  C   UNL     1      -0.784   5.135  -0.687  1.00  0.00     0.202 C 
BRANCH  27  28
ATOM     28  C   UNL     1      -0.143   5.635  -1.987  1.00  0.00     0.261 C 
BRANCH  28  29
ATOM     29  O   UNL     1       0.241   7.013  -1.962  1.00  0.00    -0.460 OA
BRANCH  29  30
ATOM     30  C   UNL     1      -0.677   7.844  -2.510  1.00  0.00     0.338 C 
ATOM     31  O   UNL     1      -1.731   7.534  -3.050  1.00  0.00    -0.246 OA
BRANCH  30  32
ATOM     32  C   UNL     1      -0.310   9.238  -2.222  1.00  0.00     0.060 A 
ATOM     33  C   UNL     1      -1.245  10.032  -1.546  1.00  0.00     0.016 A 
ATOM     34  C   UNL     1       0.902   9.771  -2.661  1.00  0.00     0.016 A 
ATOM     35  C   UNL     1      -0.988  11.382  -1.341  1.00  0.00     0.010 A 
ATOM     36  C   UNL     1       1.152  11.131  -2.469  1.00  0.00     0.010 A 
ATOM     37  C   UNL     1       0.192  11.945  -1.842  1.00  0.00    -0.014 A 
BRANCH  37  38
ATOM     38  C   UNL     1       0.341  13.416  -1.858  1.00  0.00     0.031 A 
ATOM     39  C   UNL     1       0.071  14.152  -3.142  1.00  0.00     0.074 A 
ATOM     40  C   UNL     1       0.682  14.080  -0.741  1.00  0.00     0.049 A 
ATOM     41  N   UNL     1       0.172  15.428  -3.400  1.00  0.00    -0.248 NA
ATOM     42  C   UNL     1      -0.368  13.337  -4.288  1.00  0.00     0.031 C 
ATOM     43  C   UNL     1       0.918  13.468   0.567  1.00  0.00     0.029 A 
ATOM     44  N   UNL     1       0.892  15.418  -0.530  1.00  0.00    -0.354 N 
ATOM     45  C   UNL     1      -0.177  15.569  -4.739  1.00  0.00     0.074 A 
ATOM     46  C   UNL     1      -0.462  14.246  -5.247  1.00  0.00     0.031 C 
ATOM     47  C   UNL     1       1.247  14.431   1.445  1.00  0.00     0.029 A 
ATOM     48  C   UNL     1       1.282  15.717   0.753  1.00  0.00     0.049 A 
ATOM     49  H   UNL     1       0.774  16.099  -1.231  1.00  0.00     0.167 HD
ATOM     50  C   UNL     1      -0.256  16.703  -5.474  1.00  0.00     0.031 A 
ATOM     51  C   UNL     1       1.647  16.894   1.298  1.00  0.00     0.031 A 
ATOM     52  C   UNL     1       0.043  18.012  -4.957  1.00  0.00     0.049 A 
ATOM     53  C   UNL     1       1.622  18.131   0.439  1.00  0.00     0.074 A 
ATOM     54  C   UNL     1      -0.018  19.230  -5.609  1.00  0.00     0.029 A 
ATOM     55  N   UNL     1       0.469  18.271  -3.662  1.00  0.00    -0.354 N 
ATOM     56  N   UNL     1       1.269  18.255  -0.820  1.00  0.00    -0.248 NA
ATOM     57  C   UNL     1       2.036  19.389   1.075  1.00  0.00     0.031 C 
ATOM     58  C   UNL     1       0.434  20.217  -4.728  1.00  0.00     0.029 A 
ATOM     59  C   UNL     1       0.704  19.626  -3.504  1.00  0.00     0.049 A 
ATOM     60  H   UNL     1       0.586  17.592  -2.959  1.00  0.00     0.167 HD
ATOM     61  C   UNL     1       1.387  19.609  -1.115  1.00  0.00     0.074 A 
ATOM     62  C   UNL     1       1.831  20.263   0.100  1.00  0.00     0.031 C 
ATOM     63  C   UNL     1       1.147  20.256  -2.284  1.00  0.00     0.031 A 
BRANCH  50  64
ATOM     64  C   UNL     1      -0.643  16.570  -6.925  1.00  0.00    -0.014 A 
ATOM     65  C   UNL     1      -1.945  16.198  -7.307  1.00  0.00     0.010 A 
ATOM     66  C   UNL     1       0.305  16.857  -7.924  1.00  0.00     0.010 A 
ATOM     67  C   UNL     1      -2.280  16.079  -8.659  1.00  0.00     0.020 A 
ATOM     68  C   UNL     1      -0.034  16.769  -9.277  1.00  0.00     0.020 A 
ATOM     69  C   UNL     1      -1.321  16.366  -9.636  1.00  0.00     0.054 A 
BRANCH  69  70
ATOM     70  S   UNL     1      -1.792  16.230 -11.382  1.00  0.00     0.124 S 
ATOM     71  O   UNL     1      -1.919  14.785 -11.550  1.00  0.00    -0.237 OA
ATOM     72  O   UNL     1      -3.044  16.981 -11.434  1.00  0.00    -0.237 OA
ATOM     73  O   UNL     1      -0.672  16.842 -12.093  1.00  0.00    -0.744 OA
ENDBRANCH  69  70
ENDBRANCH  50  64
BRANCH  51  74
ATOM     74  C   UNL     1       2.085  16.952   2.720  1.00  0.00    -0.014 A 
ATOM     75  C   UNL     1       1.310  17.617   3.685  1.00  0.00     0.010 A 
ATOM     76  C   UNL     1       3.284  16.331   3.117  1.00  0.00     0.010 A 
ATOM     77  C   UNL     1       1.734  17.678   5.016  1.00  0.00     0.020 A 
ATOM     78  C   UNL     1       3.696  16.362   4.452  1.00  0.00     0.020 A 
ATOM     79  C   UNL     1       2.924  17.046   5.392  1.00  0.00     0.054 A 
BRANCH  79  80
ATOM     80  S   UNL     1       3.430  17.100   7.133  1.00  0.00     0.124 S 
ATOM     81  O   UNL     1       3.826  18.495   7.291  1.00  0.00    -0.237 OA
ATOM     82  O   UNL     1       2.207  16.705   7.828  1.00  0.00    -0.237 OA
ATOM     83  O   UNL     1       4.519  16.128   7.203  1.00  0.00    -0.744 OA
ENDBRANCH  79  80
ENDBRANCH  51  74
BRANCH  63  84
ATOM     84  C   UNL     1       1.319  21.752  -2.297  1.00  0.00    -0.014 A 
ATOM     85  C   UNL     1       2.591  22.346  -2.225  1.00  0.00     0.010 A 
ATOM     86  C   UNL     1       0.186  22.575  -2.444  1.00  0.00     0.010 A 
ATOM     87  C   UNL     1       2.724  23.737  -2.265  1.00  0.00     0.020 A 
ATOM     88  C   UNL     1       0.317  23.963  -2.519  1.00  0.00     0.020 A 
ATOM     89  C   UNL     1       1.586  24.536  -2.413  1.00  0.00     0.054 A 
BRANCH  89  90
ATOM     90  S   UNL     1       1.791  26.335  -2.507  1.00  0.00     0.124 S 
ATOM     91  O   UNL     1       2.144  26.674  -1.131  1.00  0.00    -0.237 OA
ATOM     92  O   UNL     1       2.864  26.484  -3.487  1.00  0.00    -0.237 OA
ATOM     93  O   UNL     1       0.482  26.812  -2.950  1.00  0.00    -0.744 OA
ENDBRANCH  89  90
ENDBRANCH  63  84
ENDBRANCH  37  38
ENDBRANCH  30  32
ENDBRANCH  29  30
ENDBRANCH  28  29
ENDBRANCH  27  28
ENDBRANCH  26  27
ENDBRANCH   1  26
TORSDOF 19
