REMARK SMILES CC[C@H](C)N1C(=O)c2ccccc2[C@@H](C(=O)OCCOCCOC(=O)c2ccc(-c3c4nc(c(-c5ccc(S(=O)(=O)[O-])cc5)c5ccc([nH]5)c(-c5ccc(S(=O)(=O)[O-])cc5)c5nc(c(-c6ccc(S(=O)(=O)[O-])cc6)c6ccc3[nH]6)C=C5)C=C4)cc2)C12CCCCC2
REMARK SMILES IDX 21 1 20 2 19 3 18 4 17 5 15 6 16 7 14 8 5 9 6 10 86 11 7 12
REMARK SMILES IDX 8 13 87 14 91 15 9 16 13 17 88 18 90 19 10 20 12 21 89 22
REMARK SMILES IDX 11 23 3 24 4 25 2 26 1 27 22 28 23 29 24 30 25 31 26 32
REMARK SMILES IDX 27 33 85 34 28 35 84 36 29 37 30 38 31 39 78 40 32 41 83 42
REMARK SMILES IDX 77 43 79 44 33 45 82 46 76 47 75 48 34 50 64 51 45 52 63 53
REMARK SMILES IDX 46 54 49 55 62 56 80 57 47 58 48 59 61 61 81 62 50 63 35 64
REMARK SMILES IDX 36 65 44 66 37 67 43 68 38 69 39 70 40 71 41 72 42 73 65 74
REMARK SMILES IDX 66 75 74 76 67 77 73 78 68 79 69 80 70 81 71 82 72 83 51 84
REMARK SMILES IDX 52 85 60 86 53 87 59 88 54 89 55 90 56 91 57 92 58 93
REMARK H PARENT 79 49 49 60
REMARK Flexibility Score: inf
ROOT
ATOM      1  C   UNL     1       0.943  -2.179   6.010  1.00  0.00     0.202 C 
ENDROOT
BRANCH   1   2
ATOM      2  O   UNL     1       1.423  -3.174   7.020  1.00  0.00    -0.374 OA
BRANCH   2   3
ATOM      3  C   UNL     1       1.348  -2.891   8.425  1.00  0.00     0.202 C 
BRANCH   3   4
ATOM      4  C   UNL     1       1.189  -1.471   9.034  1.00  0.00     0.261 C 
BRANCH   4   5
ATOM      5  O   UNL     1       1.251  -0.327   8.172  1.00  0.00    -0.463 OA
BRANCH   5   6
ATOM      6  C   UNL     1       2.293  -0.202   7.299  1.00  0.00     0.315 C 
ATOM      7  O   UNL     1       3.393  -0.712   7.458  1.00  0.00    -0.251 OA
BRANCH   6   8
ATOM      8  C   UNL     1       1.831   0.578   6.017  1.00  0.00     0.156 C 
ATOM      9  N   UNL     1       0.426   0.906   3.896  1.00  0.00    -0.329 N 
ATOM     10  C   UNL     1      -0.264   2.001   4.458  1.00  0.00     0.254 C 
ATOM     11  C   UNL     1       0.847  -0.220   4.899  1.00  0.00     0.061 C 
ATOM     12  O   UNL     1      -1.160   2.616   3.890  1.00  0.00    -0.269 OA
ATOM     13  C   UNL     1       0.203   2.514   5.776  1.00  0.00     0.044 A 
ATOM     14  C   UNL     1      -0.806  -0.772   5.763  1.00  0.00     0.030 C 
ATOM     15  C   UNL     1       1.874  -1.628   4.029  1.00  0.00     0.030 C 
ATOM     16  C   UNL     1      -0.361   3.704   6.273  1.00  0.00     0.014 A 
ATOM     17  C   UNL     1       1.243   1.906   6.476  1.00  0.00    -0.019 A 
ATOM     18  C   UNL     1      -1.062  -2.633   6.332  1.00  0.00     0.002 C 
ATOM     19  C   UNL     1       1.629  -3.508   4.501  1.00  0.00     0.002 C 
ATOM     20  C   UNL     1       0.091   4.279   7.464  1.00  0.00     0.001 A 
ATOM     21  C   UNL     1       1.735   2.543   7.644  1.00  0.00     0.005 A 
ATOM     22  C   UNL     1       0.031  -4.048   5.509  1.00  0.00     0.000 C 
ATOM     23  C   UNL     1       1.145   3.698   8.150  1.00  0.00     0.000 A 
BRANCH   9  24
ATOM     24  C   UNL     1       0.643   0.895   2.384  1.00  0.00     0.082 C 
ATOM     25  C   UNL     1      -0.199  -0.141   1.629  1.00  0.00     0.031 C 
BRANCH  24  26
ATOM     26  C   UNL     1       0.440   2.297   1.695  1.00  0.00     0.021 C 
ATOM     27  C   UNL     1       0.751   2.396   0.201  1.00  0.00     0.006 C 
ENDBRANCH  24  26
ENDBRANCH   9  24
ENDBRANCH   6   8
ENDBRANCH   5   6
ENDBRANCH   4   5
ENDBRANCH   3   4
ENDBRANCH   2   3
ENDBRANCH   1   2
BRANCH   1  28
ATOM     28  C   UNL     1      -0.235  -2.336   4.291  1.00  0.00     0.261 C 
BRANCH  28  29
ATOM     29  O   UNL     1      -1.774  -2.514   4.220  1.00  0.00    -0.460 OA
BRANCH  29  30
ATOM     30  C   UNL     1      -2.481  -3.607   3.823  1.00  0.00     0.338 C 
ATOM     31  O   UNL     1      -2.095  -4.568   3.186  1.00  0.00    -0.246 OA
BRANCH  30  32
ATOM     32  C   UNL     1      -3.760  -3.506   4.581  1.00  0.00     0.060 A 
ATOM     33  C   UNL     1      -4.638  -2.471   4.270  1.00  0.00     0.016 A 
ATOM     34  C   UNL     1      -3.947  -4.264   5.755  1.00  0.00     0.016 A 
ATOM     35  C   UNL     1      -5.684  -2.171   5.143  1.00  0.00     0.010 A 
ATOM     36  C   UNL     1      -4.974  -3.930   6.652  1.00  0.00     0.010 A 
ATOM     37  C   UNL     1      -5.859  -2.885   6.345  1.00  0.00    -0.014 A 
BRANCH  37  38
ATOM     38  C   UNL     1      -7.147  -2.716   7.064  1.00  0.00     0.031 A 
ATOM     39  C   UNL     1      -7.382  -1.694   8.133  1.00  0.00     0.074 A 
ATOM     40  C   UNL     1      -8.170  -3.455   6.594  1.00  0.00     0.049 A 
ATOM     41  N   UNL     1      -8.524  -1.224   8.568  1.00  0.00    -0.248 NA
ATOM     42  C   UNL     1      -6.205  -1.141   8.814  1.00  0.00     0.031 C 
ATOM     43  C   UNL     1      -8.030  -4.489   5.566  1.00  0.00     0.029 A 
ATOM     44  N   UNL     1      -9.514  -3.414   6.855  1.00  0.00    -0.354 N 
ATOM     45  C   UNL     1      -8.211  -0.304   9.562  1.00  0.00     0.074 A 
ATOM     46  C   UNL     1      -6.767  -0.313   9.692  1.00  0.00     0.031 C 
ATOM     47  C   UNL     1      -9.245  -4.932   5.227  1.00  0.00     0.029 A 
ATOM     48  C   UNL     1     -10.245  -4.224   6.019  1.00  0.00     0.049 A 
ATOM     49  H   UNL     1      -9.914  -2.862   7.565  1.00  0.00     0.167 HD
ATOM     50  C   UNL     1      -9.060   0.471  10.284  1.00  0.00     0.031 A 
ATOM     51  C   UNL     1     -11.575  -4.358   5.857  1.00  0.00     0.031 A 
ATOM     52  C   UNL     1     -10.499   0.437  10.140  1.00  0.00     0.049 A 
ATOM     53  C   UNL     1     -12.493  -3.471   6.637  1.00  0.00     0.074 A 
ATOM     54  C   UNL     1     -11.443   1.237  10.764  1.00  0.00     0.029 A 
ATOM     55  N   UNL     1     -11.204  -0.451   9.338  1.00  0.00    -0.354 N 
ATOM     56  N   UNL     1     -12.182  -2.519   7.483  1.00  0.00    -0.248 NA
ATOM     57  C   UNL     1     -13.934  -3.659   6.433  1.00  0.00     0.031 C 
ATOM     58  C   UNL     1     -12.714   0.781  10.403  1.00  0.00     0.029 A 
ATOM     59  C   UNL     1     -12.568  -0.254   9.493  1.00  0.00     0.049 A 
ATOM     60  H   UNL     1     -10.795  -1.123   8.746  1.00  0.00     0.167 HD
ATOM     61  C   UNL     1     -13.390  -1.993   7.921  1.00  0.00     0.074 A 
ATOM     62  C   UNL     1     -14.436  -2.716   7.222  1.00  0.00     0.031 C 
ATOM     63  C   UNL     1     -13.606  -1.004   8.822  1.00  0.00     0.031 A 
BRANCH  50  64
ATOM     64  C   UNL     1      -8.488   1.431  11.303  1.00  0.00    -0.014 A 
ATOM     65  C   UNL     1      -8.776   1.256  12.671  1.00  0.00     0.010 A 
ATOM     66  C   UNL     1      -7.784   2.582  10.904  1.00  0.00     0.010 A 
ATOM     67  C   UNL     1      -8.385   2.212  13.616  1.00  0.00     0.020 A 
ATOM     68  C   UNL     1      -7.369   3.530  11.849  1.00  0.00     0.020 A 
ATOM     69  C   UNL     1      -7.686   3.347  13.197  1.00  0.00     0.054 A 
BRANCH  69  70
ATOM     70  S   UNL     1      -7.176   4.574  14.436  1.00  0.00     0.124 S 
ATOM     71  O   UNL     1      -8.424   5.280  14.708  1.00  0.00    -0.237 OA
ATOM     72  O   UNL     1      -6.672   3.739  15.525  1.00  0.00    -0.237 OA
ATOM     73  O   UNL     1      -6.154   5.354  13.741  1.00  0.00    -0.744 OA
ENDBRANCH  69  70
ENDBRANCH  50  64
BRANCH  51  74
ATOM     74  C   UNL     1     -12.053  -5.324   4.832  1.00  0.00    -0.014 A 
ATOM     75  C   UNL     1     -11.852  -6.704   5.027  1.00  0.00     0.010 A 
ATOM     76  C   UNL     1     -12.507  -4.865   3.584  1.00  0.00     0.010 A 
ATOM     77  C   UNL     1     -12.008  -7.598   3.967  1.00  0.00     0.020 A 
ATOM     78  C   UNL     1     -12.694  -5.763   2.528  1.00  0.00     0.020 A 
ATOM     79  C   UNL     1     -12.402  -7.116   2.716  1.00  0.00     0.054 A 
BRANCH  79  80
ATOM     80  S   UNL     1     -12.472  -8.276   1.323  1.00  0.00     0.124 S 
ATOM     81  O   UNL     1     -11.056  -8.462   1.018  1.00  0.00    -0.237 OA
ATOM     82  O   UNL     1     -13.147  -9.433   1.905  1.00  0.00    -0.237 OA
ATOM     83  O   UNL     1     -13.240  -7.552   0.314  1.00  0.00    -0.744 OA
ENDBRANCH  79  80
ENDBRANCH  51  74
BRANCH  63  84
ATOM     84  C   UNL     1     -15.034  -0.664   9.162  1.00  0.00    -0.014 A 
ATOM     85  C   UNL     1     -15.567   0.587   8.800  1.00  0.00     0.010 A 
ATOM     86  C   UNL     1     -15.807  -1.535   9.951  1.00  0.00     0.010 A 
ATOM     87  C   UNL     1     -16.829   0.978   9.254  1.00  0.00     0.020 A 
ATOM     88  C   UNL     1     -17.081  -1.159  10.384  1.00  0.00     0.020 A 
ATOM     89  C   UNL     1     -17.573   0.107  10.055  1.00  0.00     0.054 A 
BRANCH  89  90
ATOM     90  S   UNL     1     -19.190   0.649  10.673  1.00  0.00     0.124 S 
ATOM     91  O   UNL     1     -18.817   1.562  11.749  1.00  0.00    -0.237 OA
ATOM     92  O   UNL     1     -19.791   1.273   9.497  1.00  0.00    -0.237 OA
ATOM     93  O   UNL     1     -19.827  -0.595  11.102  1.00  0.00    -0.744 OA
ENDBRANCH  89  90
ENDBRANCH  63  84
ENDBRANCH  37  38
ENDBRANCH  30  32
ENDBRANCH  29  30
ENDBRANCH  28  29
ENDBRANCH   1  28
TORSDOF 19
