REMARK SMILES CS(=O)(=O)c1ccc(/C=C(/C(=O)OCCOCCOC(=O)c2ccc(-c3c4nc(c(-c5ccc(S(=O)(=O)[O-])cc5)c5ccc([nH]5)c(-c5ccc(S(=O)(=O)[O-])cc5)c5nc(c(-c6ccc(S(=O)(=O)[O-])cc6)c6ccc3[nH]6)C=C5)C=C4)cc2)c2ccc(O)cc2)cc1
REMARK SMILES IDX 17 1 16 2 15 3 14 4 13 5 11 6 12 7 10 8 9 9 8 10 5 11 6 12
REMARK SMILES IDX 90 13 7 14 89 15 2 16 1 17 3 18 4 19 82 20 83 21 88 22 84 23
REMARK SMILES IDX 87 24 85 25 86 26 18 28 19 29 20 30 21 31 22 32 23 33 81 34
REMARK SMILES IDX 24 35 80 36 25 37 26 38 27 39 74 40 28 41 79 42 73 43 75 44
REMARK SMILES IDX 29 45 78 46 72 47 71 48 30 50 60 51 41 52 59 53 42 54 45 55
REMARK SMILES IDX 58 56 76 57 43 58 44 59 57 61 77 62 46 63 31 64 32 65 40 66
REMARK SMILES IDX 33 67 39 68 34 69 35 70 36 71 37 72 38 73 61 74 62 75 70 76
REMARK SMILES IDX 63 77 69 78 64 79 65 80 66 81 67 82 68 83 47 84 48 85 56 86
REMARK SMILES IDX 49 87 55 88 50 89 51 90 52 91 53 92 54 93
REMARK H PARENT 86 27 75 49 45 60
REMARK Flexibility Score: inf
ROOT
ATOM      1  C   UNL     1       1.035   3.133   9.965  1.00  0.00     0.202 C 
ENDROOT
BRANCH   1   2
ATOM      2  O   UNL     1       2.000   3.698  10.847  1.00  0.00    -0.374 OA
BRANCH   2   3
ATOM      3  C   UNL     1       2.569   4.957  10.488  1.00  0.00     0.202 C 
BRANCH   3   4
ATOM      4  C   UNL     1       3.569   4.982   9.326  1.00  0.00     0.261 C 
BRANCH   4   5
ATOM      5  O   UNL     1       2.972   4.545   8.092  1.00  0.00    -0.460 OA
BRANCH   5   6
ATOM      6  C   UNL     1       3.516   3.417   7.566  1.00  0.00     0.338 C 
ATOM      7  O   UNL     1       4.524   2.855   7.974  1.00  0.00    -0.246 OA
BRANCH   6   8
ATOM      8  C   UNL     1       2.663   2.830   6.482  1.00  0.00     0.067 C 
ATOM      9  C   UNL     1       1.998   3.628   5.612  1.00  0.00     0.024 C 
BRANCH   9  10
ATOM     10  C   UNL     1       1.314   3.236   4.351  1.00  0.00    -0.025 A 
ATOM     11  C   UNL     1       0.457   2.452   1.785  1.00  0.00     0.067 A 
ATOM     12  C   UNL     1       0.283   1.592   2.865  1.00  0.00     0.021 A 
ATOM     13  C   UNL     1       0.946   3.743   1.990  1.00  0.00     0.021 A 
ATOM     14  C   UNL     1       0.680   2.002   4.142  1.00  0.00     0.009 A 
ATOM     15  C   UNL     1       1.368   4.129   3.269  1.00  0.00     0.009 A 
BRANCH  11  16
ATOM     16  S   UNL     1       0.114   1.883   0.138  1.00  0.00     0.175 S 
ATOM     17  C   UNL     1       0.917   0.304   0.018  1.00  0.00     0.163 C 
ATOM     18  O   UNL     1       0.800   2.769  -0.784  1.00  0.00    -0.224 OA
ATOM     19  O   UNL     1      -1.317   1.670   0.052  1.00  0.00    -0.224 OA
ENDBRANCH  11  16
ENDBRANCH   9  10
BRANCH   8  20
ATOM     20  C   UNL     1       2.670   1.356   6.388  1.00  0.00    -0.011 A 
ATOM     21  C   UNL     1       1.831   0.607   7.230  1.00  0.00     0.013 A 
ATOM     22  C   UNL     1       3.452   0.695   5.435  1.00  0.00     0.013 A 
ATOM     23  C   UNL     1       1.744  -0.777   7.093  1.00  0.00     0.047 A 
ATOM     24  C   UNL     1       3.359  -0.691   5.293  1.00  0.00     0.047 A 
ATOM     25  C   UNL     1       2.496  -1.411   6.115  1.00  0.00     0.115 A 
BRANCH  25  26
ATOM     26  O   UNL     1       2.346  -2.759   5.981  1.00  0.00    -0.508 OA
ATOM     27  H   UNL     1       1.760  -3.224   6.545  1.00  0.00     0.293 HD
ENDBRANCH  25  26
ENDBRANCH   8  20
ENDBRANCH   6   8
ENDBRANCH   5   6
ENDBRANCH   4   5
ENDBRANCH   3   4
ENDBRANCH   2   3
ENDBRANCH   1   2
BRANCH   1  28
ATOM     28  C   UNL     1      -0.387   3.706   9.968  1.00  0.00     0.261 C 
BRANCH  28  29
ATOM     29  O   UNL     1      -0.434   5.112   9.697  1.00  0.00    -0.460 OA
BRANCH  29  30
ATOM     30  C   UNL     1      -0.637   5.882  10.793  1.00  0.00     0.338 C 
ATOM     31  O   UNL     1      -0.831   5.500  11.940  1.00  0.00    -0.246 OA
BRANCH  30  32
ATOM     32  C   UNL     1      -0.410   7.296  10.452  1.00  0.00     0.060 A 
ATOM     33  C   UNL     1       0.514   8.011  11.226  1.00  0.00     0.016 A 
ATOM     34  C   UNL     1      -1.121   7.923   9.428  1.00  0.00     0.016 A 
ATOM     35  C   UNL     1       0.702   9.372  11.003  1.00  0.00     0.010 A 
ATOM     36  C   UNL     1      -0.938   9.291   9.213  1.00  0.00     0.010 A 
ATOM     37  C   UNL     1      -0.050  10.026  10.020  1.00  0.00    -0.014 A 
BRANCH  37  38
ATOM     38  C   UNL     1      -0.007  11.504   9.920  1.00  0.00     0.031 A 
ATOM     39  C   UNL     1      -1.137  12.306  10.504  1.00  0.00     0.074 A 
ATOM     40  C   UNL     1       1.029  12.119   9.324  1.00  0.00     0.049 A 
ATOM     41  N   UNL     1      -1.333  13.598  10.479  1.00  0.00    -0.248 NA
ATOM     42  C   UNL     1      -2.188  11.550  11.206  1.00  0.00     0.031 C 
ATOM     43  C   UNL     1       2.201  11.448   8.761  1.00  0.00     0.029 A 
ATOM     44  N   UNL     1       1.257  13.450   9.086  1.00  0.00    -0.354 N 
ATOM     45  C   UNL     1      -2.533  13.810  11.148  1.00  0.00     0.074 A 
ATOM     46  C   UNL     1      -3.034  12.512  11.543  1.00  0.00     0.031 C 
ATOM     47  C   UNL     1       3.021  12.373   8.233  1.00  0.00     0.029 A 
ATOM     48  C   UNL     1       2.414  13.694   8.386  1.00  0.00     0.049 A 
ATOM     49  H   UNL     1       0.649  14.164   9.388  1.00  0.00     0.167 HD
ATOM     50  C   UNL     1      -3.158  14.982  11.412  1.00  0.00     0.031 A 
ATOM     51  C   UNL     1       2.914  14.848   7.902  1.00  0.00     0.031 A 
ATOM     52  C   UNL     1      -2.659  16.269  11.003  1.00  0.00     0.049 A 
ATOM     53  C   UNL     1       2.163  16.131   8.144  1.00  0.00     0.074 A 
ATOM     54  C   UNL     1      -3.208  17.518  11.235  1.00  0.00     0.029 A 
ATOM     55  N   UNL     1      -1.499  16.472  10.270  1.00  0.00    -0.354 N 
ATOM     56  N   UNL     1       1.041  16.320   8.798  1.00  0.00    -0.248 NA
ATOM     57  C   UNL     1       2.751  17.358   7.589  1.00  0.00     0.031 C 
ATOM     58  C   UNL     1      -2.413  18.470  10.589  1.00  0.00     0.029 A 
ATOM     59  C   UNL     1      -1.330  17.822  10.015  1.00  0.00     0.049 A 
ATOM     60  H   UNL     1      -0.886  15.760   9.974  1.00  0.00     0.167 HD
ATOM     61  C   UNL     1       0.805  17.691   8.760  1.00  0.00     0.074 A 
ATOM     62  C   UNL     1       1.908  18.283   8.029  1.00  0.00     0.031 C 
ATOM     63  C   UNL     1      -0.227  18.396   9.286  1.00  0.00     0.031 A 
BRANCH  50  64
ATOM     64  C   UNL     1      -4.473  14.923  12.145  1.00  0.00    -0.014 A 
ATOM     65  C   UNL     1      -4.538  14.563  13.504  1.00  0.00     0.010 A 
ATOM     66  C   UNL     1      -5.659  15.271  11.473  1.00  0.00     0.010 A 
ATOM     67  C   UNL     1      -5.768  14.517  14.165  1.00  0.00     0.020 A 
ATOM     68  C   UNL     1      -6.888  15.254  12.139  1.00  0.00     0.020 A 
ATOM     69  C   UNL     1      -6.936  14.861  13.478  1.00  0.00     0.054 A 
BRANCH  69  70
ATOM     70  S   UNL     1      -8.516  14.815  14.368  1.00  0.00     0.124 S 
ATOM     71  O   UNL     1      -8.730  13.379  14.527  1.00  0.00    -0.237 OA
ATOM     72  O   UNL     1      -8.211  15.543  15.597  1.00  0.00    -0.237 OA
ATOM     73  O   UNL     1      -9.445  15.487  13.463  1.00  0.00    -0.744 OA
ENDBRANCH  69  70
ENDBRANCH  50  64
BRANCH  51  74
ATOM     74  C   UNL     1       4.182  14.839   7.123  1.00  0.00    -0.014 A 
ATOM     75  C   UNL     1       5.350  15.421   7.645  1.00  0.00     0.010 A 
ATOM     76  C   UNL     1       4.229  14.238   5.852  1.00  0.00     0.010 A 
ATOM     77  C   UNL     1       6.536  15.417   6.904  1.00  0.00     0.020 A 
ATOM     78  C   UNL     1       5.419  14.204   5.121  1.00  0.00     0.020 A 
ATOM     79  C   UNL     1       6.564  14.804   5.648  1.00  0.00     0.054 A 
BRANCH  79  80
ATOM     80  S   UNL     1       8.128  14.761   4.730  1.00  0.00     0.124 S 
ATOM     81  O   UNL     1       8.271  16.151   4.309  1.00  0.00    -0.237 OA
ATOM     82  O   UNL     1       9.075  14.305   5.745  1.00  0.00    -0.237 OA
ATOM     83  O   UNL     1       7.868  13.804   3.657  1.00  0.00    -0.744 OA
ENDBRANCH  79  80
ENDBRANCH  51  74
BRANCH  63  84
ATOM     84  C   UNL     1      -0.197  19.895   9.131  1.00  0.00    -0.014 A 
ATOM     85  C   UNL     1      -0.420  20.509   7.886  1.00  0.00     0.010 A 
ATOM     86  C   UNL     1       0.001  20.702  10.267  1.00  0.00     0.010 A 
ATOM     87  C   UNL     1      -0.412  21.903   7.775  1.00  0.00     0.020 A 
ATOM     88  C   UNL     1      -0.022  22.095  10.165  1.00  0.00     0.020 A 
ATOM     89  C   UNL     1      -0.214  22.687   8.916  1.00  0.00     0.054 A 
BRANCH  89  90
ATOM     90  S   UNL     1      -0.253  24.493   8.751  1.00  0.00     0.124 S 
ATOM     91  O   UNL     1       1.010  24.763   8.070  1.00  0.00    -0.237 OA
ATOM     92  O   UNL     1      -1.457  24.716   7.955  1.00  0.00    -0.237 OA
ATOM     93  O   UNL     1      -0.330  24.966  10.132  1.00  0.00    -0.744 OA
ENDBRANCH  89  90
ENDBRANCH  63  84
ENDBRANCH  37  38
ENDBRANCH  30  32
ENDBRANCH  29  30
ENDBRANCH  28  29
ENDBRANCH   1  28
TORSDOF 21
