REMARK SMILES Cn1nc(N2CCC(CC(=O)OCCOCCOC(=O)c3ccc(-c4c5nc(c(-c6ccc(S(=O)(=O)[O-])cc6)c6ccc([nH]6)c(-c6ccc(S(=O)(=O)[O-])cc6)c6nc(c(-c7ccc(S(=O)(=O)[O-])cc7)c7ccc4[nH]7)C=C6)C=C5)cc3)CC2)c(=O)n(C)c1=O
REMARK SMILES IDX 16 1 15 2 14 3 13 4 12 5 10 6 11 7 9 8 8 9 5 10 6 11 82 12
REMARK SMILES IDX 7 13 81 14 4 15 1 16 2 17 3 18 87 19 85 20 88 21 83 22 86 23
REMARK SMILES IDX 84 24 17 25 18 26 19 27 20 28 21 29 22 30 80 31 23 32 79 33
REMARK SMILES IDX 24 34 25 35 26 36 73 37 27 38 78 39 72 40 74 41 28 42 77 43
REMARK SMILES IDX 71 44 70 45 29 47 59 48 40 49 58 50 41 51 44 52 57 53 75 54
REMARK SMILES IDX 42 55 43 56 56 58 76 59 45 60 30 61 31 62 39 63 32 64 38 65
REMARK SMILES IDX 33 66 34 67 35 68 36 69 37 70 60 71 61 72 69 73 62 74 68 75
REMARK SMILES IDX 63 76 64 77 65 78 66 79 67 80 46 81 47 82 55 83 48 84 54 85
REMARK SMILES IDX 49 86 50 87 51 88 52 89 53 90
REMARK H PARENT 74 46 44 57
REMARK Flexibility Score: inf
ROOT
ATOM      1  C   UNL     1      -6.581   1.906   6.518  1.00  0.00     0.202 C 
ENDROOT
BRANCH   1   2
ATOM      2  O   UNL     1      -6.944   0.742   7.256  1.00  0.00    -0.374 OA
BRANCH   2   3
ATOM      3  C   UNL     1      -6.031  -0.355   7.233  1.00  0.00     0.202 C 
BRANCH   3   4
ATOM      4  C   UNL     1      -6.039  -1.216   5.967  1.00  0.00     0.261 C 
BRANCH   4   5
ATOM      5  O   UNL     1      -5.484  -0.500   4.848  1.00  0.00    -0.463 OA
BRANCH   5   6
ATOM      6  C   UNL     1      -6.331  -0.202   3.834  1.00  0.00     0.306 C 
ATOM      7  O   UNL     1      -7.505  -0.549   3.775  1.00  0.00    -0.252 OA
BRANCH   6   8
ATOM      8  C   UNL     1      -5.666   0.589   2.725  1.00  0.00     0.126 C 
BRANCH   8   9
ATOM      9  C   UNL     1      -4.653   1.691   3.106  1.00  0.00     0.003 C 
ATOM     10  N   UNL     1      -2.120   2.963   2.515  1.00  0.00    -0.351 N 
ATOM     11  C   UNL     1      -2.240   2.193   3.743  1.00  0.00     0.118 C 
ATOM     12  C   UNL     1      -3.331   3.647   2.091  1.00  0.00     0.118 C 
ATOM     13  C   UNL     1      -3.307   1.115   3.586  1.00  0.00     0.026 C 
ATOM     14  C   UNL     1      -4.438   2.610   1.880  1.00  0.00     0.026 C 
BRANCH  10  15
ATOM     15  C   UNL     1      -1.042   2.783   1.655  1.00  0.00     0.215 A 
ATOM     16  C   UNL     1       0.874   0.080   0.266  1.00  0.00     0.180 C 
ATOM     17  N   UNL     1       0.490   1.448   0.568  1.00  0.00    -0.216 N 
ATOM     18  N   UNL     1      -0.577   1.591   1.411  1.00  0.00    -0.145 NA
ATOM     19  C   UNL     1       1.191   2.493  -0.025  1.00  0.00     0.346 A 
ATOM     20  N   UNL     1       0.760   3.767   0.284  1.00  0.00    -0.259 N 
ATOM     21  O   UNL     1       2.128   2.292  -0.800  1.00  0.00    -0.246 OA
ATOM     22  C   UNL     1      -0.378   4.013   1.022  1.00  0.00     0.299 A 
ATOM     23  C   UNL     1       1.483   4.913  -0.226  1.00  0.00     0.159 C 
ATOM     24  O   UNL     1      -0.859   5.128   1.208  1.00  0.00    -0.265 OA
ENDBRANCH  10  15
ENDBRANCH   8   9
ENDBRANCH   6   8
ENDBRANCH   5   6
ENDBRANCH   4   5
ENDBRANCH   3   4
ENDBRANCH   2   3
ENDBRANCH   1   2
BRANCH   1  25
ATOM     25  C   UNL     1      -5.550   2.838   7.169  1.00  0.00     0.261 C 
BRANCH  25  26
ATOM     26  O   UNL     1      -4.251   2.227   7.283  1.00  0.00    -0.460 OA
BRANCH  26  27
ATOM     27  C   UNL     1      -3.882   1.925   8.552  1.00  0.00     0.338 C 
ATOM     28  O   UNL     1      -4.495   2.189   9.579  1.00  0.00    -0.246 OA
BRANCH  27  29
ATOM     29  C   UNL     1      -2.700   1.045   8.546  1.00  0.00     0.060 A 
ATOM     30  C   UNL     1      -2.800  -0.172   9.232  1.00  0.00     0.016 A 
ATOM     31  C   UNL     1      -1.494   1.426   7.953  1.00  0.00     0.016 A 
ATOM     32  C   UNL     1      -1.683  -0.993   9.368  1.00  0.00     0.010 A 
ATOM     33  C   UNL     1      -0.369   0.604   8.100  1.00  0.00     0.010 A 
ATOM     34  C   UNL     1      -0.450  -0.592   8.837  1.00  0.00    -0.014 A 
BRANCH  34  35
ATOM     35  C   UNL     1       0.773  -1.356   9.191  1.00  0.00     0.031 A 
ATOM     36  C   UNL     1       1.656  -0.844  10.300  1.00  0.00     0.074 A 
ATOM     37  C   UNL     1       1.057  -2.527   8.589  1.00  0.00     0.049 A 
ATOM     38  N   UNL     1       2.763  -1.353  10.776  1.00  0.00    -0.248 NA
ATOM     39  C   UNL     1       1.231   0.399  10.968  1.00  0.00     0.031 C 
ATOM     40  C   UNL     1       0.244  -3.165   7.553  1.00  0.00     0.029 A 
ATOM     41  N   UNL     1       2.103  -3.396   8.776  1.00  0.00    -0.354 N 
ATOM     42  C   UNL     1       3.161  -0.502  11.802  1.00  0.00     0.074 A 
ATOM     43  C   UNL     1       2.199   0.576  11.857  1.00  0.00     0.031 C 
ATOM     44  C   UNL     1       0.818  -4.330   7.205  1.00  0.00     0.029 A 
ATOM     45  C   UNL     1       2.054  -4.505   7.964  1.00  0.00     0.049 A 
ATOM     46  H   UNL     1       2.821  -3.240   9.431  1.00  0.00     0.167 HD
ATOM     47  C   UNL     1       4.221  -0.618  12.634  1.00  0.00     0.031 A 
ATOM     48  C   UNL     1       2.914  -5.537   7.840  1.00  0.00     0.031 A 
ATOM     49  C   UNL     1       5.183  -1.686  12.579  1.00  0.00     0.049 A 
ATOM     50  C   UNL     1       4.151  -5.575   8.702  1.00  0.00     0.074 A 
ATOM     51  C   UNL     1       6.301  -1.875  13.372  1.00  0.00     0.029 A 
ATOM     52  N   UNL     1       5.140  -2.746  11.688  1.00  0.00    -0.354 N 
ATOM     53  N   UNL     1       4.515  -4.757   9.661  1.00  0.00    -0.248 NA
ATOM     54  C   UNL     1       5.094  -6.680   8.466  1.00  0.00     0.031 C 
ATOM     55  C   UNL     1       6.962  -3.023  12.928  1.00  0.00     0.029 A 
ATOM     56  C   UNL     1       6.223  -3.581  11.899  1.00  0.00     0.049 A 
ATOM     57  H   UNL     1       4.442  -2.884  11.007  1.00  0.00     0.167 HD
ATOM     58  C   UNL     1       5.709  -5.268  10.162  1.00  0.00     0.074 A 
ATOM     59  C   UNL     1       6.000  -6.471   9.411  1.00  0.00     0.031 C 
ATOM     60  C   UNL     1       6.494  -4.784  11.155  1.00  0.00     0.031 A 
BRANCH  47  61
ATOM     61  C   UNL     1       4.411   0.438  13.690  1.00  0.00    -0.014 A 
ATOM     62  C   UNL     1       3.596   0.461  14.835  1.00  0.00     0.010 A 
ATOM     63  C   UNL     1       5.483   1.343  13.591  1.00  0.00     0.010 A 
ATOM     64  C   UNL     1       3.849   1.373  15.862  1.00  0.00     0.020 A 
ATOM     65  C   UNL     1       5.753   2.242  14.627  1.00  0.00     0.020 A 
ATOM     66  C   UNL     1       4.931   2.252  15.756  1.00  0.00     0.054 A 
BRANCH  66  67
ATOM     67  S   UNL     1       5.279   3.369  17.142  1.00  0.00     0.124 S 
ATOM     68  O   UNL     1       4.139   4.280  17.090  1.00  0.00    -0.237 OA
ATOM     69  O   UNL     1       5.304   2.459  18.284  1.00  0.00    -0.237 OA
ATOM     70  O   UNL     1       6.567   3.965  16.795  1.00  0.00    -0.744 OA
ENDBRANCH  66  67
ENDBRANCH  47  61
BRANCH  48  71
ATOM     71  C   UNL     1       2.660  -6.619   6.848  1.00  0.00    -0.014 A 
ATOM     72  C   UNL     1       2.394  -7.933   7.274  1.00  0.00     0.010 A 
ATOM     73  C   UNL     1       2.730  -6.351   5.468  1.00  0.00     0.010 A 
ATOM     74  C   UNL     1       2.237  -8.963   6.341  1.00  0.00     0.020 A 
ATOM     75  C   UNL     1       2.544  -7.372   4.532  1.00  0.00     0.020 A 
ATOM     76  C   UNL     1       2.316  -8.676   4.976  1.00  0.00     0.054 A 
BRANCH  76  77
ATOM     77  S   UNL     1       2.100 -10.026   3.784  1.00  0.00     0.124 S 
ATOM     78  O   UNL     1       3.338 -10.780   3.951  1.00  0.00    -0.237 OA
ATOM     79  O   UNL     1       0.888 -10.682   4.269  1.00  0.00    -0.237 OA
ATOM     80  O   UNL     1       1.956  -9.334   2.505  1.00  0.00    -0.744 OA
ENDBRANCH  76  77
ENDBRANCH  48  71
BRANCH  60  81
ATOM     81  C   UNL     1       7.727  -5.565  11.525  1.00  0.00    -0.014 A 
ATOM     82  C   UNL     1       8.857  -5.577  10.690  1.00  0.00     0.010 A 
ATOM     83  C   UNL     1       7.785  -6.223  12.768  1.00  0.00     0.010 A 
ATOM     84  C   UNL     1      10.018  -6.248  11.085  1.00  0.00     0.020 A 
ATOM     85  C   UNL     1       8.953  -6.872  13.178  1.00  0.00     0.020 A 
ATOM     86  C   UNL     1      10.060  -6.887  12.328  1.00  0.00     0.054 A 
BRANCH  86  87
ATOM     87  S   UNL     1      11.602  -7.694  12.839  1.00  0.00     0.124 S 
ATOM     88  O   UNL     1      11.651  -8.850  11.948  1.00  0.00    -0.237 OA
ATOM     89  O   UNL     1      12.602  -6.661  12.585  1.00  0.00    -0.237 OA
ATOM     90  O   UNL     1      11.381  -8.006  14.250  1.00  0.00    -0.744 OA
ENDBRANCH  86  87
ENDBRANCH  60  81
ENDBRANCH  34  35
ENDBRANCH  27  29
ENDBRANCH  26  27
ENDBRANCH  25  26
ENDBRANCH   1  25
TORSDOF 19
