REMARK SMILES O=C(OCCOCCOC(=O)C1CCN(C(=O)CSCc2ccccc2)CC1)c1ccc(-c2c3nc(c(-c4ccc(S(=O)(=O)[O-])cc4)c4ccc([nH]4)c(-c4ccc(S(=O)(=O)[O-])cc4)c4nc(c(-c5ccc(S(=O)(=O)[O-])cc5)c5ccc2[nH]5)C=C4)C=C3)cc1
REMARK SMILES IDX 7 1 6 2 5 3 4 4 3 5 2 6 1 7 29 8 30 9 88 10 31 11 87 12
REMARK SMILES IDX 32 13 33 14 34 15 81 16 35 17 86 18 80 19 82 20 36 21 85 22
REMARK SMILES IDX 79 23 78 24 37 26 67 27 48 28 66 29 49 30 52 31 65 32 83 33
REMARK SMILES IDX 50 34 51 35 64 37 84 38 53 39 38 40 39 41 47 42 40 43 46 44
REMARK SMILES IDX 41 45 42 46 43 47 44 48 45 49 68 50 69 51 77 52 70 53 76 54
REMARK SMILES IDX 71 55 72 56 73 57 74 58 75 59 54 60 55 61 63 62 56 63 62 64
REMARK SMILES IDX 57 65 58 66 59 67 60 68 61 69 8 70 9 71 10 72 11 73 12 74
REMARK SMILES IDX 13 75 28 76 14 77 27 78 15 79 16 80 17 81 18 82 19 83 20 84
REMARK SMILES IDX 21 85 22 86 26 87 23 88 25 89 24 90
REMARK H PARENT 82 25 52 36
REMARK Flexibility Score: inf
ROOT
ATOM      1  C   UNL     1       2.491  -1.474  -0.933  1.00  0.00     0.202 C 
ENDROOT
BRANCH   1   2
ATOM      2  O   UNL     1       3.879  -1.177  -0.743  1.00  0.00    -0.374 OA
BRANCH   2   3
ATOM      3  C   UNL     1       4.387  -1.219   0.592  1.00  0.00     0.202 C 
BRANCH   3   4
ATOM      4  C   UNL     1       4.293   0.105   1.353  1.00  0.00     0.261 C 
BRANCH   4   5
ATOM      5  O   UNL     1       2.937   0.559   1.403  1.00  0.00    -0.460 OA
BRANCH   5   6
ATOM      6  C   UNL     1       2.289   1.278   0.458  1.00  0.00     0.338 C 
ATOM      7  O   UNL     1       1.065   1.376   0.541  1.00  0.00    -0.246 OA
BRANCH   6   8
ATOM      8  C   UNL     1       2.971   1.971  -0.682  1.00  0.00     0.060 A 
ATOM      9  C   UNL     1       4.154   1.561  -1.308  1.00  0.00     0.016 A 
ATOM     10  C   UNL     1       2.293   3.075  -1.219  1.00  0.00     0.016 A 
ATOM     11  C   UNL     1       4.653   2.198  -2.427  1.00  0.00     0.010 A 
ATOM     12  C   UNL     1       2.798   3.746  -2.331  1.00  0.00     0.010 A 
ATOM     13  C   UNL     1       3.985   3.304  -2.922  1.00  0.00    -0.014 A 
BRANCH  13  14
ATOM     14  C   UNL     1       4.680   4.105  -3.927  1.00  0.00     0.031 A 
ATOM     15  C   UNL     1       5.432   5.295  -3.434  1.00  0.00     0.074 A 
ATOM     16  C   UNL     1       4.703   3.699  -5.204  1.00  0.00     0.049 A 
ATOM     17  N   UNL     1       5.994   6.252  -4.111  1.00  0.00    -0.248 NA
ATOM     18  C   UNL     1       5.568   5.420  -1.970  1.00  0.00     0.031 C 
ATOM     19  C   UNL     1       4.131   2.446  -5.703  1.00  0.00     0.029 A 
ATOM     20  N   UNL     1       5.227   4.299  -6.312  1.00  0.00    -0.354 N 
ATOM     21  C   UNL     1       6.500   7.125  -3.158  1.00  0.00     0.074 A 
ATOM     22  C   UNL     1       6.195   6.578  -1.857  1.00  0.00     0.031 C 
ATOM     23  C   UNL     1       4.311   2.386  -7.032  1.00  0.00     0.029 A 
ATOM     24  C   UNL     1       4.937   3.627  -7.474  1.00  0.00     0.049 A 
ATOM     25  H   UNL     1       5.758   5.127  -6.281  1.00  0.00     0.167 HD
ATOM     26  C   UNL     1       7.133   8.298  -3.373  1.00  0.00     0.031 A 
ATOM     27  C   UNL     1       5.101   4.023  -8.749  1.00  0.00     0.031 A 
ATOM     28  C   UNL     1       7.369   8.803  -4.696  1.00  0.00     0.049 A 
ATOM     29  C   UNL     1       5.711   5.379  -8.976  1.00  0.00     0.074 A 
ATOM     30  C   UNL     1       7.938   9.999  -5.080  1.00  0.00     0.029 A 
ATOM     31  N   UNL     1       7.027   8.120  -5.860  1.00  0.00    -0.354 N 
ATOM     32  N   UNL     1       6.124   6.251  -8.082  1.00  0.00    -0.248 NA
ATOM     33  C   UNL     1       5.874   5.815 -10.365  1.00  0.00     0.031 C 
ATOM     34  C   UNL     1       7.884  10.065  -6.477  1.00  0.00     0.029 A 
ATOM     35  C   UNL     1       7.353   8.877  -6.966  1.00  0.00     0.049 A 
ATOM     36  H   UNL     1       6.613   7.228  -5.890  1.00  0.00     0.167 HD
ATOM     37  C   UNL     1       6.622   7.329  -8.798  1.00  0.00     0.074 A 
ATOM     38  C   UNL     1       6.456   6.997 -10.203  1.00  0.00     0.031 C 
ATOM     39  C   UNL     1       7.174   8.483  -8.345  1.00  0.00     0.031 A 
BRANCH  26  40
ATOM     40  C   UNL     1       7.465   9.124  -2.160  1.00  0.00    -0.014 A 
ATOM     41  C   UNL     1       8.423   8.710  -1.215  1.00  0.00     0.010 A 
ATOM     42  C   UNL     1       6.732  10.300  -1.917  1.00  0.00     0.010 A 
ATOM     43  C   UNL     1       8.586   9.415  -0.018  1.00  0.00     0.020 A 
ATOM     44  C   UNL     1       6.916  11.026  -0.737  1.00  0.00     0.020 A 
ATOM     45  C   UNL     1       7.821  10.561   0.218  1.00  0.00     0.054 A 
BRANCH  45  46
ATOM     46  S   UNL     1       8.016  11.431   1.798  1.00  0.00     0.124 S 
ATOM     47  O   UNL     1       7.358  10.516   2.728  1.00  0.00    -0.237 OA
ATOM     48  O   UNL     1       9.467  11.526   1.934  1.00  0.00    -0.237 OA
ATOM     49  O   UNL     1       7.328  12.701   1.582  1.00  0.00    -0.744 OA
ENDBRANCH  45  46
ENDBRANCH  26  40
BRANCH  27  50
ATOM     50  C   UNL     1       4.614   3.155  -9.855  1.00  0.00    -0.014 A 
ATOM     51  C   UNL     1       5.512   2.499 -10.712  1.00  0.00     0.010 A 
ATOM     52  C   UNL     1       3.234   2.910 -10.000  1.00  0.00     0.010 A 
ATOM     53  C   UNL     1       5.041   1.608 -11.684  1.00  0.00     0.020 A 
ATOM     54  C   UNL     1       2.760   2.001 -10.950  1.00  0.00     0.020 A 
ATOM     55  C   UNL     1       3.669   1.356 -11.790  1.00  0.00     0.054 A 
BRANCH  55  56
ATOM     56  S   UNL     1       3.091   0.130 -12.997  1.00  0.00     0.124 S 
ATOM     57  O   UNL     1       3.330   0.814 -14.264  1.00  0.00    -0.237 OA
ATOM     58  O   UNL     1       3.958  -1.014 -12.722  1.00  0.00    -0.237 OA
ATOM     59  O   UNL     1       1.686  -0.065 -12.645  1.00  0.00    -0.744 OA
ENDBRANCH  55  56
ENDBRANCH  27  50
BRANCH  39  60
ATOM     60  C   UNL     1       7.695   9.445  -9.374  1.00  0.00    -0.014 A 
ATOM     61  C   UNL     1       6.828  10.263 -10.114  1.00  0.00     0.010 A 
ATOM     62  C   UNL     1       9.087   9.623  -9.484  1.00  0.00     0.010 A 
ATOM     63  C   UNL     1       7.348  11.254 -10.948  1.00  0.00     0.020 A 
ATOM     64  C   UNL     1       9.607  10.630 -10.294  1.00  0.00     0.020 A 
ATOM     65  C   UNL     1       8.733  11.439 -11.021  1.00  0.00     0.054 A 
BRANCH  65  66
ATOM     66  S   UNL     1       9.376  12.808 -12.020  1.00  0.00     0.124 S 
ATOM     67  O   UNL     1       9.143  12.327 -13.379  1.00  0.00    -0.237 OA
ATOM     68  O   UNL     1       8.541  13.930 -11.598  1.00  0.00    -0.237 OA
ATOM     69  O   UNL     1      10.779  12.899 -11.623  1.00  0.00    -0.744 OA
ENDBRANCH  65  66
ENDBRANCH  39  60
ENDBRANCH  13  14
ENDBRANCH   6   8
ENDBRANCH   5   6
ENDBRANCH   4   5
ENDBRANCH   3   4
ENDBRANCH   2   3
ENDBRANCH   1   2
BRANCH   1  70
ATOM     70  C   UNL     1       2.342  -2.712  -1.811  1.00  0.00     0.261 C 
BRANCH  70  71
ATOM     71  O   UNL     1       2.954  -3.797  -1.112  1.00  0.00    -0.463 OA
BRANCH  71  72
ATOM     72  C   UNL     1       4.312  -3.827  -1.252  1.00  0.00     0.309 C 
ATOM     73  O   UNL     1       4.952  -3.325  -2.158  1.00  0.00    -0.252 OA
BRANCH  72  74
ATOM     74  C   UNL     1       4.901  -4.577  -0.076  1.00  0.00     0.103 C 
ATOM     75  C   UNL     1       6.427  -4.410  -0.009  1.00  0.00     0.037 C 
ATOM     76  C   UNL     1       4.501  -6.038  -0.222  1.00  0.00     0.037 C 
ATOM     77  C   UNL     1       7.150  -5.154  -1.136  1.00  0.00     0.120 C 
ATOM     78  C   UNL     1       5.166  -6.589  -1.478  1.00  0.00     0.120 C 
ATOM     79  N   UNL     1       6.613  -6.506  -1.300  1.00  0.00    -0.342 N 
ATOM     80  C   UNL     1       7.460  -7.597  -1.209  1.00  0.00     0.232 C 
ATOM     81  O   UNL     1       8.675  -7.465  -1.042  1.00  0.00    -0.274 OA
BRANCH  80  82
ATOM     82  C   UNL     1       6.853  -8.989  -1.316  1.00  0.00     0.169 C 
BRANCH  82  83
ATOM     83  S   UNL     1       5.737  -9.394   0.085  1.00  0.00    -0.147 SA
BRANCH  83  84
ATOM     84  C   UNL     1       6.814  -8.950   1.492  1.00  0.00     0.105 C 
BRANCH  84  85
ATOM     85  C   UNL     1       7.995  -9.874   1.583  1.00  0.00    -0.038 A 
ATOM     86  C   UNL     1       7.799 -11.261   1.683  1.00  0.00     0.004 A 
ATOM     87  C   UNL     1       9.300  -9.374   1.511  1.00  0.00     0.004 A 
ATOM     88  C   UNL     1       8.883 -12.132   1.652  1.00  0.00     0.000 A 
ATOM     89  C   UNL     1      10.386 -10.248   1.496  1.00  0.00     0.000 A 
ATOM     90  C   UNL     1      10.176 -11.625   1.555  1.00  0.00     0.000 A 
ENDBRANCH  84  85
ENDBRANCH  83  84
ENDBRANCH  82  83
ENDBRANCH  80  82
ENDBRANCH  72  74
ENDBRANCH  71  72
ENDBRANCH  70  71
ENDBRANCH   1  70
TORSDOF 21
