REMARK SMILES O=C(N[C@@H](C(=O)OCCOCCOC(=O)c1ccc(-c2c3nc(c(-c4ccc(S(=O)(=O)[O-])cc4)c4ccc([nH]4)c(-c4ccc(S(=O)(=O)[O-])cc4)c4nc(c(-c5ccc(S(=O)(=O)[O-])cc5)c5ccc2[nH]5)C=C4)C=C3)cc1)c1ccccc1)c1ccc(Br)nc1
REMARK SMILES IDX 11 1 10 2 9 3 8 4 7 5 5 6 6 7 4 8 3 9 1 10 2 11 82 13 83 14
REMARK SMILES IDX 88 15 84 16 87 17 85 18 86 19 76 20 77 21 81 22 78 23 80 24
REMARK SMILES IDX 79 25 12 26 13 27 14 28 15 29 16 30 17 31 75 32 18 33 74 34
REMARK SMILES IDX 19 35 20 36 21 37 68 38 22 39 73 40 67 41 69 42 23 43 72 44
REMARK SMILES IDX 66 45 65 46 24 48 54 49 35 50 53 51 36 52 39 53 52 54 70 55
REMARK SMILES IDX 37 56 38 57 51 59 71 60 40 61 25 62 26 63 34 64 27 65 33 66
REMARK SMILES IDX 28 67 29 68 30 69 31 70 32 71 55 72 56 73 64 74 57 75 63 76
REMARK SMILES IDX 58 77 59 78 60 79 61 80 62 81 41 82 42 83 50 84 43 85 49 86
REMARK SMILES IDX 44 87 45 88 46 89 47 90 48 91
REMARK H PARENT 3 12 69 47 39 58
REMARK Flexibility Score: inf
ROOT
ATOM      1  C   UNL     1       3.985   4.244   1.904  1.00  0.00     0.202 C 
ENDROOT
BRANCH   1   2
ATOM      2  O   UNL     1       5.012   5.016   1.284  1.00  0.00    -0.374 OA
BRANCH   2   3
ATOM      3  C   UNL     1       5.111   4.946  -0.141  1.00  0.00     0.202 C 
BRANCH   3   4
ATOM      4  C   UNL     1       5.796   3.701  -0.714  1.00  0.00     0.261 C 
BRANCH   4   5
ATOM      5  O   UNL     1       5.096   2.505  -0.329  1.00  0.00    -0.461 OA
BRANCH   5   6
ATOM      6  C   UNL     1       5.838   1.564   0.320  1.00  0.00     0.333 C 
ATOM      7  O   UNL     1       7.059   1.600   0.429  1.00  0.00    -0.249 OA
BRANCH   6   8
ATOM      8  C   UNL     1       4.961   0.448   0.946  1.00  0.00     0.223 C 
BRANCH   8   9
ATOM      9  N   UNL     1       3.505   0.605   0.763  1.00  0.00    -0.335 N 
ATOM     10  O   UNL     1       1.491   0.454  -0.229  1.00  0.00    -0.269 OA
ATOM     11  C   UNL     1       2.649   0.054  -0.151  1.00  0.00     0.253 C 
ATOM     12  H   UNL     1       3.076   1.209   1.411  1.00  0.00     0.165 HD
BRANCH  11  13
ATOM     13  C   UNL     1       3.099  -1.016  -1.048  1.00  0.00     0.058 A 
ATOM     14  C   UNL     1       2.907  -0.913  -2.423  1.00  0.00     0.018 A 
ATOM     15  C   UNL     1       3.672  -2.176  -0.553  1.00  0.00     0.126 A 
ATOM     16  C   UNL     1       3.389  -1.927  -3.251  1.00  0.00     0.037 A 
ATOM     17  N   UNL     1       4.170  -3.166  -1.329  1.00  0.00    -0.249 NA
ATOM     18  C   UNL     1       4.033  -3.011  -2.666  1.00  0.00     0.106 A 
ATOM     19  Br  UNL     1       4.779  -4.352  -3.777  1.00  0.00    -0.029 Br
ENDBRANCH  11  13
ENDBRANCH   8   9
BRANCH   8  20
ATOM     20  C   UNL     1       5.228   0.252   2.437  1.00  0.00    -0.014 A 
ATOM     21  C   UNL     1       5.054  -1.020   3.007  1.00  0.00     0.006 A 
ATOM     22  C   UNL     1       5.574   1.312   3.291  1.00  0.00     0.006 A 
ATOM     23  C   UNL     1       5.209  -1.224   4.379  1.00  0.00     0.000 A 
ATOM     24  C   UNL     1       5.723   1.110   4.665  1.00  0.00     0.000 A 
ATOM     25  C   UNL     1       5.537  -0.157   5.209  1.00  0.00     0.000 A 
ENDBRANCH   8  20
ENDBRANCH   6   8
ENDBRANCH   5   6
ENDBRANCH   4   5
ENDBRANCH   3   4
ENDBRANCH   2   3
ENDBRANCH   1   2
BRANCH   1  26
ATOM     26  C   UNL     1       2.550   4.777   1.848  1.00  0.00     0.261 C 
BRANCH  26  27
ATOM     27  O   UNL     1       2.050   4.857   0.507  1.00  0.00    -0.460 OA
BRANCH  27  28
ATOM     28  C   UNL     1       1.961   6.116   0.017  1.00  0.00     0.338 C 
ATOM     29  O   UNL     1       2.194   7.159   0.615  1.00  0.00    -0.246 OA
BRANCH  28  30
ATOM     30  C   UNL     1       1.732   6.066  -1.436  1.00  0.00     0.060 A 
ATOM     31  C   UNL     1       2.591   6.816  -2.250  1.00  0.00     0.016 A 
ATOM     32  C   UNL     1       0.678   5.337  -1.992  1.00  0.00     0.016 A 
ATOM     33  C   UNL     1       2.370   6.881  -3.622  1.00  0.00     0.010 A 
ATOM     34  C   UNL     1       0.451   5.413  -3.368  1.00  0.00     0.010 A 
ATOM     35  C   UNL     1       1.275   6.211  -4.182  1.00  0.00    -0.014 A 
BRANCH  35  36
ATOM     36  C   UNL     1       0.905   6.464  -5.593  1.00  0.00     0.031 A 
ATOM     37  C   UNL     1      -0.201   7.439  -5.887  1.00  0.00     0.074 A 
ATOM     38  C   UNL     1       1.562   5.853  -6.593  1.00  0.00     0.049 A 
ATOM     39  N   UNL     1      -0.716   7.782  -7.038  1.00  0.00    -0.248 NA
ATOM     40  C   UNL     1      -0.803   8.119  -4.728  1.00  0.00     0.031 C 
ATOM     41  C   UNL     1       2.688   4.934  -6.428  1.00  0.00     0.029 A 
ATOM     42  N   UNL     1       1.373   5.914  -7.950  1.00  0.00    -0.354 N 
ATOM     43  C   UNL     1      -1.708   8.711  -6.744  1.00  0.00     0.074 A 
ATOM     44  C   UNL     1      -1.742   8.855  -5.305  1.00  0.00     0.031 C 
ATOM     45  C   UNL     1       3.087   4.512  -7.641  1.00  0.00     0.029 A 
ATOM     46  C   UNL     1       2.220   5.100  -8.661  1.00  0.00     0.049 A 
ATOM     47  H   UNL     1       0.693   6.487  -8.374  1.00  0.00     0.167 HD
ATOM     48  C   UNL     1      -2.515   9.385  -7.597  1.00  0.00     0.031 A 
ATOM     49  C   UNL     1       2.275   4.843  -9.982  1.00  0.00     0.031 A 
ATOM     50  C   UNL     1      -2.491   9.217  -9.026  1.00  0.00     0.049 A 
ATOM     51  C   UNL     1       1.301   5.530 -10.904  1.00  0.00     0.074 A 
ATOM     52  C   UNL     1      -3.265   9.851  -9.981  1.00  0.00     0.029 A 
ATOM     53  N   UNL     1      -1.654   8.343  -9.704  1.00  0.00    -0.354 N 
ATOM     54  N   UNL     1       0.376   6.415 -10.614  1.00  0.00    -0.248 NA
ATOM     55  C   UNL     1       1.382   5.187 -12.330  1.00  0.00     0.031 C 
ATOM     56  C   UNL     1      -2.937   9.317 -11.232  1.00  0.00     0.029 A 
ATOM     57  C   UNL     1      -1.912   8.399 -11.063  1.00  0.00     0.049 A 
ATOM     58  H   UNL     1      -0.976   7.768  -9.281  1.00  0.00     0.167 HD
ATOM     59  C   UNL     1      -0.216   6.755 -11.826  1.00  0.00     0.074 A 
ATOM     60  C   UNL     1       0.463   5.989 -12.851  1.00  0.00     0.031 C 
ATOM     61  C   UNL     1      -1.227   7.626 -12.069  1.00  0.00     0.031 A 
BRANCH  48  62
ATOM     62  C   UNL     1      -3.518  10.335  -6.997  1.00  0.00    -0.014 A 
ATOM     63  C   UNL     1      -3.114  11.540  -6.395  1.00  0.00     0.010 A 
ATOM     64  C   UNL     1      -4.890  10.027  -7.053  1.00  0.00     0.010 A 
ATOM     65  C   UNL     1      -4.057  12.397  -5.820  1.00  0.00     0.020 A 
ATOM     66  C   UNL     1      -5.839  10.894  -6.505  1.00  0.00     0.020 A 
ATOM     67  C   UNL     1      -5.414  12.065  -5.875  1.00  0.00     0.054 A 
BRANCH  67  68
ATOM     68  S   UNL     1      -6.618  13.198  -5.128  1.00  0.00     0.124 S 
ATOM     69  O   UNL     1      -6.381  12.989  -3.701  1.00  0.00    -0.237 OA
ATOM     70  O   UNL     1      -6.202  14.497  -5.649  1.00  0.00    -0.237 OA
ATOM     71  O   UNL     1      -7.904  12.714  -5.622  1.00  0.00    -0.744 OA
ENDBRANCH  67  68
ENDBRANCH  48  62
BRANCH  49  72
ATOM     72  C   UNL     1       3.276   3.876 -10.510  1.00  0.00    -0.014 A 
ATOM     73  C   UNL     1       4.349   4.318 -11.302  1.00  0.00     0.010 A 
ATOM     74  C   UNL     1       3.165   2.505 -10.212  1.00  0.00     0.010 A 
ATOM     75  C   UNL     1       5.287   3.406 -11.796  1.00  0.00     0.020 A 
ATOM     76  C   UNL     1       4.116   1.595 -10.680  1.00  0.00     0.020 A 
ATOM     77  C   UNL     1       5.167   2.050 -11.477  1.00  0.00     0.054 A 
BRANCH  77  78
ATOM     78  S   UNL     1       6.430   0.894 -12.077  1.00  0.00     0.124 S 
ATOM     79  O   UNL     1       6.115   0.813 -13.500  1.00  0.00    -0.237 OA
ATOM     80  O   UNL     1       7.672   1.585 -11.741  1.00  0.00    -0.237 OA
ATOM     81  O   UNL     1       6.173  -0.321 -11.307  1.00  0.00    -0.744 OA
ENDBRANCH  77  78
ENDBRANCH  49  72
BRANCH  61  82
ATOM     82  C   UNL     1      -1.642   7.827 -13.503  1.00  0.00    -0.014 A 
ATOM     83  C   UNL     1      -2.357   6.839 -14.202  1.00  0.00     0.010 A 
ATOM     84  C   UNL     1      -1.367   9.053 -14.137  1.00  0.00     0.010 A 
ATOM     85  C   UNL     1      -2.768   7.065 -15.519  1.00  0.00     0.020 A 
ATOM     86  C   UNL     1      -1.802   9.294 -15.443  1.00  0.00     0.020 A 
ATOM     87  C   UNL     1      -2.490   8.292 -16.130  1.00  0.00     0.054 A 
BRANCH  87  88
ATOM     88  S   UNL     1      -3.082   8.580 -17.820  1.00  0.00     0.124 S 
ATOM     89  O   UNL     1      -2.182   7.739 -18.605  1.00  0.00    -0.237 OA
ATOM     90  O   UNL     1      -4.469   8.126 -17.754  1.00  0.00    -0.237 OA
ATOM     91  O   UNL     1      -2.912  10.019 -18.007  1.00  0.00    -0.744 OA
ENDBRANCH  87  88
ENDBRANCH  61  82
ENDBRANCH  35  36
ENDBRANCH  28  30
ENDBRANCH  27  28
ENDBRANCH  26  27
ENDBRANCH   1  26
TORSDOF 20
