REMARK SMILES CC[NH+]1CCN(c2ccc(NC(=O)C3CCCC3)c(C(=O)OCCOCCOC(=O)c3ccc(-c4c5nc(c(-c6ccc(S(=O)(=O)[O-])cc6)c6ccc([nH]6)c(-c6ccc(S(=O)(=O)[O-])cc6)c6nc(c(-c7ccc(S(=O)(=O)[O-])cc7)c7ccc4[nH]7)C=C6)C=C5)cc3)c2)CC1
REMARK SMILES IDX 26 1 25 2 24 3 23 4 22 5 20 6 21 7 19 8 7 9 8 10 91 11 9 12
REMARK SMILES IDX 10 13 6 14 3 15 4 16 93 17 5 19 92 20 2 21 1 22 11 23 12 24
REMARK SMILES IDX 13 26 14 27 15 28 18 29 16 30 17 31 27 32 28 33 29 34 30 35
REMARK SMILES IDX 31 36 32 37 90 38 33 39 89 40 34 41 35 42 36 43 83 44 37 45
REMARK SMILES IDX 88 46 82 47 84 48 38 49 87 50 81 51 80 52 39 54 69 55 50 56
REMARK SMILES IDX 68 57 51 58 54 59 67 60 85 61 52 62 53 63 66 65 86 66 55 67
REMARK SMILES IDX 40 68 41 69 49 70 42 71 48 72 43 73 44 74 45 75 46 76 47 77
REMARK SMILES IDX 70 78 71 79 79 80 72 81 78 82 73 83 74 84 75 85 76 86 77 87
REMARK SMILES IDX 56 88 57 89 65 90 58 91 64 92 59 93 60 94 61 95 62 96 63 97
REMARK H PARENT 3 18 11 25 84 53 54 64
REMARK Flexibility Score: inf
ROOT
ATOM      1  C   UNL     1       6.352  -6.029  -4.371  1.00  0.00     0.202 C 
ENDROOT
BRANCH   1   2
ATOM      2  O   UNL     1       6.016  -7.295  -4.941  1.00  0.00    -0.374 OA
BRANCH   2   3
ATOM      3  C   UNL     1       4.656  -7.461  -5.354  1.00  0.00     0.202 C 
BRANCH   3   4
ATOM      4  C   UNL     1       3.693  -7.884  -4.237  1.00  0.00     0.261 C 
BRANCH   4   5
ATOM      5  O   UNL     1       3.458  -6.776  -3.348  1.00  0.00    -0.460 OA
BRANCH   5   6
ATOM      6  C   UNL     1       3.915  -6.912  -2.078  1.00  0.00     0.340 C 
ATOM      7  O   UNL     1       4.311  -7.933  -1.549  1.00  0.00    -0.246 OA
BRANCH   6   8
ATOM      8  C   UNL     1       4.142  -5.552  -1.518  1.00  0.00     0.085 A 
ATOM      9  C   UNL     1       3.485  -3.183  -1.468  1.00  0.00     0.038 A 
ATOM     10  C   UNL     1       4.730  -2.931  -0.885  1.00  0.00     0.028 A 
ATOM     11  C   UNL     1       3.224  -4.518  -1.807  1.00  0.00     0.043 A 
ATOM     12  C   UNL     1       5.643  -3.950  -0.599  1.00  0.00     0.029 A 
ATOM     13  C   UNL     1       5.340  -5.281  -0.829  1.00  0.00     0.055 A 
BRANCH   9  14
ATOM     14  N   UNL     1       2.596  -2.160  -1.773  1.00  0.00    -0.360 N 
ATOM     15  N   UNL     1       0.703   0.036  -2.374  1.00  0.00    -0.332 N 
ATOM     16  C   UNL     1       2.147   0.160  -2.584  1.00  0.00     0.283 C 
ATOM     17  C   UNL     1       0.291  -1.375  -2.369  1.00  0.00     0.283 C 
ATOM     18  H   UNL     1       0.254   0.453  -3.190  1.00  0.00     0.348 HD
ATOM     19  C   UNL     1       3.047  -0.757  -1.736  1.00  0.00     0.178 C 
ATOM     20  C   UNL     1       1.152  -2.353  -1.531  1.00  0.00     0.178 C 
BRANCH  15  21
ATOM     21  C   UNL     1       0.135   0.883  -1.332  1.00  0.00     0.258 C 
ATOM     22  C   UNL     1       0.344   0.488   0.123  1.00  0.00     0.071 C 
ENDBRANCH  15  21
ENDBRANCH   9  14
BRANCH  13  23
ATOM     23  N   UNL     1       6.229  -6.319  -0.488  1.00  0.00    -0.325 N 
ATOM     24  C   UNL     1       7.264  -6.465   0.377  1.00  0.00     0.227 C 
ATOM     25  H   UNL     1       6.057  -7.140  -1.004  1.00  0.00     0.169 HD
ATOM     26  O   UNL     1       7.960  -7.482   0.230  1.00  0.00    -0.274 OA
BRANCH  24  27
ATOM     27  C   UNL     1       7.640  -5.522   1.518  1.00  0.00     0.079 C 
ATOM     28  C   UNL     1       8.720  -4.505   1.153  1.00  0.00     0.013 C 
ATOM     29  C   UNL     1       6.561  -4.772   2.307  1.00  0.00     0.013 C 
ATOM     30  C   UNL     1       8.563  -3.410   2.198  1.00  0.00     0.001 C 
ATOM     31  C   UNL     1       7.066  -3.334   2.455  1.00  0.00     0.001 C 
ENDBRANCH  24  27
ENDBRANCH  13  23
ENDBRANCH   6   8
ENDBRANCH   5   6
ENDBRANCH   4   5
ENDBRANCH   3   4
ENDBRANCH   2   3
ENDBRANCH   1   2
BRANCH   1  32
ATOM     32  C   UNL     1       6.738  -4.932  -5.367  1.00  0.00     0.261 C 
BRANCH  32  33
ATOM     33  O   UNL     1       5.606  -4.519  -6.152  1.00  0.00    -0.460 OA
BRANCH  33  34
ATOM     34  C   UNL     1       5.618  -4.952  -7.435  1.00  0.00     0.338 C 
ATOM     35  O   UNL     1       6.514  -5.557  -8.000  1.00  0.00    -0.246 OA
BRANCH  34  36
ATOM     36  C   UNL     1       4.292  -4.739  -8.047  1.00  0.00     0.060 A 
ATOM     37  C   UNL     1       3.711  -5.825  -8.712  1.00  0.00     0.016 A 
ATOM     38  C   UNL     1       3.655  -3.496  -8.027  1.00  0.00     0.016 A 
ATOM     39  C   UNL     1       2.512  -5.660  -9.403  1.00  0.00     0.010 A 
ATOM     40  C   UNL     1       2.455  -3.330  -8.729  1.00  0.00     0.010 A 
ATOM     41  C   UNL     1       1.896  -4.403  -9.446  1.00  0.00    -0.014 A 
BRANCH  41  42
ATOM     42  C   UNL     1       0.738  -4.185 -10.347  1.00  0.00     0.031 A 
ATOM     43  C   UNL     1       0.962  -3.523 -11.680  1.00  0.00     0.074 A 
ATOM     44  C   UNL     1      -0.494  -4.590  -9.990  1.00  0.00     0.049 A 
ATOM     45  N   UNL     1       0.090  -3.210 -12.603  1.00  0.00    -0.248 NA
ATOM     46  C   UNL     1       2.350  -3.168 -12.017  1.00  0.00     0.031 C 
ATOM     47  C   UNL     1      -0.832  -5.274  -8.741  1.00  0.00     0.029 A 
ATOM     48  N   UNL     1      -1.695  -4.477 -10.646  1.00  0.00    -0.354 N 
ATOM     49  C   UNL     1       0.819  -2.611 -13.624  1.00  0.00     0.074 A 
ATOM     50  C   UNL     1       2.202  -2.585 -13.199  1.00  0.00     0.031 C 
ATOM     51  C   UNL     1      -2.155  -5.507  -8.716  1.00  0.00     0.029 A 
ATOM     52  C   UNL     1      -2.762  -4.962  -9.929  1.00  0.00     0.049 A 
ATOM     53  H   UNL     1      -1.782  -4.086 -11.545  1.00  0.00     0.167 HD
ATOM     54  C   UNL     1       0.377  -2.128 -14.809  1.00  0.00     0.031 A 
ATOM     55  C   UNL     1      -4.081  -4.946 -10.207  1.00  0.00     0.031 A 
ATOM     56  C   UNL     1      -0.999  -2.151 -15.228  1.00  0.00     0.049 A 
ATOM     57  C   UNL     1      -4.554  -4.349 -11.507  1.00  0.00     0.074 A 
ATOM     58  C   UNL     1      -1.540  -1.712 -16.424  1.00  0.00     0.029 A 
ATOM     59  N   UNL     1      -2.052  -2.631 -14.465  1.00  0.00    -0.354 N 
ATOM     60  N   UNL     1      -3.847  -3.820 -12.477  1.00  0.00    -0.248 NA
ATOM     61  C   UNL     1      -6.004  -4.354 -11.753  1.00  0.00     0.031 C 
ATOM     62  C   UNL     1      -2.928  -1.875 -16.361  1.00  0.00     0.029 A 
ATOM     63  C   UNL     1      -3.244  -2.471 -15.151  1.00  0.00     0.049 A 
ATOM     64  H   UNL     1      -1.965  -3.027 -13.568  1.00  0.00     0.167 HD
ATOM     65  C   UNL     1      -4.763  -3.454 -13.458  1.00  0.00     0.074 A 
ATOM     66  C   UNL     1      -6.073  -3.834 -12.971  1.00  0.00     0.031 C 
ATOM     67  C   UNL     1      -4.540  -2.857 -14.655  1.00  0.00     0.031 A 
BRANCH  54  68
ATOM     68  C   UNL     1       1.387  -1.500 -15.731  1.00  0.00    -0.014 A 
ATOM     69  C   UNL     1       2.314  -2.284 -16.440  1.00  0.00     0.010 A 
ATOM     70  C   UNL     1       1.364  -0.109 -15.940  1.00  0.00     0.010 A 
ATOM     71  C   UNL     1       3.217  -1.685 -17.323  1.00  0.00     0.020 A 
ATOM     72  C   UNL     1       2.249   0.491 -16.840  1.00  0.00     0.020 A 
ATOM     73  C   UNL     1       3.179  -0.300 -17.517  1.00  0.00     0.054 A 
BRANCH  73  74
ATOM     74  S   UNL     1       4.333   0.447 -18.701  1.00  0.00     0.124 S 
ATOM     75  O   UNL     1       5.601   0.359 -17.981  1.00  0.00    -0.237 OA
ATOM     76  O   UNL     1       4.210  -0.428 -19.864  1.00  0.00    -0.237 OA
ATOM     77  O   UNL     1       3.815   1.800 -18.885  1.00  0.00    -0.744 OA
ENDBRANCH  73  74
ENDBRANCH  54  68
BRANCH  55  78
ATOM     78  C   UNL     1      -5.057  -5.481  -9.218  1.00  0.00    -0.014 A 
ATOM     79  C   UNL     1      -5.783  -6.655  -9.481  1.00  0.00     0.010 A 
ATOM     80  C   UNL     1      -5.275  -4.799  -8.006  1.00  0.00     0.010 A 
ATOM     81  C   UNL     1      -6.726  -7.126  -8.561  1.00  0.00     0.020 A 
ATOM     82  C   UNL     1      -6.195  -5.282  -7.072  1.00  0.00     0.020 A 
ATOM     83  C   UNL     1      -6.926  -6.435  -7.362  1.00  0.00     0.054 A 
BRANCH  83  84
ATOM     84  S   UNL     1      -8.124  -7.083  -6.164  1.00  0.00     0.124 S 
ATOM     85  O   UNL     1      -9.396  -6.720  -6.780  1.00  0.00    -0.237 OA
ATOM     86  O   UNL     1      -7.813  -8.510  -6.145  1.00  0.00    -0.237 OA
ATOM     87  O   UNL     1      -7.795  -6.366  -4.933  1.00  0.00    -0.744 OA
ENDBRANCH  83  84
ENDBRANCH  55  78
BRANCH  67  88
ATOM     88  C   UNL     1      -5.731  -2.607 -15.542  1.00  0.00    -0.014 A 
ATOM     89  C   UNL     1      -6.661  -1.595 -15.248  1.00  0.00     0.010 A 
ATOM     90  C   UNL     1      -5.884  -3.357 -16.724  1.00  0.00     0.010 A 
ATOM     91  C   UNL     1      -7.739  -1.356 -16.104  1.00  0.00     0.020 A 
ATOM     92  C   UNL     1      -6.945  -3.102 -17.596  1.00  0.00     0.020 A 
ATOM     93  C   UNL     1      -7.874  -2.111 -17.274  1.00  0.00     0.054 A 
BRANCH  93  94
ATOM     94  S   UNL     1      -9.255  -1.750 -18.393  1.00  0.00     0.124 S 
ATOM     95  O   UNL     1     -10.389  -2.322 -17.672  1.00  0.00    -0.237 OA
ATOM     96  O   UNL     1      -9.231  -0.292 -18.473  1.00  0.00    -0.237 OA
ATOM     97  O   UNL     1      -8.889  -2.441 -19.628  1.00  0.00    -0.744 OA
ENDBRANCH  93  94
ENDBRANCH  67  88
ENDBRANCH  41  42
ENDBRANCH  34  36
ENDBRANCH  33  34
ENDBRANCH  32  33
ENDBRANCH   1  32
TORSDOF 21
