REMARK SMILES Cc1cc(C(=O)OCCOCCOC(=O)c2ccc(-c3c4nc(c(-c5ccc(S(=O)(=O)[O-])cc5)c5ccc([nH]5)c(-c5ccc(S(=O)(=O)[O-])cc5)c5nc(c(-c6ccc(S(=O)(=O)[O-])cc6)c6ccc3[nH]6)C=C5)C=C4)cc2)ccc1NS(=O)(=O)c1c(F)cccc1F
REMARK SMILES IDX 10 1 9 2 8 3 7 4 5 5 6 6 4 7 1 8 2 9 3 10 78 11 77 12 76 13
REMARK SMILES IDX 79 14 80 16 81 17 82 18 83 19 84 20 89 21 85 22 86 23 88 24
REMARK SMILES IDX 90 25 87 26 11 27 12 28 13 29 14 30 15 31 16 32 17 33 75 34
REMARK SMILES IDX 18 35 74 36 19 37 20 38 21 39 68 40 22 41 73 42 67 43 69 44
REMARK SMILES IDX 23 45 72 46 66 47 65 48 24 50 54 51 35 52 53 53 36 54 39 55
REMARK SMILES IDX 52 56 70 57 37 58 38 59 51 61 71 62 40 63 25 64 26 65 34 66
REMARK SMILES IDX 27 67 33 68 28 69 29 70 30 71 31 72 32 73 55 74 56 75 64 76
REMARK SMILES IDX 57 77 63 78 58 79 59 80 60 81 61 82 62 83 41 84 42 85 50 86
REMARK SMILES IDX 43 87 49 88 44 89 45 90 46 91 47 92 48 93
REMARK H PARENT 79 15 69 49 39 60
REMARK Flexibility Score: inf
ROOT
ATOM      1  O   UNL     1      -1.804  -3.211  -2.231  1.00  0.00    -0.374 OA
ENDROOT
BRANCH   1   2
ATOM      2  C   UNL     1      -2.945  -2.388  -2.426  1.00  0.00     0.202 C 
BRANCH   2   3
ATOM      3  C   UNL     1      -3.446  -2.074  -1.052  1.00  0.00     0.261 C 
BRANCH   3   4
ATOM      4  O   UNL     1      -2.515  -1.290  -0.260  1.00  0.00    -0.460 OA
BRANCH   4   5
ATOM      5  C   UNL     1      -1.411  -1.850   0.321  1.00  0.00     0.338 C 
ATOM      6  O   UNL     1      -1.042  -2.991   0.363  1.00  0.00    -0.246 OA
BRANCH   5   7
ATOM      7  C   UNL     1      -0.581  -0.719   0.773  1.00  0.00     0.060 A 
ATOM      8  C   UNL     1       2.844   0.483  -0.209  1.00  0.00     0.046 C 
ATOM      9  C   UNL     1       1.425   0.507   0.278  1.00  0.00    -0.026 A 
ATOM     10  C   UNL     1       0.749  -0.711   0.364  1.00  0.00     0.021 A 
ATOM     11  C   UNL     1       0.716   1.682   0.587  1.00  0.00     0.052 A 
ATOM     12  C   UNL     1      -0.446   1.601   1.355  1.00  0.00     0.028 A 
ATOM     13  C   UNL     1      -1.138   0.398   1.392  1.00  0.00     0.018 A 
BRANCH  11  14
ATOM     14  N   UNL     1       1.057   2.867  -0.135  1.00  0.00    -0.279 N 
ATOM     15  H   UNL     1       1.874   2.831  -0.684  1.00  0.00     0.180 HD
BRANCH  14  16
ATOM     16  S   UNL     1       0.209   4.313  -0.142  1.00  0.00     0.267 S 
ATOM     17  O   UNL     1       0.396   4.881   1.177  1.00  0.00    -0.201 OA
ATOM     18  O   UNL     1       0.663   5.021  -1.323  1.00  0.00    -0.201 OA
BRANCH  16  19
ATOM     19  C   UNL     1      -1.514   4.032  -0.360  1.00  0.00     0.158 A 
ATOM     20  C   UNL     1      -2.389   4.934   0.239  1.00  0.00     0.146 A 
ATOM     21  C   UNL     1      -2.033   2.894  -0.961  1.00  0.00     0.146 A 
ATOM     22  F   UNL     1      -1.950   6.096   0.742  1.00  0.00    -0.205 F 
ATOM     23  C   UNL     1      -3.753   4.662   0.330  1.00  0.00     0.041 A 
ATOM     24  C   UNL     1      -3.397   2.594  -0.850  1.00  0.00     0.041 A 
ATOM     25  F   UNL     1      -1.247   2.033  -1.620  1.00  0.00    -0.205 F 
ATOM     26  C   UNL     1      -4.257   3.471  -0.185  1.00  0.00     0.006 A 
ENDBRANCH  16  19
ENDBRANCH  14  16
ENDBRANCH  11  14
ENDBRANCH   5   7
ENDBRANCH   4   5
ENDBRANCH   3   4
ENDBRANCH   2   3
ENDBRANCH   1   2
BRANCH   1  27
ATOM     27  C   UNL     1      -1.042  -3.482  -3.381  1.00  0.00     0.202 C 
BRANCH  27  28
ATOM     28  C   UNL     1      -1.840  -4.200  -4.471  1.00  0.00     0.261 C 
BRANCH  28  29
ATOM     29  O   UNL     1      -2.106  -5.575  -4.114  1.00  0.00    -0.460 OA
BRANCH  29  30
ATOM     30  C   UNL     1      -3.377  -5.860  -3.699  1.00  0.00     0.338 C 
ATOM     31  O   UNL     1      -4.296  -6.104  -4.460  1.00  0.00    -0.246 OA
BRANCH  30  32
ATOM     32  C   UNL     1      -3.443  -5.937  -2.212  1.00  0.00     0.060 A 
ATOM     33  C   UNL     1      -4.652  -5.784  -1.509  1.00  0.00     0.016 A 
ATOM     34  C   UNL     1      -2.247  -6.007  -1.509  1.00  0.00     0.016 A 
ATOM     35  C   UNL     1      -4.643  -5.548  -0.120  1.00  0.00     0.010 A 
ATOM     36  C   UNL     1      -2.238  -5.683  -0.171  1.00  0.00     0.010 A 
ATOM     37  C   UNL     1      -3.423  -5.424   0.539  1.00  0.00    -0.014 A 
BRANCH  37  38
ATOM     38  C   UNL     1      -3.188  -4.986   1.923  1.00  0.00     0.031 A 
ATOM     39  C   UNL     1      -2.438  -5.910   2.812  1.00  0.00     0.074 A 
ATOM     40  C   UNL     1      -3.319  -3.681   2.280  1.00  0.00     0.049 A 
ATOM     41  N   UNL     1      -2.167  -5.653   4.040  1.00  0.00    -0.248 NA
ATOM     42  C   UNL     1      -1.940  -7.229   2.406  1.00  0.00     0.031 C 
ATOM     43  C   UNL     1      -2.601  -2.939   3.321  1.00  0.00     0.029 A 
ATOM     44  N   UNL     1      -4.153  -2.699   1.746  1.00  0.00    -0.354 N 
ATOM     45  C   UNL     1      -1.211  -6.544   4.462  1.00  0.00     0.074 A 
ATOM     46  C   UNL     1      -1.181  -7.569   3.453  1.00  0.00     0.031 C 
ATOM     47  C   UNL     1      -3.199  -1.751   3.531  1.00  0.00     0.029 A 
ATOM     48  C   UNL     1      -4.399  -1.719   2.711  1.00  0.00     0.049 A 
ATOM     49  H   UNL     1      -4.512  -2.697   0.829  1.00  0.00     0.167 HD
ATOM     50  C   UNL     1      -0.485  -6.221   5.567  1.00  0.00     0.031 A 
ATOM     51  C   UNL     1      -5.677  -1.464   3.099  1.00  0.00     0.031 A 
ATOM     52  C   UNL     1      -1.046  -5.029   6.217  1.00  0.00     0.049 A 
ATOM     53  C   UNL     1      -5.793  -1.941   4.518  1.00  0.00     0.074 A 
ATOM     54  C   UNL     1      -0.641  -3.709   6.308  1.00  0.00     0.029 A 
ATOM     55  N   UNL     1      -2.388  -5.053   6.600  1.00  0.00    -0.354 N 
ATOM     56  N   UNL     1      -4.998  -2.855   5.008  1.00  0.00    -0.248 NA
ATOM     57  C   UNL     1      -6.656  -1.342   5.527  1.00  0.00     0.031 C 
ATOM     58  C   UNL     1      -1.795  -2.927   6.626  1.00  0.00     0.029 A 
ATOM     59  C   UNL     1      -2.886  -3.775   6.766  1.00  0.00     0.049 A 
ATOM     60  H   UNL     1      -2.912  -5.876   6.734  1.00  0.00     0.167 HD
ATOM     61  C   UNL     1      -5.108  -2.865   6.359  1.00  0.00     0.074 A 
ATOM     62  C   UNL     1      -6.211  -1.957   6.639  1.00  0.00     0.031 C 
ATOM     63  C   UNL     1      -4.276  -3.574   7.171  1.00  0.00     0.031 A 
BRANCH  50  64
ATOM     64  C   UNL     1       0.821  -6.866   5.977  1.00  0.00    -0.014 A 
ATOM     65  C   UNL     1       1.487  -6.394   7.127  1.00  0.00     0.010 A 
ATOM     66  C   UNL     1       1.488  -7.875   5.250  1.00  0.00     0.010 A 
ATOM     67  C   UNL     1       2.736  -6.897   7.529  1.00  0.00     0.020 A 
ATOM     68  C   UNL     1       2.726  -8.405   5.652  1.00  0.00     0.020 A 
ATOM     69  C   UNL     1       3.347  -7.906   6.790  1.00  0.00     0.054 A 
BRANCH  69  70
ATOM     70  S   UNL     1       4.956  -8.547   7.324  1.00  0.00     0.124 S 
ATOM     71  O   UNL     1       5.816  -7.372   7.203  1.00  0.00    -0.237 OA
ATOM     72  O   UNL     1       4.683  -8.990   8.688  1.00  0.00    -0.237 OA
ATOM     73  O   UNL     1       5.239  -9.619   6.371  1.00  0.00    -0.744 OA
ENDBRANCH  69  70
ENDBRANCH  50  64
BRANCH  51  74
ATOM     74  C   UNL     1      -6.649  -1.554   1.956  1.00  0.00    -0.014 A 
ATOM     75  C   UNL     1      -6.639  -0.474   1.036  1.00  0.00     0.010 A 
ATOM     76  C   UNL     1      -7.125  -2.798   1.498  1.00  0.00     0.010 A 
ATOM     77  C   UNL     1      -6.929  -0.670  -0.323  1.00  0.00     0.020 A 
ATOM     78  C   UNL     1      -7.400  -3.001   0.130  1.00  0.00     0.020 A 
ATOM     79  C   UNL     1      -7.248  -1.949  -0.779  1.00  0.00     0.054 A 
BRANCH  79  80
ATOM     80  S   UNL     1      -7.160  -2.273  -2.578  1.00  0.00     0.124 S 
ATOM     81  O   UNL     1      -8.452  -1.788  -3.047  1.00  0.00    -0.237 OA
ATOM     82  O   UNL     1      -6.003  -1.476  -2.989  1.00  0.00    -0.237 OA
ATOM     83  O   UNL     1      -6.956  -3.715  -2.649  1.00  0.00    -0.744 OA
ENDBRANCH  79  80
ENDBRANCH  51  74
BRANCH  63  84
ATOM     84  C   UNL     1      -4.751  -4.109   8.485  1.00  0.00    -0.014 A 
ATOM     85  C   UNL     1      -6.117  -4.240   8.785  1.00  0.00     0.010 A 
ATOM     86  C   UNL     1      -3.824  -4.673   9.384  1.00  0.00     0.010 A 
ATOM     87  C   UNL     1      -6.538  -4.803   9.985  1.00  0.00     0.020 A 
ATOM     88  C   UNL     1      -4.238  -5.303  10.555  1.00  0.00     0.020 A 
ATOM     89  C   UNL     1      -5.593  -5.319  10.867  1.00  0.00     0.054 A 
BRANCH  89  90
ATOM     90  S   UNL     1      -6.162  -6.029  12.422  1.00  0.00     0.124 S 
ATOM     91  O   UNL     1      -6.367  -4.830  13.231  1.00  0.00    -0.237 OA
ATOM     92  O   UNL     1      -7.380  -6.736  12.029  1.00  0.00    -0.237 OA
ATOM     93  O   UNL     1      -5.056  -6.887  12.835  1.00  0.00    -0.744 OA
ENDBRANCH  89  90
ENDBRANCH  63  84
ENDBRANCH  37  38
ENDBRANCH  30  32
ENDBRANCH  29  30
ENDBRANCH  28  29
ENDBRANCH  27  28
ENDBRANCH   1  27
TORSDOF 20
