REMARK SMILES O=C(OCCOCCOC(=O)c1c(F)cccc1NC(=O)C1CCCCC1)c1ccc(-c2c3nc(c(-c4ccc(S(=O)(=O)[O-])cc4)c4ccc([nH]4)c(-c4ccc(S(=O)(=O)[O-])cc4)c4nc(c(-c5ccc(S(=O)(=O)[O-])cc5)c5ccc2[nH]5)C=C4)C=C3)cc1
REMARK SMILES IDX 5 1 4 2 3 3 2 4 1 5 28 6 29 7 87 8 30 9 86 10 31 11 32 12
REMARK SMILES IDX 33 13 80 14 34 15 85 16 79 17 81 18 35 19 84 20 78 21 77 22
REMARK SMILES IDX 36 24 66 25 47 26 65 27 48 28 51 29 64 30 82 31 49 32 50 33
REMARK SMILES IDX 63 35 83 36 52 37 37 38 38 39 46 40 39 41 45 42 40 43 41 44
REMARK SMILES IDX 42 45 43 46 44 47 67 48 68 49 76 50 69 51 75 52 70 53 71 54
REMARK SMILES IDX 72 55 73 56 74 57 53 58 54 59 62 60 55 61 61 62 56 63 57 64
REMARK SMILES IDX 58 65 59 66 60 67 6 68 7 69 8 70 9 71 10 72 11 73 12 74
REMARK SMILES IDX 13 75 18 76 14 77 15 78 17 79 16 80 19 81 20 82 21 84 22 85
REMARK SMILES IDX 23 86 27 87 24 88 26 89 25 90
REMARK H PARENT 81 23 51 34 19 83
REMARK Flexibility Score: inf
ROOT
ATOM      1  C   UNL     1       4.183  -1.506   0.167  1.00  0.00     0.202 C 
ENDROOT
BRANCH   1   2
ATOM      2  C   UNL     1       3.798  -0.420   1.169  1.00  0.00     0.261 C 
BRANCH   2   3
ATOM      3  O   UNL     1       2.404  -0.119   1.059  1.00  0.00    -0.460 OA
BRANCH   3   4
ATOM      4  C   UNL     1       1.851   0.924   0.398  1.00  0.00     0.338 C 
ATOM      5  O   UNL     1       0.626   1.038   0.408  1.00  0.00    -0.246 OA
BRANCH   4   6
ATOM      6  C   UNL     1       2.645   1.965  -0.324  1.00  0.00     0.060 A 
ATOM      7  C   UNL     1       3.861   1.746  -0.978  1.00  0.00     0.016 A 
ATOM      8  C   UNL     1       2.065   3.239  -0.427  1.00  0.00     0.016 A 
ATOM      9  C   UNL     1       4.500   2.744  -1.693  1.00  0.00     0.010 A 
ATOM     10  C   UNL     1       2.689   4.250  -1.159  1.00  0.00     0.010 A 
ATOM     11  C   UNL     1       3.912   3.997  -1.789  1.00  0.00    -0.014 A 
BRANCH  11  12
ATOM     12  C   UNL     1       4.665   5.060  -2.464  1.00  0.00     0.031 A 
ATOM     13  C   UNL     1       5.403   6.037  -1.611  1.00  0.00     0.074 A 
ATOM     14  C   UNL     1       4.747   5.065  -3.804  1.00  0.00     0.049 A 
ATOM     15  N   UNL     1       6.019   7.131  -1.956  1.00  0.00    -0.248 NA
ATOM     16  C   UNL     1       5.460   5.733  -0.170  1.00  0.00     0.031 C 
ATOM     17  C   UNL     1       4.180   4.043  -4.689  1.00  0.00     0.029 A 
ATOM     18  N   UNL     1       5.348   5.949  -4.655  1.00  0.00    -0.354 N 
ATOM     19  C   UNL     1       6.494   7.675  -0.770  1.00  0.00     0.074 A 
ATOM     20  C   UNL     1       6.112   6.783   0.301  1.00  0.00     0.031 C 
ATOM     21  C   UNL     1       4.461   4.363  -5.963  1.00  0.00     0.029 A 
ATOM     22  C   UNL     1       5.155   5.646  -5.981  1.00  0.00     0.049 A 
ATOM     23  H   UNL     1       5.869   6.726  -4.349  1.00  0.00     0.167 HD
ATOM     24  C   UNL     1       7.164   8.838  -0.605  1.00  0.00     0.031 A 
ATOM     25  C   UNL     1       5.461   6.362  -7.079  1.00  0.00     0.031 A 
ATOM     26  C   UNL     1       7.492   9.701  -1.705  1.00  0.00     0.049 A 
ATOM     27  C   UNL     1       6.124   7.696  -6.871  1.00  0.00     0.074 A 
ATOM     28  C   UNL     1       8.087  10.947  -1.686  1.00  0.00     0.029 A 
ATOM     29  N   UNL     1       7.240   9.391  -3.038  1.00  0.00    -0.354 N 
ATOM     30  N   UNL     1       6.486   8.264  -5.742  1.00  0.00    -0.248 NA
ATOM     31  C   UNL     1       6.409   8.493  -8.068  1.00  0.00     0.031 C 
ATOM     32  C   UNL     1       8.155  11.408  -3.006  1.00  0.00     0.029 A 
ATOM     33  C   UNL     1       7.657  10.425  -3.853  1.00  0.00     0.049 A 
ATOM     34  H   UNL     1       6.825   8.556  -3.354  1.00  0.00     0.167 HD
ATOM     35  C   UNL     1       7.058   9.479  -6.091  1.00  0.00     0.074 A 
ATOM     36  C   UNL     1       7.001   9.558  -7.540  1.00  0.00     0.031 C 
ATOM     37  C   UNL     1       7.584  10.443  -5.295  1.00  0.00     0.031 A 
BRANCH  24  38
ATOM     38  C   UNL     1       7.454   9.257   0.810  1.00  0.00    -0.014 A 
ATOM     39  C   UNL     1       8.400   8.584   1.606  1.00  0.00     0.010 A 
ATOM     40  C   UNL     1       6.699  10.298   1.382  1.00  0.00     0.010 A 
ATOM     41  C   UNL     1       8.535   8.898   2.962  1.00  0.00     0.020 A 
ATOM     42  C   UNL     1       6.850  10.633   2.731  1.00  0.00     0.020 A 
ATOM     43  C   UNL     1       7.747   9.910   3.520  1.00  0.00     0.054 A 
BRANCH  43  44
ATOM     44  S   UNL     1       7.900  10.265   5.292  1.00  0.00     0.124 S 
ATOM     45  O   UNL     1       7.196   9.132   5.888  1.00  0.00    -0.237 OA
ATOM     46  O   UNL     1       9.346  10.281   5.495  1.00  0.00    -0.237 OA
ATOM     47  O   UNL     1       7.238  11.559   5.445  1.00  0.00    -0.744 OA
ENDBRANCH  43  44
ENDBRANCH  24  38
BRANCH  25  48
ATOM     48  C   UNL     1       5.080   5.855  -8.426  1.00  0.00    -0.014 A 
ATOM     49  C   UNL     1       6.055   5.435  -9.347  1.00  0.00     0.010 A 
ATOM     50  C   UNL     1       3.720   5.731  -8.774  1.00  0.00     0.010 A 
ATOM     51  C   UNL     1       5.678   4.897 -10.584  1.00  0.00     0.020 A 
ATOM     52  C   UNL     1       3.339   5.170  -9.997  1.00  0.00     0.020 A 
ATOM     53  C   UNL     1       4.322   4.761 -10.898  1.00  0.00     0.054 A 
BRANCH  53  54
ATOM     54  S   UNL     1       3.856   3.988 -12.474  1.00  0.00     0.124 S 
ATOM     55  O   UNL     1       4.187   5.034 -13.436  1.00  0.00    -0.237 OA
ATOM     56  O   UNL     1       4.708   2.802 -12.509  1.00  0.00    -0.237 OA
ATOM     57  O   UNL     1       2.429   3.715 -12.313  1.00  0.00    -0.744 OA
ENDBRANCH  53  54
ENDBRANCH  25  48
BRANCH  37  58
ATOM     58  C   UNL     1       8.184  11.638  -5.977  1.00  0.00    -0.014 A 
ATOM     59  C   UNL     1       7.373  12.657  -6.504  1.00  0.00     0.010 A 
ATOM     60  C   UNL     1       9.582  11.787  -5.985  1.00  0.00     0.010 A 
ATOM     61  C   UNL     1       7.956  13.808  -7.036  1.00  0.00     0.020 A 
ATOM     62  C   UNL     1      10.166  12.945  -6.494  1.00  0.00     0.020 A 
ATOM     63  C   UNL     1       9.349  13.947  -7.021  1.00  0.00     0.054 A 
BRANCH  63  64
ATOM     64  S   UNL     1      10.078  15.490  -7.633  1.00  0.00     0.124 S 
ATOM     65  O   UNL     1       9.942  15.336  -9.079  1.00  0.00    -0.237 OA
ATOM     66  O   UNL     1       9.226  16.510  -7.026  1.00  0.00    -0.237 OA
ATOM     67  O   UNL     1      11.448  15.450  -7.127  1.00  0.00    -0.744 OA
ENDBRANCH  63  64
ENDBRANCH  37  58
ENDBRANCH  11  12
ENDBRANCH   4   6
ENDBRANCH   3   4
ENDBRANCH   2   3
ENDBRANCH   1   2
BRANCH   1  68
ATOM     68  O   UNL     1       3.882  -1.214  -1.194  1.00  0.00    -0.374 OA
BRANCH  68  69
ATOM     69  C   UNL     1       2.614  -1.654  -1.679  1.00  0.00     0.202 C 
BRANCH  69  70
ATOM     70  C   UNL     1       2.852  -2.586  -2.868  1.00  0.00     0.261 C 
BRANCH  70  71
ATOM     71  O   UNL     1       3.425  -3.812  -2.381  1.00  0.00    -0.460 OA
BRANCH  71  72
ATOM     72  C   UNL     1       4.777  -3.874  -2.292  1.00  0.00     0.343 C 
ATOM     73  O   UNL     1       5.600  -3.094  -2.740  1.00  0.00    -0.246 OA
BRANCH  72  74
ATOM     74  C   UNL     1       5.092  -4.910  -1.294  1.00  0.00     0.119 A 
ATOM     75  C   UNL     1       4.399  -6.123  -1.368  1.00  0.00     0.139 A 
ATOM     76  C   UNL     1       5.952  -4.636  -0.207  1.00  0.00     0.058 A 
ATOM     77  F   UNL     1       3.651  -6.428  -2.439  1.00  0.00    -0.206 F 
ATOM     78  C   UNL     1       4.456  -7.040  -0.330  1.00  0.00     0.040 A 
ATOM     79  C   UNL     1       5.917  -5.532   0.860  1.00  0.00     0.027 A 
ATOM     80  C   UNL     1       5.186  -6.725   0.806  1.00  0.00     0.005 A 
BRANCH  76  81
ATOM     81  N   UNL     1       6.747  -3.464  -0.204  1.00  0.00    -0.325 N 
ATOM     82  C   UNL     1       7.740  -2.934   0.568  1.00  0.00     0.227 C 
ATOM     83  H   UNL     1       6.525  -2.874  -0.960  1.00  0.00     0.169 HD
ATOM     84  O   UNL     1       7.969  -1.726   0.410  1.00  0.00    -0.274 OA
BRANCH  82  85
ATOM     85  C   UNL     1       8.582  -3.690   1.600  1.00  0.00     0.079 C 
ATOM     86  C   UNL     1       7.977  -3.594   3.006  1.00  0.00     0.013 C 
ATOM     87  C   UNL     1       9.080  -5.056   1.107  1.00  0.00     0.013 C 
ATOM     88  C   UNL     1       8.614  -4.562   3.995  1.00  0.00     0.001 C 
ATOM     89  C   UNL     1       9.415  -6.091   2.179  1.00  0.00     0.001 C 
ATOM     90  C   UNL     1       8.602  -5.984   3.460  1.00  0.00     0.000 C 
ENDBRANCH  82  85
ENDBRANCH  76  81
ENDBRANCH  72  74
ENDBRANCH  71  72
ENDBRANCH  70  71
ENDBRANCH  69  70
ENDBRANCH  68  69
ENDBRANCH   1  68
TORSDOF 19
