REMARK SMILES O=C(OCCOCCOC(=O)c1ccc(-c2c3nc(c(-c4ccc(S(=O)(=O)[O-])cc4)c4ccc([nH]4)c(-c4ccc(S(=O)(=O)[O-])cc4)c4nc(c(-c5ccc(S(=O)(=O)[O-])cc5)c5ccc2[nH]5)C=C4)C=C3)cc1)C1=Cc2cc(OC(F)(F)F)ccc2O[C@@H]1C(F)(F)F
REMARK SMILES IDX 7 1 6 2 5 3 4 4 3 5 2 6 1 7 72 8 73 9 86 10 74 11 85 12
REMARK SMILES IDX 75 13 84 14 76 15 83 16 82 17 87 18 88 19 89 20 90 21 77 22
REMARK SMILES IDX 78 23 79 24 80 25 81 26 8 27 9 28 10 29 11 30 12 31 13 32
REMARK SMILES IDX 71 33 14 34 70 35 15 36 16 37 17 38 64 39 18 40 69 41 63 42
REMARK SMILES IDX 65 43 19 44 68 45 62 46 61 47 20 49 50 50 31 51 49 52 32 53
REMARK SMILES IDX 35 54 48 55 66 56 33 57 34 58 47 60 67 61 36 62 21 63 22 64
REMARK SMILES IDX 30 65 23 66 29 67 24 68 25 69 26 70 27 71 28 72 51 73 52 74
REMARK SMILES IDX 60 75 53 76 59 77 54 78 55 79 56 80 57 81 58 82 37 83 38 84
REMARK SMILES IDX 46 85 39 86 45 87 40 88 41 89 42 90 43 91 44 92
REMARK H PARENT 65 48 35 59
REMARK Flexibility Score: inf
ROOT
ATOM      1  C   UNL     1       2.888   3.021  -0.851  1.00  0.00     0.202 C 
ENDROOT
BRANCH   1   2
ATOM      2  O   UNL     1       4.063   2.512  -0.196  1.00  0.00    -0.374 OA
BRANCH   2   3
ATOM      3  C   UNL     1       4.390   1.133   0.584  1.00  0.00     0.202 C 
BRANCH   3   4
ATOM      4  C   UNL     1       3.481  -0.835   0.486  1.00  0.00     0.261 C 
BRANCH   4   5
ATOM      5  O   UNL     1       2.490  -1.439   1.514  1.00  0.00    -0.460 OA
BRANCH   5   6
ATOM      6  C   UNL     1       2.654  -0.944   2.743  1.00  0.00     0.338 C 
ATOM      7  O   UNL     1       2.031  -1.141   3.754  1.00  0.00    -0.246 OA
BRANCH   6   8
ATOM      8  C   UNL     1       3.556   0.109   2.348  1.00  0.00     0.087 C 
ATOM      9  C   UNL     1       4.930  -0.418   2.159  1.00  0.00     0.027 C 
ATOM     10  C   UNL     1       2.452   0.848   0.935  1.00  0.00     0.316 C 
ATOM     11  C   UNL     1       5.695  -0.646   0.533  1.00  0.00     0.021 A 
ATOM     12  O   UNL     1       3.236   0.564  -0.807  1.00  0.00    -0.475 OA
ATOM     13  C   UNL     1       6.871  -1.338   0.447  1.00  0.00     0.058 A 
ATOM     14  C   UNL     1       4.863  -0.251  -0.930  1.00  0.00     0.128 A 
ATOM     15  C   UNL     1       7.281  -1.704  -0.852  1.00  0.00     0.130 A 
ATOM     16  C   UNL     1       5.269  -0.736  -2.138  1.00  0.00     0.051 A 
ATOM     17  C   UNL     1       6.503  -1.454  -2.061  1.00  0.00     0.050 A 
BRANCH  10  18
ATOM     18  C   UNL     1       1.990   2.176   1.665  1.00  0.00     0.430 C 
ATOM     19  F   UNL     1       1.109   2.936   0.989  1.00  0.00    -0.167 F 
ATOM     20  F   UNL     1       1.321   1.799   2.799  1.00  0.00    -0.167 F 
ATOM     21  F   UNL     1       2.994   2.964   2.111  1.00  0.00    -0.167 F 
ENDBRANCH  10  18
BRANCH  15  22
ATOM     22  O   UNL     1       8.466  -2.404  -0.808  1.00  0.00    -0.406 OA
BRANCH  22  23
ATOM     23  C   UNL     1       9.282  -2.438  -1.964  1.00  0.00     0.573 C 
ATOM     24  F   UNL     1       8.796  -3.320  -2.857  1.00  0.00    -0.132 F 
ATOM     25  F   UNL     1       9.389  -1.220  -2.532  1.00  0.00    -0.132 F 
ATOM     26  F   UNL     1      10.520  -2.840  -1.595  1.00  0.00    -0.132 F 
ENDBRANCH  22  23
ENDBRANCH  15  22
ENDBRANCH   6   8
ENDBRANCH   5   6
ENDBRANCH   4   5
ENDBRANCH   3   4
ENDBRANCH   2   3
ENDBRANCH   1   2
BRANCH   1  27
ATOM     27  C   UNL     1       3.079   3.562  -2.263  1.00  0.00     0.261 C 
BRANCH  27  28
ATOM     28  O   UNL     1       3.591   2.583  -3.153  1.00  0.00    -0.460 OA
BRANCH  28  29
ATOM     29  C   UNL     1       4.923   2.669  -3.364  1.00  0.00     0.338 C 
ATOM     30  O   UNL     1       5.727   3.382  -2.790  1.00  0.00    -0.246 OA
BRANCH  29  31
ATOM     31  C   UNL     1       5.270   1.714  -4.430  1.00  0.00     0.060 A 
ATOM     32  C   UNL     1       6.529   1.109  -4.388  1.00  0.00     0.016 A 
ATOM     33  C   UNL     1       4.344   1.380  -5.427  1.00  0.00     0.016 A 
ATOM     34  C   UNL     1       6.842   0.114  -5.308  1.00  0.00     0.010 A 
ATOM     35  C   UNL     1       4.667   0.406  -6.361  1.00  0.00     0.010 A 
ATOM     36  C   UNL     1       5.913  -0.233  -6.296  1.00  0.00    -0.014 A 
BRANCH  36  37
ATOM     37  C   UNL     1       6.294  -1.150  -7.381  1.00  0.00     0.031 A 
ATOM     38  C   UNL     1       6.910  -0.550  -8.606  1.00  0.00     0.074 A 
ATOM     39  C   UNL     1       6.036  -2.466  -7.289  1.00  0.00     0.049 A 
ATOM     40  N   UNL     1       7.247  -1.130  -9.723  1.00  0.00    -0.248 NA
ATOM     41  C   UNL     1       7.176   0.900  -8.568  1.00  0.00     0.031 C 
ATOM     42  C   UNL     1       5.458  -3.138  -6.124  1.00  0.00     0.029 A 
ATOM     43  N   UNL     1       6.207  -3.470  -8.206  1.00  0.00    -0.354 N 
ATOM     44  C   UNL     1       7.751  -0.118 -10.527  1.00  0.00     0.074 A 
ATOM     45  C   UNL     1       7.672   1.114  -9.776  1.00  0.00     0.031 C 
ATOM     46  C   UNL     1       5.301  -4.444  -6.409  1.00  0.00     0.029 A 
ATOM     47  C   UNL     1       5.725  -4.688  -7.786  1.00  0.00     0.049 A 
ATOM     48  H   UNL     1       6.633  -3.333  -9.082  1.00  0.00     0.167 HD
ATOM     49  C   UNL     1       8.223  -0.213 -11.788  1.00  0.00     0.031 A 
ATOM     50  C   UNL     1       5.607  -5.851  -8.458  1.00  0.00     0.031 A 
ATOM     51  C   UNL     1       8.259  -1.442 -12.531  1.00  0.00     0.049 A 
ATOM     52  C   UNL     1       6.076  -5.906  -9.893  1.00  0.00     0.074 A 
ATOM     53  C   UNL     1       8.751  -1.656 -13.804  1.00  0.00     0.029 A 
ATOM     54  N   UNL     1       7.756  -2.653 -12.080  1.00  0.00    -0.354 N 
ATOM     55  N   UNL     1       6.634  -4.962 -10.616  1.00  0.00    -0.248 NA
ATOM     56  C   UNL     1       5.899  -7.180 -10.605  1.00  0.00     0.031 C 
ATOM     57  C   UNL     1       8.467  -2.977 -14.158  1.00  0.00     0.029 A 
ATOM     58  C   UNL     1       7.878  -3.608 -13.072  1.00  0.00     0.049 A 
ATOM     59  H   UNL     1       7.371  -2.809 -11.188  1.00  0.00     0.167 HD
ATOM     60  C   UNL     1       6.896  -5.537 -11.855  1.00  0.00     0.074 A 
ATOM     61  C   UNL     1       6.460  -6.915 -11.777  1.00  0.00     0.031 C 
ATOM     62  C   UNL     1       7.443  -4.978 -12.963  1.00  0.00     0.031 A 
BRANCH  49  63
ATOM     63  C   UNL     1       8.681   1.046 -12.465  1.00  0.00    -0.014 A 
ATOM     64  C   UNL     1       9.868   1.696 -12.084  1.00  0.00     0.010 A 
ATOM     65  C   UNL     1       7.941   1.546 -13.552  1.00  0.00     0.010 A 
ATOM     66  C   UNL     1      10.303   2.827 -12.777  1.00  0.00     0.020 A 
ATOM     67  C   UNL     1       8.388   2.659 -14.265  1.00  0.00     0.020 A 
ATOM     68  C   UNL     1       9.566   3.295 -13.870  1.00  0.00     0.054 A 
BRANCH  68  69
ATOM     69  S   UNL     1      10.199   4.716 -14.800  1.00  0.00     0.124 S 
ATOM     70  O   UNL     1      10.035   5.803 -13.838  1.00  0.00    -0.237 OA
ATOM     71  O   UNL     1      11.579   4.324 -15.075  1.00  0.00    -0.237 OA
ATOM     72  O   UNL     1       9.327   4.784 -15.970  1.00  0.00    -0.744 OA
ENDBRANCH  68  69
ENDBRANCH  49  63
BRANCH  50  73
ATOM     73  C   UNL     1       4.969  -7.039  -7.821  1.00  0.00    -0.014 A 
ATOM     74  C   UNL     1       5.694  -8.226  -7.610  1.00  0.00     0.010 A 
ATOM     75  C   UNL     1       3.607  -7.005  -7.467  1.00  0.00     0.010 A 
ATOM     76  C   UNL     1       5.060  -9.365  -7.100  1.00  0.00     0.020 A 
ATOM     77  C   UNL     1       2.979  -8.129  -6.922  1.00  0.00     0.020 A 
ATOM     78  C   UNL     1       3.705  -9.309  -6.761  1.00  0.00     0.054 A 
BRANCH  78  79
ATOM     79  S   UNL     1       2.907 -10.795  -6.093  1.00  0.00     0.124 S 
ATOM     80  O   UNL     1       2.868 -11.669  -7.261  1.00  0.00    -0.237 OA
ATOM     81  O   UNL     1       3.828 -11.195  -5.032  1.00  0.00    -0.237 OA
ATOM     82  O   UNL     1       1.609 -10.308  -5.631  1.00  0.00    -0.744 OA
ENDBRANCH  78  79
ENDBRANCH  50  73
BRANCH  62  83
ATOM     83  C   UNL     1       7.631  -5.854 -14.174  1.00  0.00    -0.014 A 
ATOM     84  C   UNL     1       6.535  -6.283 -14.941  1.00  0.00     0.010 A 
ATOM     85  C   UNL     1       8.935  -6.163 -14.606  1.00  0.00     0.010 A 
ATOM     86  C   UNL     1       6.738  -7.019 -16.111  1.00  0.00     0.020 A 
ATOM     87  C   UNL     1       9.143  -6.867 -15.793  1.00  0.00     0.020 A 
ATOM     88  C   UNL     1       8.042  -7.297 -16.535  1.00  0.00     0.054 A 
BRANCH  88  89
ATOM     89  S   UNL     1       8.276  -8.183 -18.099  1.00  0.00     0.124 S 
ATOM     90  O   UNL     1       7.790  -9.520 -17.769  1.00  0.00    -0.237 OA
ATOM     91  O   UNL     1       7.441  -7.421 -19.024  1.00  0.00    -0.237 OA
ATOM     92  O   UNL     1       9.714  -8.087 -18.342  1.00  0.00    -0.744 OA
ENDBRANCH  88  89
ENDBRANCH  62  83
ENDBRANCH  36  37
ENDBRANCH  29  31
ENDBRANCH  28  29
ENDBRANCH  27  28
ENDBRANCH   1  27
TORSDOF 20
