REMARK SMILES COc1ccc2c(c1)c(Cc1nc(-c3ccc(C(=O)OCCOCCOC(=O)c4ccc(-c5c6nc(c(-c7ccc(S(=O)(=O)[O-])cc7)c7ccc([nH]7)c(-c7ccc(S(=O)(=O)[O-])cc7)c7nc(c(-c8ccc(S(=O)(=O)[O-])cc8)c8ccc5[nH]8)C=C7)C=C6)cc4)cc3)cs1)c(C)n2C(=O)c1ccc(Cl)cc1
REMARK SMILES IDX 22 1 21 2 20 3 18 4 19 5 17 6 14 7 15 8 90 9 16 10 89 11
REMARK SMILES IDX 13 12 11 13 12 14 92 15 91 16 10 17 9 18 3 19 4 20 8 21 5 22
REMARK SMILES IDX 7 23 6 24 95 25 93 26 94 27 2 28 1 29 96 30 97 31 98 32
REMARK SMILES IDX 99 33 104 34 100 35 103 36 101 37 102 38 23 39 24 40 25 41
REMARK SMILES IDX 26 42 27 43 28 44 29 45 30 46 88 47 31 48 87 49 32 50 33 51
REMARK SMILES IDX 34 52 81 53 35 54 86 55 80 56 82 57 36 58 85 59 79 60 78 61
REMARK SMILES IDX 37 63 67 64 48 65 66 66 49 67 52 68 65 69 83 70 50 71 51 72
REMARK SMILES IDX 64 74 84 75 53 76 38 77 39 78 47 79 40 80 46 81 41 82 42 83
REMARK SMILES IDX 43 84 44 85 45 86 68 87 69 88 77 89 70 90 76 91 71 92 72 93
REMARK SMILES IDX 73 94 74 95 75 96 54 97 55 98 63 99 56 100 62 101 57 102
REMARK SMILES IDX 58 103 59 104 60 105 61 106
REMARK H PARENT 82 62 52 73
REMARK Flexibility Score: inf
ROOT
ATOM      1  C   UNL     1      -3.296  -9.138   0.787  1.00  0.00     0.202 C 
ENDROOT
BRANCH   1   2
ATOM      2  C   UNL     1      -2.366  -8.004   1.242  1.00  0.00     0.261 C 
BRANCH   2   3
ATOM      3  O   UNL     1      -2.475  -6.837   0.427  1.00  0.00    -0.460 OA
BRANCH   3   4
ATOM      4  C   UNL     1      -1.416  -6.677  -0.407  1.00  0.00     0.338 C 
ATOM      5  O   UNL     1      -0.401  -7.341  -0.443  1.00  0.00    -0.246 OA
BRANCH   4   6
ATOM      6  C   UNL     1      -1.787  -5.734  -1.482  1.00  0.00     0.060 A 
ATOM      7  C   UNL     1      -2.431  -4.108  -3.659  1.00  0.00     0.001 A 
ATOM      8  C   UNL     1      -1.681  -5.275  -3.851  1.00  0.00     0.011 A 
ATOM      9  C   UNL     1      -2.871  -3.771  -2.369  1.00  0.00     0.011 A 
ATOM     10  C   UNL     1      -1.354  -6.079  -2.766  1.00  0.00     0.016 A 
ATOM     11  C   UNL     1      -2.567  -4.593  -1.277  1.00  0.00     0.016 A 
BRANCH   7  12
ATOM     12  C   UNL     1      -2.631  -3.199  -4.772  1.00  0.00     0.081 A 
ATOM     13  C   UNL     1      -2.340  -1.264  -5.795  1.00  0.00     0.098 A 
ATOM     14  N   UNL     1      -2.402  -1.851  -4.619  1.00  0.00    -0.241 NA
ATOM     15  S   UNL     1      -2.809  -2.253  -7.122  1.00  0.00    -0.126 S 
ATOM     16  C   UNL     1      -2.956  -3.591  -6.055  1.00  0.00     0.095 A 
BRANCH  13  17
ATOM     17  C   UNL     1      -1.920   0.164  -5.994  1.00  0.00     0.105 C 
BRANCH  17  18
ATOM     18  C   UNL     1      -0.429   0.381  -5.839  1.00  0.00    -0.012 A 
ATOM     19  C   UNL     1       0.877  -0.173  -2.283  1.00  0.00     0.119 A 
ATOM     20  C   UNL     1       2.169   0.251  -2.527  1.00  0.00     0.048 A 
ATOM     21  C   UNL     1      -0.051  -0.171  -3.323  1.00  0.00     0.057 A 
ATOM     22  C   UNL     1       2.543   0.694  -3.801  1.00  0.00     0.031 A 
ATOM     23  C   UNL     1       0.309   0.237  -4.629  1.00  0.00     0.008 A 
ATOM     24  C   UNL     1       1.625   0.638  -4.875  1.00  0.00     0.057 A 
ATOM     25  N   UNL     1       1.746   0.928  -6.249  1.00  0.00    -0.280 N 
ATOM     26  C   UNL     1       0.462   0.816  -6.816  1.00  0.00     0.028 A 
ATOM     27  C   UNL     1       0.106   1.113  -8.239  1.00  0.00     0.065 C 
BRANCH  19  28
ATOM     28  O   UNL     1       0.418  -0.639  -1.084  1.00  0.00    -0.497 OA
ATOM     29  C   UNL     1       0.979  -0.014   0.068  1.00  0.00     0.278 C 
ENDBRANCH  19  28
BRANCH  25  30
ATOM     30  C   UNL     1       2.951   1.299  -6.923  1.00  0.00     0.262 C 
ATOM     31  O   UNL     1       2.897   1.688  -8.089  1.00  0.00    -0.268 OA
BRANCH  30  32
ATOM     32  C   UNL     1       4.300   1.308  -6.326  1.00  0.00     0.040 A 
ATOM     33  C   UNL     1       4.899   0.129  -5.866  1.00  0.00     0.015 A 
ATOM     34  C   UNL     1       4.952   2.540  -6.188  1.00  0.00     0.015 A 
ATOM     35  C   UNL     1       6.110   0.204  -5.171  1.00  0.00     0.021 A 
ATOM     36  C   UNL     1       6.167   2.606  -5.505  1.00  0.00     0.021 A 
ATOM     37  C   UNL     1       6.729   1.442  -4.980  1.00  0.00     0.041 A 
ATOM     38  Cl  UNL     1       8.185   1.540  -4.070  1.00  0.00    -0.084 Cl
ENDBRANCH  30  32
ENDBRANCH  25  30
ENDBRANCH  17  18
ENDBRANCH  13  17
ENDBRANCH   7  12
ENDBRANCH   4   6
ENDBRANCH   3   4
ENDBRANCH   2   3
ENDBRANCH   1   2
BRANCH   1  39
ATOM     39  O   UNL     1      -3.354  -9.509  -0.586  1.00  0.00    -0.374 OA
BRANCH  39  40
ATOM     40  C   UNL     1      -4.035  -8.633  -1.487  1.00  0.00     0.202 C 
BRANCH  40  41
ATOM     41  C   UNL     1      -5.546  -8.383  -1.310  1.00  0.00     0.261 C 
BRANCH  41  42
ATOM     42  O   UNL     1      -5.840  -7.716  -0.074  1.00  0.00    -0.460 OA
BRANCH  42  43
ATOM     43  C   UNL     1      -6.877  -8.241   0.641  1.00  0.00     0.338 C 
ATOM     44  O   UNL     1      -7.813  -8.885   0.217  1.00  0.00    -0.246 OA
BRANCH  43  45
ATOM     45  C   UNL     1      -6.416  -8.239   2.049  1.00  0.00     0.060 A 
ATOM     46  C   UNL     1      -5.831  -7.097   2.607  1.00  0.00     0.016 A 
ATOM     47  C   UNL     1      -6.231  -9.505   2.627  1.00  0.00     0.016 A 
ATOM     48  C   UNL     1      -4.965  -7.247   3.687  1.00  0.00     0.010 A 
ATOM     49  C   UNL     1      -5.323  -9.654   3.670  1.00  0.00     0.010 A 
ATOM     50  C   UNL     1      -4.655  -8.532   4.169  1.00  0.00    -0.014 A 
BRANCH  50  51
ATOM     51  C   UNL     1      -3.809  -8.648   5.362  1.00  0.00     0.031 A 
ATOM     52  C   UNL     1      -4.540  -8.213   6.585  1.00  0.00     0.074 A 
ATOM     53  C   UNL     1      -2.587  -9.222   5.436  1.00  0.00     0.049 A 
ATOM     54  N   UNL     1      -4.265  -7.227   7.374  1.00  0.00    -0.248 NA
ATOM     55  C   UNL     1      -5.839  -8.857   6.854  1.00  0.00     0.031 C 
ATOM     56  C   UNL     1      -1.863  -9.953   4.395  1.00  0.00     0.029 A 
ATOM     57  N   UNL     1      -1.761  -9.366   6.518  1.00  0.00    -0.354 N 
ATOM     58  C   UNL     1      -5.255  -7.249   8.352  1.00  0.00     0.074 A 
ATOM     59  C   UNL     1      -6.289  -8.126   7.870  1.00  0.00     0.031 C 
ATOM     60  C   UNL     1      -0.846 -10.655   4.950  1.00  0.00     0.029 A 
ATOM     61  C   UNL     1      -0.766 -10.333   6.362  1.00  0.00     0.049 A 
ATOM     62  H   UNL     1      -1.861  -8.832   7.339  1.00  0.00     0.167 HD
ATOM     63  C   UNL     1      -5.055  -6.744   9.599  1.00  0.00     0.031 A 
ATOM     64  C   UNL     1       0.018 -10.886   7.330  1.00  0.00     0.031 A 
ATOM     65  C   UNL     1      -3.938  -5.841   9.636  1.00  0.00     0.049 A 
ATOM     66  C   UNL     1      -0.012  -9.967   8.492  1.00  0.00     0.074 A 
ATOM     67  C   UNL     1      -3.646  -4.643   9.016  1.00  0.00     0.029 A 
ATOM     68  N   UNL     1      -2.744  -6.331  10.105  1.00  0.00    -0.354 N 
ATOM     69  N   UNL     1       0.495  -8.767   8.480  1.00  0.00    -0.248 NA
ATOM     70  C   UNL     1      -1.011 -10.223   9.516  1.00  0.00     0.031 C 
ATOM     71  C   UNL     1      -2.255  -4.714   8.724  1.00  0.00     0.029 A 
ATOM     72  C   UNL     1      -1.759  -5.908   9.252  1.00  0.00     0.049 A 
ATOM     73  H   UNL     1      -2.619  -6.886  10.908  1.00  0.00     0.167 HD
ATOM     74  C   UNL     1      -0.418  -7.999   9.186  1.00  0.00     0.074 A 
ATOM     75  C   UNL     1      -1.290  -8.964   9.857  1.00  0.00     0.031 C 
ATOM     76  C   UNL     1      -0.559  -6.663   8.947  1.00  0.00     0.031 A 
BRANCH  63  77
ATOM     77  C   UNL     1      -5.654  -7.361  10.838  1.00  0.00    -0.014 A 
ATOM     78  C   UNL     1      -6.251  -8.640  10.852  1.00  0.00     0.010 A 
ATOM     79  C   UNL     1      -5.413  -6.762  12.090  1.00  0.00     0.010 A 
ATOM     80  C   UNL     1      -6.621  -9.279  12.035  1.00  0.00     0.020 A 
ATOM     81  C   UNL     1      -5.736  -7.415  13.288  1.00  0.00     0.020 A 
ATOM     82  C   UNL     1      -6.351  -8.665  13.249  1.00  0.00     0.054 A 
BRANCH  82  83
ATOM     83  S   UNL     1      -6.768  -9.565  14.760  1.00  0.00     0.124 S 
ATOM     84  O   UNL     1      -8.228  -9.562  14.715  1.00  0.00    -0.237 OA
ATOM     85  O   UNL     1      -6.133 -10.861  14.537  1.00  0.00    -0.237 OA
ATOM     86  O   UNL     1      -6.172  -8.752  15.817  1.00  0.00    -0.744 OA
ENDBRANCH  82  83
ENDBRANCH  63  77
BRANCH  64  87
ATOM     87  C   UNL     1       0.355 -12.333   7.502  1.00  0.00    -0.014 A 
ATOM     88  C   UNL     1      -0.487 -13.315   6.944  1.00  0.00     0.010 A 
ATOM     89  C   UNL     1       1.285 -12.755   8.478  1.00  0.00     0.010 A 
ATOM     90  C   UNL     1      -0.472 -14.640   7.399  1.00  0.00     0.020 A 
ATOM     91  C   UNL     1       1.307 -14.087   8.940  1.00  0.00     0.020 A 
ATOM     92  C   UNL     1       0.396 -15.010   8.424  1.00  0.00     0.054 A 
BRANCH  92  93
ATOM     93  S   UNL     1       0.233 -16.681   9.122  1.00  0.00     0.124 S 
ATOM     94  O   UNL     1      -1.073 -16.611   9.771  1.00  0.00    -0.237 OA
ATOM     95  O   UNL     1       0.294 -17.528   7.932  1.00  0.00    -0.237 OA
ATOM     96  O   UNL     1       1.375 -16.797  10.023  1.00  0.00    -0.744 OA
ENDBRANCH  92  93
ENDBRANCH  64  87
BRANCH  76  97
ATOM     97  C   UNL     1       0.473  -5.939   8.107  1.00  0.00    -0.014 A 
ATOM     98  C   UNL     1       1.007  -4.756   8.651  1.00  0.00     0.010 A 
ATOM     99  C   UNL     1       0.750  -6.239   6.758  1.00  0.00     0.010 A 
ATOM    100  C   UNL     1       1.736  -3.864   7.865  1.00  0.00     0.020 A 
ATOM    101  C   UNL     1       1.510  -5.357   5.967  1.00  0.00     0.020 A 
ATOM    102  C   UNL     1       1.969  -4.159   6.521  1.00  0.00     0.054 A 
BRANCH 102 103
ATOM    103  S   UNL     1       2.846  -2.921   5.525  1.00  0.00     0.124 S 
ATOM    104  O   UNL     1       1.854  -1.854   5.410  1.00  0.00    -0.237 OA
ATOM    105  O   UNL     1       4.006  -2.602   6.355  1.00  0.00    -0.237 OA
ATOM    106  O   UNL     1       3.152  -3.617   4.278  1.00  0.00    -0.744 OA
ENDBRANCH 102 103
ENDBRANCH  76  97
ENDBRANCH  50  51
ENDBRANCH  43  45
ENDBRANCH  42  43
ENDBRANCH  41  42
ENDBRANCH  40  41
ENDBRANCH  39  40
ENDBRANCH   1  39
TORSDOF 23
