REMARK SMILES CS(=O)(=O)c1cc(F)ccc1N1CCC[C@@H](C(=O)OCCOCCOC(=O)c2ccc(-c3c4nc(c(-c5ccc(S(=O)(=O)[O-])cc5)c5ccc([nH]5)c(-c5ccc(S(=O)(=O)[O-])cc5)c5nc(c(-c6ccc(S(=O)(=O)[O-])cc6)c6ccc3[nH]6)C=C5)C=C4)cc2)C1
REMARK SMILES IDX 23 1 22 2 21 3 20 4 19 5 17 6 18 7 16 8 12 9 13 10 88 11
REMARK SMILES IDX 14 12 15 13 11 14 5 15 6 16 7 17 10 18 8 19 9 20 2 21 1 22
REMARK SMILES IDX 3 23 4 24 24 25 25 26 26 27 27 28 28 29 29 30 87 31 30 32
REMARK SMILES IDX 86 33 31 34 32 35 33 36 80 37 34 38 85 39 79 40 81 41 35 42
REMARK SMILES IDX 84 43 78 44 77 45 36 47 66 48 47 49 65 50 48 51 51 52 64 53
REMARK SMILES IDX 82 54 49 55 50 56 63 58 83 59 52 60 37 61 38 62 46 63 39 64
REMARK SMILES IDX 45 65 40 66 41 67 42 68 43 69 44 70 67 71 68 72 76 73 69 74
REMARK SMILES IDX 75 75 70 76 71 77 72 78 73 79 74 80 53 81 54 82 62 83 55 84
REMARK SMILES IDX 61 85 56 86 57 87 58 88 59 89 60 90
REMARK H PARENT 81 46 51 57
REMARK Flexibility Score: inf
ROOT
ATOM      1  C   UNL     1      -1.510  -1.288  -3.415  1.00  0.00     0.202 C 
ENDROOT
BRANCH   1   2
ATOM      2  O   UNL     1      -2.537  -0.952  -4.339  1.00  0.00    -0.374 OA
BRANCH   2   3
ATOM      3  C   UNL     1      -3.841  -0.706  -3.806  1.00  0.00     0.202 C 
BRANCH   3   4
ATOM      4  C   UNL     1      -4.576  -1.917  -3.218  1.00  0.00     0.261 C 
BRANCH   4   5
ATOM      5  O   UNL     1      -3.982  -2.353  -1.976  1.00  0.00    -0.463 OA
BRANCH   5   6
ATOM      6  C   UNL     1      -3.622  -3.662  -1.910  1.00  0.00     0.310 C 
ATOM      7  O   UNL     1      -3.806  -4.487  -2.798  1.00  0.00    -0.252 OA
BRANCH   6   8
ATOM      8  C   UNL     1      -2.981  -4.035  -0.591  1.00  0.00     0.118 C 
ATOM      9  N   UNL     1      -1.482  -3.441   1.246  1.00  0.00    -0.370 N 
ATOM     10  C   UNL     1      -2.435  -3.818   2.288  1.00  0.00     0.116 C 
ATOM     11  C   UNL     1      -2.026  -2.976  -0.035  1.00  0.00     0.131 C 
ATOM     12  C   UNL     1      -3.416  -4.858   1.741  1.00  0.00     0.022 C 
ATOM     13  C   UNL     1      -4.060  -4.391   0.435  1.00  0.00     0.019 C 
BRANCH   9  14
ATOM     14  C   UNL     1      -0.131  -3.588   1.463  1.00  0.00     0.056 A 
ATOM     15  C   UNL     1       0.789  -2.550   1.704  1.00  0.00     0.093 A 
ATOM     16  C   UNL     1       2.145  -2.835   1.965  1.00  0.00     0.061 A 
ATOM     17  C   UNL     1       2.595  -4.145   1.968  1.00  0.00     0.124 A 
ATOM     18  C   UNL     1       0.376  -4.907   1.482  1.00  0.00     0.030 A 
ATOM     19  F   UNL     1       3.886  -4.401   2.213  1.00  0.00    -0.207 F 
ATOM     20  C   UNL     1       1.722  -5.189   1.726  1.00  0.00     0.041 A 
BRANCH  15  21
ATOM     21  S   UNL     1       0.364  -0.819   1.796  1.00  0.00     0.177 S 
ATOM     22  C   UNL     1       1.380  -0.085   0.535  1.00  0.00     0.164 C 
ATOM     23  O   UNL     1       0.850  -0.344   3.082  1.00  0.00    -0.224 OA
ATOM     24  O   UNL     1      -1.008  -0.597   1.399  1.00  0.00    -0.224 OA
ENDBRANCH  15  21
ENDBRANCH   9  14
ENDBRANCH   6   8
ENDBRANCH   5   6
ENDBRANCH   4   5
ENDBRANCH   3   4
ENDBRANCH   2   3
ENDBRANCH   1   2
BRANCH   1  25
ATOM     25  C   UNL     1      -0.915  -0.142  -2.591  1.00  0.00     0.261 C 
BRANCH  25  26
ATOM     26  O   UNL     1      -1.899   0.677  -1.945  1.00  0.00    -0.460 OA
BRANCH  26  27
ATOM     27  C   UNL     1      -1.952   1.947  -2.417  1.00  0.00     0.338 C 
ATOM     28  O   UNL     1      -1.191   2.461  -3.222  1.00  0.00    -0.246 OA
BRANCH  27  29
ATOM     29  C   UNL     1      -3.170   2.633  -1.951  1.00  0.00     0.060 A 
ATOM     30  C   UNL     1      -4.011   3.162  -2.936  1.00  0.00     0.016 A 
ATOM     31  C   UNL     1      -3.431   2.860  -0.597  1.00  0.00     0.016 A 
ATOM     32  C   UNL     1      -5.079   3.977  -2.573  1.00  0.00     0.010 A 
ATOM     33  C   UNL     1      -4.506   3.685  -0.235  1.00  0.00     0.010 A 
ATOM     34  C   UNL     1      -5.309   4.282  -1.223  1.00  0.00    -0.014 A 
BRANCH  34  35
ATOM     35  C   UNL     1      -6.319   5.322  -0.902  1.00  0.00     0.031 A 
ATOM     36  C   UNL     1      -5.871   6.738  -0.650  1.00  0.00     0.074 A 
ATOM     37  C   UNL     1      -7.631   5.031  -0.950  1.00  0.00     0.049 A 
ATOM     38  N   UNL     1      -6.592   7.824  -0.530  1.00  0.00    -0.248 NA
ATOM     39  C   UNL     1      -4.422   6.961  -0.523  1.00  0.00     0.031 C 
ATOM     40  C   UNL     1      -8.193   3.704  -1.202  1.00  0.00     0.029 A 
ATOM     41  N   UNL     1      -8.730   5.842  -0.816  1.00  0.00    -0.354 N 
ATOM     42  C   UNL     1      -5.687   8.860  -0.328  1.00  0.00     0.074 A 
ATOM     43  C   UNL     1      -4.367   8.267  -0.301  1.00  0.00     0.031 C 
ATOM     44  C   UNL     1      -9.534   3.796  -1.225  1.00  0.00     0.029 A 
ATOM     45  C   UNL     1      -9.925   5.183  -0.982  1.00  0.00     0.049 A 
ATOM     46  H   UNL     1      -8.669   6.805  -0.619  1.00  0.00     0.167 HD
ATOM     47  C   UNL     1      -5.929  10.187  -0.192  1.00  0.00     0.031 A 
ATOM     48  C   UNL     1     -11.190   5.644  -0.954  1.00  0.00     0.031 A 
ATOM     49  C   UNL     1      -7.242  10.777  -0.197  1.00  0.00     0.049 A 
ATOM     50  C   UNL     1     -11.436   7.117  -0.764  1.00  0.00     0.074 A 
ATOM     51  C   UNL     1      -7.589  12.112  -0.081  1.00  0.00     0.029 A 
ATOM     52  N   UNL     1      -8.428  10.067  -0.314  1.00  0.00    -0.354 N 
ATOM     53  N   UNL     1     -10.565   8.088  -0.624  1.00  0.00    -0.248 NA
ATOM     54  C   UNL     1     -12.838   7.556  -0.749  1.00  0.00     0.031 C 
ATOM     55  C   UNL     1      -8.986  12.204  -0.080  1.00  0.00     0.029 A 
ATOM     56  C   UNL     1      -9.508  10.932  -0.248  1.00  0.00     0.049 A 
ATOM     57  H   UNL     1      -8.492   9.091  -0.428  1.00  0.00     0.167 HD
ATOM     58  C   UNL     1     -11.314   9.256  -0.520  1.00  0.00     0.074 A 
ATOM     59  C   UNL     1     -12.706   8.871  -0.639  1.00  0.00     0.031 C 
ATOM     60  C   UNL     1     -10.889  10.532  -0.344  1.00  0.00     0.031 A 
BRANCH  47  61
ATOM     61  C   UNL     1      -4.739  11.090  -0.000  1.00  0.00    -0.014 A 
ATOM     62  C   UNL     1      -3.866  11.375  -1.065  1.00  0.00     0.010 A 
ATOM     63  C   UNL     1      -4.508  11.686   1.252  1.00  0.00     0.010 A 
ATOM     64  C   UNL     1      -2.760  12.209  -0.871  1.00  0.00     0.020 A 
ATOM     65  C   UNL     1      -3.417  12.539   1.445  1.00  0.00     0.020 A 
ATOM     66  C   UNL     1      -2.540  12.781   0.386  1.00  0.00     0.054 A 
BRANCH  66  67
ATOM     67  S   UNL     1      -1.106  13.871   0.609  1.00  0.00     0.124 S 
ATOM     68  O   UNL     1      -0.003  12.914   0.643  1.00  0.00    -0.237 OA
ATOM     69  O   UNL     1      -1.161  14.723  -0.576  1.00  0.00    -0.237 OA
ATOM     70  O   UNL     1      -1.381  14.550   1.873  1.00  0.00    -0.744 OA
ENDBRANCH  66  67
ENDBRANCH  47  61
BRANCH  48  71
ATOM     71  C   UNL     1     -12.326   4.699  -1.124  1.00  0.00    -0.014 A 
ATOM     72  C   UNL     1     -13.098   4.700  -2.298  1.00  0.00     0.010 A 
ATOM     73  C   UNL     1     -12.636   3.782  -0.102  1.00  0.00     0.010 A 
ATOM     74  C   UNL     1     -14.167   3.810  -2.444  1.00  0.00     0.020 A 
ATOM     75  C   UNL     1     -13.687   2.874  -0.255  1.00  0.00     0.020 A 
ATOM     76  C   UNL     1     -14.453   2.901  -1.421  1.00  0.00     0.054 A 
BRANCH  76  77
ATOM     77  S   UNL     1     -15.802   1.711  -1.654  1.00  0.00     0.124 S 
ATOM     78  O   UNL     1     -16.981   2.540  -1.429  1.00  0.00    -0.237 OA
ATOM     79  O   UNL     1     -15.596   1.262  -3.029  1.00  0.00    -0.237 OA
ATOM     80  O   UNL     1     -15.543   0.698  -0.633  1.00  0.00    -0.744 OA
ENDBRANCH  76  77
ENDBRANCH  48  71
BRANCH  60  81
ATOM     81  C   UNL     1     -11.947  11.602  -0.278  1.00  0.00    -0.014 A 
ATOM     82  C   UNL     1     -12.793  11.719   0.841  1.00  0.00     0.010 A 
ATOM     83  C   UNL     1     -12.095  12.505  -1.346  1.00  0.00     0.010 A 
ATOM     84  C   UNL     1     -13.803  12.684   0.865  1.00  0.00     0.020 A 
ATOM     85  C   UNL     1     -13.087  13.488  -1.313  1.00  0.00     0.020 A 
ATOM     86  C   UNL     1     -13.951  13.556  -0.218  1.00  0.00     0.054 A 
BRANCH  86  87
ATOM     87  S   UNL     1     -15.272  14.799  -0.170  1.00  0.00     0.124 S 
ATOM     88  O   UNL     1     -16.449  14.001  -0.502  1.00  0.00    -0.237 OA
ATOM     89  O   UNL     1     -15.210  15.285   1.206  1.00  0.00    -0.237 OA
ATOM     90  O   UNL     1     -14.869  15.769  -1.185  1.00  0.00    -0.744 OA
ENDBRANCH  86  87
ENDBRANCH  60  81
ENDBRANCH  34  35
ENDBRANCH  27  29
ENDBRANCH  26  27
ENDBRANCH  25  26
ENDBRANCH   1  25
TORSDOF 19
