REMARK SMILES CCCc1nnsc1C(=O)NC[C@@H]1CC[C@@H](C(=O)OCCOCCOC(=O)c2ccc(-c3c4nc(c(-c5ccc(S(=O)(=O)[O-])cc5)c5ccc([nH]5)c(-c5ccc(S(=O)(=O)[O-])cc5)c5nc(c(-c6ccc(S(=O)(=O)[O-])cc6)c6ccc3[nH]6)C=C5)C=C4)cc2)O1
REMARK SMILES IDX 21 1 20 2 19 3 17 4 18 5 16 6 13 7 14 8 88 9 15 10 12 11
REMARK SMILES IDX 11 12 9 13 10 14 8 16 4 17 5 18 6 19 7 20 3 21 2 22 1 23
REMARK SMILES IDX 22 24 23 25 24 26 25 27 26 28 27 29 28 30 29 31 87 32 30 33
REMARK SMILES IDX 86 34 31 35 32 36 33 37 80 38 34 39 85 40 79 41 81 42 35 43
REMARK SMILES IDX 84 44 78 45 77 46 36 48 66 49 47 50 65 51 48 52 51 53 64 54
REMARK SMILES IDX 82 55 49 56 50 57 63 59 83 60 52 61 37 62 38 63 46 64 39 65
REMARK SMILES IDX 45 66 40 67 41 68 42 69 43 70 44 71 67 72 68 73 76 74 69 75
REMARK SMILES IDX 75 76 70 77 71 78 72 79 73 80 74 81 53 82 54 83 62 84 55 85
REMARK SMILES IDX 61 86 56 87 57 88 58 89 59 90 60 91
REMARK H PARENT 11 15 81 47 51 58
REMARK Flexibility Score: inf
ROOT
ATOM      1  C   UNL     1       5.503  -8.998   1.571  1.00  0.00     0.202 C 
ENDROOT
BRANCH   1   2
ATOM      2  C   UNL     1       4.029  -9.403   1.478  1.00  0.00     0.261 C 
BRANCH   2   3
ATOM      3  O   UNL     1       3.231  -8.420   0.786  1.00  0.00    -0.461 OA
BRANCH   3   4
ATOM      4  C   UNL     1       2.238  -7.843   1.522  1.00  0.00     0.335 C 
ATOM      5  O   UNL     1       2.027  -8.071   2.707  1.00  0.00    -0.249 OA
BRANCH   4   6
ATOM      6  C   UNL     1       1.400  -6.879   0.672  1.00  0.00     0.228 C 
ATOM      7  C   UNL     1       0.878  -4.763   1.515  1.00  0.00     0.138 C 
ATOM      8  C   UNL     1       1.405  -4.555   0.113  1.00  0.00     0.037 C 
ATOM      9  O   UNL     1       0.494  -6.147   1.530  1.00  0.00    -0.361 OA
ATOM     10  C   UNL     1       2.200  -5.827  -0.093  1.00  0.00     0.047 C 
BRANCH   7  11
ATOM     11  C   UNL     1      -0.324  -3.901   1.915  1.00  0.00     0.148 C 
BRANCH  11  12
ATOM     12  N   UNL     1      -0.381  -3.782   3.364  1.00  0.00    -0.349 N 
ATOM     13  C   UNL     1      -0.305  -2.743   4.251  1.00  0.00     0.265 C 
ATOM     14  O   UNL     1      -0.477  -3.079   5.428  1.00  0.00    -0.268 OA
ATOM     15  H   UNL     1      -0.501  -4.651   3.809  1.00  0.00     0.163 HD
BRANCH  13  16
ATOM     16  C   UNL     1      -0.085  -1.359   3.880  1.00  0.00     0.136 A 
ATOM     17  C   UNL     1       0.612  -0.626   2.919  1.00  0.00     0.088 A 
ATOM     18  N   UNL     1       0.546   0.761   3.084  1.00  0.00    -0.142 NA
ATOM     19  N   UNL     1      -0.173   1.116   4.126  1.00  0.00    -0.090 NA
ATOM     20  S   UNL     1      -0.779  -0.185   4.958  1.00  0.00    -0.006 S 
BRANCH  17  21
ATOM     21  C   UNL     1       1.473  -1.067   1.781  1.00  0.00     0.060 C 
BRANCH  21  22
ATOM     22  C   UNL     1       0.816  -0.827   0.412  1.00  0.00     0.003 C 
ATOM     23  C   UNL     1       1.034   0.577  -0.133  1.00  0.00     0.004 C 
ENDBRANCH  21  22
ENDBRANCH  17  21
ENDBRANCH  13  16
ENDBRANCH  11  12
ENDBRANCH   7  11
ENDBRANCH   4   6
ENDBRANCH   3   4
ENDBRANCH   2   3
ENDBRANCH   1   2
BRANCH   1  24
ATOM     24  O   UNL     1       5.818  -7.934   2.470  1.00  0.00    -0.374 OA
BRANCH  24  25
ATOM     25  C   UNL     1       5.474  -6.615   2.062  1.00  0.00     0.202 C 
BRANCH  25  26
ATOM     26  C   UNL     1       6.409  -5.948   1.042  1.00  0.00     0.261 C 
BRANCH  26  27
ATOM     27  O   UNL     1       6.492  -6.675  -0.197  1.00  0.00    -0.460 OA
BRANCH  27  28
ATOM     28  C   UNL     1       7.701  -7.239  -0.438  1.00  0.00     0.338 C 
ATOM     29  O   UNL     1       8.723  -7.100   0.223  1.00  0.00    -0.246 OA
BRANCH  28  30
ATOM     30  C   UNL     1       7.606  -8.216  -1.537  1.00  0.00     0.060 A 
ATOM     31  C   UNL     1       8.029  -9.524  -1.273  1.00  0.00     0.016 A 
ATOM     32  C   UNL     1       7.184  -7.853  -2.819  1.00  0.00     0.016 A 
ATOM     33  C   UNL     1       8.071 -10.466  -2.299  1.00  0.00     0.010 A 
ATOM     34  C   UNL     1       7.237  -8.799  -3.851  1.00  0.00     0.010 A 
ATOM     35  C   UNL     1       7.708 -10.101  -3.602  1.00  0.00    -0.014 A 
BRANCH  35  36
ATOM     36  C   UNL     1       7.944 -11.053  -4.715  1.00  0.00     0.031 A 
ATOM     37  C   UNL     1       9.191 -10.919  -5.547  1.00  0.00     0.074 A 
ATOM     38  C   UNL     1       7.078 -12.055  -4.954  1.00  0.00     0.049 A 
ATOM     39  N   UNL     1       9.598 -11.653  -6.550  1.00  0.00    -0.248 NA
ATOM     40  C   UNL     1      10.100  -9.815  -5.200  1.00  0.00     0.031 C 
ATOM     41  C   UNL     1       5.856 -12.315  -4.194  1.00  0.00     0.029 A 
ATOM     42  N   UNL     1       7.099 -13.043  -5.907  1.00  0.00    -0.354 N 
ATOM     43  C   UNL     1      10.809 -11.103  -6.955  1.00  0.00     0.074 A 
ATOM     44  C   UNL     1      11.056  -9.957  -6.107  1.00  0.00     0.031 C 
ATOM     45  C   UNL     1       5.241 -13.392  -4.713  1.00  0.00     0.029 A 
ATOM     46  C   UNL     1       6.011 -13.880  -5.856  1.00  0.00     0.049 A 
ATOM     47  H   UNL     1       7.825 -13.143  -6.564  1.00  0.00     0.167 HD
ATOM     48  C   UNL     1      11.643 -11.517  -7.939  1.00  0.00     0.031 A 
ATOM     49  C   UNL     1       5.665 -14.914  -6.650  1.00  0.00     0.031 A 
ATOM     50  C   UNL     1      11.389 -12.647  -8.793  1.00  0.00     0.049 A 
ATOM     51  C   UNL     1       6.572 -15.310  -7.785  1.00  0.00     0.074 A 
ATOM     52  C   UNL     1      12.182 -13.153  -9.808  1.00  0.00     0.029 A 
ATOM     53  N   UNL     1      10.253 -13.440  -8.740  1.00  0.00    -0.354 N 
ATOM     54  N   UNL     1       7.727 -14.796  -8.134  1.00  0.00    -0.248 NA
ATOM     55  C   UNL     1       6.130 -16.430  -8.629  1.00  0.00     0.031 C 
ATOM     56  C   UNL     1      11.500 -14.220 -10.404  1.00  0.00     0.029 A 
ATOM     57  C   UNL     1      10.308 -14.412  -9.724  1.00  0.00     0.049 A 
ATOM     58  H   UNL     1       9.516 -13.328  -8.097  1.00  0.00     0.167 HD
ATOM     59  C   UNL     1       8.159 -15.542  -9.226  1.00  0.00     0.074 A 
ATOM     60  C   UNL     1       7.149 -16.552  -9.469  1.00  0.00     0.031 C 
ATOM     61  C   UNL     1       9.290 -15.404  -9.961  1.00  0.00     0.031 A 
BRANCH  48  62
ATOM     62  C   UNL     1      12.899 -10.719  -8.165  1.00  0.00    -0.014 A 
ATOM     63  C   UNL     1      13.976 -10.788  -7.265  1.00  0.00     0.010 A 
ATOM     64  C   UNL     1      13.016  -9.918  -9.316  1.00  0.00     0.010 A 
ATOM     65  C   UNL     1      15.136 -10.040  -7.492  1.00  0.00     0.020 A 
ATOM     66  C   UNL     1      14.182  -9.187  -9.558  1.00  0.00     0.020 A 
ATOM     67  C   UNL     1      15.229  -9.240  -8.635  1.00  0.00     0.054 A 
BRANCH  67  68
ATOM     68  S   UNL     1      16.750  -8.293  -8.915  1.00  0.00     0.124 S 
ATOM     69  O   UNL     1      16.619  -7.218  -7.934  1.00  0.00    -0.237 OA
ATOM     70  O   UNL     1      17.796  -9.274  -8.636  1.00  0.00    -0.237 OA
ATOM     71  O   UNL     1      16.647  -7.876 -10.312  1.00  0.00    -0.744 OA
ENDBRANCH  67  68
ENDBRANCH  48  62
BRANCH  49  72
ATOM     72  C   UNL     1       4.384 -15.633  -6.414  1.00  0.00    -0.014 A 
ATOM     73  C   UNL     1       4.377 -16.948  -5.917  1.00  0.00     0.010 A 
ATOM     74  C   UNL     1       3.159 -14.998  -6.685  1.00  0.00     0.010 A 
ATOM     75  C   UNL     1       3.168 -17.618  -5.706  1.00  0.00     0.020 A 
ATOM     76  C   UNL     1       1.948 -15.654  -6.452  1.00  0.00     0.020 A 
ATOM     77  C   UNL     1       1.961 -16.965  -5.973  1.00  0.00     0.054 A 
BRANCH  77  78
ATOM     78  S   UNL     1       0.400 -17.828  -5.635  1.00  0.00     0.124 S 
ATOM     79  O   UNL     1       0.317 -18.755  -6.759  1.00  0.00    -0.237 OA
ATOM     80  O   UNL     1       0.650 -18.435  -4.330  1.00  0.00    -0.237 OA
ATOM     81  O   UNL     1      -0.589 -16.752  -5.633  1.00  0.00    -0.744 OA
ENDBRANCH  77  78
ENDBRANCH  49  72
BRANCH  61  82
ATOM     82  C   UNL     1       9.508 -16.378 -11.088  1.00  0.00    -0.014 A 
ATOM     83  C   UNL     1       8.770 -16.284 -12.280  1.00  0.00     0.010 A 
ATOM     84  C   UNL     1      10.503 -17.366 -10.972  1.00  0.00     0.010 A 
ATOM     85  C   UNL     1       9.002 -17.181 -13.327  1.00  0.00     0.020 A 
ATOM     86  C   UNL     1      10.755 -18.249 -12.025  1.00  0.00     0.020 A 
ATOM     87  C   UNL     1       9.992 -18.159 -13.192  1.00  0.00     0.054 A 
BRANCH  87  88
ATOM     88  S   UNL     1      10.305 -19.285 -14.580  1.00  0.00     0.124 S 
ATOM     89  O   UNL     1       9.168 -20.197 -14.492  1.00  0.00    -0.237 OA
ATOM     90  O   UNL     1      10.302 -18.386 -15.731  1.00  0.00    -0.237 OA
ATOM     91  O   UNL     1      11.604 -19.874 -14.261  1.00  0.00    -0.744 OA
ENDBRANCH  87  88
ENDBRANCH  61  82
ENDBRANCH  35  36
ENDBRANCH  28  30
ENDBRANCH  27  28
ENDBRANCH  26  27
ENDBRANCH  25  26
ENDBRANCH  24  25
ENDBRANCH   1  24
TORSDOF 22
