REMARK SMILES N#Cc1ccccc1S(=O)(=O)N1CCC(C(=O)OCCOCCOC(=O)c2ccc(-c3c4nc(c(-c5ccc(S(=O)(=O)[O-])cc5)c5ccc([nH]5)c(-c5ccc(S(=O)(=O)[O-])cc5)c5nc(c(-c6ccc(S(=O)(=O)[O-])cc6)c6ccc3[nH]6)C=C5)C=C4)cc2)CC1
REMARK SMILES IDX 21 1 20 2 19 3 18 4 16 5 17 6 15 7 12 8 13 9 88 10 14 11
REMARK SMILES IDX 87 12 9 13 10 14 11 15 8 16 3 17 4 18 5 19 7 20 6 21 2 22
REMARK SMILES IDX 1 23 22 24 23 25 24 26 25 27 26 28 27 29 28 30 86 31 29 32
REMARK SMILES IDX 85 33 30 34 31 35 32 36 79 37 33 38 84 39 78 40 80 41 34 42
REMARK SMILES IDX 83 43 77 44 76 45 35 47 65 48 46 49 64 50 47 51 50 52 63 53
REMARK SMILES IDX 81 54 48 55 49 56 62 58 82 59 51 60 36 61 37 62 45 63 38 64
REMARK SMILES IDX 44 65 39 66 40 67 41 68 42 69 43 70 66 71 67 72 75 73 68 74
REMARK SMILES IDX 74 75 69 76 70 77 71 78 72 79 73 80 52 81 53 82 61 83 54 84
REMARK SMILES IDX 60 85 55 86 56 87 57 88 58 89 59 90
REMARK H PARENT 80 46 50 57
REMARK Flexibility Score: inf
ROOT
ATOM      1  O   UNL     1      -8.619   0.486   0.609  1.00  0.00    -0.374 OA
ENDROOT
BRANCH   1   2
ATOM      2  C   UNL     1      -9.119  -0.700  -0.002  1.00  0.00     0.202 C 
BRANCH   2   3
ATOM      3  C   UNL     1      -8.371  -1.285  -1.202  1.00  0.00     0.261 C 
BRANCH   3   4
ATOM      4  O   UNL     1      -7.008  -1.595  -0.889  1.00  0.00    -0.463 OA
BRANCH   4   5
ATOM      5  C   UNL     1      -6.097  -0.744  -1.420  1.00  0.00     0.309 C 
ATOM      6  O   UNL     1      -6.350   0.178  -2.189  1.00  0.00    -0.252 OA
BRANCH   5   7
ATOM      7  C   UNL     1      -4.689  -1.039  -0.967  1.00  0.00     0.102 C 
ATOM      8  N   UNL     1      -2.154  -2.225  -0.389  1.00  0.00    -0.198 NA
ATOM      9  C   UNL     1      -3.085  -2.040   0.742  1.00  0.00     0.103 C 
ATOM     10  C   UNL     1      -2.493  -1.837  -1.769  1.00  0.00     0.103 C 
ATOM     11  C   UNL     1      -4.533  -1.762   0.365  1.00  0.00     0.032 C 
ATOM     12  C   UNL     1      -3.982  -1.838  -2.039  1.00  0.00     0.032 C 
BRANCH   8  13
ATOM     13  S   UNL     1      -0.534  -2.506  -0.021  1.00  0.00     0.244 S 
ATOM     14  O   UNL     1       0.021  -3.241  -1.141  1.00  0.00    -0.207 OA
ATOM     15  O   UNL     1      -0.455  -3.028   1.326  1.00  0.00    -0.207 OA
BRANCH  13  16
ATOM     16  C   UNL     1       0.380  -0.974   0.015  1.00  0.00     0.100 A 
ATOM     17  C   UNL     1      -0.125   0.326   0.082  1.00  0.00     0.072 A 
ATOM     18  C   UNL     1       0.775   1.413   0.051  1.00  0.00     0.021 A 
ATOM     19  C   UNL     1       2.152   1.217   0.000  1.00  0.00     0.001 A 
ATOM     20  C   UNL     1       1.779  -1.158  -0.028  1.00  0.00     0.023 A 
ATOM     21  C   UNL     1       2.656  -0.074  -0.024  1.00  0.00     0.001 A 
BRANCH  17  22
ATOM     22  C   UNL     1      -1.488   0.706   0.245  1.00  0.00     0.101 C 
ATOM     23  N   UNL     1      -2.551   1.145   0.414  1.00  0.00    -0.192 NA
ENDBRANCH  17  22
ENDBRANCH  13  16
ENDBRANCH   8  13
ENDBRANCH   5   7
ENDBRANCH   4   5
ENDBRANCH   3   4
ENDBRANCH   2   3
ENDBRANCH   1   2
BRANCH   1  24
ATOM     24  C   UNL     1      -7.437   0.404   1.401  1.00  0.00     0.202 C 
BRANCH  24  25
ATOM     25  C   UNL     1      -7.463  -0.405   2.710  1.00  0.00     0.261 C 
BRANCH  25  26
ATOM     26  O   UNL     1      -7.729  -1.807   2.525  1.00  0.00    -0.460 OA
BRANCH  26  27
ATOM     27  C   UNL     1      -8.946  -2.208   2.976  1.00  0.00     0.338 C 
ATOM     28  O   UNL     1      -9.786  -1.519   3.533  1.00  0.00    -0.246 OA
BRANCH  27  29
ATOM     29  C   UNL     1      -9.242  -3.577   2.515  1.00  0.00     0.060 A 
ATOM     30  C   UNL     1     -10.366  -3.757   1.697  1.00  0.00     0.016 A 
ATOM     31  C   UNL     1      -8.507  -4.673   2.965  1.00  0.00     0.016 A 
ATOM     32  C   UNL     1     -10.790  -5.040   1.364  1.00  0.00     0.010 A 
ATOM     33  C   UNL     1      -8.941  -5.962   2.636  1.00  0.00     0.010 A 
ATOM     34  C   UNL     1     -10.105  -6.152   1.867  1.00  0.00    -0.014 A 
BRANCH  34  35
ATOM     35  C   UNL     1     -10.690  -7.506   1.701  1.00  0.00     0.031 A 
ATOM     36  C   UNL     1     -11.354  -8.169   2.879  1.00  0.00     0.074 A 
ATOM     37  C   UNL     1     -10.661  -8.122   0.506  1.00  0.00     0.049 A 
ATOM     38  N   UNL     1     -11.893  -9.358   2.964  1.00  0.00    -0.248 NA
ATOM     39  C   UNL     1     -11.416  -7.390   4.127  1.00  0.00     0.031 C 
ATOM     40  C   UNL     1     -10.096  -7.561  -0.721  1.00  0.00     0.029 A 
ATOM     41  N   UNL     1     -11.118  -9.360   0.129  1.00  0.00    -0.354 N 
ATOM     42  C   UNL     1     -12.341  -9.478   4.275  1.00  0.00     0.074 A 
ATOM     43  C   UNL     1     -11.983  -8.253   4.957  1.00  0.00     0.031 C 
ATOM     44  C   UNL     1     -10.236  -8.454  -1.714  1.00  0.00     0.029 A 
ATOM     45  C   UNL     1     -10.858  -9.666  -1.185  1.00  0.00     0.049 A 
ATOM     46  H   UNL     1     -11.587  -9.971   0.742  1.00  0.00     0.167 HD
ATOM     47  C   UNL     1     -12.995 -10.513   4.856  1.00  0.00     0.031 A 
ATOM     48  C   UNL     1     -11.071 -10.803  -1.877  1.00  0.00     0.031 A 
ATOM     49  C   UNL     1     -13.336 -11.734   4.172  1.00  0.00     0.049 A 
ATOM     50  C   UNL     1     -11.723 -11.972  -1.186  1.00  0.00     0.074 A 
ATOM     51  C   UNL     1     -14.014 -12.834   4.666  1.00  0.00     0.029 A 
ATOM     52  N   UNL     1     -13.016 -12.022   2.853  1.00  0.00    -0.354 N 
ATOM     53  N   UNL     1     -12.165 -12.061   0.046  1.00  0.00    -0.248 NA
ATOM     54  C   UNL     1     -11.913 -13.192  -1.983  1.00  0.00     0.031 C 
ATOM     55  C   UNL     1     -14.037 -13.816   3.672  1.00  0.00     0.029 A 
ATOM     56  C   UNL     1     -13.450 -13.297   2.529  1.00  0.00     0.049 A 
ATOM     57  H   UNL     1     -12.550 -11.410   2.239  1.00  0.00     0.167 HD
ATOM     58  C   UNL     1     -12.715 -13.335   0.161  1.00  0.00     0.074 A 
ATOM     59  C   UNL     1     -12.565 -13.971  -1.131  1.00  0.00     0.031 C 
ATOM     60  C   UNL     1     -13.293 -13.923   1.238  1.00  0.00     0.031 A 
BRANCH  47  61
ATOM     61  C   UNL     1     -13.347 -10.389   6.318  1.00  0.00    -0.014 A 
ATOM     62  C   UNL     1     -14.316  -9.474   6.768  1.00  0.00     0.010 A 
ATOM     63  C   UNL     1     -12.730 -11.241   7.253  1.00  0.00     0.010 A 
ATOM     64  C   UNL     1     -14.630  -9.386   8.127  1.00  0.00     0.020 A 
ATOM     65  C   UNL     1     -13.067 -11.181   8.608  1.00  0.00     0.020 A 
ATOM     66  C   UNL     1     -14.004 -10.241   9.039  1.00  0.00     0.054 A 
BRANCH  66  67
ATOM     67  S   UNL     1     -14.454 -10.123  10.792  1.00  0.00     0.124 S 
ATOM     68  O   UNL     1     -13.892  -8.826  11.161  1.00  0.00    -0.237 OA
ATOM     69  O   UNL     1     -15.913 -10.185  10.750  1.00  0.00    -0.237 OA
ATOM     70  O   UNL     1     -13.800 -11.279  11.399  1.00  0.00    -0.744 OA
ENDBRANCH  66  67
ENDBRANCH  47  61
BRANCH  48  71
ATOM     71  C   UNL     1     -10.641 -10.899  -3.300  1.00  0.00    -0.014 A 
ATOM     72  C   UNL     1     -11.587 -11.025  -4.332  1.00  0.00     0.010 A 
ATOM     73  C   UNL     1      -9.273 -10.867  -3.630  1.00  0.00     0.010 A 
ATOM     74  C   UNL     1     -11.174 -11.133  -5.664  1.00  0.00     0.020 A 
ATOM     75  C   UNL     1      -8.857 -10.940  -4.962  1.00  0.00     0.020 A 
ATOM     76  C   UNL     1      -9.811 -11.083  -5.970  1.00  0.00     0.054 A 
BRANCH  76  77
ATOM     77  S   UNL     1      -9.304 -11.172  -7.710  1.00  0.00     0.124 S 
ATOM     78  O   UNL     1      -9.622 -12.555  -8.050  1.00  0.00    -0.237 OA
ATOM     79  O   UNL     1     -10.148 -10.156  -8.332  1.00  0.00    -0.237 OA
ATOM     80  O   UNL     1      -7.879 -10.849  -7.668  1.00  0.00    -0.744 OA
ENDBRANCH  76  77
ENDBRANCH  48  71
BRANCH  60  81
ATOM     81  C   UNL     1     -13.850 -15.314   1.060  1.00  0.00    -0.014 A 
ATOM     82  C   UNL     1     -13.009 -16.424   0.866  1.00  0.00     0.010 A 
ATOM     83  C   UNL     1     -15.240 -15.518   1.145  1.00  0.00     0.010 A 
ATOM     84  C   UNL     1     -13.551 -17.705   0.722  1.00  0.00     0.020 A 
ATOM     85  C   UNL     1     -15.783 -16.800   1.039  1.00  0.00     0.020 A 
ATOM     86  C   UNL     1     -14.935 -17.885   0.813  1.00  0.00     0.054 A 
BRANCH  86  87
ATOM     87  S   UNL     1     -15.607 -19.564   0.667  1.00  0.00     0.124 S 
ATOM     88  O   UNL     1     -15.378 -19.862  -0.744  1.00  0.00    -0.237 OA
ATOM     89  O   UNL     1     -14.786 -20.318   1.611  1.00  0.00    -0.237 OA
ATOM     90  O   UNL     1     -17.009 -19.412   1.051  1.00  0.00    -0.744 OA
ENDBRANCH  86  87
ENDBRANCH  60  81
ENDBRANCH  34  35
ENDBRANCH  27  29
ENDBRANCH  26  27
ENDBRANCH  25  26
ENDBRANCH  24  25
ENDBRANCH   1  24
TORSDOF 20
