REMARK SMILES O=C(CCOc1ccccc1C(F)(F)F)OCCOCCOC(=O)c1ccc(-c2c3nc(c(-c4ccc(S(=O)(=O)[O-])cc4)c4ccc([nH]4)c(-c4ccc(S(=O)(=O)[O-])cc4)c4nc(c(-c5ccc(S(=O)(=O)[O-])cc5)c5ccc2[nH]5)C=C4)C=C3)cc1
REMARK SMILES IDX 18 1 17 2 16 3 2 4 1 5 3 6 4 7 5 8 6 9 7 10 11 11 8 12 10 13
REMARK SMILES IDX 9 14 12 15 13 16 14 17 15 18 19 19 20 20 21 21 22 22 23 23
REMARK SMILES IDX 24 24 25 25 26 26 84 27 27 28 83 29 28 30 29 31 30 32 77 33
REMARK SMILES IDX 31 34 82 35 76 36 78 37 32 38 81 39 75 40 74 41 33 43 63 44
REMARK SMILES IDX 44 45 62 46 45 47 48 48 61 49 79 50 46 51 47 52 60 54 80 55
REMARK SMILES IDX 49 56 34 57 35 58 43 59 36 60 42 61 37 62 38 63 39 64 40 65
REMARK SMILES IDX 41 66 64 67 65 68 73 69 66 70 72 71 67 72 68 73 69 74 70 75
REMARK SMILES IDX 71 76 50 77 51 78 59 79 52 80 58 81 53 82 54 83 55 84 56 85
REMARK SMILES IDX 57 86
REMARK H PARENT 78 42 48 53
REMARK Flexibility Score: inf
ROOT
ATOM      1  C   UNL     1       4.111  -0.931   1.758  1.00  0.00     0.202 C 
ENDROOT
BRANCH   1   2
ATOM      2  C   UNL     1       2.632  -0.486   1.888  1.00  0.00     0.261 C 
BRANCH   2   3
ATOM      3  O   UNL     1       1.819   0.105   0.712  1.00  0.00    -0.463 OA
BRANCH   3   4
ATOM      4  C   UNL     1       1.189   0.656  -0.316  1.00  0.00     0.309 C 
ATOM      5  O   UNL     1      -0.026   0.394  -0.361  1.00  0.00    -0.252 OA
BRANCH   4   6
ATOM      6  C   UNL     1       1.664   1.763  -1.353  1.00  0.00     0.164 C 
BRANCH   6   7
ATOM      7  C   UNL     1       2.703   2.084  -2.522  1.00  0.00     0.241 C 
BRANCH   7   8
ATOM      8  O   UNL     1       4.083   2.575  -2.449  1.00  0.00    -0.492 OA
BRANCH   8   9
ATOM      9  C   UNL     1       4.699   2.504  -1.243  1.00  0.00     0.131 A 
ATOM     10  C   UNL     1       5.458   3.578  -0.773  1.00  0.00     0.047 A 
ATOM     11  C   UNL     1       4.318   1.509  -0.407  1.00  0.00     0.097 A 
ATOM     12  C   UNL     1       5.423   3.893   0.581  1.00  0.00     0.004 A 
ATOM     13  C   UNL     1       3.982   2.028   0.854  1.00  0.00     0.017 A 
ATOM     14  C   UNL     1       4.527   3.207   1.364  1.00  0.00     0.001 A 
BRANCH  11  15
ATOM     15  C   UNL     1       4.333   0.101  -1.047  1.00  0.00     0.419 C 
ATOM     16  F   UNL     1       3.376  -0.774  -0.655  1.00  0.00    -0.166 F 
ATOM     17  F   UNL     1       4.177   0.071  -2.407  1.00  0.00    -0.166 F 
ATOM     18  F   UNL     1       5.527  -0.525  -0.856  1.00  0.00    -0.166 F 
ENDBRANCH  11  15
ENDBRANCH   8   9
ENDBRANCH   7   8
ENDBRANCH   6   7
ENDBRANCH   4   6
ENDBRANCH   3   4
ENDBRANCH   2   3
ENDBRANCH   1   2
BRANCH   1  19
ATOM     19  O   UNL     1       4.487  -2.154   1.147  1.00  0.00    -0.374 OA
BRANCH  19  20
ATOM     20  C   UNL     1       3.594  -3.249   1.091  1.00  0.00     0.202 C 
BRANCH  20  21
ATOM     21  C   UNL     1       2.936  -3.722   2.396  1.00  0.00     0.261 C 
BRANCH  21  22
ATOM     22  O   UNL     1       3.354  -3.020   3.570  1.00  0.00    -0.460 OA
BRANCH  22  23
ATOM     23  C   UNL     1       4.649  -3.201   3.933  1.00  0.00     0.338 C 
ATOM     24  O   UNL     1       5.419  -4.035   3.492  1.00  0.00    -0.246 OA
BRANCH  23  25
ATOM     25  C   UNL     1       5.033  -2.054   4.796  1.00  0.00     0.060 A 
ATOM     26  C   UNL     1       6.288  -1.463   4.584  1.00  0.00     0.016 A 
ATOM     27  C   UNL     1       4.140  -1.497   5.722  1.00  0.00     0.016 A 
ATOM     28  C   UNL     1       6.694  -0.388   5.371  1.00  0.00     0.010 A 
ATOM     29  C   UNL     1       4.554  -0.432   6.526  1.00  0.00     0.010 A 
ATOM     30  C   UNL     1       5.863   0.066   6.402  1.00  0.00    -0.014 A 
BRANCH  30  31
ATOM     31  C   UNL     1       6.503   0.735   7.559  1.00  0.00     0.031 A 
ATOM     32  C   UNL     1       6.967  -0.163   8.682  1.00  0.00     0.074 A 
ATOM     33  C   UNL     1       6.747   2.055   7.590  1.00  0.00     0.049 A 
ATOM     34  N   UNL     1       7.600   0.139   9.783  1.00  0.00    -0.248 NA
ATOM     35  C   UNL     1       6.678  -1.601   8.533  1.00  0.00     0.031 C 
ATOM     36  C   UNL     1       6.410   3.010   6.536  1.00  0.00     0.029 A 
ATOM     37  N   UNL     1       7.360   2.817   8.553  1.00  0.00    -0.354 N 
ATOM     38  C   UNL     1       7.774  -1.067  10.456  1.00  0.00     0.074 A 
ATOM     39  C   UNL     1       7.151  -2.098   9.662  1.00  0.00     0.031 C 
ATOM     40  C   UNL     1       6.830   4.233   6.908  1.00  0.00     0.029 A 
ATOM     41  C   UNL     1       7.438   4.151   8.236  1.00  0.00     0.049 A 
ATOM     42  H   UNL     1       7.710   2.442   9.393  1.00  0.00     0.167 HD
ATOM     43  C   UNL     1       8.405  -1.301  11.629  1.00  0.00     0.031 A 
ATOM     44  C   UNL     1       7.941   5.182   8.944  1.00  0.00     0.031 A 
ATOM     45  C   UNL     1       9.012  -0.270  12.421  1.00  0.00     0.049 A 
ATOM     46  C   UNL     1       8.565   4.910  10.291  1.00  0.00     0.074 A 
ATOM     47  C   UNL     1       9.685  -0.393  13.622  1.00  0.00     0.029 A 
ATOM     48  N   UNL     1       9.009   1.078  12.095  1.00  0.00    -0.354 N 
ATOM     49  N   UNL     1       8.741   3.764  10.907  1.00  0.00    -0.248 NA
ATOM     50  C   UNL     1       9.073   6.073  11.032  1.00  0.00     0.031 C 
ATOM     51  C   UNL     1      10.025   0.890  14.059  1.00  0.00     0.029 A 
ATOM     52  C   UNL     1       9.638   1.804  13.090  1.00  0.00     0.049 A 
ATOM     53  H   UNL     1       8.617   1.461  11.278  1.00  0.00     0.167 HD
ATOM     54  C   UNL     1       9.415   4.064  12.088  1.00  0.00     0.074 A 
ATOM     55  C   UNL     1       9.623   5.498  12.092  1.00  0.00     0.031 C 
ATOM     56  C   UNL     1       9.832   3.232  13.075  1.00  0.00     0.031 A 
BRANCH  43  57
ATOM     57  C   UNL     1       8.407  -2.716  12.145  1.00  0.00    -0.014 A 
ATOM     58  C   UNL     1       9.140  -3.735  11.509  1.00  0.00     0.010 A 
ATOM     59  C   UNL     1       7.661  -3.027  13.296  1.00  0.00     0.010 A 
ATOM     60  C   UNL     1       9.093  -5.046  11.992  1.00  0.00     0.020 A 
ATOM     61  C   UNL     1       7.639  -4.328  13.802  1.00  0.00     0.020 A 
ATOM     62  C   UNL     1       8.342  -5.334  13.136  1.00  0.00     0.054 A 
BRANCH  62  63
ATOM     63  S   UNL     1       8.317  -7.037  13.757  1.00  0.00     0.124 S 
ATOM     64  O   UNL     1       7.517  -7.717  12.741  1.00  0.00    -0.237 OA
ATOM     65  O   UNL     1       9.735  -7.389  13.779  1.00  0.00    -0.237 OA
ATOM     66  O   UNL     1       7.686  -6.920  15.069  1.00  0.00    -0.744 OA
ENDBRANCH  62  63
ENDBRANCH  43  57
BRANCH  44  67
ATOM     67  C   UNL     1       7.878   6.568   8.400  1.00  0.00    -0.014 A 
ATOM     68  C   UNL     1       9.050   7.258   8.043  1.00  0.00     0.010 A 
ATOM     69  C   UNL     1       6.636   7.213   8.248  1.00  0.00     0.010 A 
ATOM     70  C   UNL     1       8.984   8.569   7.561  1.00  0.00     0.020 A 
ATOM     71  C   UNL     1       6.563   8.512   7.737  1.00  0.00     0.020 A 
ATOM     72  C   UNL     1       7.739   9.186   7.405  1.00  0.00     0.054 A 
BRANCH  72  73
ATOM     73  S   UNL     1       7.674  10.867   6.726  1.00  0.00     0.124 S 
ATOM     74  O   UNL     1       8.222  11.661   7.821  1.00  0.00    -0.237 OA
ATOM     75  O   UNL     1       8.517  10.757   5.538  1.00  0.00    -0.237 OA
ATOM     76  O   UNL     1       6.253  11.071   6.455  1.00  0.00    -0.744 OA
ENDBRANCH  72  73
ENDBRANCH  44  67
BRANCH  56  77
ATOM     77  C   UNL     1      10.603   3.840  14.219  1.00  0.00    -0.014 A 
ATOM     78  C   UNL     1       9.988   4.687  15.157  1.00  0.00     0.010 A 
ATOM     79  C   UNL     1      11.964   3.516  14.378  1.00  0.00     0.010 A 
ATOM     80  C   UNL     1      10.732   5.239  16.203  1.00  0.00     0.020 A 
ATOM     81  C   UNL     1      12.702   4.035  15.444  1.00  0.00     0.020 A 
ATOM     82  C   UNL     1      12.085   4.912  16.338  1.00  0.00     0.054 A 
BRANCH  82  83
ATOM     83  S   UNL     1      13.024   5.628  17.713  1.00  0.00     0.124 S 
ATOM     84  O   UNL     1      13.159   7.020  17.296  1.00  0.00    -0.237 OA
ATOM     85  O   UNL     1      12.145   5.396  18.856  1.00  0.00    -0.237 OA
ATOM     86  O   UNL     1      14.266   4.858  17.724  1.00  0.00    -0.744 OA
ENDBRANCH  82  83
ENDBRANCH  56  77
ENDBRANCH  30  31
ENDBRANCH  23  25
ENDBRANCH  22  23
ENDBRANCH  21  22
ENDBRANCH  20  21
ENDBRANCH  19  20
ENDBRANCH   1  19
TORSDOF 21
