REMARK SMILES CC(C)c1cc(N2CCC(C(=O)OCCOCCOC(=O)c3ccc(-c4c5nc(c(-c6ccc(S(=O)(=O)[O-])cc6)c6ccc([nH]6)c(-c6ccc(S(=O)(=O)[O-])cc6)c6nc(c(-c7ccc(S(=O)(=O)[O-])cc7)c7ccc4[nH]7)C=C6)C=C5)cc3)CC2)nc(-c2ccc(F)cc2)n1
REMARK SMILES IDX 17 1 16 2 15 3 14 4 13 5 11 6 12 7 10 8 7 9 8 10 83 11 9 12
REMARK SMILES IDX 82 13 6 14 4 15 5 16 93 17 85 18 84 19 2 20 1 21 3 22 86 23
REMARK SMILES IDX 87 24 92 25 88 26 91 27 89 28 90 29 18 30 19 31 20 32 21 33
REMARK SMILES IDX 22 34 23 35 81 36 24 37 80 38 25 39 26 40 27 41 74 42 28 43
REMARK SMILES IDX 79 44 73 45 75 46 29 47 78 48 72 49 71 50 30 52 60 53 41 54
REMARK SMILES IDX 59 55 42 56 45 57 58 58 76 59 43 60 44 61 57 63 77 64 46 65
REMARK SMILES IDX 31 66 32 67 40 68 33 69 39 70 34 71 35 72 36 73 37 74 38 75
REMARK SMILES IDX 61 76 62 77 70 78 63 79 69 80 64 81 65 82 66 83 67 84 68 85
REMARK SMILES IDX 47 86 48 87 56 88 49 89 55 90 50 91 51 92 52 93 53 94 54 95
REMARK H PARENT 75 51 45 62
REMARK Flexibility Score: inf
ROOT
ATOM      1  C   UNL     1      -8.908  -5.463  -0.759  1.00  0.00     0.202 C 
ENDROOT
BRANCH   1   2
ATOM      2  O   UNL     1      -9.992  -5.830   0.090  1.00  0.00    -0.374 OA
BRANCH   2   3
ATOM      3  C   UNL     1     -10.204  -5.027   1.255  1.00  0.00     0.202 C 
BRANCH   3   4
ATOM      4  C   UNL     1      -9.219  -5.249   2.407  1.00  0.00     0.261 C 
BRANCH   4   5
ATOM      5  O   UNL     1      -7.922  -4.715   2.077  1.00  0.00    -0.463 OA
BRANCH   5   6
ATOM      6  C   UNL     1      -6.879  -5.580   2.130  1.00  0.00     0.309 C 
ATOM      7  O   UNL     1      -6.936  -6.736   2.531  1.00  0.00    -0.252 OA
BRANCH   6   8
ATOM      8  C   UNL     1      -5.585  -4.965   1.634  1.00  0.00     0.103 C 
ATOM      9  N   UNL     1      -3.587  -2.975   1.406  1.00  0.00    -0.356 N 
ATOM     10  C   UNL     1      -4.405  -3.236   0.236  1.00  0.00     0.119 C 
ATOM     11  C   UNL     1      -3.371  -4.028   2.379  1.00  0.00     0.119 C 
ATOM     12  C   UNL     1      -5.757  -3.783   0.670  1.00  0.00     0.037 C 
ATOM     13  C   UNL     1      -4.726  -4.564   2.835  1.00  0.00     0.037 C 
BRANCH   9  14
ATOM     14  C   UNL     1      -2.862  -1.809   1.420  1.00  0.00     0.132 A 
ATOM     15  C   UNL     1      -0.831  -0.608   1.398  1.00  0.00     0.049 A 
ATOM     16  C   UNL     1      -1.483  -1.824   1.468  1.00  0.00     0.071 A 
ATOM     17  N   UNL     1      -1.500   0.558   1.328  1.00  0.00    -0.233 NA
ATOM     18  C   UNL     1      -2.842   0.480   1.341  1.00  0.00     0.161 A 
ATOM     19  N   UNL     1      -3.549  -0.659   1.354  1.00  0.00    -0.211 NA
BRANCH  15  20
ATOM     20  C   UNL     1       0.682  -0.552   1.386  1.00  0.00     0.032 C 
ATOM     21  C   UNL     1       1.184   0.057   0.076  1.00  0.00     0.014 C 
ATOM     22  C   UNL     1       1.203   0.231   2.591  1.00  0.00     0.014 C 
ENDBRANCH  15  20
BRANCH  18  23
ATOM     23  C   UNL     1      -3.589   1.739   1.398  1.00  0.00     0.019 A 
ATOM     24  C   UNL     1      -3.338   2.775   0.480  1.00  0.00     0.015 A 
ATOM     25  C   UNL     1      -4.561   1.954   2.395  1.00  0.00     0.015 A 
ATOM     26  C   UNL     1      -4.033   3.984   0.557  1.00  0.00     0.040 A 
ATOM     27  C   UNL     1      -5.244   3.170   2.484  1.00  0.00     0.040 A 
ATOM     28  C   UNL     1      -4.973   4.172   1.563  1.00  0.00     0.123 A 
ATOM     29  F   UNL     1      -5.621   5.341   1.647  1.00  0.00    -0.207 F 
ENDBRANCH  18  23
ENDBRANCH   9  14
ENDBRANCH   6   8
ENDBRANCH   5   6
ENDBRANCH   4   5
ENDBRANCH   3   4
ENDBRANCH   2   3
ENDBRANCH   1   2
BRANCH   1  30
ATOM     30  C   UNL     1      -9.154  -4.290  -1.717  1.00  0.00     0.261 C 
BRANCH  30  31
ATOM     31  O   UNL     1      -9.477  -3.067  -1.031  1.00  0.00    -0.460 OA
BRANCH  31  32
ATOM     32  C   UNL     1     -10.754  -2.651  -1.203  1.00  0.00     0.338 C 
ATOM     33  O   UNL     1     -11.596  -3.151  -1.940  1.00  0.00    -0.246 OA
BRANCH  32  34
ATOM     34  C   UNL     1     -11.095  -1.581  -0.247  1.00  0.00     0.060 A 
ATOM     35  C   UNL     1     -12.242  -1.771   0.534  1.00  0.00     0.016 A 
ATOM     36  C   UNL     1     -10.380  -0.382  -0.174  1.00  0.00     0.016 A 
ATOM     37  C   UNL     1     -12.708  -0.744   1.350  1.00  0.00     0.010 A 
ATOM     38  C   UNL     1     -10.857   0.652   0.644  1.00  0.00     0.010 A 
ATOM     39  C   UNL     1     -12.043   0.490   1.382  1.00  0.00    -0.014 A 
BRANCH  39  40
ATOM     40  C   UNL     1     -12.679   1.624   2.099  1.00  0.00     0.031 A 
ATOM     41  C   UNL     1     -13.482   2.635   1.323  1.00  0.00     0.074 A 
ATOM     42  C   UNL     1     -12.619   1.700   3.442  1.00  0.00     0.049 A 
ATOM     43  N   UNL     1     -14.191   3.642   1.765  1.00  0.00    -0.248 NA
ATOM     44  C   UNL     1     -13.496   2.486  -0.142  1.00  0.00     0.031 C 
ATOM     45  C   UNL     1     -11.905   0.765   4.312  1.00  0.00     0.029 A 
ATOM     46  N   UNL     1     -13.185   2.601   4.310  1.00  0.00    -0.354 N 
ATOM     47  C   UNL     1     -14.744   4.241   0.638  1.00  0.00     0.074 A 
ATOM     48  C   UNL     1     -14.260   3.506  -0.510  1.00  0.00     0.031 C 
ATOM     49  C   UNL     1     -12.082   1.137   5.592  1.00  0.00     0.029 A 
ATOM     50  C   UNL     1     -12.905   2.345   5.631  1.00  0.00     0.049 A 
ATOM     51  H   UNL     1     -13.739   3.359   4.014  1.00  0.00     0.167 HD
ATOM     52  C   UNL     1     -15.589   5.298   0.565  1.00  0.00     0.031 A 
ATOM     53  C   UNL     1     -13.266   3.010   6.747  1.00  0.00     0.031 A 
ATOM     54  C   UNL     1     -16.060   6.043   1.703  1.00  0.00     0.049 A 
ATOM     55  C   UNL     1     -14.152   4.223   6.631  1.00  0.00     0.074 A 
ATOM     56  C   UNL     1     -16.919   7.128   1.726  1.00  0.00     0.029 A 
ATOM     57  N   UNL     1     -15.709   5.784   3.019  1.00  0.00    -0.354 N 
ATOM     58  N   UNL     1     -14.686   4.756   5.558  1.00  0.00    -0.248 NA
ATOM     59  C   UNL     1     -14.493   4.915   7.882  1.00  0.00     0.031 C 
ATOM     60  C   UNL     1     -17.052   7.555   3.053  1.00  0.00     0.029 A 
ATOM     61  C   UNL     1     -16.316   6.702   3.860  1.00  0.00     0.049 A 
ATOM     62  H   UNL     1     -15.116   5.056   3.312  1.00  0.00     0.167 HD
ATOM     63  C   UNL     1     -15.442   5.834   6.008  1.00  0.00     0.074 A 
ATOM     64  C   UNL     1     -15.315   5.861   7.450  1.00  0.00     0.031 C 
ATOM     65  C   UNL     1     -16.174   6.724   5.292  1.00  0.00     0.031 A 
BRANCH  52  66
ATOM     66  C   UNL     1     -16.053   5.726  -0.802  1.00  0.00    -0.014 A 
ATOM     67  C   UNL     1     -17.008   4.972  -1.509  1.00  0.00     0.010 A 
ATOM     68  C   UNL     1     -15.579   6.927  -1.358  1.00  0.00     0.010 A 
ATOM     69  C   UNL     1     -17.463   5.402  -2.758  1.00  0.00     0.020 A 
ATOM     70  C   UNL     1     -16.047   7.371  -2.598  1.00  0.00     0.020 A 
ATOM     71  C   UNL     1     -16.980   6.599  -3.296  1.00  0.00     0.054 A 
BRANCH  71  72
ATOM     72  S   UNL     1     -17.620   7.156  -4.899  1.00  0.00     0.124 S 
ATOM     73  O   UNL     1     -16.965   6.232  -5.823  1.00  0.00    -0.237 OA
ATOM     74  O   UNL     1     -19.062   6.975  -4.750  1.00  0.00    -0.237 OA
ATOM     75  O   UNL     1     -17.176   8.544  -4.988  1.00  0.00    -0.744 OA
ENDBRANCH  71  72
ENDBRANCH  52  66
BRANCH  53  76
ATOM     76  C   UNL     1     -12.777   2.560   8.079  1.00  0.00    -0.014 A 
ATOM     77  C   UNL     1     -13.660   2.017   9.028  1.00  0.00     0.010 A 
ATOM     78  C   UNL     1     -11.418   2.709   8.414  1.00  0.00     0.010 A 
ATOM     79  C   UNL     1     -13.200   1.658  10.299  1.00  0.00     0.020 A 
ATOM     80  C   UNL     1     -10.950   2.326   9.674  1.00  0.00     0.020 A 
ATOM     81  C   UNL     1     -11.847   1.819  10.614  1.00  0.00     0.054 A 
BRANCH  81  82
ATOM     82  S   UNL     1     -11.261   1.324  12.259  1.00  0.00     0.124 S 
ATOM     83  O   UNL     1     -11.713   2.435  13.089  1.00  0.00    -0.237 OA
ATOM     84  O   UNL     1     -11.948   0.052  12.472  1.00  0.00    -0.237 OA
ATOM     85  O   UNL     1      -9.814   1.218  12.085  1.00  0.00    -0.744 OA
ENDBRANCH  81  82
ENDBRANCH  53  76
BRANCH  65  86
ATOM     86  C   UNL     1     -16.911   7.786   6.065  1.00  0.00    -0.014 A 
ATOM     87  C   UNL     1     -16.223   8.848   6.679  1.00  0.00     0.010 A 
ATOM     88  C   UNL     1     -18.313   7.729   6.166  1.00  0.00     0.010 A 
ATOM     89  C   UNL     1     -16.919   9.805   7.422  1.00  0.00     0.020 A 
ATOM     90  C   UNL     1     -19.015   8.699   6.885  1.00  0.00     0.020 A 
ATOM     91  C   UNL     1     -18.311   9.720   7.528  1.00  0.00     0.054 A 
BRANCH  91  92
ATOM     92  S   UNL     1     -19.196  10.976   8.492  1.00  0.00     0.124 S 
ATOM     93  O   UNL     1     -18.933  10.547   9.862  1.00  0.00    -0.237 OA
ATOM     94  O   UNL     1     -18.541  12.217   8.085  1.00  0.00    -0.237 OA
ATOM     95  O   UNL     1     -20.581  10.838   8.050  1.00  0.00    -0.744 OA
ENDBRANCH  91  92
ENDBRANCH  65  86
ENDBRANCH  39  40
ENDBRANCH  32  34
ENDBRANCH  31  32
ENDBRANCH  30  31
ENDBRANCH   1  30
TORSDOF 20
