REMARK SMILES CC[C@@]1(C)C[C@@H]([NH2+]C[C@H]2CC[C@@H](C(=O)OCCOCCOC(=O)c3ccc(-c4c5nc(c(-c6ccc(S(=O)(=O)[O-])cc6)c6ccc([nH]6)c(-c6ccc(S(=O)(=O)[O-])cc6)c6nc(c(-c7ccc(S(=O)(=O)[O-])cc7)c7ccc4[nH]7)C=C6)C=C5)cc3)CC2)CCO1
REMARK SMILES IDX 17 1 16 2 15 3 13 4 14 5 12 6 9 7 10 8 85 9 11 10 84 11 8 12
REMARK SMILES IDX 7 13 6 16 3 17 4 18 5 19 88 20 87 21 86 22 2 23 1 24 18 25
REMARK SMILES IDX 19 26 20 27 21 28 22 29 23 30 24 31 25 32 83 33 26 34 82 35
REMARK SMILES IDX 27 36 28 37 29 38 76 39 30 40 81 41 75 42 77 43 31 44 80 45
REMARK SMILES IDX 74 46 73 47 32 49 62 50 43 51 61 52 44 53 47 54 60 55 78 56
REMARK SMILES IDX 45 57 46 58 59 60 79 61 48 62 33 63 34 64 42 65 35 66 41 67
REMARK SMILES IDX 36 68 37 69 38 70 39 71 40 72 63 73 64 74 72 75 65 76 71 77
REMARK SMILES IDX 66 78 67 79 68 80 69 81 70 82 49 83 50 84 58 85 51 86 57 87
REMARK SMILES IDX 52 88 53 89 54 90 55 91 56 92
REMARK H PARENT 7 14 7 15 77 48 47 59
REMARK Flexibility Score: inf
ROOT
ATOM      1  C   UNL     1      -1.785   3.505  -3.885  1.00  0.00     0.202 C 
ENDROOT
BRANCH   1   2
ATOM      2  C   UNL     1      -0.833   2.398  -3.425  1.00  0.00     0.261 C 
BRANCH   2   3
ATOM      3  O   UNL     1      -1.495   1.373  -2.677  1.00  0.00    -0.463 OA
BRANCH   3   4
ATOM      4  C   UNL     1      -1.344   1.489  -1.336  1.00  0.00     0.309 C 
ATOM      5  O   UNL     1      -0.695   2.367  -0.774  1.00  0.00    -0.252 OA
BRANCH   4   6
ATOM      6  C   UNL     1      -2.070   0.413  -0.553  1.00  0.00     0.099 C 
ATOM      7  C   UNL     1      -2.183  -2.535   0.103  1.00  0.00     0.044 C 
ATOM      8  C   UNL     1      -1.450  -1.486   0.937  1.00  0.00     0.010 C 
ATOM      9  C   UNL     1      -3.406  -1.793  -0.506  1.00  0.00     0.010 C 
ATOM     10  C   UNL     1      -0.941  -0.353   0.094  1.00  0.00     0.016 C 
ATOM     11  C   UNL     1      -3.022  -0.526  -1.313  1.00  0.00     0.016 C 
BRANCH   7  12
ATOM     12  C   UNL     1      -1.403  -3.300  -1.017  1.00  0.00     0.264 C 
BRANCH  12  13
ATOM     13  N   UNL     1       0.061  -3.423  -1.020  1.00  0.00    -0.343 N 
ATOM     14  H   UNL     1       0.342  -3.673  -1.969  1.00  0.00     0.346 HD
ATOM     15  H   UNL     1       0.394  -2.520  -0.683  1.00  0.00     0.346 HD
BRANCH  13  16
ATOM     16  C   UNL     1       0.672  -4.402  -0.112  1.00  0.00     0.187 C 
ATOM     17  C   UNL     1       2.362  -2.818   1.078  1.00  0.00     0.071 C 
ATOM     18  C   UNL     1       2.656  -2.330   2.506  1.00  0.00     0.042 C 
ATOM     19  C   UNL     1       1.141  -3.777   1.198  1.00  0.00     0.100 C 
ATOM     20  O   UNL     1       3.443  -3.687   0.665  1.00  0.00    -0.375 OA
ATOM     21  C   UNL     1       3.223  -4.307  -0.615  1.00  0.00     0.167 C 
ATOM     22  C   UNL     1       1.914  -5.097  -0.716  1.00  0.00     0.093 C 
BRANCH  17  23
ATOM     23  C   UNL     1       2.318  -1.615   0.080  1.00  0.00     0.032 C 
ATOM     24  C   UNL     1       2.491  -0.193   0.608  1.00  0.00     0.007 C 
ENDBRANCH  17  23
ENDBRANCH  13  16
ENDBRANCH  12  13
ENDBRANCH   7  12
ENDBRANCH   4   6
ENDBRANCH   3   4
ENDBRANCH   2   3
ENDBRANCH   1   2
BRANCH   1  25
ATOM     25  O   UNL     1      -2.569   4.189  -2.913  1.00  0.00    -0.374 OA
BRANCH  25  26
ATOM     26  C   UNL     1      -3.608   3.499  -2.223  1.00  0.00     0.202 C 
BRANCH  26  27
ATOM     27  C   UNL     1      -4.758   2.862  -3.013  1.00  0.00     0.261 C 
BRANCH  27  28
ATOM     28  O   UNL     1      -4.334   1.892  -3.985  1.00  0.00    -0.460 OA
BRANCH  28  29
ATOM     29  C   UNL     1      -4.625   2.228  -5.263  1.00  0.00     0.338 C 
ATOM     30  O   UNL     1      -5.226   3.228  -5.644  1.00  0.00    -0.246 OA
BRANCH  29  31
ATOM     31  C   UNL     1      -3.968   1.318  -6.211  1.00  0.00     0.060 A 
ATOM     32  C   UNL     1      -3.050   1.874  -7.113  1.00  0.00     0.016 A 
ATOM     33  C   UNL     1      -4.349  -0.021  -6.316  1.00  0.00     0.016 A 
ATOM     34  C   UNL     1      -2.544   1.105  -8.156  1.00  0.00     0.010 A 
ATOM     35  C   UNL     1      -3.850  -0.787  -7.375  1.00  0.00     0.010 A 
ATOM     36  C   UNL     1      -2.977  -0.216  -8.319  1.00  0.00    -0.014 A 
BRANCH  36  37
ATOM     37  C   UNL     1      -2.632  -0.948  -9.560  1.00  0.00     0.031 A 
ATOM     38  C   UNL     1      -3.640  -1.009 -10.675  1.00  0.00     0.074 A 
ATOM     39  C   UNL     1      -1.424  -1.520  -9.704  1.00  0.00     0.049 A 
ATOM     40  N   UNL     1      -3.572  -1.641 -11.817  1.00  0.00    -0.248 NA
ATOM     41  C   UNL     1      -4.890  -0.255 -10.476  1.00  0.00     0.031 C 
ATOM     42  C   UNL     1      -0.341  -1.466  -8.722  1.00  0.00     0.029 A 
ATOM     43  N   UNL     1      -0.909  -2.265 -10.735  1.00  0.00    -0.354 N 
ATOM     44  C   UNL     1      -4.769  -1.371 -12.470  1.00  0.00     0.074 A 
ATOM     45  C   UNL     1      -5.554  -0.534 -11.589  1.00  0.00     0.031 C 
ATOM     46  C   UNL     1       0.707  -2.163  -9.194  1.00  0.00     0.029 A 
ATOM     47  C   UNL     1       0.354  -2.745 -10.487  1.00  0.00     0.049 A 
ATOM     48  H   UNL     1      -1.398  -2.438 -11.571  1.00  0.00     0.167 HD
ATOM     49  C   UNL     1      -5.176  -1.783 -13.694  1.00  0.00     0.031 A 
ATOM     50  C   UNL     1       1.123  -3.587 -11.206  1.00  0.00     0.031 A 
ATOM     51  C   UNL     1      -4.396  -2.627 -14.560  1.00  0.00     0.049 A 
ATOM     52  C   UNL     1       0.604  -4.120 -12.515  1.00  0.00     0.074 A 
ATOM     53  C   UNL     1      -4.714  -3.091 -15.824  1.00  0.00     0.029 A 
ATOM     54  N   UNL     1      -3.148  -3.142 -14.246  1.00  0.00    -0.354 N 
ATOM     55  N   UNL     1      -0.524  -3.847 -13.127  1.00  0.00    -0.248 NA
ATOM     56  C   UNL     1       1.460  -5.079 -13.229  1.00  0.00     0.031 C 
ATOM     57  C   UNL     1      -3.685  -3.938 -16.248  1.00  0.00     0.029 A 
ATOM     58  C   UNL     1      -2.699  -3.952 -15.275  1.00  0.00     0.049 A 
ATOM     59  H   UNL     1      -2.654  -2.959 -13.415  1.00  0.00     0.167 HD
ATOM     60  C   UNL     1      -0.506  -4.588 -14.304  1.00  0.00     0.074 A 
ATOM     61  C   UNL     1       0.751  -5.306 -14.327  1.00  0.00     0.031 C 
ATOM     62  C   UNL     1      -1.446  -4.666 -15.278  1.00  0.00     0.031 A 
BRANCH  49  63
ATOM     63  C   UNL     1      -6.547  -1.363 -14.153  1.00  0.00    -0.014 A 
ATOM     64  C   UNL     1      -6.816  -0.036 -14.536  1.00  0.00     0.010 A 
ATOM     65  C   UNL     1      -7.573  -2.321 -14.241  1.00  0.00     0.010 A 
ATOM     66  C   UNL     1      -8.094   0.330 -14.966  1.00  0.00     0.020 A 
ATOM     67  C   UNL     1      -8.846  -1.965 -14.694  1.00  0.00     0.020 A 
ATOM     68  C   UNL     1      -9.102  -0.636 -15.040  1.00  0.00     0.054 A 
BRANCH  68  69
ATOM     69  S   UNL     1     -10.747  -0.138 -15.622  1.00  0.00     0.124 S 
ATOM     70  O   UNL     1     -11.247   0.632 -14.486  1.00  0.00    -0.237 OA
ATOM     71  O   UNL     1     -10.440   0.638 -16.821  1.00  0.00    -0.237 OA
ATOM     72  O   UNL     1     -11.430  -1.407 -15.863  1.00  0.00    -0.744 OA
ENDBRANCH  68  69
ENDBRANCH  49  63
BRANCH  50  73
ATOM     73  C   UNL     1       2.445  -4.016 -10.677  1.00  0.00    -0.014 A 
ATOM     74  C   UNL     1       3.638  -3.599 -11.292  1.00  0.00     0.010 A 
ATOM     75  C   UNL     1       2.515  -4.848  -9.543  1.00  0.00     0.010 A 
ATOM     76  C   UNL     1       4.875  -4.015 -10.790  1.00  0.00     0.020 A 
ATOM     77  C   UNL     1       3.749  -5.243  -9.023  1.00  0.00     0.020 A 
ATOM     78  C   UNL     1       4.922  -4.832  -9.656  1.00  0.00     0.054 A 
BRANCH  78  79
ATOM     79  S   UNL     1       6.539  -5.313  -8.988  1.00  0.00     0.124 S 
ATOM     80  O   UNL     1       6.984  -6.308  -9.958  1.00  0.00    -0.237 OA
ATOM     81  O   UNL     1       7.271  -4.050  -8.993  1.00  0.00    -0.237 OA
ATOM     82  O   UNL     1       6.217  -5.832  -7.660  1.00  0.00    -0.744 OA
ENDBRANCH  78  79
ENDBRANCH  50  73
BRANCH  62  83
ATOM     83  C   UNL     1      -1.152  -5.549 -16.461  1.00  0.00    -0.014 A 
ATOM     84  C   UNL     1      -1.213  -6.949 -16.351  1.00  0.00     0.010 A 
ATOM     85  C   UNL     1      -0.890  -4.969 -17.716  1.00  0.00     0.010 A 
ATOM     86  C   UNL     1      -1.001  -7.755 -17.473  1.00  0.00     0.020 A 
ATOM     87  C   UNL     1      -0.704  -5.771 -18.845  1.00  0.00     0.020 A 
ATOM     88  C   UNL     1      -0.752  -7.160 -18.714  1.00  0.00     0.054 A 
BRANCH  88  89
ATOM     89  S   UNL     1      -0.548  -8.227 -20.167  1.00  0.00     0.124 S 
ATOM     90  O   UNL     1       0.775  -8.802 -19.939  1.00  0.00    -0.237 OA
ATOM     91  O   UNL     1      -1.667  -9.157 -20.041  1.00  0.00    -0.237 OA
ATOM     92  O   UNL     1      -0.639  -7.301 -21.294  1.00  0.00    -0.744 OA
ENDBRANCH  88  89
ENDBRANCH  62  83
ENDBRANCH  36  37
ENDBRANCH  29  31
ENDBRANCH  28  29
ENDBRANCH  27  28
ENDBRANCH  26  27
ENDBRANCH  25  26
ENDBRANCH   1  25
TORSDOF 21
