REMARK SMILES CC[C@@H](NC(=O)N1CCO[C@H](CC(=O)OCCOCCOC(=O)c2ccc(-c3c4nc(c(-c5ccc(S(=O)(=O)[O-])cc5)c5ccc([nH]5)c(-c5ccc(S(=O)(=O)[O-])cc5)c5nc(c(-c6ccc(S(=O)(=O)[O-])cc6)c6ccc3[nH]6)C=C5)C=C4)cc2)C1)c1cccs1
REMARK SMILES IDX 17 1 16 2 15 3 13 4 14 5 12 6 11 7 7 8 8 9 84 10 9 11 10 12
REMARK SMILES IDX 5 13 4 14 6 16 3 17 2 18 1 19 85 20 86 21 89 22 87 23 88 24
REMARK SMILES IDX 18 25 19 26 20 27 21 28 22 29 23 30 24 31 25 32 83 33 26 34
REMARK SMILES IDX 82 35 27 36 28 37 29 38 76 39 30 40 81 41 75 42 77 43 31 44
REMARK SMILES IDX 80 45 74 46 73 47 32 49 62 50 43 51 61 52 44 53 47 54 60 55
REMARK SMILES IDX 78 56 45 57 46 58 59 60 79 61 48 62 33 63 34 64 42 65 35 66
REMARK SMILES IDX 41 67 36 68 37 69 38 70 39 71 40 72 63 73 64 74 72 75 65 76
REMARK SMILES IDX 71 77 66 78 67 79 68 80 69 81 70 82 49 83 50 84 58 85 51 86
REMARK SMILES IDX 57 87 52 88 53 89 54 90 55 91 56 92
REMARK H PARENT 4 15 77 48 47 59
REMARK Flexibility Score: inf
ROOT
ATOM      1  C   UNL     1       0.225   1.801  -2.825  1.00  0.00     0.202 C 
ENDROOT
BRANCH   1   2
ATOM      2  C   UNL     1      -1.183   1.276  -2.249  1.00  0.00     0.261 C 
BRANCH   2   3
ATOM      3  O   UNL     1      -2.032   2.307  -1.599  1.00  0.00    -0.463 OA
BRANCH   3   4
ATOM      4  C   UNL     1      -2.914   1.976  -0.607  1.00  0.00     0.308 C 
ATOM      5  O   UNL     1      -3.155   0.808  -0.308  1.00  0.00    -0.252 OA
BRANCH   4   6
ATOM      6  C   UNL     1      -3.381   3.135   0.320  1.00  0.00     0.156 C 
BRANCH   6   7
ATOM      7  C   UNL     1      -3.549   4.608  -0.122  1.00  0.00     0.149 C 
ATOM      8  N   UNL     1      -1.257   5.193  -0.343  1.00  0.00    -0.320 N 
ATOM      9  C   UNL     1      -1.205   6.143   0.713  1.00  0.00     0.150 C 
ATOM     10  C   UNL     1      -2.505   5.150  -1.085  1.00  0.00     0.154 C 
ATOM     11  C   UNL     1      -2.334   5.817   1.675  1.00  0.00     0.182 C 
ATOM     12  O   UNL     1      -3.607   5.523   1.035  1.00  0.00    -0.374 OA
BRANCH   8  13
ATOM     13  C   UNL     1      -0.346   4.227  -0.556  1.00  0.00     0.318 C 
ATOM     14  N   UNL     1      -0.339   3.160   0.309  1.00  0.00    -0.330 N 
ATOM     15  H   UNL     1      -1.220   2.749   0.463  1.00  0.00     0.166 HD
ATOM     16  O   UNL     1      -0.104   4.115  -1.750  1.00  0.00    -0.249 OA
BRANCH  14  17
ATOM     17  C   UNL     1       0.772   2.528   1.046  1.00  0.00     0.124 C 
BRANCH  17  18
ATOM     18  C   UNL     1       0.429   1.091   1.538  1.00  0.00     0.027 C 
ATOM     19  C   UNL     1       1.034  -0.013   0.655  1.00  0.00     0.006 C 
ENDBRANCH  17  18
BRANCH  17  20
ATOM     20  C   UNL     1       1.097   3.486   2.138  1.00  0.00     0.027 A 
ATOM     21  C   UNL     1       0.322   3.846   3.219  1.00  0.00     0.017 A 
ATOM     22  S   UNL     1       2.512   4.445   2.014  1.00  0.00    -0.147 S 
ATOM     23  C   UNL     1       0.773   5.068   3.791  1.00  0.00     0.012 A 
ATOM     24  C   UNL     1       1.933   5.521   3.202  1.00  0.00     0.065 A 
ENDBRANCH  17  20
ENDBRANCH  14  17
ENDBRANCH   8  13
ENDBRANCH   6   7
ENDBRANCH   4   6
ENDBRANCH   3   4
ENDBRANCH   2   3
ENDBRANCH   1   2
BRANCH   1  25
ATOM     25  O   UNL     1       1.197   2.101  -1.796  1.00  0.00    -0.374 OA
BRANCH  25  26
ATOM     26  C   UNL     1       2.355   2.972  -1.985  1.00  0.00     0.202 C 
BRANCH  26  27
ATOM     27  C   UNL     1       2.358   4.525  -2.261  1.00  0.00     0.261 C 
BRANCH  27  28
ATOM     28  O   UNL     1       1.605   4.974  -3.374  1.00  0.00    -0.460 OA
BRANCH  28  29
ATOM     29  C   UNL     1       2.001   4.393  -4.515  1.00  0.00     0.338 C 
ATOM     30  O   UNL     1       3.052   3.834  -4.725  1.00  0.00    -0.246 OA
BRANCH  29  31
ATOM     31  C   UNL     1       0.829   4.325  -5.394  1.00  0.00     0.060 A 
ATOM     32  C   UNL     1       0.750   3.164  -6.162  1.00  0.00     0.016 A 
ATOM     33  C   UNL     1      -0.142   5.335  -5.469  1.00  0.00     0.016 A 
ATOM     34  C   UNL     1      -0.208   3.079  -7.140  1.00  0.00     0.010 A 
ATOM     35  C   UNL     1      -1.115   5.249  -6.455  1.00  0.00     0.010 A 
ATOM     36  C   UNL     1      -1.068   4.165  -7.341  1.00  0.00    -0.014 A 
BRANCH  36  37
ATOM     37  C   UNL     1      -1.674   4.259  -8.671  1.00  0.00     0.031 A 
ATOM     38  C   UNL     1      -0.958   5.091  -9.696  1.00  0.00     0.074 A 
ATOM     39  C   UNL     1      -2.711   3.464  -8.961  1.00  0.00     0.049 A 
ATOM     40  N   UNL     1      -1.213   5.229 -10.967  1.00  0.00    -0.248 NA
ATOM     41  C   UNL     1       0.216   5.859  -9.235  1.00  0.00     0.031 C 
ATOM     42  C   UNL     1      -3.374   2.567  -8.011  1.00  0.00     0.029 A 
ATOM     43  N   UNL     1      -3.356   3.252 -10.142  1.00  0.00    -0.354 N 
ATOM     44  C   UNL     1      -0.244   6.102 -11.450  1.00  0.00     0.074 A 
ATOM     45  C   UNL     1       0.588   6.489 -10.338  1.00  0.00     0.031 C 
ATOM     46  C   UNL     1      -4.331   1.885  -8.659  1.00  0.00     0.029 A 
ATOM     47  C   UNL     1      -4.367   2.332 -10.047  1.00  0.00     0.049 A 
ATOM     48  H   UNL     1      -3.119   3.713 -10.979  1.00  0.00     0.167 HD
ATOM     49  C   UNL     1      -0.072   6.532 -12.719  1.00  0.00     0.031 A 
ATOM     50  C   UNL     1      -5.233   1.922 -10.989  1.00  0.00     0.031 A 
ATOM     51  C   UNL     1      -0.933   6.125 -13.794  1.00  0.00     0.049 A 
ATOM     52  C   UNL     1      -5.072   2.482 -12.374  1.00  0.00     0.074 A 
ATOM     53  C   UNL     1      -0.887   6.493 -15.124  1.00  0.00     0.029 A 
ATOM     54  N   UNL     1      -2.006   5.254 -13.649  1.00  0.00    -0.354 N 
ATOM     55  N   UNL     1      -4.160   3.315 -12.824  1.00  0.00    -0.248 NA
ATOM     56  C   UNL     1      -6.044   2.043 -13.379  1.00  0.00     0.031 C 
ATOM     57  C   UNL     1      -1.976   5.898 -15.769  1.00  0.00     0.029 A 
ATOM     58  C   UNL     1      -2.653   5.097 -14.860  1.00  0.00     0.049 A 
ATOM     59  H   UNL     1      -2.267   4.814 -12.809  1.00  0.00     0.167 HD
ATOM     60  C   UNL     1      -4.435   3.485 -14.174  1.00  0.00     0.074 A 
ATOM     61  C   UNL     1      -5.586   2.649 -14.466  1.00  0.00     0.031 C 
ATOM     62  C   UNL     1      -3.802   4.257 -15.094  1.00  0.00     0.031 A 
BRANCH  49  63
ATOM     63  C   UNL     1       1.031   7.523 -12.984  1.00  0.00    -0.014 A 
ATOM     64  C   UNL     1       2.389   7.163 -12.905  1.00  0.00     0.010 A 
ATOM     65  C   UNL     1       0.697   8.844 -13.336  1.00  0.00     0.010 A 
ATOM     66  C   UNL     1       3.390   8.110 -13.146  1.00  0.00     0.020 A 
ATOM     67  C   UNL     1       1.693   9.786 -13.606  1.00  0.00     0.020 A 
ATOM     68  C   UNL     1       3.035   9.416 -13.498  1.00  0.00     0.054 A 
BRANCH  68  69
ATOM     69  S   UNL     1       4.352  10.616 -13.843  1.00  0.00     0.124 S 
ATOM     70  O   UNL     1       4.920  10.833 -12.514  1.00  0.00    -0.237 OA
ATOM     71  O   UNL     1       5.205   9.890 -14.780  1.00  0.00    -0.237 OA
ATOM     72  O   UNL     1       3.641  11.760 -14.409  1.00  0.00    -0.744 OA
ENDBRANCH  68  69
ENDBRANCH  49  63
BRANCH  50  73
ATOM     73  C   UNL     1      -6.319   0.977 -10.626  1.00  0.00    -0.014 A 
ATOM     74  C   UNL     1      -6.353  -0.327 -11.144  1.00  0.00     0.010 A 
ATOM     75  C   UNL     1      -7.317   1.379  -9.716  1.00  0.00     0.010 A 
ATOM     76  C   UNL     1      -7.374  -1.207 -10.772  1.00  0.00     0.020 A 
ATOM     77  C   UNL     1      -8.319   0.494  -9.317  1.00  0.00     0.020 A 
ATOM     78  C   UNL     1      -8.349  -0.791  -9.859  1.00  0.00     0.054 A 
BRANCH  78  79
ATOM     79  S   UNL     1      -9.641  -1.962  -9.363  1.00  0.00     0.124 S 
ATOM     80  O   UNL     1     -10.444  -2.060 -10.578  1.00  0.00    -0.237 OA
ATOM     81  O   UNL     1      -8.869  -3.152  -9.015  1.00  0.00    -0.237 OA
ATOM     82  O   UNL     1     -10.291  -1.298  -8.235  1.00  0.00    -0.744 OA
ENDBRANCH  78  79
ENDBRANCH  50  73
BRANCH  62  83
ATOM     83  C   UNL     1      -4.329   4.201 -16.500  1.00  0.00    -0.014 A 
ATOM     84  C   UNL     1      -5.562   4.784 -16.838  1.00  0.00     0.010 A 
ATOM     85  C   UNL     1      -3.546   3.605 -17.504  1.00  0.00     0.010 A 
ATOM     86  C   UNL     1      -6.021   4.737 -18.155  1.00  0.00     0.020 A 
ATOM     87  C   UNL     1      -3.984   3.590 -18.828  1.00  0.00     0.020 A 
ATOM     88  C   UNL     1      -5.228   4.142 -19.141  1.00  0.00     0.054 A 
BRANCH  88  89
ATOM     89  S   UNL     1      -5.829   4.133 -20.850  1.00  0.00     0.124 S 
ATOM     90  O   UNL     1      -6.910   3.154 -20.785  1.00  0.00    -0.237 OA
ATOM     91  O   UNL     1      -6.245   5.519 -21.048  1.00  0.00    -0.237 OA
ATOM     92  O   UNL     1      -4.661   3.722 -21.626  1.00  0.00    -0.744 OA
ENDBRANCH  88  89
ENDBRANCH  62  83
ENDBRANCH  36  37
ENDBRANCH  29  31
ENDBRANCH  28  29
ENDBRANCH  27  28
ENDBRANCH  26  27
ENDBRANCH  25  26
ENDBRANCH   1  25
TORSDOF 22
