REMARK SMILES CSc1nc2nnc(C(=O)OCCOCCOC(=O)c3ccc(-c4c5nc(c(-c6ccc(S(=O)(=O)[O-])cc6)c6ccc([nH]6)c(-c6ccc(S(=O)(=O)[O-])cc6)c6nc(c(-c7ccc(S(=O)(=O)[O-])cc7)c7ccc4[nH]7)C=C6)C=C5)cc3)c(O)n2n1
REMARK SMILES IDX 15 1 14 2 13 3 12 4 11 5 9 6 10 7 8 8 3 9 4 10 83 11 5 12
REMARK SMILES IDX 82 13 6 14 80 15 7 16 2 17 1 18 81 19 16 21 17 22 18 23
REMARK SMILES IDX 19 24 20 25 21 26 79 27 22 28 78 29 23 30 24 31 25 32 72 33
REMARK SMILES IDX 26 34 77 35 71 36 73 37 27 38 76 39 70 40 69 41 28 43 58 44
REMARK SMILES IDX 39 45 57 46 40 47 43 48 56 49 74 50 41 51 42 52 55 54 75 55
REMARK SMILES IDX 44 56 29 57 30 58 38 59 31 60 37 61 32 62 33 63 34 64 35 65
REMARK SMILES IDX 36 66 59 67 60 68 68 69 61 70 67 71 62 72 63 73 64 74 65 75
REMARK SMILES IDX 66 76 45 77 46 78 54 79 47 80 53 81 48 82 49 83 50 84 51 85
REMARK SMILES IDX 52 86
REMARK H PARENT 81 20 73 42 43 53
REMARK Flexibility Score: inf
ROOT
ATOM      1  C   UNL     1       0.477  -3.966   7.635  1.00  0.00     0.202 C 
ENDROOT
BRANCH   1   2
ATOM      2  O   UNL     1       1.342  -4.892   8.286  1.00  0.00    -0.374 OA
BRANCH   2   3
ATOM      3  C   UNL     1       2.191  -4.491   9.360  1.00  0.00     0.202 C 
BRANCH   3   4
ATOM      4  C   UNL     1       3.398  -3.590   9.078  1.00  0.00     0.261 C 
BRANCH   4   5
ATOM      5  O   UNL     1       3.067  -2.360   8.418  1.00  0.00    -0.458 OA
BRANCH   5   6
ATOM      6  C   UNL     1       3.305  -2.383   7.085  1.00  0.00     0.364 C 
ATOM      7  O   UNL     1       3.773  -3.326   6.455  1.00  0.00    -0.244 OA
BRANCH   6   8
ATOM      8  C   UNL     1       2.711  -1.217   6.394  1.00  0.00     0.232 A 
ATOM      9  C   UNL     1       1.010   1.014   3.100  1.00  0.00     0.210 A 
ATOM     10  N   UNL     1       1.449   1.792   4.131  1.00  0.00    -0.182 NA
ATOM     11  N   UNL     1       1.049  -0.298   3.315  1.00  0.00    -0.134 NA
ATOM     12  C   UNL     1       1.824   0.912   5.038  1.00  0.00     0.275 A 
ATOM     13  N   UNL     1       1.623  -0.366   4.534  1.00  0.00    -0.159 N 
ATOM     14  N   UNL     1       2.395   1.065   6.273  1.00  0.00    -0.108 NA
ATOM     15  C   UNL     1       2.083  -1.478   5.228  1.00  0.00     0.251 A 
ATOM     16  N   UNL     1       2.815   0.057   6.920  1.00  0.00    -0.134 NA
BRANCH   9  17
ATOM     17  S   UNL     1       0.494   1.665   1.567  1.00  0.00    -0.088 SA
ATOM     18  C   UNL     1       0.896   0.276   0.476  1.00  0.00     0.094 C 
ENDBRANCH   9  17
BRANCH  15  19
ATOM     19  O   UNL     1       1.901  -2.736   4.666  1.00  0.00    -0.491 OA
ATOM     20  H   UNL     1       2.204  -3.499   5.118  1.00  0.00     0.295 HD
ENDBRANCH  15  19
ENDBRANCH   6   8
ENDBRANCH   5   6
ENDBRANCH   4   5
ENDBRANCH   3   4
ENDBRANCH   2   3
ENDBRANCH   1   2
BRANCH   1  21
ATOM     21  C   UNL     1      -0.700  -3.345   8.373  1.00  0.00     0.261 C 
BRANCH  21  22
ATOM     22  O   UNL     1      -0.279  -2.716   9.565  1.00  0.00    -0.460 OA
BRANCH  22  23
ATOM     23  C   UNL     1      -0.442  -3.496  10.659  1.00  0.00     0.338 C 
ATOM     24  O   UNL     1      -0.765  -4.667  10.688  1.00  0.00    -0.246 OA
BRANCH  23  25
ATOM     25  C   UNL     1      -0.225  -2.667  11.848  1.00  0.00     0.060 A 
ATOM     26  C   UNL     1      -0.439  -3.311  13.068  1.00  0.00     0.016 A 
ATOM     27  C   UNL     1      -0.266  -1.276  11.702  1.00  0.00     0.016 A 
ATOM     28  C   UNL     1      -1.048  -2.590  14.062  1.00  0.00     0.010 A 
ATOM     29  C   UNL     1      -0.902  -0.567  12.679  1.00  0.00     0.010 A 
ATOM     30  C   UNL     1      -1.388  -1.267  13.781  1.00  0.00    -0.014 A 
BRANCH  30  31
ATOM     31  C   UNL     1      -2.301  -0.592  14.665  1.00  0.00     0.031 A 
ATOM     32  C   UNL     1      -1.602   0.079  15.773  1.00  0.00     0.074 A 
ATOM     33  C   UNL     1      -3.607  -0.482  14.364  1.00  0.00     0.049 A 
ATOM     34  N   UNL     1      -1.508  -0.322  16.996  1.00  0.00    -0.248 NA
ATOM     35  C   UNL     1      -0.679   1.174  15.418  1.00  0.00     0.031 C 
ATOM     36  C   UNL     1      -4.301  -0.839  13.123  1.00  0.00     0.029 A 
ATOM     37  N   UNL     1      -4.581   0.118  15.084  1.00  0.00    -0.354 N 
ATOM     38  C   UNL     1      -0.693   0.619  17.606  1.00  0.00     0.074 A 
ATOM     39  C   UNL     1       0.015   1.289  16.548  1.00  0.00     0.031 C 
ATOM     40  C   UNL     1      -5.492  -0.194  13.088  1.00  0.00     0.029 A 
ATOM     41  C   UNL     1      -5.679   0.522  14.341  1.00  0.00     0.049 A 
ATOM     42  H   UNL     1      -4.516   0.256  16.056  1.00  0.00     0.167 HD
ATOM     43  C   UNL     1      -0.906   1.034  18.883  1.00  0.00     0.031 A 
ATOM     44  C   UNL     1      -6.569   1.483  14.709  1.00  0.00     0.031 A 
ATOM     45  C   UNL     1      -1.826   0.175  19.581  1.00  0.00     0.049 A 
ATOM     46  C   UNL     1      -6.408   1.667  16.184  1.00  0.00     0.074 A 
ATOM     47  C   UNL     1      -1.839  -1.174  19.878  1.00  0.00     0.029 A 
ATOM     48  N   UNL     1      -3.134   0.600  19.676  1.00  0.00    -0.354 N 
ATOM     49  N   UNL     1      -6.675   0.728  17.055  1.00  0.00    -0.248 NA
ATOM     50  C   UNL     1      -5.460   2.677  16.643  1.00  0.00     0.031 C 
ATOM     51  C   UNL     1      -3.186  -1.585  19.658  1.00  0.00     0.029 A 
ATOM     52  C   UNL     1      -3.938  -0.457  19.322  1.00  0.00     0.049 A 
ATOM     53  H   UNL     1      -3.437   1.497  19.948  1.00  0.00     0.167 HD
ATOM     54  C   UNL     1      -5.641   0.784  17.984  1.00  0.00     0.074 A 
ATOM     55  C   UNL     1      -4.960   2.052  17.715  1.00  0.00     0.031 C 
ATOM     56  C   UNL     1      -5.232  -0.324  18.676  1.00  0.00     0.031 A 
BRANCH  43  57
ATOM     57  C   UNL     1      -0.591   2.434  19.334  1.00  0.00    -0.014 A 
ATOM     58  C   UNL     1      -0.621   2.737  20.704  1.00  0.00     0.010 A 
ATOM     59  C   UNL     1      -0.481   3.521  18.437  1.00  0.00     0.010 A 
ATOM     60  C   UNL     1      -0.563   4.065  21.148  1.00  0.00     0.020 A 
ATOM     61  C   UNL     1      -0.367   4.839  18.867  1.00  0.00     0.020 A 
ATOM     62  C   UNL     1      -0.437   5.105  20.223  1.00  0.00     0.054 A 
BRANCH  62  63
ATOM     63  S   UNL     1      -0.437   6.817  20.799  1.00  0.00     0.124 S 
ATOM     64  O   UNL     1      -1.782   6.948  21.350  1.00  0.00    -0.237 OA
ATOM     65  O   UNL     1       0.653   6.813  21.772  1.00  0.00    -0.237 OA
ATOM     66  O   UNL     1      -0.179   7.588  19.585  1.00  0.00    -0.744 OA
ENDBRANCH  62  63
ENDBRANCH  43  57
BRANCH  44  67
ATOM     67  C   UNL     1      -7.167   2.513  13.805  1.00  0.00    -0.014 A 
ATOM     68  C   UNL     1      -8.187   3.384  14.236  1.00  0.00     0.010 A 
ATOM     69  C   UNL     1      -6.558   2.806  12.565  1.00  0.00     0.010 A 
ATOM     70  C   UNL     1      -8.547   4.518  13.477  1.00  0.00     0.020 A 
ATOM     71  C   UNL     1      -6.915   3.923  11.800  1.00  0.00     0.020 A 
ATOM     72  C   UNL     1      -7.895   4.789  12.270  1.00  0.00     0.054 A 
BRANCH  72  73
ATOM     73  S   UNL     1      -8.250   6.327  11.366  1.00  0.00     0.124 S 
ATOM     74  O   UNL     1      -9.633   6.129  10.942  1.00  0.00    -0.237 OA
ATOM     75  O   UNL     1      -8.041   7.348  12.387  1.00  0.00    -0.237 OA
ATOM     76  O   UNL     1      -7.266   6.326  10.284  1.00  0.00    -0.744 OA
ENDBRANCH  72  73
ENDBRANCH  44  67
BRANCH  56  77
ATOM     77  C   UNL     1      -6.050  -1.598  18.577  1.00  0.00    -0.014 A 
ATOM     78  C   UNL     1      -6.245  -2.312  17.376  1.00  0.00     0.010 A 
ATOM     79  C   UNL     1      -6.455  -2.202  19.780  1.00  0.00     0.010 A 
ATOM     80  C   UNL     1      -6.838  -3.586  17.383  1.00  0.00     0.020 A 
ATOM     81  C   UNL     1      -7.029  -3.476  19.796  1.00  0.00     0.020 A 
ATOM     82  C   UNL     1      -7.223  -4.162  18.597  1.00  0.00     0.054 A 
BRANCH  82  83
ATOM     83  S   UNL     1      -7.935  -5.833  18.611  1.00  0.00     0.124 S 
ATOM     84  O   UNL     1      -9.201  -5.645  17.908  1.00  0.00    -0.237 OA
ATOM     85  O   UNL     1      -6.931  -6.620  17.898  1.00  0.00    -0.237 OA
ATOM     86  O   UNL     1      -8.060  -6.147  20.034  1.00  0.00    -0.744 OA
ENDBRANCH  82  83
ENDBRANCH  56  77
ENDBRANCH  30  31
ENDBRANCH  23  25
ENDBRANCH  22  23
ENDBRANCH  21  22
ENDBRANCH   1  21
TORSDOF 19
