REMARK SMILES O=C(OCCOCCOC(=O)c1cc(Br)n(Cc2ccn(C3CCCC3)n2)c1)c1ccc(-c2c3nc(c(-c4ccc(S(=O)(=O)[O-])cc4)c4ccc([nH]4)c(-c4ccc(S(=O)(=O)[O-])cc4)c4nc(c(-c5ccc(S(=O)(=O)[O-])cc5)c5ccc2[nH]5)C=C4)C=C3)cc1
REMARK SMILES IDX 6 1 5 2 4 3 3 4 2 5 1 6 29 7 30 8 88 9 31 10 87 11 32 12
REMARK SMILES IDX 33 13 34 14 81 15 35 16 86 17 80 18 82 19 36 20 85 21 79 22
REMARK SMILES IDX 78 23 37 25 67 26 48 27 66 28 49 29 52 30 65 31 83 32 50 33
REMARK SMILES IDX 51 34 64 36 84 37 53 38 38 39 39 40 47 41 40 42 46 43 41 44
REMARK SMILES IDX 42 45 43 46 44 47 45 48 68 49 69 50 77 51 70 52 76 53 71 54
REMARK SMILES IDX 72 55 73 56 74 57 75 58 54 59 55 60 63 61 56 62 62 63 57 64
REMARK SMILES IDX 58 65 59 66 60 67 61 68 7 69 8 70 9 71 10 72 11 73 12 74
REMARK SMILES IDX 13 75 28 76 14 77 16 78 15 79 17 80 18 81 19 82 27 83 20 84
REMARK SMILES IDX 21 85 22 86 23 87 26 88 24 89 25 90
REMARK H PARENT 82 24 52 35
REMARK Flexibility Score: inf
ROOT
ATOM      1  O   UNL     1       4.417   1.191   0.671  1.00  0.00    -0.374 OA
ENDROOT
BRANCH   1   2
ATOM      2  C   UNL     1       4.903   0.980  -0.653  1.00  0.00     0.202 C 
BRANCH   2   3
ATOM      3  C   UNL     1       4.672  -0.371  -1.336  1.00  0.00     0.261 C 
BRANCH   3   4
ATOM      4  O   UNL     1       3.300  -0.568  -1.722  1.00  0.00    -0.460 OA
BRANCH   4   5
ATOM      5  C   UNL     1       2.253  -0.460  -0.876  1.00  0.00     0.338 C 
ATOM      6  O   UNL     1       1.216   0.093  -1.232  1.00  0.00    -0.246 OA
BRANCH   5   7
ATOM      7  C   UNL     1       2.284  -1.225   0.397  1.00  0.00     0.060 A 
ATOM      8  C   UNL     1       3.442  -1.712   1.007  1.00  0.00     0.016 A 
ATOM      9  C   UNL     1       1.031  -1.609   0.887  1.00  0.00     0.016 A 
ATOM     10  C   UNL     1       3.378  -2.848   1.769  1.00  0.00     0.010 A 
ATOM     11  C   UNL     1       0.952  -2.682   1.739  1.00  0.00     0.010 A 
ATOM     12  C   UNL     1       2.125  -3.376   2.025  1.00  0.00    -0.014 A 
BRANCH  12  13
ATOM     13  C   UNL     1       2.066  -4.685   2.629  1.00  0.00     0.031 A 
ATOM     14  C   UNL     1       2.586  -4.714   4.021  1.00  0.00     0.074 A 
ATOM     15  C   UNL     1       1.459  -5.669   1.935  1.00  0.00     0.049 A 
ATOM     16  N   UNL     1       3.482  -5.487   4.538  1.00  0.00    -0.248 NA
ATOM     17  C   UNL     1       2.167  -3.611   4.913  1.00  0.00     0.031 C 
ATOM     18  C   UNL     1       0.754  -5.565   0.647  1.00  0.00     0.029 A 
ATOM     19  N   UNL     1       1.177  -6.936   2.311  1.00  0.00    -0.354 N 
ATOM     20  C   UNL     1       3.571  -5.112   5.877  1.00  0.00     0.074 A 
ATOM     21  C   UNL     1       2.896  -3.848   6.000  1.00  0.00     0.031 C 
ATOM     22  C   UNL     1      -0.126  -6.584   0.542  1.00  0.00     0.029 A 
ATOM     23  C   UNL     1       0.061  -7.470   1.676  1.00  0.00     0.049 A 
ATOM     24  H   UNL     1       1.711  -7.434   2.972  1.00  0.00     0.167 HD
ATOM     25  C   UNL     1       3.938  -5.993   6.847  1.00  0.00     0.031 A 
ATOM     26  C   UNL     1      -0.723  -8.477   2.144  1.00  0.00     0.031 A 
ATOM     27  C   UNL     1       4.654  -7.115   6.308  1.00  0.00     0.049 A 
ATOM     28  C   UNL     1       0.060  -9.161   3.211  1.00  0.00     0.074 A 
ATOM     29  C   UNL     1       5.850  -7.255   5.635  1.00  0.00     0.029 A 
ATOM     30  N   UNL     1       3.937  -8.262   6.056  1.00  0.00    -0.354 N 
ATOM     31  N   UNL     1       1.188  -9.780   2.980  1.00  0.00    -0.248 NA
ATOM     32  C   UNL     1      -0.125  -8.706   4.583  1.00  0.00     0.031 C 
ATOM     33  C   UNL     1       5.590  -8.232   4.631  1.00  0.00     0.029 A 
ATOM     34  C   UNL     1       4.281  -8.692   4.798  1.00  0.00     0.049 A 
ATOM     35  H   UNL     1       3.296  -8.695   6.665  1.00  0.00     0.167 HD
ATOM     36  C   UNL     1       2.019  -9.430   4.038  1.00  0.00     0.074 A 
ATOM     37  C   UNL     1       1.129  -8.826   5.033  1.00  0.00     0.031 C 
ATOM     38  C   UNL     1       3.378  -9.377   3.895  1.00  0.00     0.031 A 
BRANCH  25  39
ATOM     39  C   UNL     1       3.262  -6.024   8.194  1.00  0.00    -0.014 A 
ATOM     40  C   UNL     1       3.735  -6.909   9.180  1.00  0.00     0.010 A 
ATOM     41  C   UNL     1       2.003  -5.423   8.421  1.00  0.00     0.010 A 
ATOM     42  C   UNL     1       2.952  -7.228  10.298  1.00  0.00     0.020 A 
ATOM     43  C   UNL     1       1.235  -5.702   9.549  1.00  0.00     0.020 A 
ATOM     44  C   UNL     1       1.699  -6.634  10.464  1.00  0.00     0.054 A 
BRANCH  44  45
ATOM     45  S   UNL     1       0.642  -7.151  11.837  1.00  0.00     0.124 S 
ATOM     46  O   UNL     1       0.369  -8.544  11.496  1.00  0.00    -0.237 OA
ATOM     47  O   UNL     1       1.511  -6.938  12.991  1.00  0.00    -0.237 OA
ATOM     48  O   UNL     1      -0.502  -6.247  11.749  1.00  0.00    -0.744 OA
ENDBRANCH  44  45
ENDBRANCH  25  39
BRANCH  26  49
ATOM     49  C   UNL     1      -2.209  -8.543   2.039  1.00  0.00    -0.014 A 
ATOM     50  C   UNL     1      -2.921  -9.730   2.288  1.00  0.00     0.010 A 
ATOM     51  C   UNL     1      -2.962  -7.352   1.922  1.00  0.00     0.010 A 
ATOM     52  C   UNL     1      -4.322  -9.719   2.448  1.00  0.00     0.020 A 
ATOM     53  C   UNL     1      -4.354  -7.333   2.073  1.00  0.00     0.020 A 
ATOM     54  C   UNL     1      -5.029  -8.516   2.354  1.00  0.00     0.054 A 
BRANCH  54  55
ATOM     55  S   UNL     1      -6.812  -8.482   2.711  1.00  0.00     0.124 S 
ATOM     56  O   UNL     1      -7.372  -9.207   1.574  1.00  0.00    -0.237 OA
ATOM     57  O   UNL     1      -6.893  -9.166   3.998  1.00  0.00    -0.237 OA
ATOM     58  O   UNL     1      -7.129  -7.055   2.751  1.00  0.00    -0.744 OA
ENDBRANCH  54  55
ENDBRANCH  26  49
BRANCH  38  59
ATOM     59  C   UNL     1       3.987  -9.860   2.592  1.00  0.00    -0.014 A 
ATOM     60  C   UNL     1       3.794  -9.212   1.353  1.00  0.00     0.010 A 
ATOM     61  C   UNL     1       4.944 -10.884   2.662  1.00  0.00     0.010 A 
ATOM     62  C   UNL     1       4.525  -9.594   0.215  1.00  0.00     0.020 A 
ATOM     63  C   UNL     1       5.687 -11.258   1.538  1.00  0.00     0.020 A 
ATOM     64  C   UNL     1       5.470 -10.617   0.317  1.00  0.00     0.054 A 
BRANCH  64  65
ATOM     65  S   UNL     1       6.457 -11.074  -1.138  1.00  0.00     0.124 S 
ATOM     66  O   UNL     1       5.465 -11.691  -2.014  1.00  0.00    -0.237 OA
ATOM     67  O   UNL     1       6.984  -9.789  -1.592  1.00  0.00    -0.237 OA
ATOM     68  O   UNL     1       7.463 -11.990  -0.603  1.00  0.00    -0.744 OA
ENDBRANCH  64  65
ENDBRANCH  38  59
ENDBRANCH  12  13
ENDBRANCH   5   7
ENDBRANCH   4   5
ENDBRANCH   3   4
ENDBRANCH   2   3
ENDBRANCH   1   2
BRANCH   1  69
ATOM     69  C   UNL     1       3.224   1.974   0.828  1.00  0.00     0.202 C 
BRANCH  69  70
ATOM     70  C   UNL     1       3.266   3.484   0.546  1.00  0.00     0.261 C 
BRANCH  70  71
ATOM     71  O   UNL     1       3.529   3.794  -0.832  1.00  0.00    -0.460 OA
BRANCH  71  72
ATOM     72  C   UNL     1       4.849   3.980  -1.133  1.00  0.00     0.339 C 
ATOM     73  O   UNL     1       5.748   4.061  -0.317  1.00  0.00    -0.246 OA
BRANCH  72  74
ATOM     74  C   UNL     1       5.091   3.906  -2.569  1.00  0.00     0.078 A 
ATOM     75  C   UNL     1       4.550   4.720  -3.591  1.00  0.00     0.051 A 
ATOM     76  C   UNL     1       5.968   3.027  -3.192  1.00  0.00     0.102 A 
ATOM     77  C   UNL     1       5.274   4.455  -4.734  1.00  0.00     0.086 A 
ATOM     78  N   UNL     1       5.969   3.283  -4.551  1.00  0.00    -0.335 N 
ATOM     79  Br  UNL     1       5.333   5.670  -6.149  1.00  0.00    -0.031 Br
BRANCH  78  80
ATOM     80  C   UNL     1       6.801   2.538  -5.506  1.00  0.00     0.180 C 
BRANCH  80  81
ATOM     81  C   UNL     1       6.051   1.920  -6.654  1.00  0.00     0.082 A 
ATOM     82  C   UNL     1       5.431   2.582  -7.741  1.00  0.00     0.047 A 
ATOM     83  N   UNL     1       6.016   0.584  -6.839  1.00  0.00    -0.176 NA
ATOM     84  C   UNL     1       4.944   1.598  -8.557  1.00  0.00     0.109 A 
ATOM     85  N   UNL     1       5.332   0.418  -7.996  1.00  0.00    -0.269 N 
BRANCH  85  86
ATOM     86  C   UNL     1       5.135  -0.873  -8.616  1.00  0.00     0.107 C 
ATOM     87  C   UNL     1       6.413  -1.568  -9.076  1.00  0.00     0.027 C 
ATOM     88  C   UNL     1       4.450  -1.937  -7.765  1.00  0.00     0.027 C 
ATOM     89  C   UNL     1       5.927  -2.968  -9.432  1.00  0.00     0.002 C 
ATOM     90  C   UNL     1       4.742  -3.246  -8.502  1.00  0.00     0.002 C 
ENDBRANCH  85  86
ENDBRANCH  80  81
ENDBRANCH  78  80
ENDBRANCH  72  74
ENDBRANCH  71  72
ENDBRANCH  70  71
ENDBRANCH  69  70
ENDBRANCH   1  69
TORSDOF 20
