REMARK SMILES O=C(OCCOCCOC(=O)c1ccc(-n2cc(CSc3nc4ccccc4c(=O)n3-c3ccccc3)nn2)cc1)c1ccc(-c2c3nc(c(-c4ccc(S(=O)(=O)[O-])cc4)c4ccc([nH]4)c(-c4ccc(S(=O)(=O)[O-])cc4)c4nc(c(-c5ccc(S(=O)(=O)[O-])cc5)c5ccc2[nH]5)C=C4)C=C3)cc1
REMARK SMILES IDX 7 1 6 2 5 3 4 4 3 5 2 6 1 7 42 8 43 9 101 10 44 11 100 12
REMARK SMILES IDX 45 13 46 14 47 15 94 16 48 17 99 18 93 19 95 20 49 21 98 22
REMARK SMILES IDX 92 23 91 24 50 26 80 27 61 28 79 29 62 30 65 31 78 32 96 33
REMARK SMILES IDX 63 34 64 35 77 37 97 38 66 39 51 40 52 41 60 42 53 43 59 44
REMARK SMILES IDX 54 45 55 46 56 47 57 48 58 49 81 50 82 51 90 52 83 53 89 54
REMARK SMILES IDX 84 55 85 56 86 57 87 58 88 59 67 60 68 61 76 62 69 63 75 64
REMARK SMILES IDX 70 65 71 66 72 67 73 68 74 69 8 70 9 71 10 72 11 73 12 74
REMARK SMILES IDX 13 75 41 76 14 77 40 78 15 79 16 80 17 81 39 82 18 83 38 84
REMARK SMILES IDX 19 85 20 86 21 87 22 88 31 89 23 90 29 91 24 92 28 93 30 94
REMARK SMILES IDX 25 95 27 96 26 97 32 98 33 99 37 100 34 101 36 102 35 103
REMARK H PARENT 95 25 65 36
REMARK Flexibility Score: inf
ROOT
ATOM      1  C   UNL     1       3.147   1.984  -0.616  1.00  0.00     0.202 C 
ENDROOT
BRANCH   1   2
ATOM      2  O   UNL     1       4.287   1.325  -0.043  1.00  0.00    -0.374 OA
BRANCH   2   3
ATOM      3  C   UNL     1       4.888   0.279  -0.793  1.00  0.00     0.202 C 
BRANCH   3   4
ATOM      4  C   UNL     1       4.583  -1.173  -0.434  1.00  0.00     0.261 C 
BRANCH   4   5
ATOM      5  O   UNL     1       3.210  -1.549  -0.620  1.00  0.00    -0.460 OA
BRANCH   5   6
ATOM      6  C   UNL     1       2.148  -0.940  -0.053  1.00  0.00     0.338 C 
ATOM      7  O   UNL     1       1.129  -0.750  -0.714  1.00  0.00    -0.246 OA
BRANCH   6   8
ATOM      8  C   UNL     1       2.119  -0.695   1.414  1.00  0.00     0.060 A 
ATOM      9  C   UNL     1       3.202  -0.873   2.272  1.00  0.00     0.016 A 
ATOM     10  C   UNL     1       0.847  -0.456   1.959  1.00  0.00     0.016 A 
ATOM     11  C   UNL     1       2.977  -1.170   3.594  1.00  0.00     0.010 A 
ATOM     12  C   UNL     1       0.623  -0.672   3.303  1.00  0.00     0.010 A 
ATOM     13  C   UNL     1       1.671  -1.163   4.068  1.00  0.00    -0.014 A 
BRANCH  13  14
ATOM     14  C   UNL     1       1.462  -1.640   5.417  1.00  0.00     0.031 A 
ATOM     15  C   UNL     1       2.162  -0.820   6.433  1.00  0.00     0.074 A 
ATOM     16  C   UNL     1       0.674  -2.701   5.670  1.00  0.00     0.049 A 
ATOM     17  N   UNL     1       3.178  -1.153   7.157  1.00  0.00    -0.248 NA
ATOM     18  C   UNL     1       1.827   0.613   6.488  1.00  0.00     0.031 C 
ATOM     19  C   UNL     1      -0.218  -3.415   4.751  1.00  0.00     0.029 A 
ATOM     20  N   UNL     1       0.414  -3.297   6.858  1.00  0.00    -0.354 N 
ATOM     21  C   UNL     1       3.457  -0.037   7.939  1.00  0.00     0.074 A 
ATOM     22  C   UNL     1       2.747   1.063   7.340  1.00  0.00     0.031 C 
ATOM     23  C   UNL     1      -1.111  -4.133   5.471  1.00  0.00     0.029 A 
ATOM     24  C   UNL     1      -0.757  -4.043   6.878  1.00  0.00     0.049 A 
ATOM     25  H   UNL     1       1.005  -3.209   7.640  1.00  0.00     0.167 HD
ATOM     26  C   UNL     1       4.007  -0.162   9.178  1.00  0.00     0.031 A 
ATOM     27  C   UNL     1      -1.422  -4.463   7.986  1.00  0.00     0.031 A 
ATOM     28  C   UNL     1       4.619  -1.453   9.360  1.00  0.00     0.049 A 
ATOM     29  C   UNL     1      -0.453  -4.412   9.113  1.00  0.00     0.074 A 
ATOM     30  C   UNL     1       5.652  -2.133   8.746  1.00  0.00     0.029 A 
ATOM     31  N   UNL     1       3.887  -2.401  10.037  1.00  0.00    -0.354 N 
ATOM     32  N   UNL     1       0.605  -5.175   9.173  1.00  0.00    -0.248 NA
ATOM     33  C   UNL     1      -0.376  -3.185   9.893  1.00  0.00     0.031 C 
ATOM     34  C   UNL     1       5.213  -3.489   8.688  1.00  0.00     0.029 A 
ATOM     35  C   UNL     1       3.979  -3.576   9.336  1.00  0.00     0.049 A 
ATOM     36  H   UNL     1       3.388  -2.262  10.874  1.00  0.00     0.167 HD
ATOM     37  C   UNL     1       1.623  -4.345   9.624  1.00  0.00     0.074 A 
ATOM     38  C   UNL     1       0.940  -3.152  10.129  1.00  0.00     0.031 C 
ATOM     39  C   UNL     1       2.927  -4.569   9.281  1.00  0.00     0.031 A 
BRANCH  26  40
ATOM     40  C   UNL     1       3.570   0.691  10.346  1.00  0.00    -0.014 A 
ATOM     41  C   UNL     1       4.163   0.465  11.604  1.00  0.00     0.010 A 
ATOM     42  C   UNL     1       2.399   1.479  10.324  1.00  0.00     0.010 A 
ATOM     43  C   UNL     1       3.557   0.920  12.782  1.00  0.00     0.020 A 
ATOM     44  C   UNL     1       1.811   1.972  11.487  1.00  0.00     0.020 A 
ATOM     45  C   UNL     1       2.372   1.653  12.713  1.00  0.00     0.054 A 
BRANCH  45  46
ATOM     46  S   UNL     1       1.527   2.120  14.241  1.00  0.00     0.124 S 
ATOM     47  O   UNL     1       1.140   0.820  14.778  1.00  0.00    -0.237 OA
ATOM     48  O   UNL     1       2.579   2.822  14.971  1.00  0.00    -0.237 OA
ATOM     49  O   UNL     1       0.426   2.963  13.779  1.00  0.00    -0.744 OA
ENDBRANCH  45  46
ENDBRANCH  26  40
BRANCH  27  50
ATOM     50  C   UNL     1      -2.898  -4.484   8.181  1.00  0.00    -0.014 A 
ATOM     51  C   UNL     1      -3.486  -5.141   9.279  1.00  0.00     0.010 A 
ATOM     52  C   UNL     1      -3.719  -3.620   7.426  1.00  0.00     0.010 A 
ATOM     53  C   UNL     1      -4.828  -4.901   9.635  1.00  0.00     0.020 A 
ATOM     54  C   UNL     1      -5.055  -3.380   7.770  1.00  0.00     0.020 A 
ATOM     55  C   UNL     1      -5.599  -4.005   8.888  1.00  0.00     0.054 A 
BRANCH  55  56
ATOM     56  S   UNL     1      -7.274  -3.569   9.447  1.00  0.00     0.124 S 
ATOM     57  O   UNL     1      -8.017  -4.801   9.200  1.00  0.00    -0.237 OA
ATOM     58  O   UNL     1      -7.064  -3.229  10.851  1.00  0.00    -0.237 OA
ATOM     59  O   UNL     1      -7.642  -2.442   8.590  1.00  0.00    -0.744 OA
ENDBRANCH  55  56
ENDBRANCH  27  50
BRANCH  39  60
ATOM     60  C   UNL     1       3.276  -5.871   8.593  1.00  0.00    -0.014 A 
ATOM     61  C   UNL     1       2.793  -6.243   7.321  1.00  0.00     0.010 A 
ATOM     62  C   UNL     1       4.261  -6.673   9.193  1.00  0.00     0.010 A 
ATOM     63  C   UNL     1       3.267  -7.402   6.684  1.00  0.00     0.020 A 
ATOM     64  C   UNL     1       4.748  -7.817   8.558  1.00  0.00     0.020 A 
ATOM     65  C   UNL     1       4.243  -8.183   7.311  1.00  0.00     0.054 A 
BRANCH  65  66
ATOM     66  S   UNL     1       4.882  -9.664   6.476  1.00  0.00     0.124 S 
ATOM     67  O   UNL     1       3.729 -10.559   6.490  1.00  0.00    -0.237 OA
ATOM     68  O   UNL     1       5.269  -9.155   5.162  1.00  0.00    -0.237 OA
ATOM     69  O   UNL     1       6.000 -10.084   7.320  1.00  0.00    -0.744 OA
ENDBRANCH  65  66
ENDBRANCH  39  60
ENDBRANCH  13  14
ENDBRANCH   6   8
ENDBRANCH   5   6
ENDBRANCH   4   5
ENDBRANCH   3   4
ENDBRANCH   2   3
ENDBRANCH   1   2
BRANCH   1  70
ATOM     70  C   UNL     1       3.279   2.747  -1.948  1.00  0.00     0.261 C 
BRANCH  70  71
ATOM     71  O   UNL     1       3.549   1.887  -3.073  1.00  0.00    -0.460 OA
BRANCH  71  72
ATOM     72  C   UNL     1       4.816   1.940  -3.570  1.00  0.00     0.338 C 
ATOM     73  O   UNL     1       5.691   2.716  -3.266  1.00  0.00    -0.246 OA
BRANCH  72  74
ATOM     74  C   UNL     1       5.055   0.706  -4.362  1.00  0.00     0.060 A 
ATOM     75  C   UNL     1       6.151  -0.101  -4.008  1.00  0.00     0.018 A 
ATOM     76  C   UNL     1       4.194   0.316  -5.389  1.00  0.00     0.018 A 
ATOM     77  C   UNL     1       6.391  -1.302  -4.678  1.00  0.00     0.029 A 
ATOM     78  C   UNL     1       4.418  -0.895  -6.050  1.00  0.00     0.029 A 
ATOM     79  C   UNL     1       5.519  -1.694  -5.695  1.00  0.00     0.066 A 
BRANCH  79  80
ATOM     80  N   UNL     1       5.786  -2.862  -6.438  1.00  0.00    -0.220 N 
ATOM     81  C   UNL     1       6.966  -3.151  -7.102  1.00  0.00     0.141 A 
ATOM     82  N   UNL     1       4.811  -3.686  -6.861  1.00  0.00    -0.062 NA
ATOM     83  C   UNL     1       6.610  -4.068  -8.066  1.00  0.00     0.093 A 
ATOM     84  N   UNL     1       5.318  -4.471  -7.794  1.00  0.00    -0.134 NA
BRANCH  83  85
ATOM     85  C   UNL     1       7.122  -4.471  -9.401  1.00  0.00     0.138 C 
BRANCH  85  86
ATOM     86  S   UNL     1       8.783  -4.593 -10.013  1.00  0.00    -0.081 SA
BRANCH  86  87
ATOM     87  C   UNL     1       9.988  -3.738  -9.110  1.00  0.00     0.176 A 
ATOM     88  N   UNL     1      11.095  -4.420  -9.058  1.00  0.00    -0.223 NA
ATOM     89  N   UNL     1       9.871  -2.490  -8.518  1.00  0.00    -0.255 N 
ATOM     90  C   UNL     1      12.140  -3.953  -8.261  1.00  0.00     0.079 A 
ATOM     91  C   UNL     1      10.582  -2.366  -7.312  1.00  0.00     0.266 A 
ATOM     92  C   UNL     1      13.427  -4.478  -8.379  1.00  0.00     0.029 A 
ATOM     93  C   UNL     1      11.877  -3.053  -7.242  1.00  0.00     0.066 A 
ATOM     94  O   UNL     1      10.197  -1.771  -6.306  1.00  0.00    -0.268 OA
ATOM     95  C   UNL     1      14.405  -4.160  -7.429  1.00  0.00     0.002 A 
ATOM     96  C   UNL     1      12.820  -2.775  -6.250  1.00  0.00     0.016 A 
ATOM     97  C   UNL     1      14.088  -3.344  -6.341  1.00  0.00     0.001 A 
BRANCH  89  98
ATOM     98  C   UNL     1       9.046  -1.369  -8.941  1.00  0.00     0.051 A 
ATOM     99  C   UNL     1       9.202  -0.113  -8.319  1.00  0.00     0.027 A 
ATOM    100  C   UNL     1       8.078  -1.421  -9.947  1.00  0.00     0.027 A 
ATOM    101  C   UNL     1       8.299   0.937  -8.513  1.00  0.00     0.002 A 
ATOM    102  C   UNL     1       7.120  -0.407 -10.095  1.00  0.00     0.002 A 
ATOM    103  C   UNL     1       7.212   0.760  -9.351  1.00  0.00     0.000 A 
ENDBRANCH  89  98
ENDBRANCH  86  87
ENDBRANCH  85  86
ENDBRANCH  83  85
ENDBRANCH  79  80
ENDBRANCH  72  74
ENDBRANCH  71  72
ENDBRANCH  70  71
ENDBRANCH   1  70
TORSDOF 22
