REMARK SMILES O=C(Cc1ccc(NC(=O)c2ccc(N3C(=O)c4ccccc4C3=O)cc2)cc1)OCCOCCOC(=O)c1ccc(-c2c3nc(c(-c4ccc(S(=O)(=O)[O-])cc4)c4ccc([nH]4)c(-c4ccc(S(=O)(=O)[O-])cc4)c4nc(c(-c5ccc(S(=O)(=O)[O-])cc5)c5ccc2[nH]5)C=C4)C=C3)cc1
REMARK SMILES IDX 32 1 31 2 30 3 2 4 1 5 3 6 4 7 5 8 29 9 6 10 28 11 7 12 8 13
REMARK SMILES IDX 9 14 10 16 11 17 12 18 27 19 13 20 26 21 14 22 15 23 16 24
REMARK SMILES IDX 24 25 17 26 18 27 23 28 25 29 19 30 22 31 20 32 21 33 33 34
REMARK SMILES IDX 34 35 35 36 36 37 37 38 38 39 39 40 40 41 98 42 41 43 97 44
REMARK SMILES IDX 42 45 43 46 44 47 91 48 45 49 96 50 90 51 92 52 46 53 95 54
REMARK SMILES IDX 89 55 88 56 47 58 77 59 58 60 76 61 59 62 62 63 75 64 93 65
REMARK SMILES IDX 60 66 61 67 74 69 94 70 63 71 48 72 49 73 57 74 50 75 56 76
REMARK SMILES IDX 51 77 52 78 53 79 54 80 55 81 78 82 79 83 87 84 80 85 86 86
REMARK SMILES IDX 81 87 82 88 83 89 84 90 85 91 64 92 65 93 73 94 66 95 72 96
REMARK SMILES IDX 67 97 68 98 69 99 70 100 71 101
REMARK H PARENT 8 15 92 57 62 68
REMARK Flexibility Score: inf
ROOT
ATOM      1  C   UNL     1       4.635  -0.520   0.920  1.00  0.00     0.202 C 
ENDROOT
BRANCH   1   2
ATOM      2  C   UNL     1       3.974   0.821   0.593  1.00  0.00     0.261 C 
BRANCH   2   3
ATOM      3  O   UNL     1       2.540   0.829   0.558  1.00  0.00    -0.463 OA
BRANCH   3   4
ATOM      4  C   UNL     1       1.762   0.518  -0.505  1.00  0.00     0.310 C 
ATOM      5  O   UNL     1       0.542   0.667  -0.416  1.00  0.00    -0.252 OA
BRANCH   4   6
ATOM      6  C   UNL     1       2.347  -0.138  -1.734  1.00  0.00     0.158 C 
BRANCH   6   7
ATOM      7  C   UNL     1       3.490   0.573  -2.397  1.00  0.00    -0.037 A 
ATOM      8  C   UNL     1       4.727  -0.066  -2.520  1.00  0.00     0.006 A 
ATOM      9  C   UNL     1       3.360   1.897  -2.828  1.00  0.00     0.006 A 
ATOM     10  C   UNL     1       5.814   0.615  -3.061  1.00  0.00     0.026 A 
ATOM     11  C   UNL     1       4.442   2.554  -3.418  1.00  0.00     0.026 A 
ATOM     12  C   UNL     1       5.658   1.891  -3.603  1.00  0.00     0.041 A 
BRANCH  12  13
ATOM     13  N   UNL     1       6.644   2.549  -4.363  1.00  0.00    -0.322 N 
ATOM     14  C   UNL     1       7.728   2.061  -5.068  1.00  0.00     0.255 C 
ATOM     15  H   UNL     1       6.545   3.528  -4.398  1.00  0.00     0.170 HD
ATOM     16  O   UNL     1       8.528   2.832  -5.594  1.00  0.00    -0.269 OA
BRANCH  14  17
ATOM     17  C   UNL     1       7.922   0.607  -5.257  1.00  0.00     0.040 A 
ATOM     18  C   UNL     1       9.128   0.031  -4.866  1.00  0.00     0.016 A 
ATOM     19  C   UNL     1       6.892  -0.202  -5.731  1.00  0.00     0.016 A 
ATOM     20  C   UNL     1       9.251  -1.367  -4.822  1.00  0.00     0.028 A 
ATOM     21  C   UNL     1       7.014  -1.595  -5.657  1.00  0.00     0.028 A 
ATOM     22  C   UNL     1       8.179  -2.212  -5.166  1.00  0.00     0.052 A 
BRANCH  22  23
ATOM     23  N   UNL     1       8.250  -3.631  -5.000  1.00  0.00    -0.242 N 
ATOM     24  C   UNL     1       7.250  -4.516  -5.350  1.00  0.00     0.266 C 
ATOM     25  C   UNL     1       9.313  -4.319  -4.437  1.00  0.00     0.266 C 
ATOM     26  O   UNL     1       6.146  -4.358  -5.846  1.00  0.00    -0.268 OA
ATOM     27  C   UNL     1       7.715  -5.854  -5.022  1.00  0.00     0.053 A 
ATOM     28  C   UNL     1       8.962  -5.739  -4.453  1.00  0.00     0.053 A 
ATOM     29  O   UNL     1      10.376  -3.947  -3.984  1.00  0.00    -0.268 OA
ATOM     30  C   UNL     1       7.101  -7.078  -5.215  1.00  0.00     0.015 A 
ATOM     31  C   UNL     1       9.666  -6.849  -4.023  1.00  0.00     0.015 A 
ATOM     32  C   UNL     1       7.796  -8.216  -4.801  1.00  0.00     0.001 A 
ATOM     33  C   UNL     1       9.068  -8.102  -4.204  1.00  0.00     0.001 A 
ENDBRANCH  22  23
ENDBRANCH  14  17
ENDBRANCH  12  13
ENDBRANCH   6   7
ENDBRANCH   4   6
ENDBRANCH   3   4
ENDBRANCH   2   3
ENDBRANCH   1   2
BRANCH   1  34
ATOM     34  O   UNL     1       4.049  -1.722   0.436  1.00  0.00    -0.374 OA
BRANCH  34  35
ATOM     35  C   UNL     1       2.849  -2.189   1.060  1.00  0.00     0.202 C 
BRANCH  35  36
ATOM     36  C   UNL     1       2.925  -2.759   2.479  1.00  0.00     0.261 C 
BRANCH  36  37
ATOM     37  O   UNL     1       3.286  -1.764   3.446  1.00  0.00    -0.460 OA
BRANCH  37  38
ATOM     38  C   UNL     1       4.552  -1.880   3.913  1.00  0.00     0.338 C 
ATOM     39  O   UNL     1       5.359  -2.751   3.636  1.00  0.00    -0.246 OA
BRANCH  38  40
ATOM     40  C   UNL     1       4.920  -0.659   4.653  1.00  0.00     0.060 A 
ATOM     41  C   UNL     1       6.174  -0.098   4.376  1.00  0.00     0.016 A 
ATOM     42  C   UNL     1       4.097  -0.122   5.645  1.00  0.00     0.016 A 
ATOM     43  C   UNL     1       6.661   0.930   5.169  1.00  0.00     0.010 A 
ATOM     44  C   UNL     1       4.589   0.911   6.444  1.00  0.00     0.010 A 
ATOM     45  C   UNL     1       5.899   1.385   6.252  1.00  0.00    -0.014 A 
BRANCH  45  46
ATOM     46  C   UNL     1       6.578   2.160   7.314  1.00  0.00     0.031 A 
ATOM     47  C   UNL     1       7.015   1.428   8.556  1.00  0.00     0.074 A 
ATOM     48  C   UNL     1       6.869   3.459   7.139  1.00  0.00     0.049 A 
ATOM     49  N   UNL     1       7.658   1.879   9.601  1.00  0.00    -0.248 NA
ATOM     50  C   UNL     1       6.681  -0.005   8.632  1.00  0.00     0.031 C 
ATOM     51  C   UNL     1       6.540   4.247   5.951  1.00  0.00     0.029 A 
ATOM     52  N   UNL     1       7.520   4.340   7.961  1.00  0.00    -0.354 N 
ATOM     53  C   UNL     1       7.787   0.794  10.462  1.00  0.00     0.074 A 
ATOM     54  C   UNL     1       7.129  -0.329   9.835  1.00  0.00     0.031 C 
ATOM     55  C   UNL     1       7.001   5.498   6.119  1.00  0.00     0.029 A 
ATOM     56  C   UNL     1       7.627   5.605   7.435  1.00  0.00     0.049 A 
ATOM     57  H   UNL     1       7.877   4.091   8.844  1.00  0.00     0.167 HD
ATOM     58  C   UNL     1       8.407   0.737  11.664  1.00  0.00     0.031 A 
ATOM     59  C   UNL     1       8.164   6.721   7.965  1.00  0.00     0.031 A 
ATOM     60  C   UNL     1       9.058   1.863  12.277  1.00  0.00     0.049 A 
ATOM     61  C   UNL     1       8.799   6.645   9.329  1.00  0.00     0.074 A 
ATOM     62  C   UNL     1       9.736   1.915  13.481  1.00  0.00     0.029 A 
ATOM     63  N   UNL     1       9.107   3.139  11.732  1.00  0.00    -0.354 N 
ATOM     64  N   UNL     1       8.933   5.608  10.123  1.00  0.00    -0.248 NA
ATOM     65  C   UNL     1       9.372   7.889   9.859  1.00  0.00     0.031 C 
ATOM     66  C   UNL     1      10.137   3.238  13.697  1.00  0.00     0.029 A 
ATOM     67  C   UNL     1       9.779   3.992  12.590  1.00  0.00     0.049 A 
ATOM     68  H   UNL     1       8.722   3.398  10.865  1.00  0.00     0.167 HD
ATOM     69  C   UNL     1       9.642   6.066  11.229  1.00  0.00     0.074 A 
ATOM     70  C   UNL     1       9.916   7.470  10.993  1.00  0.00     0.031 C 
ATOM     71  C   UNL     1      10.039   5.388  12.335  1.00  0.00     0.031 A 
BRANCH  58  72
ATOM     72  C   UNL     1       8.367  -0.572  12.410  1.00  0.00    -0.014 A 
ATOM     73  C   UNL     1       9.072  -1.703  11.959  1.00  0.00     0.010 A 
ATOM     74  C   UNL     1       7.629  -0.662  13.604  1.00  0.00     0.010 A 
ATOM     75  C   UNL     1       9.006  -2.908  12.665  1.00  0.00     0.020 A 
ATOM     76  C   UNL     1       7.586  -1.855  14.331  1.00  0.00     0.020 A 
ATOM     77  C   UNL     1       8.262  -2.976  13.847  1.00  0.00     0.054 A 
BRANCH  77  78
ATOM     78  S   UNL     1       8.213  -4.545  14.756  1.00  0.00     0.124 S 
ATOM     79  O   UNL     1       7.388  -5.375  13.882  1.00  0.00    -0.237 OA
ATOM     80  O   UNL     1       9.624  -4.917  14.827  1.00  0.00    -0.237 OA
ATOM     81  O   UNL     1       7.601  -4.188  16.033  1.00  0.00    -0.744 OA
ENDBRANCH  77  78
ENDBRANCH  58  72
BRANCH  59  82
ATOM     82  C   UNL     1       8.127   7.998   7.202  1.00  0.00    -0.014 A 
ATOM     83  C   UNL     1       9.311   8.576   6.710  1.00  0.00     0.010 A 
ATOM     84  C   UNL     1       6.901   8.645   6.961  1.00  0.00     0.010 A 
ATOM     85  C   UNL     1       9.271   9.786   6.010  1.00  0.00     0.020 A 
ATOM     86  C   UNL     1       6.853   9.837   6.235  1.00  0.00     0.020 A 
ATOM     87  C   UNL     1       8.041  10.407   5.774  1.00  0.00     0.054 A 
BRANCH  87  88
ATOM     88  S   UNL     1       8.010  11.952   4.824  1.00  0.00     0.124 S 
ATOM     89  O   UNL     1       8.593  12.900   5.766  1.00  0.00    -0.237 OA
ATOM     90  O   UNL     1       8.834  11.622   3.663  1.00  0.00    -0.237 OA
ATOM     91  O   UNL     1       6.591  12.147   4.535  1.00  0.00    -0.744 OA
ENDBRANCH  87  88
ENDBRANCH  59  82
BRANCH  71  92
ATOM     92  C   UNL     1      10.862   6.141  13.349  1.00  0.00    -0.014 A 
ATOM     93  C   UNL     1      10.308   7.165  14.137  1.00  0.00     0.010 A 
ATOM     94  C   UNL     1      12.212   5.789  13.533  1.00  0.00     0.010 A 
ATOM     95  C   UNL     1      11.104   7.860  15.052  1.00  0.00     0.020 A 
ATOM     96  C   UNL     1      13.001   6.456  14.472  1.00  0.00     0.020 A 
ATOM     97  C   UNL     1      12.447   7.503  15.210  1.00  0.00     0.054 A 
BRANCH  97  98
ATOM     98  S   UNL     1      13.457   8.411  16.411  1.00  0.00     0.124 S 
ATOM     99  O   UNL     1      13.643   9.695  15.741  1.00  0.00    -0.237 OA
ATOM    100  O   UNL     1      12.600   8.438  17.594  1.00  0.00    -0.237 OA
ATOM    101  O   UNL     1      14.662   7.595  16.540  1.00  0.00    -0.744 OA
ENDBRANCH  97  98
ENDBRANCH  71  92
ENDBRANCH  45  46
ENDBRANCH  38  40
ENDBRANCH  37  38
ENDBRANCH  36  37
ENDBRANCH  35  36
ENDBRANCH  34  35
ENDBRANCH   1  34
TORSDOF 21
