REMARK SMILES CNC(=O)c1ccc(-n2nc(C)c(C(=O)OCCOCCOC(=O)c3ccc(-c4c5nc(c(-c6ccc(S(=O)(=O)[O-])cc6)c6ccc([nH]6)c(-c6ccc(S(=O)(=O)[O-])cc6)c6nc(c(-c7ccc(S(=O)(=O)[O-])cc7)c7ccc4[nH]7)C=C6)C=C5)cc3)c2C)nn1
REMARK SMILES IDX 20 1 19 2 18 3 17 4 16 5 14 6 15 7 13 8 9 9 10 10 85 11
REMARK SMILES IDX 11 12 86 13 12 14 8 15 5 16 6 17 88 18 7 19 87 20 3 21 1 22
REMARK SMILES IDX 2 23 4 25 21 26 22 27 23 28 24 29 25 30 26 31 84 32 27 33
REMARK SMILES IDX 83 34 28 35 29 36 30 37 77 38 31 39 82 40 76 41 78 42 32 43
REMARK SMILES IDX 81 44 75 45 74 46 33 48 63 49 44 50 62 51 45 52 48 53 61 54
REMARK SMILES IDX 79 55 46 56 47 57 60 59 80 60 49 61 34 62 35 63 43 64 36 65
REMARK SMILES IDX 42 66 37 67 38 68 39 69 40 70 41 71 64 72 65 73 73 74 66 75
REMARK SMILES IDX 72 76 67 77 68 78 69 79 70 80 71 81 50 82 51 83 59 84 52 85
REMARK SMILES IDX 58 86 53 87 54 88 55 89 56 90 57 91
REMARK H PARENT 2 24 78 47 48 58
REMARK Flexibility Score: inf
ROOT
ATOM      1  C   UNL     1      -3.431  -9.347   5.181  1.00  0.00     0.202 C 
ENDROOT
BRANCH   1   2
ATOM      2  O   UNL     1      -4.409  -9.206   6.205  1.00  0.00    -0.374 OA
BRANCH   2   3
ATOM      3  C   UNL     1      -5.395  -8.177   6.114  1.00  0.00     0.202 C 
BRANCH   3   4
ATOM      4  C   UNL     1      -4.945  -6.744   6.402  1.00  0.00     0.261 C 
BRANCH   4   5
ATOM      5  O   UNL     1      -4.114  -6.237   5.348  1.00  0.00    -0.460 OA
BRANCH   5   6
ATOM      6  C   UNL     1      -2.781  -6.173   5.616  1.00  0.00     0.341 C 
ATOM      7  O   UNL     1      -2.277  -6.362   6.718  1.00  0.00    -0.246 OA
BRANCH   6   8
ATOM      8  C   UNL     1      -1.989  -5.975   4.417  1.00  0.00     0.104 A 
ATOM      9  N   UNL     1      -1.185  -5.240   2.495  1.00  0.00    -0.217 N 
ATOM     10  N   UNL     1      -0.274  -6.151   2.915  1.00  0.00    -0.171 NA
ATOM     11  C   UNL     1      -2.346  -5.310   3.254  1.00  0.00     0.058 A 
ATOM     12  C   UNL     1      -0.725  -6.548   4.111  1.00  0.00     0.075 A 
ATOM     13  C   UNL     1      -3.670  -4.791   2.807  1.00  0.00     0.068 C 
ATOM     14  C   UNL     1       0.045  -7.553   4.894  1.00  0.00     0.070 C 
BRANCH   9  15
ATOM     15  C   UNL     1      -0.876  -4.292   1.483  1.00  0.00     0.175 A 
ATOM     16  C   UNL     1      -0.393  -2.505  -0.490  1.00  0.00     0.150 A 
ATOM     17  C   UNL     1      -1.156  -2.089   0.586  1.00  0.00     0.040 A 
ATOM     18  N   UNL     1       0.146  -3.742  -0.569  1.00  0.00    -0.143 NA
ATOM     19  C   UNL     1      -1.394  -3.003   1.600  1.00  0.00     0.053 A 
ATOM     20  N   UNL     1      -0.077  -4.641   0.449  1.00  0.00    -0.130 NA
BRANCH  16  21
ATOM     21  C   UNL     1      -0.136  -1.570  -1.606  1.00  0.00     0.271 C 
ATOM     22  C   UNL     1       1.240   0.005  -0.160  1.00  0.00     0.143 C 
ATOM     23  N   UNL     1       0.542  -0.397  -1.359  1.00  0.00    -0.354 N 
ATOM     24  H   UNL     1       0.553   0.253  -2.098  1.00  0.00     0.163 HD
ATOM     25  O   UNL     1      -0.573  -1.801  -2.728  1.00  0.00    -0.267 OA
ENDBRANCH  16  21
ENDBRANCH   9  15
ENDBRANCH   6   8
ENDBRANCH   5   6
ENDBRANCH   4   5
ENDBRANCH   3   4
ENDBRANCH   2   3
ENDBRANCH   1   2
BRANCH   1  26
ATOM     26  C   UNL     1      -3.858  -9.876   3.822  1.00  0.00     0.261 C 
BRANCH  26  27
ATOM     27  O   UNL     1      -4.819  -9.034   3.207  1.00  0.00    -0.460 OA
BRANCH  27  28
ATOM     28  C   UNL     1      -6.085  -9.501   3.299  1.00  0.00     0.338 C 
ATOM     29  O   UNL     1      -6.507 -10.335   4.082  1.00  0.00    -0.246 OA
BRANCH  28  30
ATOM     30  C   UNL     1      -6.857  -8.956   2.182  1.00  0.00     0.060 A 
ATOM     31  C   UNL     1      -8.149  -9.460   2.030  1.00  0.00     0.016 A 
ATOM     32  C   UNL     1      -6.197  -8.259   1.157  1.00  0.00     0.016 A 
ATOM     33  C   UNL     1      -8.679  -9.496   0.764  1.00  0.00     0.010 A 
ATOM     34  C   UNL     1      -6.722  -8.308  -0.108  1.00  0.00     0.010 A 
ATOM     35  C   UNL     1      -7.904  -9.014  -0.298  1.00  0.00    -0.014 A 
BRANCH  35  36
ATOM     36  C   UNL     1      -8.413  -9.178  -1.636  1.00  0.00     0.031 A 
ATOM     37  C   UNL     1      -9.505  -8.230  -1.924  1.00  0.00     0.074 A 
ATOM     38  C   UNL     1      -7.882 -10.039  -2.522  1.00  0.00     0.049 A 
ATOM     39  N   UNL     1     -10.767  -8.494  -1.949  1.00  0.00    -0.248 NA
ATOM     40  C   UNL     1      -9.185  -6.793  -1.941  1.00  0.00     0.031 C 
ATOM     41  C   UNL     1      -6.646 -10.819  -2.424  1.00  0.00     0.029 A 
ATOM     42  N   UNL     1      -8.311 -10.318  -3.777  1.00  0.00    -0.354 N 
ATOM     43  C   UNL     1     -11.384  -7.286  -2.231  1.00  0.00     0.074 A 
ATOM     44  C   UNL     1     -10.406  -6.260  -1.976  1.00  0.00     0.031 C 
ATOM     45  C   UNL     1      -6.305 -11.263  -3.658  1.00  0.00     0.029 A 
ATOM     46  C   UNL     1      -7.363 -10.917  -4.595  1.00  0.00     0.049 A 
ATOM     47  H   UNL     1      -9.224 -10.111  -4.085  1.00  0.00     0.167 HD
ATOM     48  C   UNL     1     -12.549  -7.239  -2.930  1.00  0.00     0.031 A 
ATOM     49  C   UNL     1      -7.431 -11.026  -5.949  1.00  0.00     0.031 A 
ATOM     50  C   UNL     1     -13.161  -8.538  -3.035  1.00  0.00     0.049 A 
ATOM     51  C   UNL     1      -8.863 -10.857  -6.323  1.00  0.00     0.074 A 
ATOM     52  C   UNL     1     -13.644  -9.457  -2.125  1.00  0.00     0.029 A 
ATOM     53  N   UNL     1     -12.942  -9.230  -4.204  1.00  0.00    -0.354 N 
ATOM     54  N   UNL     1      -9.790 -11.711  -5.989  1.00  0.00    -0.248 NA
ATOM     55  C   UNL     1      -9.338  -9.511  -6.617  1.00  0.00     0.031 C 
ATOM     56  C   UNL     1     -13.253 -10.726  -2.641  1.00  0.00     0.029 A 
ATOM     57  C   UNL     1     -12.628 -10.524  -3.874  1.00  0.00     0.049 A 
ATOM     58  H   UNL     1     -13.001  -8.862  -5.116  1.00  0.00     0.167 HD
ATOM     59  C   UNL     1     -10.870 -10.931  -5.596  1.00  0.00     0.074 A 
ATOM     60  C   UNL     1     -10.563  -9.586  -6.085  1.00  0.00     0.031 C 
ATOM     61  C   UNL     1     -11.763 -11.378  -4.663  1.00  0.00     0.031 A 
BRANCH  48  62
ATOM     62  C   UNL     1     -12.894  -6.112  -3.862  1.00  0.00    -0.014 A 
ATOM     63  C   UNL     1     -14.177  -6.075  -4.435  1.00  0.00     0.010 A 
ATOM     64  C   UNL     1     -11.922  -5.239  -4.396  1.00  0.00     0.010 A 
ATOM     65  C   UNL     1     -14.460  -5.233  -5.516  1.00  0.00     0.020 A 
ATOM     66  C   UNL     1     -12.205  -4.363  -5.442  1.00  0.00     0.020 A 
ATOM     67  C   UNL     1     -13.468  -4.385  -6.013  1.00  0.00     0.054 A 
BRANCH  67  68
ATOM     68  S   UNL     1     -13.827  -3.349  -7.449  1.00  0.00     0.124 S 
ATOM     69  O   UNL     1     -14.028  -4.345  -8.497  1.00  0.00    -0.237 OA
ATOM     70  O   UNL     1     -15.023  -2.631  -7.016  1.00  0.00    -0.237 OA
ATOM     71  O   UNL     1     -12.627  -2.526  -7.587  1.00  0.00    -0.744 OA
ENDBRANCH  67  68
ENDBRANCH  48  62
BRANCH  49  72
ATOM     72  C   UNL     1      -6.325 -10.846  -6.930  1.00  0.00    -0.014 A 
ATOM     73  C   UNL     1      -6.517 -11.115  -8.300  1.00  0.00     0.010 A 
ATOM     74  C   UNL     1      -5.169 -10.125  -6.568  1.00  0.00     0.010 A 
ATOM     75  C   UNL     1      -5.631 -10.612  -9.272  1.00  0.00     0.020 A 
ATOM     76  C   UNL     1      -4.279  -9.626  -7.529  1.00  0.00     0.020 A 
ATOM     77  C   UNL     1      -4.530  -9.847  -8.880  1.00  0.00     0.054 A 
BRANCH  77  78
ATOM     78  S   UNL     1      -3.510  -9.023 -10.141  1.00  0.00     0.124 S 
ATOM     79  O   UNL     1      -2.791 -10.143 -10.741  1.00  0.00    -0.237 OA
ATOM     80  O   UNL     1      -4.511  -8.386 -10.993  1.00  0.00    -0.237 OA
ATOM     81  O   UNL     1      -2.684  -8.099  -9.366  1.00  0.00    -0.744 OA
ENDBRANCH  77  78
ENDBRANCH  49  72
BRANCH  61  82
ATOM     82  C   UNL     1     -11.722 -12.838  -4.269  1.00  0.00    -0.014 A 
ATOM     83  C   UNL     1     -10.612 -13.472  -3.674  1.00  0.00     0.010 A 
ATOM     84  C   UNL     1     -12.923 -13.560  -4.379  1.00  0.00     0.010 A 
ATOM     85  C   UNL     1     -10.697 -14.805  -3.238  1.00  0.00     0.020 A 
ATOM     86  C   UNL     1     -13.020 -14.877  -3.930  1.00  0.00     0.020 A 
ATOM     87  C   UNL     1     -11.903 -15.501  -3.375  1.00  0.00     0.054 A 
BRANCH  87  88
ATOM     88  S   UNL     1     -12.022 -17.219  -2.801  1.00  0.00     0.124 S 
ATOM     89  O   UNL     1     -11.149 -17.926  -3.734  1.00  0.00    -0.237 OA
ATOM     90  O   UNL     1     -11.539 -17.136  -1.425  1.00  0.00    -0.237 OA
ATOM     91  O   UNL     1     -13.445 -17.531  -2.930  1.00  0.00    -0.744 OA
ENDBRANCH  87  88
ENDBRANCH  61  82
ENDBRANCH  35  36
ENDBRANCH  28  30
ENDBRANCH  27  28
ENDBRANCH  26  27
ENDBRANCH   1  26
TORSDOF 19
