REMARK SMILES C[C@@H]1CC[C@H](C)[N@H+]1Cc1cc2c(cc1Cl)C=C(C(=O)OCCOCCOC(=O)c1ccc(-c3c4nc(c(-c5ccc(S(=O)(=O)[O-])cc5)c5ccc([nH]5)c(-c5ccc(S(=O)(=O)[O-])cc5)c5nc(c(-c6ccc(S(=O)(=O)[O-])cc6)c6ccc3[nH]6)C=C5)C=C4)cc1)[C@@H](C(F)(F)F)O2
REMARK SMILES IDX 24 1 23 2 22 3 21 4 20 5 18 6 19 7 17 8 9 9 10 10 14 11
REMARK SMILES IDX 11 12 13 13 15 14 12 15 94 16 16 17 89 18 8 19 7 20 6 21
REMARK SMILES IDX 5 22 4 23 3 24 2 25 1 27 90 28 91 29 92 30 93 31 25 32 26 33
REMARK SMILES IDX 27 34 28 35 29 36 30 37 88 38 31 39 87 40 32 41 33 42 34 43
REMARK SMILES IDX 81 44 35 45 86 46 80 47 82 48 36 49 85 50 79 51 78 52 37 54
REMARK SMILES IDX 67 55 48 56 66 57 49 58 52 59 65 60 83 61 50 62 51 63 64 65
REMARK SMILES IDX 84 66 53 67 38 68 39 69 47 70 40 71 46 72 41 73 42 74 43 75
REMARK SMILES IDX 44 76 45 77 68 78 69 79 77 80 70 81 76 82 71 83 72 84 73 85
REMARK SMILES IDX 74 86 75 87 54 88 55 89 63 90 56 91 62 92 57 93 58 94 59 95
REMARK SMILES IDX 60 96 61 97
REMARK H PARENT 7 26 82 53 52 64
REMARK Flexibility Score: inf
ROOT
ATOM      1  C   UNL     1      -6.114   2.819   6.133  1.00  0.00     0.202 C 
ENDROOT
BRANCH   1   2
ATOM      2  O   UNL     1      -7.361   3.407   6.497  1.00  0.00    -0.374 OA
BRANCH   2   3
ATOM      3  C   UNL     1      -8.566   2.727   6.157  1.00  0.00     0.202 C 
BRANCH   3   4
ATOM      4  C   UNL     1      -9.012   2.728   4.691  1.00  0.00     0.261 C 
BRANCH   4   5
ATOM      5  O   UNL     1      -7.986   2.252   3.809  1.00  0.00    -0.460 OA
BRANCH   5   6
ATOM      6  C   UNL     1      -7.451   3.220   3.033  1.00  0.00     0.338 C 
ATOM      7  O   UNL     1      -7.836   4.376   2.935  1.00  0.00    -0.246 OA
BRANCH   6   8
ATOM      8  C   UNL     1      -6.206   2.749   2.404  1.00  0.00     0.087 C 
ATOM      9  C   UNL     1      -1.931   2.929  -0.203  1.00  0.00     0.029 A 
ATOM     10  C   UNL     1      -2.798   1.876   0.181  1.00  0.00     0.058 A 
ATOM     11  C   UNL     1      -2.250   4.227   0.230  1.00  0.00     0.050 A 
ATOM     12  C   UNL     1      -3.904   2.113   1.004  1.00  0.00     0.128 A 
ATOM     13  C   UNL     1      -3.266   4.436   1.158  1.00  0.00     0.033 A 
ATOM     14  Cl  UNL     1      -1.556   5.662  -0.444  1.00  0.00    -0.084 Cl
ATOM     15  C   UNL     1      -4.095   3.384   1.534  1.00  0.00     0.019 A 
ATOM     16  O   UNL     1      -4.757   1.072   1.258  1.00  0.00    -0.475 OA
ATOM     17  C   UNL     1      -5.232   3.664   2.378  1.00  0.00     0.027 C 
ATOM     18  C   UNL     1      -6.100   1.399   1.752  1.00  0.00     0.316 C 
BRANCH   9  19
ATOM     19  C   UNL     1      -0.716   2.617  -1.063  1.00  0.00     0.301 C 
BRANCH  19  20
ATOM     20  N   UNL     1       0.570   2.407  -0.367  1.00  0.00    -0.327 N 
ATOM     21  C   UNL     1       1.094   0.006  -0.046  1.00  0.00     0.075 C 
ATOM     22  C   UNL     1       0.598   1.295   0.596  1.00  0.00     0.181 C 
ATOM     23  C   UNL     1       1.531   1.759   1.714  1.00  0.00     0.071 C 
ATOM     24  C   UNL     1       1.316   3.255   1.730  1.00  0.00     0.071 C 
ATOM     25  C   UNL     1       1.158   3.599   0.256  1.00  0.00     0.181 C 
ATOM     26  H   UNL     1       1.157   2.148  -1.160  1.00  0.00     0.348 HD
ATOM     27  C   UNL     1       2.489   3.933  -0.416  1.00  0.00     0.075 C 
ENDBRANCH  19  20
ENDBRANCH   9  19
BRANCH  18  28
ATOM     28  C   UNL     1      -7.139   1.231   0.633  1.00  0.00     0.430 C 
ATOM     29  F   UNL     1      -7.012   0.033   0.017  1.00  0.00    -0.167 F 
ATOM     30  F   UNL     1      -8.399   1.293   1.123  1.00  0.00    -0.167 F 
ATOM     31  F   UNL     1      -7.022   2.192  -0.312  1.00  0.00    -0.167 F 
ENDBRANCH  18  28
ENDBRANCH   6   8
ENDBRANCH   5   6
ENDBRANCH   4   5
ENDBRANCH   3   4
ENDBRANCH   2   3
ENDBRANCH   1   2
BRANCH   1  32
ATOM     32  C   UNL     1      -5.675   1.515   6.814  1.00  0.00     0.261 C 
BRANCH  32  33
ATOM     33  O   UNL     1      -6.541   0.405   6.528  1.00  0.00    -0.460 OA
BRANCH  33  34
ATOM     34  C   UNL     1      -7.281  -0.026   7.581  1.00  0.00     0.338 C 
ATOM     35  O   UNL     1      -7.267   0.414   8.722  1.00  0.00    -0.246 OA
BRANCH  34  36
ATOM     36  C   UNL     1      -8.289  -0.990   7.104  1.00  0.00     0.060 A 
ATOM     37  C   UNL     1      -7.912  -2.168   6.461  1.00  0.00     0.016 A 
ATOM     38  C   UNL     1      -9.641  -0.712   7.349  1.00  0.00     0.016 A 
ATOM     39  C   UNL     1      -8.898  -3.081   6.077  1.00  0.00     0.010 A 
ATOM     40  C   UNL     1     -10.623  -1.623   6.961  1.00  0.00     0.010 A 
ATOM     41  C   UNL     1     -10.258  -2.824   6.337  1.00  0.00    -0.014 A 
BRANCH  41  42
ATOM     42  C   UNL     1     -11.285  -3.858   6.058  1.00  0.00     0.031 A 
ATOM     43  C   UNL     1     -12.244  -3.712   4.912  1.00  0.00     0.074 A 
ATOM     44  C   UNL     1     -11.348  -4.937   6.864  1.00  0.00     0.049 A 
ATOM     45  N   UNL     1     -13.159  -4.552   4.503  1.00  0.00    -0.248 NA
ATOM     46  C   UNL     1     -12.171  -2.472   4.122  1.00  0.00     0.031 C 
ATOM     47  C   UNL     1     -10.474  -5.173   8.015  1.00  0.00     0.029 A 
ATOM     48  N   UNL     1     -12.163  -6.042   6.834  1.00  0.00    -0.354 N 
ATOM     49  C   UNL     1     -13.754  -3.960   3.397  1.00  0.00     0.074 A 
ATOM     50  C   UNL     1     -13.134  -2.663   3.228  1.00  0.00     0.031 C 
ATOM     51  C   UNL     1     -10.766  -6.368   8.550  1.00  0.00     0.029 A 
ATOM     52  C   UNL     1     -11.876  -6.966   7.813  1.00  0.00     0.049 A 
ATOM     53  H   UNL     1     -12.884  -6.162   6.175  1.00  0.00     0.167 HD
ATOM     54  C   UNL     1     -14.711  -4.468   2.586  1.00  0.00     0.031 A 
ATOM     55  C   UNL     1     -12.435  -8.164   8.085  1.00  0.00     0.031 A 
ATOM     56  C   UNL     1     -15.322  -5.761   2.768  1.00  0.00     0.049 A 
ATOM     57  C   UNL     1     -13.546  -8.669   7.202  1.00  0.00     0.074 A 
ATOM     58  C   UNL     1     -16.281  -6.369   1.975  1.00  0.00     0.029 A 
ATOM     59  N   UNL     1     -15.041  -6.644   3.800  1.00  0.00    -0.354 N 
ATOM     60  N   UNL     1     -14.046  -8.125   6.119  1.00  0.00    -0.248 NA
ATOM     61  C   UNL     1     -14.160  -9.954   7.567  1.00  0.00     0.031 C 
ATOM     62  C   UNL     1     -16.638  -7.579   2.569  1.00  0.00     0.029 A 
ATOM     63  C   UNL     1     -15.835  -7.774   3.681  1.00  0.00     0.049 A 
ATOM     64  H   UNL     1     -14.378  -6.491   4.510  1.00  0.00     0.167 HD
ATOM     65  C   UNL     1     -15.004  -9.019   5.653  1.00  0.00     0.074 A 
ATOM     66  C   UNL     1     -15.004 -10.145   6.561  1.00  0.00     0.031 C 
ATOM     67  C   UNL     1     -15.813  -8.909   4.571  1.00  0.00     0.031 A 
BRANCH  54  68
ATOM     68  C   UNL     1     -15.153  -3.670   1.385  1.00  0.00    -0.014 A 
ATOM     69  C   UNL     1     -16.485  -3.223   1.290  1.00  0.00     0.010 A 
ATOM     70  C   UNL     1     -14.310  -3.551   0.266  1.00  0.00     0.010 A 
ATOM     71  C   UNL     1     -16.985  -2.739   0.078  1.00  0.00     0.020 A 
ATOM     72  C   UNL     1     -14.799  -3.039  -0.940  1.00  0.00     0.020 A 
ATOM     73  C   UNL     1     -16.143  -2.670  -1.035  1.00  0.00     0.054 A 
BRANCH  73  74
ATOM     74  S   UNL     1     -16.840  -2.146  -2.626  1.00  0.00     0.124 S 
ATOM     75  O   UNL     1     -17.700  -3.272  -2.973  1.00  0.00    -0.237 OA
ATOM     76  O   UNL     1     -17.531  -0.907  -2.274  1.00  0.00    -0.237 OA
ATOM     77  O   UNL     1     -15.664  -1.973  -3.476  1.00  0.00    -0.744 OA
ENDBRANCH  73  74
ENDBRANCH  54  68
BRANCH  55  78
ATOM     78  C   UNL     1     -11.914  -8.989   9.213  1.00  0.00    -0.014 A 
ATOM     79  C   UNL     1     -12.012  -8.537  10.543  1.00  0.00     0.010 A 
ATOM     80  C   UNL     1     -11.285 -10.222   8.961  1.00  0.00     0.010 A 
ATOM     81  C   UNL     1     -11.458  -9.277  11.590  1.00  0.00     0.020 A 
ATOM     82  C   UNL     1     -10.765 -10.986  10.011  1.00  0.00     0.020 A 
ATOM     83  C   UNL     1     -10.833 -10.496  11.316  1.00  0.00     0.054 A 
BRANCH  83  84
ATOM     84  S   UNL     1     -10.116 -11.435  12.693  1.00  0.00     0.124 S 
ATOM     85  O   UNL     1      -8.918 -10.656  12.994  1.00  0.00    -0.237 OA
ATOM     86  O   UNL     1     -11.173 -11.380  13.699  1.00  0.00    -0.237 OA
ATOM     87  O   UNL     1      -9.875 -12.756  12.118  1.00  0.00    -0.744 OA
ENDBRANCH  83  84
ENDBRANCH  55  78
BRANCH  67  88
ATOM     88  C   UNL     1     -16.768 -10.035   4.263  1.00  0.00    -0.014 A 
ATOM     89  C   UNL     1     -16.629 -10.755   3.060  1.00  0.00     0.010 A 
ATOM     90  C   UNL     1     -17.893 -10.273   5.073  1.00  0.00     0.010 A 
ATOM     91  C   UNL     1     -17.621 -11.647   2.645  1.00  0.00     0.020 A 
ATOM     92  C   UNL     1     -18.869 -11.193   4.679  1.00  0.00     0.020 A 
ATOM     93  C   UNL     1     -18.743 -11.848   3.452  1.00  0.00     0.054 A 
BRANCH  93  94
ATOM     94  S   UNL     1     -20.054 -12.955   2.862  1.00  0.00     0.124 S 
ATOM     95  O   UNL     1     -20.668 -12.166   1.799  1.00  0.00    -0.237 OA
ATOM     96  O   UNL     1     -19.306 -14.131   2.423  1.00  0.00    -0.237 OA
ATOM     97  O   UNL     1     -20.887 -13.162   4.045  1.00  0.00    -0.744 OA
ENDBRANCH  93  94
ENDBRANCH  67  88
ENDBRANCH  41  42
ENDBRANCH  34  36
ENDBRANCH  33  34
ENDBRANCH  32  33
ENDBRANCH   1  32
TORSDOF 20
