REMARK SMILES Cc1n[nH]c(C)c1CC(=O)N1CC[C@H](C(=O)OCCOCCOC(=O)c2ccc(-c3c4nc(c(-c5ccc(S(=O)(=O)[O-])cc5)c5ccc([nH]5)c(-c5ccc(S(=O)(=O)[O-])cc5)c5nc(c(-c6ccc(S(=O)(=O)[O-])cc6)c6ccc3[nH]6)C=C5)C=C4)cc2)[C@H]1C
REMARK SMILES IDX 20 1 19 2 18 3 17 4 15 5 16 6 14 7 11 8 12 9 86 10 13 11
REMARK SMILES IDX 87 12 9 13 10 14 8 15 7 16 1 17 2 18 3 19 4 20 5 21 6 23
REMARK SMILES IDX 21 24 22 25 23 26 24 27 25 28 26 29 27 30 85 31 28 32 84 33
REMARK SMILES IDX 29 34 30 35 31 36 78 37 32 38 83 39 77 40 79 41 33 42 82 43
REMARK SMILES IDX 76 44 75 45 34 47 64 48 45 49 63 50 46 51 49 52 62 53 80 54
REMARK SMILES IDX 47 55 48 56 61 58 81 59 50 60 35 61 36 62 44 63 37 64 43 65
REMARK SMILES IDX 38 66 39 67 40 68 41 69 42 70 65 71 66 72 74 73 67 74 73 75
REMARK SMILES IDX 68 76 69 77 70 78 71 79 72 80 51 81 52 82 60 83 53 84 59 85
REMARK SMILES IDX 54 86 55 87 56 88 57 89 58 90
REMARK H PARENT 4 22 79 46 49 57
REMARK Flexibility Score: inf
ROOT
ATOM      1  O   UNL     1      -3.732  -2.292   5.729  1.00  0.00    -0.374 OA
ENDROOT
BRANCH   1   2
ATOM      2  C   UNL     1      -3.796  -0.875   5.576  1.00  0.00     0.202 C 
BRANCH   2   3
ATOM      3  C   UNL     1      -2.524  -0.078   5.887  1.00  0.00     0.261 C 
BRANCH   3   4
ATOM      4  O   UNL     1      -1.409  -0.445   5.046  1.00  0.00    -0.463 OA
BRANCH   4   5
ATOM      5  C   UNL     1      -0.429  -1.129   5.681  1.00  0.00     0.311 C 
ATOM      6  O   UNL     1      -0.431  -1.390   6.882  1.00  0.00    -0.252 OA
BRANCH   5   7
ATOM      7  C   UNL     1       0.734  -1.554   4.808  1.00  0.00     0.123 C 
ATOM      8  N   UNL     1       0.408  -2.695   2.715  1.00  0.00    -0.339 N 
ATOM      9  C   UNL     1       0.381  -3.704   3.757  1.00  0.00     0.121 C 
ATOM     10  C   UNL     1       0.726  -1.368   3.272  1.00  0.00     0.096 C 
ATOM     11  C   UNL     1       0.992  -3.056   4.984  1.00  0.00     0.039 C 
ATOM     12  C   UNL     1       2.135  -0.929   2.867  1.00  0.00     0.032 C 
BRANCH   8  13
ATOM     13  C   UNL     1      -0.037  -3.047   1.452  1.00  0.00     0.227 C 
ATOM     14  O   UNL     1      -0.717  -4.078   1.323  1.00  0.00    -0.275 OA
BRANCH  13  15
ATOM     15  C   UNL     1       0.493  -2.387   0.179  1.00  0.00     0.139 C 
BRANCH  15  16
ATOM     16  C   UNL     1       0.391  -0.913  -0.003  1.00  0.00     0.005 A 
ATOM     17  C   UNL     1      -2.188  -0.584  -0.124  1.00  0.00     0.069 C 
ATOM     18  C   UNL     1      -0.785  -0.126  -0.101  1.00  0.00     0.063 A 
ATOM     19  N   UNL     1      -0.510   1.170  -0.264  1.00  0.00    -0.181 NA
ATOM     20  N   UNL     1       0.817   1.210  -0.398  1.00  0.00    -0.282 N 
ATOM     21  C   UNL     1       1.403  -0.024  -0.342  1.00  0.00     0.036 A 
ATOM     22  H   UNL     1       1.324   2.045  -0.524  1.00  0.00     0.190 HD
ATOM     23  C   UNL     1       2.838  -0.212  -0.665  1.00  0.00     0.066 C 
ENDBRANCH  15  16
ENDBRANCH  13  15
ENDBRANCH   8  13
ENDBRANCH   5   7
ENDBRANCH   4   5
ENDBRANCH   3   4
ENDBRANCH   2   3
ENDBRANCH   1   2
BRANCH   1  24
ATOM     24  C   UNL     1      -3.063  -3.016   4.699  1.00  0.00     0.202 C 
BRANCH  24  25
ATOM     25  C   UNL     1      -3.831  -3.278   3.398  1.00  0.00     0.261 C 
BRANCH  25  26
ATOM     26  O   UNL     1      -4.208  -2.064   2.730  1.00  0.00    -0.460 OA
BRANCH  26  27
ATOM     27  C   UNL     1      -5.522  -1.750   2.817  1.00  0.00     0.338 C 
ATOM     28  O   UNL     1      -6.412  -2.416   3.331  1.00  0.00    -0.246 OA
BRANCH  27  29
ATOM     29  C   UNL     1      -5.721  -0.368   2.350  1.00  0.00     0.060 A 
ATOM     30  C   UNL     1      -6.373   0.533   3.198  1.00  0.00     0.016 A 
ATOM     31  C   UNL     1      -5.304   0.033   1.083  1.00  0.00     0.016 A 
ATOM     32  C   UNL     1      -6.645   1.827   2.758  1.00  0.00     0.010 A 
ATOM     33  C   UNL     1      -5.535   1.343   0.659  1.00  0.00     0.010 A 
ATOM     34  C   UNL     1      -6.256   2.233   1.473  1.00  0.00    -0.014 A 
BRANCH  34  35
ATOM     35  C   UNL     1      -6.765   3.512   0.913  1.00  0.00     0.031 A 
ATOM     36  C   UNL     1      -7.813   3.460  -0.171  1.00  0.00     0.074 A 
ATOM     37  C   UNL     1      -6.337   4.698   1.383  1.00  0.00     0.049 A 
ATOM     38  N   UNL     1      -8.387   4.441  -0.819  1.00  0.00    -0.248 NA
ATOM     39  C   UNL     1      -8.267   2.122  -0.590  1.00  0.00     0.031 C 
ATOM     40  C   UNL     1      -5.335   4.883   2.434  1.00  0.00     0.029 A 
ATOM     41  N   UNL     1      -6.696   5.977   1.036  1.00  0.00    -0.354 N 
ATOM     42  C   UNL     1      -9.256   3.840  -1.723  1.00  0.00     0.074 A 
ATOM     43  C   UNL     1      -9.096   2.411  -1.581  1.00  0.00     0.031 C 
ATOM     44  C   UNL     1      -5.165   6.199   2.650  1.00  0.00     0.029 A 
ATOM     45  C   UNL     1      -6.019   6.950   1.732  1.00  0.00     0.049 A 
ATOM     46  H   UNL     1      -7.374   6.179   0.351  1.00  0.00     0.167 HD
ATOM     47  C   UNL     1     -10.130   4.420  -2.578  1.00  0.00     0.031 A 
ATOM     48  C   UNL     1      -6.071   8.294   1.631  1.00  0.00     0.031 A 
ATOM     49  C   UNL     1     -10.297   5.842  -2.712  1.00  0.00     0.049 A 
ATOM     50  C   UNL     1      -7.024   8.920   0.645  1.00  0.00     0.074 A 
ATOM     51  C   UNL     1     -11.164   6.532  -3.540  1.00  0.00     0.029 A 
ATOM     52  N   UNL     1      -9.588   6.790  -1.991  1.00  0.00    -0.354 N 
ATOM     53  N   UNL     1      -7.855   8.334  -0.185  1.00  0.00    -0.248 NA
ATOM     54  C   UNL     1      -7.057  10.388   0.591  1.00  0.00     0.031 C 
ATOM     55  C   UNL     1     -10.947   7.901  -3.352  1.00  0.00     0.029 A 
ATOM     56  C   UNL     1      -9.988   8.061  -2.364  1.00  0.00     0.049 A 
ATOM     57  H   UNL     1      -8.901   6.590  -1.315  1.00  0.00     0.167 HD
ATOM     58  C   UNL     1      -8.526   9.362  -0.840  1.00  0.00     0.074 A 
ATOM     59  C   UNL     1      -8.018  10.605  -0.296  1.00  0.00     0.031 C 
ATOM     60  C   UNL     1      -9.475   9.286  -1.805  1.00  0.00     0.031 A 
BRANCH  47  61
ATOM     61  C   UNL     1     -10.971   3.512  -3.436  1.00  0.00    -0.014 A 
ATOM     62  C   UNL     1     -11.998   2.731  -2.873  1.00  0.00     0.010 A 
ATOM     63  C   UNL     1     -10.758   3.463  -4.825  1.00  0.00     0.010 A 
ATOM     64  C   UNL     1     -12.770   1.890  -3.678  1.00  0.00     0.020 A 
ATOM     65  C   UNL     1     -11.549   2.645  -5.638  1.00  0.00     0.020 A 
ATOM     66  C   UNL     1     -12.540   1.852  -5.056  1.00  0.00     0.054 A 
BRANCH  66  67
ATOM     67  S   UNL     1     -13.582   0.776  -6.081  1.00  0.00     0.124 S 
ATOM     68  O   UNL     1     -13.087  -0.551  -5.723  1.00  0.00    -0.237 OA
ATOM     69  O   UNL     1     -14.928   1.093  -5.611  1.00  0.00    -0.237 OA
ATOM     70  O   UNL     1     -13.285   1.204  -7.446  1.00  0.00    -0.744 OA
ENDBRANCH  66  67
ENDBRANCH  47  61
BRANCH  48  71
ATOM     71  C   UNL     1      -5.178   9.142   2.471  1.00  0.00    -0.014 A 
ATOM     72  C   UNL     1      -5.701   9.962   3.487  1.00  0.00     0.010 A 
ATOM     73  C   UNL     1      -3.789   9.141   2.244  1.00  0.00     0.010 A 
ATOM     74  C   UNL     1      -4.855  10.784   4.240  1.00  0.00     0.020 A 
ATOM     75  C   UNL     1      -2.938   9.938   3.014  1.00  0.00     0.020 A 
ATOM     76  C   UNL     1      -3.479  10.767   3.998  1.00  0.00     0.054 A 
BRANCH  76  77
ATOM     77  S   UNL     1      -2.395  11.814   5.010  1.00  0.00     0.124 S 
ATOM     78  O   UNL     1      -2.669  13.143   4.473  1.00  0.00    -0.237 OA
ATOM     79  O   UNL     1      -2.886  11.563   6.362  1.00  0.00    -0.237 OA
ATOM     80  O   UNL     1      -1.059  11.289   4.733  1.00  0.00    -0.744 OA
ENDBRANCH  76  77
ENDBRANCH  48  71
BRANCH  60  81
ATOM     81  C   UNL     1     -10.059  10.579  -2.311  1.00  0.00    -0.014 A 
ATOM     82  C   UNL     1      -9.317  11.442  -3.136  1.00  0.00     0.010 A 
ATOM     83  C   UNL     1     -11.394  10.902  -2.005  1.00  0.00     0.010 A 
ATOM     84  C   UNL     1      -9.890  12.621  -3.620  1.00  0.00     0.020 A 
ATOM     85  C   UNL     1     -11.980  12.064  -2.511  1.00  0.00     0.020 A 
ATOM     86  C   UNL     1     -11.218  12.924  -3.305  1.00  0.00     0.054 A 
BRANCH  86  87
ATOM     87  S   UNL     1     -11.952  14.438  -3.982  1.00  0.00     0.124 S 
ATOM     88  O   UNL     1     -11.308  15.474  -3.180  1.00  0.00    -0.237 OA
ATOM     89  O   UNL     1     -11.550  14.389  -5.386  1.00  0.00    -0.237 OA
ATOM     90  O   UNL     1     -13.384  14.266  -3.745  1.00  0.00    -0.744 OA
ENDBRANCH  86  87
ENDBRANCH  60  81
ENDBRANCH  34  35
ENDBRANCH  27  29
ENDBRANCH  26  27
ENDBRANCH  25  26
ENDBRANCH  24  25
ENDBRANCH   1  24
TORSDOF 20
