REMARK SMILES O=C(OCCOCCOC(=O)[C@@H]1[C@H](C(=O)NCc2ccncc2)[C@H]2C=C[C@@H]1O2)c1ccc(-c2c3nc(c(-c4ccc(S(=O)(=O)[O-])cc4)c4ccc([nH]4)c(-c4ccc(S(=O)(=O)[O-])cc4)c4nc(c(-c5ccc(S(=O)(=O)[O-])cc5)c5ccc2[nH]5)C=C4)C=C3)cc1
REMARK SMILES IDX 6 1 5 2 4 3 3 4 2 5 1 6 29 7 30 8 88 9 31 10 87 11 32 12
REMARK SMILES IDX 33 13 34 14 81 15 35 16 86 17 80 18 82 19 36 20 85 21 79 22
REMARK SMILES IDX 78 23 37 25 67 26 48 27 66 28 49 29 52 30 65 31 83 32 50 33
REMARK SMILES IDX 51 34 64 36 84 37 53 38 38 39 39 40 47 41 40 42 46 43 41 44
REMARK SMILES IDX 42 45 43 46 44 47 45 48 68 49 69 50 77 51 70 52 76 53 71 54
REMARK SMILES IDX 72 55 73 56 74 57 75 58 54 59 55 60 63 61 56 62 62 63 57 64
REMARK SMILES IDX 58 65 59 66 60 67 61 68 7 69 8 70 9 71 10 72 11 73 12 74
REMARK SMILES IDX 13 75 27 76 24 77 26 78 28 79 25 80 14 81 15 82 16 83 17 85
REMARK SMILES IDX 18 86 19 87 23 88 20 89 22 90 21 91
REMARK H PARENT 82 24 52 35 16 84
REMARK Flexibility Score: inf
ROOT
ATOM      1  O   UNL     1       5.277  -1.022   0.084  1.00  0.00    -0.374 OA
ENDROOT
BRANCH   1   2
ATOM      2  C   UNL     1       5.431  -0.098   1.157  1.00  0.00     0.202 C 
BRANCH   2   3
ATOM      3  C   UNL     1       4.775   1.283   0.990  1.00  0.00     0.261 C 
BRANCH   3   4
ATOM      4  O   UNL     1       3.363   1.200   0.722  1.00  0.00    -0.460 OA
BRANCH   4   5
ATOM      5  C   UNL     1       2.754   1.501  -0.456  1.00  0.00     0.338 C 
ATOM      6  O   UNL     1       1.615   1.963  -0.430  1.00  0.00    -0.246 OA
BRANCH   5   7
ATOM      7  C   UNL     1       3.326   1.060  -1.771  1.00  0.00     0.060 A 
ATOM      8  C   UNL     1       4.656   0.701  -1.977  1.00  0.00     0.016 A 
ATOM      9  C   UNL     1       2.441   0.920  -2.857  1.00  0.00     0.016 A 
ATOM     10  C   UNL     1       5.070   0.071  -3.134  1.00  0.00     0.010 A 
ATOM     11  C   UNL     1       2.875   0.388  -4.079  1.00  0.00     0.010 A 
ATOM     12  C   UNL     1       4.193  -0.053  -4.202  1.00  0.00    -0.014 A 
BRANCH  12  13
ATOM     13  C   UNL     1       4.832  -0.412  -5.475  1.00  0.00     0.031 A 
ATOM     14  C   UNL     1       5.574   0.687  -6.176  1.00  0.00     0.074 A 
ATOM     15  C   UNL     1       4.968  -1.705  -5.816  1.00  0.00     0.049 A 
ATOM     16  N   UNL     1       6.386   0.619  -7.192  1.00  0.00    -0.248 NA
ATOM     17  C   UNL     1       5.431   2.042  -5.605  1.00  0.00     0.031 C 
ATOM     18  C   UNL     1       4.433  -2.841  -5.062  1.00  0.00     0.029 A 
ATOM     19  N   UNL     1       5.645  -2.280  -6.856  1.00  0.00    -0.354 N 
ATOM     20  C   UNL     1       6.865   1.911  -7.367  1.00  0.00     0.074 A 
ATOM     21  C   UNL     1       6.262   2.745  -6.356  1.00  0.00     0.031 C 
ATOM     22  C   UNL     1       4.804  -3.981  -5.670  1.00  0.00     0.029 A 
ATOM     23  C   UNL     1       5.569  -3.652  -6.870  1.00  0.00     0.049 A 
ATOM     24  H   UNL     1       6.140  -1.761  -7.530  1.00  0.00     0.167 HD
ATOM     25  C   UNL     1       7.721   2.362  -8.310  1.00  0.00     0.031 A 
ATOM     26  C   UNL     1       6.049  -4.528  -7.775  1.00  0.00     0.031 A 
ATOM     27  C   UNL     1       8.228   1.524  -9.358  1.00  0.00     0.049 A 
ATOM     28  C   UNL     1       6.835  -3.970  -8.934  1.00  0.00     0.074 A 
ATOM     29  C   UNL     1       8.985   1.875 -10.457  1.00  0.00     0.029 A 
ATOM     30  N   UNL     1       7.996   0.156  -9.440  1.00  0.00    -0.354 N 
ATOM     31  N   UNL     1       7.227  -2.732  -9.143  1.00  0.00    -0.248 NA
ATOM     32  C   UNL     1       7.237  -4.914  -9.982  1.00  0.00     0.031 C 
ATOM     33  C   UNL     1       9.155   0.728 -11.240  1.00  0.00     0.029 A 
ATOM     34  C   UNL     1       8.568  -0.349 -10.591  1.00  0.00     0.049 A 
ATOM     35  H   UNL     1       7.498  -0.374  -8.777  1.00  0.00     0.167 HD
ATOM     36  C   UNL     1       7.937  -2.752 -10.337  1.00  0.00     0.074 A 
ATOM     37  C   UNL     1       7.935  -4.130 -10.793  1.00  0.00     0.031 C 
ATOM     38  C   UNL     1       8.536  -1.732 -11.002  1.00  0.00     0.031 A 
BRANCH  25  39
ATOM     39  C   UNL     1       8.034   3.832  -8.298  1.00  0.00    -0.014 A 
ATOM     40  C   UNL     1       8.870   4.399  -7.319  1.00  0.00     0.010 A 
ATOM     41  C   UNL     1       7.433   4.669  -9.255  1.00  0.00     0.010 A 
ATOM     42  C   UNL     1       9.068   5.783  -7.275  1.00  0.00     0.020 A 
ATOM     43  C   UNL     1       7.646   6.049  -9.229  1.00  0.00     0.020 A 
ATOM     44  C   UNL     1       8.449   6.599  -8.228  1.00  0.00     0.054 A 
BRANCH  44  45
ATOM     45  S   UNL     1       8.715   8.392  -8.145  1.00  0.00     0.124 S 
ATOM     46  O   UNL     1       7.947   8.756  -6.957  1.00  0.00    -0.237 OA
ATOM     47  O   UNL     1      10.166   8.494  -8.011  1.00  0.00    -0.237 OA
ATOM     48  O   UNL     1       8.173   8.882  -9.410  1.00  0.00    -0.744 OA
ENDBRANCH  44  45
ENDBRANCH  25  39
BRANCH  26  49
ATOM     49  C   UNL     1       5.737  -5.982  -7.665  1.00  0.00    -0.014 A 
ATOM     50  C   UNL     1       6.747  -6.943  -7.492  1.00  0.00     0.010 A 
ATOM     51  C   UNL     1       4.400  -6.418  -7.757  1.00  0.00     0.010 A 
ATOM     52  C   UNL     1       6.430  -8.307  -7.432  1.00  0.00     0.020 A 
ATOM     53  C   UNL     1       4.075  -7.775  -7.668  1.00  0.00     0.020 A 
ATOM     54  C   UNL     1       5.095  -8.713  -7.519  1.00  0.00     0.054 A 
BRANCH  54  55
ATOM     55  S   UNL     1       4.702 -10.482  -7.410  1.00  0.00     0.124 S 
ATOM     56  O   UNL     1       5.197 -10.985  -8.687  1.00  0.00    -0.237 OA
ATOM     57  O   UNL     1       5.454 -10.900  -6.230  1.00  0.00    -0.237 OA
ATOM     58  O   UNL     1       3.249 -10.501  -7.251  1.00  0.00    -0.744 OA
ENDBRANCH  54  55
ENDBRANCH  26  49
BRANCH  38  59
ATOM     59  C   UNL     1       9.259  -2.074 -12.274  1.00  0.00    -0.014 A 
ATOM     60  C   UNL     1       8.556  -2.384 -13.449  1.00  0.00     0.010 A 
ATOM     61  C   UNL     1      10.663  -1.989 -12.307  1.00  0.00     0.010 A 
ATOM     62  C   UNL     1       9.248  -2.627 -14.636  1.00  0.00     0.020 A 
ATOM     63  C   UNL     1      11.356  -2.201 -13.499  1.00  0.00     0.020 A 
ATOM     64  C   UNL     1      10.643  -2.529 -14.654  1.00  0.00     0.054 A 
BRANCH  64  65
ATOM     65  S   UNL     1      11.514  -2.782 -16.224  1.00  0.00     0.124 S 
ATOM     66  O   UNL     1      11.408  -4.228 -16.399  1.00  0.00    -0.237 OA
ATOM     67  O   UNL     1      10.731  -1.976 -17.157  1.00  0.00    -0.237 OA
ATOM     68  O   UNL     1      12.861  -2.284 -15.957  1.00  0.00    -0.744 OA
ENDBRANCH  64  65
ENDBRANCH  38  59
ENDBRANCH  12  13
ENDBRANCH   5   7
ENDBRANCH   4   5
ENDBRANCH   3   4
ENDBRANCH   2   3
ENDBRANCH   1   2
BRANCH   1  69
ATOM     69  C   UNL     1       4.030  -1.724   0.021  1.00  0.00     0.202 C 
BRANCH  69  70
ATOM     70  C   UNL     1       4.183  -3.157   0.501  1.00  0.00     0.261 C 
BRANCH  70  71
ATOM     71  O   UNL     1       4.037  -3.145   1.930  1.00  0.00    -0.463 OA
BRANCH  71  72
ATOM     72  C   UNL     1       5.180  -3.094   2.636  1.00  0.00     0.312 C 
ATOM     73  O   UNL     1       6.308  -3.148   2.168  1.00  0.00    -0.252 OA
BRANCH  72  74
ATOM     74  C   UNL     1       4.944  -2.863   4.097  1.00  0.00     0.147 C 
ATOM     75  C   UNL     1       4.079  -3.867   4.881  1.00  0.00     0.128 C 
ATOM     76  C   UNL     1       4.290  -1.521   4.474  1.00  0.00     0.157 C 
ATOM     77  C   UNL     1       3.275  -2.931   5.781  1.00  0.00     0.155 C 
ATOM     78  C   UNL     1       4.753  -1.178   5.856  1.00  0.00     0.004 C 
ATOM     79  O   UNL     1       2.940  -1.901   4.823  1.00  0.00    -0.365 OA
ATOM     80  C   UNL     1       4.172  -2.083   6.661  1.00  0.00     0.004 C 
BRANCH  75  81
ATOM     81  C   UNL     1       3.313  -4.914   4.071  1.00  0.00     0.227 C 
ATOM     82  O   UNL     1       3.812  -6.048   4.009  1.00  0.00    -0.275 OA
ATOM     83  N   UNL     1       2.174  -4.763   3.357  1.00  0.00    -0.352 N 
ATOM     84  H   UNL     1       1.970  -5.561   2.817  1.00  0.00     0.163 HD
BRANCH  83  85
ATOM     85  C   UNL     1       1.172  -3.718   3.184  1.00  0.00     0.151 C 
BRANCH  85  86
ATOM     86  C   UNL     1       0.838  -3.371   1.748  1.00  0.00    -0.026 A 
ATOM     87  C   UNL     1       0.582  -2.034   1.404  1.00  0.00     0.025 A 
ATOM     88  C   UNL     1       0.704  -4.332   0.740  1.00  0.00     0.025 A 
ATOM     89  C   UNL     1       0.252  -1.716   0.093  1.00  0.00     0.111 A 
ATOM     90  C   UNL     1       0.377  -3.917  -0.546  1.00  0.00     0.111 A 
ATOM     91  N   UNL     1       0.154  -2.631  -0.890  1.00  0.00    -0.265 NA
ENDBRANCH  85  86
ENDBRANCH  83  85
ENDBRANCH  75  81
ENDBRANCH  72  74
ENDBRANCH  71  72
ENDBRANCH  70  71
ENDBRANCH  69  70
ENDBRANCH   1  69
TORSDOF 20
