REMARK SMILES O=C(OCCOCCOC(=O)[C@H]1CC2(CC[NH+](C(=O)c3cccc(O)c3)CC2)CN1C(=O)C1CC1)c1ccc(-c2c3nc(c(-c4ccc(S(=O)(=O)[O-])cc4)c4ccc([nH]4)c(-c4ccc(S(=O)(=O)[O-])cc4)c4nc(c(-c5ccc(S(=O)(=O)[O-])cc5)c5ccc2[nH]5)C=C4)C=C3)cc1
REMARK SMILES IDX 6 1 5 2 4 3 3 4 2 5 1 6 36 7 37 8 95 9 38 10 94 11 39 12
REMARK SMILES IDX 40 13 41 14 88 15 42 16 93 17 87 18 89 19 43 20 92 21 86 22
REMARK SMILES IDX 85 23 44 25 74 26 55 27 73 28 56 29 59 30 72 31 90 32 57 33
REMARK SMILES IDX 58 34 71 36 91 37 60 38 45 39 46 40 54 41 47 42 53 43 48 44
REMARK SMILES IDX 49 45 50 46 51 47 52 48 75 49 76 50 84 51 77 52 83 53 78 54
REMARK SMILES IDX 79 55 80 56 81 57 82 58 61 59 62 60 70 61 63 62 69 63 64 64
REMARK SMILES IDX 65 65 66 66 67 67 68 68 7 69 8 70 9 71 10 72 11 73 12 74
REMARK SMILES IDX 13 75 30 76 14 77 29 78 15 79 28 80 16 81 27 82 17 83 31 85
REMARK SMILES IDX 32 86 33 87 34 88 35 89 18 90 19 91 20 92 21 93 26 94 22 95
REMARK SMILES IDX 24 96 23 97 25 98
REMARK H PARENT 89 24 59 35 17 84 25 99
REMARK Flexibility Score: inf
ROOT
ATOM      1  O   UNL     1       6.361  -0.339  -6.684  1.00  0.00    -0.374 OA
ENDROOT
BRANCH   1   2
ATOM      2  C   UNL     1       7.073  -1.116  -5.716  1.00  0.00     0.202 C 
BRANCH   2   3
ATOM      3  C   UNL     1       8.601  -0.936  -5.616  1.00  0.00     0.261 C 
BRANCH   3   4
ATOM      4  O   UNL     1       8.965   0.429  -5.264  1.00  0.00    -0.460 OA
BRANCH   4   5
ATOM      5  C   UNL     1       9.587   1.371  -6.034  1.00  0.00     0.338 C 
ATOM      6  O   UNL     1       9.929   2.443  -5.570  1.00  0.00    -0.246 OA
BRANCH   5   7
ATOM      7  C   UNL     1       9.860   1.052  -7.452  1.00  0.00     0.060 A 
ATOM      8  C   UNL     1       8.924   0.347  -8.177  1.00  0.00     0.016 A 
ATOM      9  C   UNL     1      11.070   1.377  -8.060  1.00  0.00     0.016 A 
ATOM     10  C   UNL     1       9.282  -0.365  -9.281  1.00  0.00     0.010 A 
ATOM     11  C   UNL     1      11.369   0.828  -9.316  1.00  0.00     0.010 A 
ATOM     12  C   UNL     1      10.506  -0.125  -9.881  1.00  0.00    -0.014 A 
BRANCH  12  13
ATOM     13  C   UNL     1      10.862  -1.047 -10.975  1.00  0.00     0.031 A 
ATOM     14  C   UNL     1      12.032  -1.963 -10.771  1.00  0.00     0.074 A 
ATOM     15  C   UNL     1       9.986  -1.227 -11.987  1.00  0.00     0.049 A 
ATOM     16  N   UNL     1      12.569  -2.801 -11.610  1.00  0.00    -0.248 NA
ATOM     17  C   UNL     1      12.693  -1.933  -9.451  1.00  0.00     0.031 C 
ATOM     18  C   UNL     1       8.713  -0.502 -12.148  1.00  0.00     0.029 A 
ATOM     19  N   UNL     1       9.961  -2.141 -13.002  1.00  0.00    -0.354 N 
ATOM     20  C   UNL     1      13.692  -3.307 -10.965  1.00  0.00     0.074 A 
ATOM     21  C   UNL     1      13.737  -2.723  -9.647  1.00  0.00     0.031 C 
ATOM     22  C   UNL     1       7.982  -1.095 -13.101  1.00  0.00     0.029 A 
ATOM     23  C   UNL     1       8.798  -2.113 -13.739  1.00  0.00     0.049 A 
ATOM     24  H   UNL     1      10.704  -2.759 -13.190  1.00  0.00     0.167 HD
ATOM     25  C   UNL     1      14.615  -4.157 -11.468  1.00  0.00     0.031 A 
ATOM     26  C   UNL     1       8.460  -2.799 -14.846  1.00  0.00     0.031 A 
ATOM     27  C   UNL     1      14.481  -4.740 -12.774  1.00  0.00     0.049 A 
ATOM     28  C   UNL     1       9.512  -3.708 -15.410  1.00  0.00     0.074 A 
ATOM     29  C   UNL     1      15.372  -5.528 -13.474  1.00  0.00     0.029 A 
ATOM     30  N   UNL     1      13.344  -4.610 -13.565  1.00  0.00    -0.354 N 
ATOM     31  N   UNL     1      10.678  -4.028 -14.893  1.00  0.00    -0.248 NA
ATOM     32  C   UNL     1       9.239  -4.303 -16.719  1.00  0.00     0.031 C 
ATOM     33  C   UNL     1      14.784  -5.846 -14.705  1.00  0.00     0.029 A 
ATOM     34  C   UNL     1      13.507  -5.302 -14.747  1.00  0.00     0.049 A 
ATOM     35  H   UNL     1      12.540  -4.099 -13.317  1.00  0.00     0.167 HD
ATOM     36  C   UNL     1      11.287  -4.858 -15.820  1.00  0.00     0.074 A 
ATOM     37  C   UNL     1      10.340  -5.017 -16.912  1.00  0.00     0.031 C 
ATOM     38  C   UNL     1      12.518  -5.425 -15.790  1.00  0.00     0.031 A 
BRANCH  25  39
ATOM     39  C   UNL     1      15.868  -4.363 -10.662  1.00  0.00    -0.014 A 
ATOM     40  C   UNL     1      15.891  -5.117  -9.476  1.00  0.00     0.010 A 
ATOM     41  C   UNL     1      17.048  -3.718 -11.081  1.00  0.00     0.010 A 
ATOM     42  C   UNL     1      17.055  -5.180  -8.699  1.00  0.00     0.020 A 
ATOM     43  C   UNL     1      18.219  -3.799 -10.322  1.00  0.00     0.020 A 
ATOM     44  C   UNL     1      18.208  -4.510  -9.122  1.00  0.00     0.054 A 
BRANCH  44  45
ATOM     45  S   UNL     1      19.699  -4.583  -8.089  1.00  0.00     0.124 S 
ATOM     46  O   UNL     1      19.354  -3.673  -7.000  1.00  0.00    -0.237 OA
ATOM     47  O   UNL     1      19.771  -5.996  -7.728  1.00  0.00    -0.237 OA
ATOM     48  O   UNL     1      20.759  -4.116  -8.979  1.00  0.00    -0.744 OA
ENDBRANCH  44  45
ENDBRANCH  25  39
BRANCH  26  49
ATOM     49  C   UNL     1       7.155  -2.553 -15.527  1.00  0.00    -0.014 A 
ATOM     50  C   UNL     1       6.199  -3.574 -15.667  1.00  0.00     0.010 A 
ATOM     51  C   UNL     1       6.845  -1.268 -16.019  1.00  0.00     0.010 A 
ATOM     52  C   UNL     1       4.967  -3.315 -16.284  1.00  0.00     0.020 A 
ATOM     53  C   UNL     1       5.604  -0.996 -16.600  1.00  0.00     0.020 A 
ATOM     54  C   UNL     1       4.676  -2.026 -16.742  1.00  0.00     0.054 A 
BRANCH  54  55
ATOM     55  S   UNL     1       3.055  -1.693 -17.488  1.00  0.00     0.124 S 
ATOM     56  O   UNL     1       3.203  -2.289 -18.812  1.00  0.00    -0.237 OA
ATOM     57  O   UNL     1       2.139  -2.382 -16.581  1.00  0.00    -0.237 OA
ATOM     58  O   UNL     1       2.962  -0.235 -17.464  1.00  0.00    -0.744 OA
ENDBRANCH  54  55
ENDBRANCH  26  49
BRANCH  38  59
ATOM     59  C   UNL     1      12.867  -6.300 -16.953  1.00  0.00    -0.014 A 
ATOM     60  C   UNL     1      13.218  -5.749 -18.196  1.00  0.00     0.010 A 
ATOM     61  C   UNL     1      12.875  -7.694 -16.776  1.00  0.00     0.010 A 
ATOM     62  C   UNL     1      13.538  -6.587 -19.262  1.00  0.00     0.020 A 
ATOM     63  C   UNL     1      13.220  -8.533 -17.832  1.00  0.00     0.020 A 
ATOM     64  C   UNL     1      13.533  -7.974 -19.073  1.00  0.00     0.054 A 
BRANCH  64  65
ATOM     65  S   UNL     1      13.984  -9.046 -20.462  1.00  0.00     0.124 S 
ATOM     66  O   UNL     1      12.764  -9.030 -21.262  1.00  0.00    -0.237 OA
ATOM     67  O   UNL     1      15.130  -8.352 -21.045  1.00  0.00    -0.237 OA
ATOM     68  O   UNL     1      14.297 -10.322 -19.823  1.00  0.00    -0.744 OA
ENDBRANCH  64  65
ENDBRANCH  38  59
ENDBRANCH  12  13
ENDBRANCH   5   7
ENDBRANCH   4   5
ENDBRANCH   3   4
ENDBRANCH   2   3
ENDBRANCH   1   2
BRANCH   1  69
ATOM     69  C   UNL     1       6.170   1.058  -6.422  1.00  0.00     0.202 C 
BRANCH  69  70
ATOM     70  C   UNL     1       4.769   1.414  -5.941  1.00  0.00     0.261 C 
BRANCH  70  71
ATOM     71  O   UNL     1       4.557   0.875  -4.631  1.00  0.00    -0.462 OA
BRANCH  71  72
ATOM     72  C   UNL     1       4.227  -0.439  -4.657  1.00  0.00     0.328 C 
ATOM     73  O   UNL     1       3.966  -1.055  -5.686  1.00  0.00    -0.250 OA
BRANCH  72  74
ATOM     74  C   UNL     1       4.172  -1.040  -3.245  1.00  0.00     0.195 C 
ATOM     75  C   UNL     1       3.251  -2.248  -3.516  1.00  0.00     0.046 C 
ATOM     76  N   UNL     1       5.252  -1.683  -2.457  1.00  0.00    -0.328 N 
ATOM     77  C   UNL     1       3.342  -3.144  -2.296  1.00  0.00     0.001 C 
ATOM     78  C   UNL     1       4.801  -2.956  -1.888  1.00  0.00     0.128 C 
ATOM     79  C   UNL     1       3.050  -4.604  -2.690  1.00  0.00     0.071 C 
ATOM     80  C   UNL     1       2.345  -2.687  -1.214  1.00  0.00     0.071 C 
ATOM     81  C   UNL     1       1.609  -4.742  -3.169  1.00  0.00     0.271 C 
ATOM     82  C   UNL     1       0.892  -2.924  -1.643  1.00  0.00     0.271 C 
ATOM     83  N   UNL     1       0.701  -4.294  -2.110  1.00  0.00    -0.267 N 
ATOM     84  H   UNL     1       0.708  -4.295  -1.126  1.00  0.00     0.357 HD
BRANCH  76  85
ATOM     85  C   UNL     1       6.435  -1.190  -1.916  1.00  0.00     0.226 C 
ATOM     86  O   UNL     1       7.042  -1.809  -1.043  1.00  0.00    -0.275 OA
BRANCH  85  87
ATOM     87  C   UNL     1       7.117   0.003  -2.463  1.00  0.00     0.079 C 
ATOM     88  C   UNL     1       6.566   1.387  -2.617  1.00  0.00     0.014 C 
ATOM     89  C   UNL     1       7.516   1.105  -1.500  1.00  0.00     0.014 C 
ENDBRANCH  85  87
ENDBRANCH  76  85
BRANCH  83  90
ATOM     90  C   UNL     1      -0.377  -5.023  -1.621  1.00  0.00     0.344 C 
ATOM     91  O   UNL     1      -1.237  -4.556  -0.879  1.00  0.00    -0.226 OA
BRANCH  90  92
ATOM     92  C   UNL     1      -0.499  -6.443  -2.004  1.00  0.00     0.083 A 
ATOM     93  C   UNL     1       0.527  -7.351  -1.709  1.00  0.00     0.018 A 
ATOM     94  C   UNL     1      -1.664  -6.865  -2.643  1.00  0.00     0.064 A 
ATOM     95  C   UNL     1       0.406  -8.681  -2.110  1.00  0.00     0.005 A 
ATOM     96  C   UNL     1      -1.777  -8.196  -3.022  1.00  0.00     0.116 A 
ATOM     97  C   UNL     1      -0.749  -9.105  -2.770  1.00  0.00     0.046 A 
BRANCH  96  98
ATOM     98  O   UNL     1      -2.925  -8.580  -3.648  1.00  0.00    -0.508 OA
ATOM     99  H   UNL     1      -3.036  -9.470  -3.918  1.00  0.00     0.293 HD
ENDBRANCH  96  98
ENDBRANCH  90  92
ENDBRANCH  83  90
ENDBRANCH  72  74
ENDBRANCH  71  72
ENDBRANCH  70  71
ENDBRANCH  69  70
ENDBRANCH   1  69
TORSDOF 22
