REMARK SMILES O=C(OCCOCCOC(=O)c1cc(/C=C/c2cc(O)cc(O)c2)ccc1O)c1ccc(-c2c3nc(c(-c4ccc(S(=O)(=O)[O-])cc4)c4ccc([nH]4)c(-c4ccc(S(=O)(=O)[O-])cc4)c4nc(c(-c5ccc(S(=O)(=O)[O-])cc5)c5ccc2[nH]5)C=C4)C=C3)cc1
REMARK SMILES IDX 6 1 5 2 4 3 3 4 2 5 1 6 29 7 30 8 88 9 31 10 87 11 32 12
REMARK SMILES IDX 33 13 34 14 81 15 35 16 86 17 80 18 82 19 36 20 85 21 79 22
REMARK SMILES IDX 78 23 37 25 67 26 48 27 66 28 49 29 52 30 65 31 83 32 50 33
REMARK SMILES IDX 51 34 64 36 84 37 53 38 38 39 39 40 47 41 40 42 46 43 41 44
REMARK SMILES IDX 42 45 43 46 44 47 45 48 68 49 69 50 77 51 70 52 76 53 71 54
REMARK SMILES IDX 72 55 73 56 74 57 75 58 54 59 55 60 63 61 56 62 62 63 57 64
REMARK SMILES IDX 58 65 59 66 60 67 61 68 7 69 8 70 9 71 10 72 11 73 12 74
REMARK SMILES IDX 13 75 27 76 14 77 26 78 25 79 28 80 15 82 16 83 17 84 18 85
REMARK SMILES IDX 24 86 19 87 22 88 21 89 20 90 23 92
REMARK H PARENT 82 24 52 35 28 81 20 91 23 93
REMARK Flexibility Score: inf
ROOT
ATOM      1  O   UNL     1       4.116   1.760   0.106  1.00  0.00    -0.374 OA
ENDROOT
BRANCH   1   2
ATOM      2  C   UNL     1       4.256   1.238  -1.213  1.00  0.00     0.202 C 
BRANCH   2   3
ATOM      3  C   UNL     1       3.882  -0.240  -1.348  1.00  0.00     0.261 C 
BRANCH   3   4
ATOM      4  O   UNL     1       2.514  -0.451  -0.958  1.00  0.00    -0.460 OA
BRANCH   4   5
ATOM      5  C   UNL     1       2.044  -1.040   0.168  1.00  0.00     0.338 C 
ATOM      6  O   UNL     1       0.834  -1.241   0.262  1.00  0.00    -0.246 OA
BRANCH   5   7
ATOM      7  C   UNL     1       2.916  -1.463   1.306  1.00  0.00     0.060 A 
ATOM      8  C   UNL     1       4.143  -0.882   1.619  1.00  0.00     0.016 A 
ATOM      9  C   UNL     1       2.421  -2.453   2.172  1.00  0.00     0.016 A 
ATOM     10  C   UNL     1       4.894  -1.302   2.702  1.00  0.00     0.010 A 
ATOM     11  C   UNL     1       3.148  -2.850   3.302  1.00  0.00     0.010 A 
ATOM     12  C   UNL     1       4.398  -2.279   3.559  1.00  0.00    -0.014 A 
BRANCH  12  13
ATOM     13  C   UNL     1       5.277  -2.705   4.661  1.00  0.00     0.031 A 
ATOM     14  C   UNL     1       6.012  -4.002   4.530  1.00  0.00     0.074 A 
ATOM     15  C   UNL     1       5.546  -1.832   5.651  1.00  0.00     0.049 A 
ATOM     16  N   UNL     1       6.882  -4.540   5.339  1.00  0.00    -0.248 NA
ATOM     17  C   UNL     1       5.752  -4.790   3.311  1.00  0.00     0.031 C 
ATOM     18  C   UNL     1       4.962  -0.491   5.774  1.00  0.00     0.029 A 
ATOM     19  N   UNL     1       6.415  -1.911   6.705  1.00  0.00    -0.354 N 
ATOM     20  C   UNL     1       7.268  -5.729   4.736  1.00  0.00     0.074 A 
ATOM     21  C   UNL     1       6.527  -5.846   3.500  1.00  0.00     0.031 C 
ATOM     22  C   UNL     1       5.521   0.139   6.819  1.00  0.00     0.029 A 
ATOM     23  C   UNL     1       6.447  -0.773   7.479  1.00  0.00     0.049 A 
ATOM     24  H   UNL     1       6.965  -2.705   6.893  1.00  0.00     0.167 HD
ATOM     25  C   UNL     1       8.162  -6.641   5.182  1.00  0.00     0.031 A 
ATOM     26  C   UNL     1       7.130  -0.515   8.610  1.00  0.00     0.031 A 
ATOM     27  C   UNL     1       8.862  -6.508   6.430  1.00  0.00     0.049 A 
ATOM     28  C   UNL     1       8.034  -1.595   9.140  1.00  0.00     0.074 A 
ATOM     29  C   UNL     1       9.706  -7.408   7.051  1.00  0.00     0.029 A 
ATOM     30  N   UNL     1       8.796  -5.386   7.246  1.00  0.00    -0.354 N 
ATOM     31  N   UNL     1       8.320  -2.761   8.607  1.00  0.00    -0.248 NA
ATOM     32  C   UNL     1       8.699  -1.334  10.421  1.00  0.00     0.031 C 
ATOM     33  C   UNL     1      10.119  -6.845   8.264  1.00  0.00     0.029 A 
ATOM     34  C   UNL     1       9.578  -5.572   8.371  1.00  0.00     0.049 A 
ATOM     35  H   UNL     1       8.270  -4.576   7.052  1.00  0.00     0.167 HD
ATOM     36  C   UNL     1       9.203  -3.373   9.488  1.00  0.00     0.074 A 
ATOM     37  C   UNL     1       9.429  -2.432  10.568  1.00  0.00     0.031 C 
ATOM     38  C   UNL     1       9.769  -4.605   9.422  1.00  0.00     0.031 A 
BRANCH  25  39
ATOM     39  C   UNL     1       8.361  -7.872   4.343  1.00  0.00    -0.014 A 
ATOM     40  C   UNL     1       9.069  -7.822   3.128  1.00  0.00     0.010 A 
ATOM     41  C   UNL     1       7.803  -9.094   4.761  1.00  0.00     0.010 A 
ATOM     42  C   UNL     1       9.182  -8.964   2.328  1.00  0.00     0.020 A 
ATOM     43  C   UNL     1       7.933 -10.242   3.974  1.00  0.00     0.020 A 
ATOM     44  C   UNL     1       8.606 -10.165   2.753  1.00  0.00     0.054 A 
BRANCH  44  45
ATOM     45  S   UNL     1       8.759 -11.629   1.693  1.00  0.00     0.124 S 
ATOM     46  O   UNL     1       7.841 -11.307   0.602  1.00  0.00    -0.237 OA
ATOM     47  O   UNL     1      10.177 -11.624   1.342  1.00  0.00    -0.237 OA
ATOM     48  O   UNL     1       8.337 -12.729   2.557  1.00  0.00    -0.744 OA
ENDBRANCH  44  45
ENDBRANCH  25  39
BRANCH  26  49
ATOM     49  C   UNL     1       6.919   0.763   9.349  1.00  0.00    -0.014 A 
ATOM     50  C   UNL     1       7.960   1.688   9.535  1.00  0.00     0.010 A 
ATOM     51  C   UNL     1       5.653   1.050   9.897  1.00  0.00     0.010 A 
ATOM     52  C   UNL     1       7.749   2.856  10.280  1.00  0.00     0.020 A 
ATOM     53  C   UNL     1       5.428   2.229  10.613  1.00  0.00     0.020 A 
ATOM     54  C   UNL     1       6.485   3.115  10.819  1.00  0.00     0.054 A 
BRANCH  54  55
ATOM     55  S   UNL     1       6.223   4.635  11.776  1.00  0.00     0.124 S 
ATOM     56  O   UNL     1       6.881   4.314  13.039  1.00  0.00    -0.237 OA
ATOM     57  O   UNL     1       6.885   5.647  10.956  1.00  0.00    -0.237 OA
ATOM     58  O   UNL     1       4.768   4.752  11.840  1.00  0.00    -0.744 OA
ENDBRANCH  54  55
ENDBRANCH  26  49
BRANCH  38  59
ATOM     59  C   UNL     1      10.698  -4.979  10.541  1.00  0.00    -0.014 A 
ATOM     60  C   UNL     1      10.204  -5.294  11.819  1.00  0.00     0.010 A 
ATOM     61  C   UNL     1      12.080  -5.056  10.295  1.00  0.00     0.010 A 
ATOM     62  C   UNL     1      11.083  -5.646  12.844  1.00  0.00     0.020 A 
ATOM     63  C   UNL     1      12.959  -5.434  11.310  1.00  0.00     0.020 A 
ATOM     64  C   UNL     1      12.455  -5.711  12.583  1.00  0.00     0.054 A 
BRANCH  64  65
ATOM     65  S   UNL     1      13.575  -6.207  13.919  1.00  0.00     0.124 S 
ATOM     66  O   UNL     1      13.631  -4.994  14.731  1.00  0.00    -0.237 OA
ATOM     67  O   UNL     1      12.874  -7.337  14.524  1.00  0.00    -0.237 OA
ATOM     68  O   UNL     1      14.812  -6.550  13.223  1.00  0.00    -0.744 OA
ENDBRANCH  64  65
ENDBRANCH  38  59
ENDBRANCH  12  13
ENDBRANCH   5   7
ENDBRANCH   4   5
ENDBRANCH   3   4
ENDBRANCH   2   3
ENDBRANCH   1   2
BRANCH   1  69
ATOM     69  C   UNL     1       2.822   2.272   0.441  1.00  0.00     0.202 C 
BRANCH  69  70
ATOM     70  C   UNL     1       2.965   3.719   0.916  1.00  0.00     0.261 C 
BRANCH  70  71
ATOM     71  O   UNL     1       3.452   4.493  -0.190  1.00  0.00    -0.460 OA
BRANCH  71  72
ATOM     72  C   UNL     1       4.804   4.611  -0.284  1.00  0.00     0.342 C 
ATOM     73  O   UNL     1       5.634   4.380   0.572  1.00  0.00    -0.246 OA
BRANCH  72  74
ATOM     74  C   UNL     1       5.128   4.798  -1.716  1.00  0.00     0.102 A 
ATOM     75  C   UNL     1       6.104   3.950  -2.276  1.00  0.00     0.027 A 
ATOM     76  C   UNL     1       4.424   5.691  -2.525  1.00  0.00     0.130 A 
ATOM     77  C   UNL     1       6.319   3.936  -3.658  1.00  0.00    -0.025 A 
ATOM     78  C   UNL     1       4.659   5.715  -3.894  1.00  0.00     0.048 A 
ATOM     79  C   UNL     1       5.591   4.836  -4.453  1.00  0.00     0.012 A 
BRANCH  76  80
ATOM     80  O   UNL     1       3.515   6.554  -1.983  1.00  0.00    -0.507 OA
ATOM     81  H   UNL     1       3.351   6.544  -1.061  1.00  0.00     0.293 HD
ENDBRANCH  76  80
BRANCH  77  82
ATOM     82  C   UNL     1       7.295   3.065  -4.336  1.00  0.00     0.009 C 
ATOM     83  C   UNL     1       7.767   1.876  -3.919  1.00  0.00     0.009 C 
BRANCH  83  84
ATOM     84  C   UNL     1       8.739   1.107  -4.723  1.00  0.00    -0.018 A 
ATOM     85  C   UNL     1       9.807   1.749  -5.373  1.00  0.00     0.054 A 
ATOM     86  C   UNL     1       8.622  -0.287  -4.830  1.00  0.00     0.054 A 
ATOM     87  C   UNL     1      10.700   1.015  -6.151  1.00  0.00     0.119 A 
ATOM     88  C   UNL     1       9.533  -1.003  -5.611  1.00  0.00     0.119 A 
ATOM     89  C   UNL     1      10.565  -0.359  -6.283  1.00  0.00     0.092 A 
BRANCH  87  90
ATOM     90  O   UNL     1      11.730   1.624  -6.807  1.00  0.00    -0.508 OA
ATOM     91  H   UNL     1      11.847   2.551  -6.737  1.00  0.00     0.293 HD
ENDBRANCH  87  90
BRANCH  88  92
ATOM     92  O   UNL     1       9.445  -2.357  -5.753  1.00  0.00    -0.508 OA
ATOM     93  H   UNL     1      10.068  -2.815  -6.282  1.00  0.00     0.293 HD
ENDBRANCH  88  92
ENDBRANCH  83  84
ENDBRANCH  77  82
ENDBRANCH  72  74
ENDBRANCH  71  72
ENDBRANCH  70  71
ENDBRANCH  69  70
ENDBRANCH   1  69
TORSDOF 22
