REMARK SMILES CCOc1cccc(-c2ccc([C@@H](C)C(=O)OCCOCCOC(=O)c3ccc(-c4c5nc(c(-c6ccc(S(=O)(=O)[O-])cc6)c6ccc([nH]6)c(-c6ccc(S(=O)(=O)[O-])cc6)c6nc(c(-c7ccc(S(=O)(=O)[O-])cc7)c7ccc4[nH]7)C=C6)C=C5)cc3)cc2F)c1
REMARK SMILES IDX 19 1 18 2 17 3 15 4 16 5 13 6 14 7 12 8 9 9 10 10 87 11
REMARK SMILES IDX 11 12 86 13 88 14 8 15 4 16 5 17 89 18 6 19 7 20 3 21 2 22
REMARK SMILES IDX 1 23 20 24 21 25 22 26 23 27 24 28 25 29 26 30 27 31 85 32
REMARK SMILES IDX 28 33 84 34 29 35 30 36 31 37 78 38 32 39 83 40 77 41 79 42
REMARK SMILES IDX 33 43 82 44 76 45 75 46 34 48 64 49 45 50 63 51 46 52 49 53
REMARK SMILES IDX 62 54 80 55 47 56 48 57 61 59 81 60 50 61 35 62 36 63 44 64
REMARK SMILES IDX 37 65 43 66 38 67 39 68 40 69 41 70 42 71 65 72 66 73 74 74
REMARK SMILES IDX 67 75 73 76 68 77 69 78 70 79 71 80 72 81 51 82 52 83 60 84
REMARK SMILES IDX 53 85 59 86 54 87 55 88 56 89 57 90 58 91
REMARK H PARENT 79 47 49 58
REMARK Flexibility Score: inf
ROOT
ATOM      1  C   UNL     1       7.752   1.659   4.840  1.00  0.00     0.202 C 
ENDROOT
BRANCH   1   2
ATOM      2  C   UNL     1       9.010   0.827   4.580  1.00  0.00     0.261 C 
BRANCH   2   3
ATOM      3  O   UNL     1       8.793  -0.140   3.536  1.00  0.00    -0.463 OA
BRANCH   3   4
ATOM      4  C   UNL     1       8.840  -1.443   3.915  1.00  0.00     0.313 C 
ATOM      5  O   UNL     1       9.149  -1.829   5.039  1.00  0.00    -0.252 OA
BRANCH   4   6
ATOM      6  C   UNL     1       8.503  -2.421   2.802  1.00  0.00     0.126 C 
ATOM      7  C   UNL     1       9.793  -2.940   2.174  1.00  0.00     0.025 C 
BRANCH   6   8
ATOM      8  C   UNL     1       7.492  -1.989   1.746  1.00  0.00    -0.031 A 
ATOM      9  C   UNL     1       5.632  -1.415  -0.350  1.00  0.00     0.018 A 
ATOM     10  C   UNL     1       6.837  -0.705  -0.226  1.00  0.00     0.012 A 
ATOM     11  C   UNL     1       5.370  -2.391   0.622  1.00  0.00     0.131 A 
ATOM     12  C   UNL     1       7.753  -0.986   0.802  1.00  0.00     0.005 A 
ATOM     13  C   UNL     1       6.272  -2.673   1.650  1.00  0.00     0.044 A 
ATOM     14  F   UNL     1       4.241  -3.116   0.573  1.00  0.00    -0.206 F 
BRANCH   9  15
ATOM     15  C   UNL     1       4.693  -1.158  -1.460  1.00  0.00    -0.012 A 
ATOM     16  C   UNL     1       2.419  -0.791  -2.267  1.00  0.00     0.119 A 
ATOM     17  C   UNL     1       2.868  -0.746  -3.582  1.00  0.00     0.046 A 
ATOM     18  C   UNL     1       3.316  -1.018  -1.222  1.00  0.00     0.055 A 
ATOM     19  C   UNL     1       4.229  -0.886  -3.846  1.00  0.00     0.004 A 
ATOM     20  C   UNL     1       5.132  -1.084  -2.795  1.00  0.00     0.009 A 
BRANCH  16  21
ATOM     21  O   UNL     1       1.073  -0.733  -2.034  1.00  0.00    -0.494 OA
BRANCH  21  22
ATOM     22  C   UNL     1       0.669   0.501  -1.424  1.00  0.00     0.226 C 
ATOM     23  C   UNL     1       0.602   0.376   0.090  1.00  0.00     0.049 C 
ENDBRANCH  21  22
ENDBRANCH  16  21
ENDBRANCH   9  15
ENDBRANCH   6   8
ENDBRANCH   4   6
ENDBRANCH   3   4
ENDBRANCH   2   3
ENDBRANCH   1   2
BRANCH   1  24
ATOM     24  O   UNL     1       6.634   0.957   5.380  1.00  0.00    -0.374 OA
BRANCH  24  25
ATOM     25  C   UNL     1       5.856   0.168   4.480  1.00  0.00     0.202 C 
BRANCH  25  26
ATOM     26  C   UNL     1       4.897   0.924   3.552  1.00  0.00     0.261 C 
BRANCH  26  27
ATOM     27  O   UNL     1       5.593   1.673   2.541  1.00  0.00    -0.460 OA
BRANCH  27  28
ATOM     28  C   UNL     1       5.545   3.018   2.688  1.00  0.00     0.338 C 
ATOM     29  O   UNL     1       4.944   3.645   3.550  1.00  0.00    -0.246 OA
BRANCH  28  30
ATOM     30  C   UNL     1       6.488   3.659   1.753  1.00  0.00     0.060 A 
ATOM     31  C   UNL     1       7.390   4.597   2.275  1.00  0.00     0.016 A 
ATOM     32  C   UNL     1       6.440   3.407   0.381  1.00  0.00     0.016 A 
ATOM     33  C   UNL     1       8.213   5.328   1.420  1.00  0.00     0.010 A 
ATOM     34  C   UNL     1       7.257   4.149  -0.475  1.00  0.00     0.010 A 
ATOM     35  C   UNL     1       8.118   5.138   0.036  1.00  0.00    -0.014 A 
BRANCH  35  36
ATOM     36  C   UNL     1       8.773   6.087  -0.896  1.00  0.00     0.031 A 
ATOM     37  C   UNL     1       7.937   7.176  -1.512  1.00  0.00     0.074 A 
ATOM     38  C   UNL     1      10.077   5.977  -1.204  1.00  0.00     0.049 A 
ATOM     39  N   UNL     1       8.247   8.025  -2.456  1.00  0.00    -0.248 NA
ATOM     40  C   UNL     1       6.564   7.320  -0.997  1.00  0.00     0.031 C 
ATOM     41  C   UNL     1      11.006   5.010  -0.623  1.00  0.00     0.029 A 
ATOM     42  N   UNL     1      10.840   6.680  -2.103  1.00  0.00    -0.354 N 
ATOM     43  C   UNL     1       7.104   8.787  -2.666  1.00  0.00     0.074 A 
ATOM     44  C   UNL     1       6.090   8.293  -1.762  1.00  0.00     0.031 C 
ATOM     45  C   UNL     1      12.212   5.165  -1.198  1.00  0.00     0.029 A 
ATOM     46  C   UNL     1      12.126   6.210  -2.218  1.00  0.00     0.049 A 
ATOM     47  H   UNL     1      10.498   7.448  -2.616  1.00  0.00     0.167 HD
ATOM     48  C   UNL     1       6.915   9.805  -3.539  1.00  0.00     0.031 A 
ATOM     49  C   UNL     1      13.108   6.556  -3.075  1.00  0.00     0.031 A 
ATOM     50  C   UNL     1       7.925  10.286  -4.441  1.00  0.00     0.049 A 
ATOM     51  C   UNL     1      12.853   7.635  -4.095  1.00  0.00     0.074 A 
ATOM     52  C   UNL     1       7.836  11.314  -5.363  1.00  0.00     0.029 A 
ATOM     53  N   UNL     1       9.208   9.769  -4.539  1.00  0.00    -0.354 N 
ATOM     54  N   UNL     1      11.767   8.347  -4.286  1.00  0.00    -0.248 NA
ATOM     55  C   UNL     1      13.953   7.959  -5.016  1.00  0.00     0.031 C 
ATOM     56  C   UNL     1       9.049  11.385  -6.053  1.00  0.00     0.029 A 
ATOM     57  C   UNL     1       9.914  10.443  -5.519  1.00  0.00     0.049 A 
ATOM     58  H   UNL     1       9.564   9.032  -3.991  1.00  0.00     0.167 HD
ATOM     59  C   UNL     1      12.066   9.226  -5.322  1.00  0.00     0.074 A 
ATOM     60  C   UNL     1      13.432   8.957  -5.719  1.00  0.00     0.031 C 
ATOM     61  C   UNL     1      11.282  10.177  -5.886  1.00  0.00     0.031 A 
BRANCH  48  62
ATOM     62  C   UNL     1       5.550  10.435  -3.590  1.00  0.00    -0.014 A 
ATOM     63  C   UNL     1       5.085  11.259  -2.550  1.00  0.00     0.010 A 
ATOM     64  C   UNL     1       4.732  10.223  -4.715  1.00  0.00     0.010 A 
ATOM     65  C   UNL     1       3.811  11.829  -2.617  1.00  0.00     0.020 A 
ATOM     66  C   UNL     1       3.468  10.813  -4.798  1.00  0.00     0.020 A 
ATOM     67  C   UNL     1       3.009  11.599  -3.740  1.00  0.00     0.054 A 
BRANCH  67  68
ATOM     68  S   UNL     1       1.365  12.363  -3.808  1.00  0.00     0.124 S 
ATOM     69  O   UNL     1       0.619  11.558  -2.844  1.00  0.00    -0.237 OA
ATOM     70  O   UNL     1       1.634  13.740  -3.401  1.00  0.00    -0.237 OA
ATOM     71  O   UNL     1       0.962  12.196  -5.202  1.00  0.00    -0.744 OA
ENDBRANCH  67  68
ENDBRANCH  48  62
BRANCH  49  72
ATOM     72  C   UNL     1      14.417   5.848  -3.026  1.00  0.00    -0.014 A 
ATOM     73  C   UNL     1      15.574   6.509  -2.579  1.00  0.00     0.010 A 
ATOM     74  C   UNL     1      14.511   4.502  -3.425  1.00  0.00     0.010 A 
ATOM     75  C   UNL     1      16.802   5.841  -2.541  1.00  0.00     0.020 A 
ATOM     76  C   UNL     1      15.730   3.822  -3.363  1.00  0.00     0.020 A 
ATOM     77  C   UNL     1      16.871   4.500  -2.931  1.00  0.00     0.054 A 
BRANCH  77  78
ATOM     78  S   UNL     1      18.463   3.636  -2.820  1.00  0.00     0.124 S 
ATOM     79  O   UNL     1      19.195   4.203  -3.948  1.00  0.00    -0.237 OA
ATOM     80  O   UNL     1      18.941   4.024  -1.495  1.00  0.00    -0.237 OA
ATOM     81  O   UNL     1      18.097   2.228  -2.953  1.00  0.00    -0.744 OA
ENDBRANCH  77  78
ENDBRANCH  49  72
BRANCH  61  82
ATOM     82  C   UNL     1      11.883  11.049  -6.956  1.00  0.00    -0.014 A 
ATOM     83  C   UNL     1      12.075  10.576  -8.264  1.00  0.00     0.010 A 
ATOM     84  C   UNL     1      12.144  12.402  -6.668  1.00  0.00     0.010 A 
ATOM     85  C   UNL     1      12.519  11.442  -9.268  1.00  0.00     0.020 A 
ATOM     86  C   UNL     1      12.566  13.276  -7.673  1.00  0.00     0.020 A 
ATOM     87  C   UNL     1      12.753  12.789  -8.967  1.00  0.00     0.054 A 
BRANCH  87  88
ATOM     88  S   UNL     1      13.235  13.913 -10.308  1.00  0.00     0.124 S 
ATOM     89  O   UNL     1      14.621  13.524 -10.549  1.00  0.00    -0.237 OA
ATOM     90  O   UNL     1      12.291  13.568 -11.369  1.00  0.00    -0.237 OA
ATOM     91  O   UNL     1      13.052  15.242  -9.728  1.00  0.00    -0.744 OA
ENDBRANCH  87  88
ENDBRANCH  61  82
ENDBRANCH  35  36
ENDBRANCH  28  30
ENDBRANCH  27  28
ENDBRANCH  26  27
ENDBRANCH  25  26
ENDBRANCH  24  25
ENDBRANCH   1  24
TORSDOF 21
