REMARK SMILES C[C@@H](Oc1ccccc1Cl)C(=O)Nc1ccc(C(=O)OCCOCCOC(=O)c2ccc(-c3c4nc(c(-c5ccc(S(=O)(=O)[O-])cc5)c5ccc([nH]5)c(-c5ccc(S(=O)(=O)[O-])cc5)c5nc(c(-c6ccc(S(=O)(=O)[O-])cc6)c6ccc3[nH]6)C=C5)C=C4)cc2)cc1
REMARK SMILES IDX 22 1 21 2 20 3 18 4 19 5 17 6 14 7 15 8 90 9 16 10 89 11
REMARK SMILES IDX 13 12 11 13 12 14 2 16 1 17 3 18 4 19 5 20 9 21 6 22 8 23
REMARK SMILES IDX 10 24 7 25 23 26 24 27 25 28 26 29 27 30 28 31 29 32 30 33
REMARK SMILES IDX 88 34 31 35 87 36 32 37 33 38 34 39 81 40 35 41 86 42 80 43
REMARK SMILES IDX 82 44 36 45 85 46 79 47 78 48 37 50 67 51 48 52 66 53 49 54
REMARK SMILES IDX 52 55 65 56 83 57 50 58 51 59 64 61 84 62 53 63 38 64 39 65
REMARK SMILES IDX 47 66 40 67 46 68 41 69 42 70 43 71 44 72 45 73 68 74 69 75
REMARK SMILES IDX 77 76 70 77 76 78 71 79 72 80 73 81 74 82 75 83 54 84 55 85
REMARK SMILES IDX 63 86 56 87 62 88 57 89 58 90 59 91 60 92 61 93
REMARK H PARENT 13 15 82 49 52 60
REMARK Flexibility Score: inf
ROOT
ATOM      1  C   UNL     1       1.861   5.382   5.760  1.00  0.00     0.202 C 
ENDROOT
BRANCH   1   2
ATOM      2  C   UNL     1       2.526   4.004   5.729  1.00  0.00     0.261 C 
BRANCH   2   3
ATOM      3  O   UNL     1       1.906   3.178   4.734  1.00  0.00    -0.460 OA
BRANCH   3   4
ATOM      4  C   UNL     1       1.151   2.160   5.210  1.00  0.00     0.338 C 
ATOM      5  O   UNL     1       1.088   1.777   6.366  1.00  0.00    -0.246 OA
BRANCH   4   6
ATOM      6  C   UNL     1       0.293   1.606   4.131  1.00  0.00     0.060 A 
ATOM      7  C   UNL     1      -1.169   0.264   2.183  1.00  0.00     0.041 A 
ATOM      8  C   UNL     1      -1.473   0.060   3.527  1.00  0.00     0.027 A 
ATOM      9  C   UNL     1      -0.286   1.276   1.810  1.00  0.00     0.027 A 
ATOM     10  C   UNL     1      -0.721   0.714   4.501  1.00  0.00     0.018 A 
ATOM     11  C   UNL     1       0.456   1.944   2.783  1.00  0.00     0.018 A 
BRANCH   7  12
ATOM     12  N   UNL     1      -1.701  -0.632   1.254  1.00  0.00    -0.323 N 
ATOM     13  C   UNL     1      -1.012  -1.446   0.389  1.00  0.00     0.265 C 
ATOM     14  O   UNL     1      -1.684  -2.218  -0.310  1.00  0.00    -0.270 OA
ATOM     15  H   UNL     1      -2.683  -0.687   1.214  1.00  0.00     0.170 HD
BRANCH  13  16
ATOM     16  C   UNL     1       0.541  -1.474   0.291  1.00  0.00     0.259 C 
ATOM     17  C   UNL     1       0.976  -0.649  -0.918  1.00  0.00     0.064 C 
BRANCH  16  18
ATOM     18  O   UNL     1       1.212  -1.060   1.481  1.00  0.00    -0.479 OA
BRANCH  18  19
ATOM     19  C   UNL     1       2.481  -1.543   1.642  1.00  0.00     0.139 A 
ATOM     20  C   UNL     1       2.657  -2.856   2.083  1.00  0.00     0.048 A 
ATOM     21  C   UNL     1       3.589  -0.694   1.523  1.00  0.00     0.083 A 
ATOM     22  C   UNL     1       3.942  -3.335   2.352  1.00  0.00     0.004 A 
ATOM     23  C   UNL     1       4.872  -1.179   1.783  1.00  0.00     0.024 A 
ATOM     24  Cl  UNL     1       3.428   0.962   1.068  1.00  0.00    -0.080 Cl
ATOM     25  C   UNL     1       5.048  -2.500   2.193  1.00  0.00     0.002 A 
ENDBRANCH  18  19
ENDBRANCH  16  18
ENDBRANCH  13  16
ENDBRANCH   7  12
ENDBRANCH   4   6
ENDBRANCH   3   4
ENDBRANCH   2   3
ENDBRANCH   1   2
BRANCH   1  26
ATOM     26  O   UNL     1       0.487   5.403   6.156  1.00  0.00    -0.374 OA
BRANCH  26  27
ATOM     27  C   UNL     1      -0.481   5.101   5.149  1.00  0.00     0.202 C 
BRANCH  27  28
ATOM     28  C   UNL     1      -0.857   6.241   4.197  1.00  0.00     0.261 C 
BRANCH  28  29
ATOM     29  O   UNL     1       0.234   6.603   3.334  1.00  0.00    -0.460 OA
BRANCH  29  30
ATOM     30  C   UNL     1       0.834   7.778   3.646  1.00  0.00     0.338 C 
ATOM     31  O   UNL     1       0.499   8.566   4.513  1.00  0.00    -0.246 OA
BRANCH  30  32
ATOM     32  C   UNL     1       2.096   7.913   2.892  1.00  0.00     0.060 A 
ATOM     33  C   UNL     1       3.247   8.250   3.617  1.00  0.00     0.016 A 
ATOM     34  C   UNL     1       2.145   7.782   1.503  1.00  0.00     0.016 A 
ATOM     35  C   UNL     1       4.441   8.512   2.949  1.00  0.00     0.010 A 
ATOM     36  C   UNL     1       3.342   8.054   0.833  1.00  0.00     0.010 A 
ATOM     37  C   UNL     1       4.484   8.456   1.550  1.00  0.00    -0.014 A 
BRANCH  37  38
ATOM     38  C   UNL     1       5.676   8.965   0.830  1.00  0.00     0.031 A 
ATOM     39  C   UNL     1       5.635  10.353   0.250  1.00  0.00     0.074 A 
ATOM     40  C   UNL     1       6.783   8.212   0.708  1.00  0.00     0.049 A 
ATOM     41  N   UNL     1       6.536  10.980  -0.461  1.00  0.00    -0.248 NA
ATOM     42  C   UNL     1       4.415  11.138   0.506  1.00  0.00     0.031 C 
ATOM     43  C   UNL     1       6.962   6.873   1.268  1.00  0.00     0.029 A 
ATOM     44  N   UNL     1       7.967   8.469   0.064  1.00  0.00    -0.354 N 
ATOM     45  C   UNL     1       5.989  12.226  -0.748  1.00  0.00     0.074 A 
ATOM     46  C   UNL     1       4.670  12.257  -0.155  1.00  0.00     0.031 C 
ATOM     47  C   UNL     1       8.183   6.421   0.933  1.00  0.00     0.029 A 
ATOM     48  C   UNL     1       8.856   7.421   0.107  1.00  0.00     0.049 A 
ATOM     49  H   UNL     1       8.162   9.322  -0.387  1.00  0.00     0.167 HD
ATOM     50  C   UNL     1       6.538  13.252  -1.440  1.00  0.00     0.031 A 
ATOM     51  C   UNL     1      10.063   7.277  -0.475  1.00  0.00     0.031 A 
ATOM     52  C   UNL     1       7.845  13.213  -2.039  1.00  0.00     0.049 A 
ATOM     53  C   UNL     1      10.622   8.403  -1.305  1.00  0.00     0.074 A 
ATOM     54  C   UNL     1       8.495  14.205  -2.752  1.00  0.00     0.029 A 
ATOM     55  N   UNL     1       8.700  12.122  -2.000  1.00  0.00    -0.354 N 
ATOM     56  N   UNL     1      10.100   9.581  -1.555  1.00  0.00    -0.248 NA
ATOM     57  C   UNL     1      11.936   8.183  -1.928  1.00  0.00     0.031 C 
ATOM     58  C   UNL     1       9.721  13.695  -3.190  1.00  0.00     0.029 A 
ATOM     59  C   UNL     1       9.861  12.407  -2.697  1.00  0.00     0.049 A 
ATOM     60  H   UNL     1       8.510  11.271  -1.543  1.00  0.00     0.167 HD
ATOM     61  C   UNL     1      11.035  10.252  -2.337  1.00  0.00     0.074 A 
ATOM     62  C   UNL     1      12.156   9.352  -2.513  1.00  0.00     0.031 C 
ATOM     63  C   UNL     1      10.972  11.502  -2.858  1.00  0.00     0.031 A 
BRANCH  50  64
ATOM     64  C   UNL     1       5.705  14.494  -1.617  1.00  0.00    -0.014 A 
ATOM     65  C   UNL     1       5.455  15.364  -0.541  1.00  0.00     0.010 A 
ATOM     66  C   UNL     1       5.192  14.812  -2.888  1.00  0.00     0.010 A 
ATOM     67  C   UNL     1       4.675  16.509  -0.725  1.00  0.00     0.020 A 
ATOM     68  C   UNL     1       4.433  15.969  -3.081  1.00  0.00     0.020 A 
ATOM     69  C   UNL     1       4.165  16.802  -1.993  1.00  0.00     0.054 A 
BRANCH  69  70
ATOM     70  S   UNL     1       3.169  18.302  -2.208  1.00  0.00     0.124 S 
ATOM     71  O   UNL     1       1.916  17.927  -1.557  1.00  0.00    -0.237 OA
ATOM     72  O   UNL     1       3.958  19.314  -1.511  1.00  0.00    -0.237 OA
ATOM     73  O   UNL     1       3.093  18.465  -3.657  1.00  0.00    -0.744 OA
ENDBRANCH  69  70
ENDBRANCH  50  64
BRANCH  51  74
ATOM     74  C   UNL     1      10.819   6.005  -0.310  1.00  0.00    -0.014 A 
ATOM     75  C   UNL     1      11.995   5.963   0.458  1.00  0.00     0.010 A 
ATOM     76  C   UNL     1      10.360   4.825  -0.923  1.00  0.00     0.010 A 
ATOM     77  C   UNL     1      12.705   4.766   0.600  1.00  0.00     0.020 A 
ATOM     78  C   UNL     1      11.052   3.622  -0.762  1.00  0.00     0.020 A 
ATOM     79  C   UNL     1      12.227   3.603  -0.010  1.00  0.00     0.054 A 
BRANCH  79  80
ATOM     80  S   UNL     1      13.133   2.049   0.233  1.00  0.00     0.124 S 
ATOM     81  O   UNL     1      14.296   2.237  -0.628  1.00  0.00    -0.237 OA
ATOM     82  O   UNL     1      13.400   2.060   1.669  1.00  0.00    -0.237 OA
ATOM     83  O   UNL     1      12.184   1.029  -0.207  1.00  0.00    -0.744 OA
ENDBRANCH  79  80
ENDBRANCH  51  74
BRANCH  63  84
ATOM     84  C   UNL     1      12.164  11.998  -3.634  1.00  0.00    -0.014 A 
ATOM     85  C   UNL     1      12.442  11.525  -4.928  1.00  0.00     0.010 A 
ATOM     86  C   UNL     1      12.974  13.008  -3.084  1.00  0.00     0.010 A 
ATOM     87  C   UNL     1      13.523  12.040  -5.650  1.00  0.00     0.020 A 
ATOM     88  C   UNL     1      14.040  13.543  -3.812  1.00  0.00     0.020 A 
ATOM     89  C   UNL     1      14.314  13.047  -5.088  1.00  0.00     0.054 A 
BRANCH  89  90
ATOM     90  S   UNL     1      15.675  13.740  -6.067  1.00  0.00     0.124 S 
ATOM     91  O   UNL     1      16.666  12.670  -6.010  1.00  0.00    -0.237 OA
ATOM     92  O   UNL     1      15.055  13.954  -7.373  1.00  0.00    -0.237 OA
ATOM     93  O   UNL     1      16.033  14.961  -5.348  1.00  0.00    -0.744 OA
ENDBRANCH  89  90
ENDBRANCH  63  84
ENDBRANCH  37  38
ENDBRANCH  30  32
ENDBRANCH  29  30
ENDBRANCH  28  29
ENDBRANCH  27  28
ENDBRANCH  26  27
ENDBRANCH   1  26
TORSDOF 21
