REMARK SMILES O=C(OCCOCCOC(=O)[C@H]1[C@@H]2C[C@H]3C[C@@H](C2)C[C@]1(n1ncc(N2CCN(c4ccc(F)cc4)CC2)c(Cl)c1=O)C3)c1ccc(-c2c3nc(c(-c4ccc(S(=O)(=O)[O-])cc4)c4ccc([nH]4)c(-c4ccc(S(=O)(=O)[O-])cc4)c4nc(c(-c5ccc(S(=O)(=O)[O-])cc5)c5ccc2[nH]5)C=C4)C=C3)cc1
REMARK SMILES IDX 6 1 5 2 4 3 3 4 2 5 1 6 43 7 44 8 102 9 45 10 101 11 46 12
REMARK SMILES IDX 47 13 48 14 95 15 49 16 100 17 94 18 96 19 50 20 99 21 93 22
REMARK SMILES IDX 92 23 51 25 81 26 62 27 80 28 63 29 66 30 79 31 97 32 64 33
REMARK SMILES IDX 65 34 78 36 98 37 67 38 52 39 53 40 61 41 54 42 60 43 55 44
REMARK SMILES IDX 56 45 57 46 58 47 59 48 82 49 83 50 91 51 84 52 90 53 85 54
REMARK SMILES IDX 86 55 87 56 88 57 89 58 68 59 69 60 77 61 70 62 76 63 71 64
REMARK SMILES IDX 72 65 73 66 74 67 75 68 7 69 8 70 9 71 10 72 11 73 12 74
REMARK SMILES IDX 13 75 20 76 18 77 14 78 42 79 19 80 17 81 15 82 16 83 21 84
REMARK SMILES IDX 22 85 40 86 23 87 38 88 41 89 24 90 39 91 25 92 26 93 37 94
REMARK SMILES IDX 27 95 36 96 28 97 29 98 30 99 35 100 31 101 34 102 32 103
REMARK SMILES IDX 33 104
REMARK H PARENT 96 24 66 35
REMARK Flexibility Score: inf
ROOT
ATOM      1  O   UNL     1       4.294  -0.750   0.637  1.00  0.00    -0.374 OA
ENDROOT
BRANCH   1   2
ATOM      2  C   UNL     1       4.624   0.572   1.046  1.00  0.00     0.202 C 
BRANCH   2   3
ATOM      3  C   UNL     1       4.539   1.551  -0.122  1.00  0.00     0.261 C 
BRANCH   3   4
ATOM      4  O   UNL     1       3.202   1.639  -0.648  1.00  0.00    -0.460 OA
BRANCH   4   5
ATOM      5  C   UNL     1       2.545   0.865  -1.543  1.00  0.00     0.338 C 
ATOM      6  O   UNL     1       1.366   1.152  -1.766  1.00  0.00    -0.246 OA
BRANCH   5   7
ATOM      7  C   UNL     1       3.098  -0.346  -2.247  1.00  0.00     0.060 A 
ATOM      8  C   UNL     1       2.213  -1.028  -3.110  1.00  0.00     0.016 A 
ATOM      9  C   UNL     1       4.369  -0.897  -2.078  1.00  0.00     0.016 A 
ATOM     10  C   UNL     1       2.577  -2.223  -3.745  1.00  0.00     0.010 A 
ATOM     11  C   UNL     1       4.715  -2.122  -2.643  1.00  0.00     0.010 A 
ATOM     12  C   UNL     1       3.833  -2.778  -3.499  1.00  0.00    -0.014 A 
BRANCH  12  13
ATOM     13  C   UNL     1       4.381  -3.888  -4.296  1.00  0.00     0.031 A 
ATOM     14  C   UNL     1       4.363  -5.297  -3.804  1.00  0.00     0.074 A 
ATOM     15  C   UNL     1       5.082  -3.527  -5.387  1.00  0.00     0.049 A 
ATOM     16  N   UNL     1       4.852  -6.362  -4.379  1.00  0.00    -0.248 NA
ATOM     17  C   UNL     1       3.738  -5.548  -2.497  1.00  0.00     0.031 C 
ATOM     18  C   UNL     1       5.219  -2.145  -5.860  1.00  0.00     0.029 A 
ATOM     19  N   UNL     1       5.852  -4.255  -6.249  1.00  0.00    -0.354 N 
ATOM     20  C   UNL     1       4.580  -7.418  -3.519  1.00  0.00     0.074 A 
ATOM     21  C   UNL     1       3.918  -6.858  -2.360  1.00  0.00     0.031 C 
ATOM     22  C   UNL     1       6.060  -2.120  -6.900  1.00  0.00     0.029 A 
ATOM     23  C   UNL     1       6.509  -3.480  -7.173  1.00  0.00     0.049 A 
ATOM     24  H   UNL     1       5.929  -5.236  -6.211  1.00  0.00     0.167 HD
ATOM     25  C   UNL     1       4.861  -8.730  -3.708  1.00  0.00     0.031 A 
ATOM     26  C   UNL     1       7.377  -3.824  -8.142  1.00  0.00     0.031 A 
ATOM     27  C   UNL     1       5.561  -9.220  -4.871  1.00  0.00     0.049 A 
ATOM     28  C   UNL     1       7.663  -5.277  -8.344  1.00  0.00     0.074 A 
ATOM     29  C   UNL     1       5.788 -10.532  -5.245  1.00  0.00     0.029 A 
ATOM     30  N   UNL     1       6.174  -8.419  -5.827  1.00  0.00    -0.354 N 
ATOM     31  N   UNL     1       7.239  -6.293  -7.630  1.00  0.00    -0.248 NA
ATOM     32  C   UNL     1       8.503  -5.644  -9.488  1.00  0.00     0.031 C 
ATOM     33  C   UNL     1       6.610 -10.523  -6.374  1.00  0.00     0.029 A 
ATOM     34  C   UNL     1       6.830  -9.207  -6.757  1.00  0.00     0.049 A 
ATOM     35  H   UNL     1       6.146  -7.435  -5.841  1.00  0.00     0.167 HD
ATOM     36  C   UNL     1       7.749  -7.427  -8.242  1.00  0.00     0.074 A 
ATOM     37  C   UNL     1       8.503  -6.970  -9.396  1.00  0.00     0.031 C 
ATOM     38  C   UNL     1       7.601  -8.725  -7.881  1.00  0.00     0.031 A 
BRANCH  25  39
ATOM     39  C   UNL     1       4.410  -9.734  -2.674  1.00  0.00    -0.014 A 
ATOM     40  C   UNL     1       5.357 -10.528  -2.000  1.00  0.00     0.010 A 
ATOM     41  C   UNL     1       3.042  -9.996  -2.467  1.00  0.00     0.010 A 
ATOM     42  C   UNL     1       4.952 -11.575  -1.163  1.00  0.00     0.020 A 
ATOM     43  C   UNL     1       2.631 -11.023  -1.611  1.00  0.00     0.020 A 
ATOM     44  C   UNL     1       3.589 -11.821  -0.981  1.00  0.00     0.054 A 
BRANCH  44  45
ATOM     45  S   UNL     1       3.076 -13.192   0.093  1.00  0.00     0.124 S 
ATOM     46  O   UNL     1       3.353 -14.358  -0.739  1.00  0.00    -0.237 OA
ATOM     47  O   UNL     1       3.940 -13.026   1.259  1.00  0.00    -0.237 OA
ATOM     48  O   UNL     1       1.661 -12.921   0.340  1.00  0.00    -0.744 OA
ENDBRANCH  44  45
ENDBRANCH  25  39
BRANCH  26  49
ATOM     49  C   UNL     1       7.895  -2.741  -9.019  1.00  0.00    -0.014 A 
ATOM     50  C   UNL     1       8.813  -1.797  -8.516  1.00  0.00     0.010 A 
ATOM     51  C   UNL     1       7.274  -2.504 -10.257  1.00  0.00     0.010 A 
ATOM     52  C   UNL     1       9.028  -0.593  -9.194  1.00  0.00     0.020 A 
ATOM     53  C   UNL     1       7.504  -1.310 -10.946  1.00  0.00     0.020 A 
ATOM     54  C   UNL     1       8.346  -0.345 -10.388  1.00  0.00     0.054 A 
BRANCH  54  55
ATOM     55  S   UNL     1       8.503   1.289 -11.163  1.00  0.00     0.124 S 
ATOM     56  O   UNL     1       7.745   2.132 -10.238  1.00  0.00    -0.237 OA
ATOM     57  O   UNL     1       9.951   1.503 -11.160  1.00  0.00    -0.237 OA
ATOM     58  O   UNL     1       7.905   1.108 -12.476  1.00  0.00    -0.744 OA
ENDBRANCH  54  55
ENDBRANCH  26  49
BRANCH  38  59
ATOM     59  C   UNL     1       8.307  -9.765  -8.707  1.00  0.00    -0.014 A 
ATOM     60  C   UNL     1       7.560 -10.682  -9.469  1.00  0.00     0.010 A 
ATOM     61  C   UNL     1       9.697  -9.936  -8.589  1.00  0.00     0.010 A 
ATOM     62  C   UNL     1       8.182 -11.790 -10.044  1.00  0.00     0.020 A 
ATOM     63  C   UNL     1      10.327 -11.027  -9.190  1.00  0.00     0.020 A 
ATOM     64  C   UNL     1       9.559 -11.965  -9.884  1.00  0.00     0.054 A 
BRANCH  64  65
ATOM     65  S   UNL     1      10.332 -13.458 -10.562  1.00  0.00     0.124 S 
ATOM     66  O   UNL     1       9.862 -14.491  -9.644  1.00  0.00    -0.237 OA
ATOM     67  O   UNL     1       9.780 -13.518 -11.913  1.00  0.00    -0.237 OA
ATOM     68  O   UNL     1      11.762 -13.166 -10.495  1.00  0.00    -0.744 OA
ENDBRANCH  64  65
ENDBRANCH  38  59
ENDBRANCH  12  13
ENDBRANCH   5   7
ENDBRANCH   4   5
ENDBRANCH   3   4
ENDBRANCH   2   3
ENDBRANCH   1   2
BRANCH   1  69
ATOM     69  C   UNL     1       2.998  -1.201   1.018  1.00  0.00     0.202 C 
BRANCH  69  70
ATOM     70  C   UNL     1       3.103  -2.094   2.236  1.00  0.00     0.261 C 
BRANCH  70  71
ATOM     71  O   UNL     1       3.551  -1.340   3.372  1.00  0.00    -0.463 OA
BRANCH  71  72
ATOM     72  C   UNL     1       4.876  -1.366   3.596  1.00  0.00     0.311 C 
ATOM     73  O   UNL     1       5.724  -1.740   2.785  1.00  0.00    -0.252 OA
BRANCH  72  74
ATOM     74  C   UNL     1       5.272  -0.987   4.992  1.00  0.00     0.130 C 
ATOM     75  C   UNL     1       6.140   0.287   5.130  1.00  0.00     0.006 C 
ATOM     76  C   UNL     1       4.329  -1.170   6.214  1.00  0.00     0.081 C 
ATOM     77  C   UNL     1       5.358   1.532   5.594  1.00  0.00     0.008 C 
ATOM     78  C   UNL     1       7.166  -0.042   6.233  1.00  0.00     0.008 C 
ATOM     79  C   UNL     1       5.368  -1.544   7.348  1.00  0.00     0.035 C 
ATOM     80  C   UNL     1       3.665   0.155   6.695  1.00  0.00     0.035 C 
ATOM     81  C   UNL     1       4.675   1.268   6.944  1.00  0.00    -0.008 C 
ATOM     82  C   UNL     1       6.422  -0.413   7.542  1.00  0.00    -0.008 C 
ATOM     83  C   UNL     1       5.679   0.835   8.018  1.00  0.00     0.007 C 
BRANCH  76  84
ATOM     84  N   UNL     1       3.297  -2.247   6.016  1.00  0.00    -0.222 N 
ATOM     85  N   UNL     1       3.748  -3.534   6.208  1.00  0.00    -0.175 NA
ATOM     86  C   UNL     1       2.010  -1.982   5.506  1.00  0.00     0.288 A 
ATOM     87  C   UNL     1       2.918  -4.502   6.001  1.00  0.00     0.161 A 
ATOM     88  C   UNL     1       1.119  -3.152   5.276  1.00  0.00     0.132 A 
ATOM     89  O   UNL     1       1.567  -0.861   5.253  1.00  0.00    -0.266 OA
ATOM     90  C   UNL     1       1.503  -4.399   5.565  1.00  0.00     0.082 A 
ATOM     91  Cl  UNL     1      -0.489  -2.786   4.739  1.00  0.00    -0.076 Cl
BRANCH  90  92
ATOM     92  N   UNL     1       0.748  -5.566   5.602  1.00  0.00    -0.365 N 
ATOM     93  C   UNL     1       0.271  -6.085   6.900  1.00  0.00     0.138 C 
ATOM     94  C   UNL     1       0.082  -6.187   4.432  1.00  0.00     0.138 C 
ATOM     95  C   UNL     1      -1.254  -5.896   7.019  1.00  0.00     0.138 C 
ATOM     96  C   UNL     1      -1.464  -6.227   4.556  1.00  0.00     0.138 C 
ATOM     97  N   UNL     1      -1.925  -6.587   5.909  1.00  0.00    -0.368 N 
BRANCH  97  98
ATOM     98  C   UNL     1      -2.612  -7.752   6.178  1.00  0.00     0.037 A 
ATOM     99  C   UNL     1      -2.301  -8.970   5.561  1.00  0.00     0.029 A 
ATOM    100  C   UNL     1      -3.659  -7.741   7.117  1.00  0.00     0.029 A 
ATOM    101  C   UNL     1      -3.002 -10.139   5.877  1.00  0.00     0.041 A 
ATOM    102  C   UNL     1      -4.372  -8.900   7.428  1.00  0.00     0.041 A 
ATOM    103  C   UNL     1      -4.033 -10.091   6.805  1.00  0.00     0.123 A 
ATOM    104  F   UNL     1      -4.710 -11.207   7.107  1.00  0.00    -0.207 F 
ENDBRANCH  97  98
ENDBRANCH  90  92
ENDBRANCH  76  84
ENDBRANCH  72  74
ENDBRANCH  71  72
ENDBRANCH  70  71
ENDBRANCH  69  70
ENDBRANCH   1  69
TORSDOF 20
