REMARK SMILES CC(C)Cc1cc2c(cc1Cl)C=C(C(=O)OCCOCCOC(=O)c1ccc(-c3c4nc(c(-c5ccc(S(=O)(=O)[O-])cc5)c5ccc([nH]5)c(-c5ccc(S(=O)(=O)[O-])cc5)c5nc(c(-c6ccc(S(=O)(=O)[O-])cc6)c6ccc3[nH]6)C=C5)C=C4)cc1)[C@@H](C(F)(F)F)O2
REMARK SMILES IDX 20 1 19 2 18 3 17 4 16 5 14 6 15 7 13 8 5 9 6 10 10 11 7 12
REMARK SMILES IDX 9 13 11 14 8 15 90 16 12 17 85 18 4 19 2 20 1 21 3 22 86 23
REMARK SMILES IDX 87 24 88 25 89 26 21 27 22 28 23 29 24 30 25 31 26 32 84 33
REMARK SMILES IDX 27 34 83 35 28 36 29 37 30 38 77 39 31 40 82 41 76 42 78 43
REMARK SMILES IDX 32 44 81 45 75 46 74 47 33 49 63 50 44 51 62 52 45 53 48 54
REMARK SMILES IDX 61 55 79 56 46 57 47 58 60 60 80 61 49 62 34 63 35 64 43 65
REMARK SMILES IDX 36 66 42 67 37 68 38 69 39 70 40 71 41 72 64 73 65 74 73 75
REMARK SMILES IDX 66 76 72 77 67 78 68 79 69 80 70 81 71 82 50 83 51 84 59 85
REMARK SMILES IDX 52 86 58 87 53 88 54 89 55 90 56 91 57 92
REMARK H PARENT 78 48 48 59
REMARK Flexibility Score: inf
ROOT
ATOM      1  C   UNL     1      -1.434   4.136   7.320  1.00  0.00     0.202 C 
ENDROOT
BRANCH   1   2
ATOM      2  O   UNL     1      -2.358   4.794   8.184  1.00  0.00    -0.374 OA
BRANCH   2   3
ATOM      3  C   UNL     1      -3.380   4.018   8.807  1.00  0.00     0.202 C 
BRANCH   3   4
ATOM      4  C   UNL     1      -4.559   3.563   7.941  1.00  0.00     0.261 C 
BRANCH   4   5
ATOM      5  O   UNL     1      -4.131   2.799   6.804  1.00  0.00    -0.460 OA
BRANCH   5   6
ATOM      6  C   UNL     1      -4.293   3.429   5.618  1.00  0.00     0.338 C 
ATOM      7  O   UNL     1      -4.833   4.508   5.428  1.00  0.00    -0.246 OA
BRANCH   6   8
ATOM      8  C   UNL     1      -3.584   2.691   4.556  1.00  0.00     0.087 C 
ATOM      9  C   UNL     1      -1.376   1.554   0.198  1.00  0.00    -0.025 A 
ATOM     10  C   UNL     1      -1.903   0.796   1.262  1.00  0.00     0.052 A 
ATOM     11  C   UNL     1      -1.326   2.951   0.330  1.00  0.00     0.045 A 
ATOM     12  C   UNL     1      -2.392   1.417   2.412  1.00  0.00     0.128 A 
ATOM     13  C   UNL     1      -1.800   3.569   1.487  1.00  0.00     0.032 A 
ATOM     14  Cl  UNL     1      -0.721   3.976  -0.923  1.00  0.00    -0.084 Cl
ATOM     15  C   UNL     1      -2.351   2.805   2.518  1.00  0.00     0.019 A 
ATOM     16  O   UNL     1      -2.884   0.599   3.388  1.00  0.00    -0.475 OA
ATOM     17  C   UNL     1      -2.943   3.458   3.666  1.00  0.00     0.027 C 
ATOM     18  C   UNL     1      -3.636   1.189   4.490  1.00  0.00     0.316 C 
BRANCH   9  19
ATOM     19  C   UNL     1      -0.876   0.833  -1.034  1.00  0.00     0.040 C 
BRANCH  19  20
ATOM     20  C   UNL     1       0.660   0.736  -1.115  1.00  0.00    -0.013 C 
ATOM     21  C   UNL     1       1.244  -0.107   0.020  1.00  0.00     0.008 C 
ATOM     22  C   UNL     1       1.070   0.149  -2.466  1.00  0.00     0.008 C 
ENDBRANCH  19  20
ENDBRANCH   9  19
BRANCH  18  23
ATOM     23  C   UNL     1      -5.075   0.656   4.444  1.00  0.00     0.430 C 
ATOM     24  F   UNL     1      -5.094  -0.693   4.325  1.00  0.00    -0.167 F 
ATOM     25  F   UNL     1      -5.758   0.961   5.571  1.00  0.00    -0.167 F 
ATOM     26  F   UNL     1      -5.765   1.168   3.399  1.00  0.00    -0.167 F 
ENDBRANCH  18  23
ENDBRANCH   6   8
ENDBRANCH   5   6
ENDBRANCH   4   5
ENDBRANCH   3   4
ENDBRANCH   2   3
ENDBRANCH   1   2
BRANCH   1  27
ATOM     27  C   UNL     1      -0.374   3.216   7.938  1.00  0.00     0.261 C 
BRANCH  27  28
ATOM     28  O   UNL     1      -0.932   2.088   8.628  1.00  0.00    -0.460 OA
BRANCH  28  29
ATOM     29  C   UNL     1      -0.873   2.165   9.981  1.00  0.00     0.338 C 
ATOM     30  O   UNL     1      -0.398   3.076  10.645  1.00  0.00    -0.246 OA
BRANCH  29  31
ATOM     31  C   UNL     1      -1.649   1.059  10.573  1.00  0.00     0.060 A 
ATOM     32  C   UNL     1      -1.442  -0.262  10.177  1.00  0.00     0.016 A 
ATOM     33  C   UNL     1      -2.579   1.364  11.575  1.00  0.00     0.016 A 
ATOM     34  C   UNL     1      -2.157  -1.283  10.807  1.00  0.00     0.010 A 
ATOM     35  C   UNL     1      -3.284   0.341  12.211  1.00  0.00     0.010 A 
ATOM     36  C   UNL     1      -3.067  -0.993  11.842  1.00  0.00    -0.014 A 
BRANCH  36  37
ATOM     37  C   UNL     1      -3.699  -2.104  12.599  1.00  0.00     0.031 A 
ATOM     38  C   UNL     1      -5.155  -2.427  12.445  1.00  0.00     0.074 A 
ATOM     39  C   UNL     1      -2.927  -2.841  13.423  1.00  0.00     0.049 A 
ATOM     40  N   UNL     1      -5.819  -3.448  12.922  1.00  0.00    -0.248 NA
ATOM     41  C   UNL     1      -5.976  -1.489  11.663  1.00  0.00     0.031 C 
ATOM     42  C   UNL     1      -1.507  -2.592  13.679  1.00  0.00     0.029 A 
ATOM     43  N   UNL     1      -3.210  -3.957  14.171  1.00  0.00    -0.354 N 
ATOM     44  C   UNL     1      -7.126  -3.295  12.478  1.00  0.00     0.074 A 
ATOM     45  C   UNL     1      -7.177  -2.048  11.745  1.00  0.00     0.031 C 
ATOM     46  C   UNL     1      -1.030  -3.560  14.475  1.00  0.00     0.029 A 
ATOM     47  C   UNL     1      -2.113  -4.478  14.819  1.00  0.00     0.049 A 
ATOM     48  H   UNL     1      -4.111  -4.347  14.238  1.00  0.00     0.167 HD
ATOM     49  C   UNL     1      -8.175  -4.135  12.645  1.00  0.00     0.031 A 
ATOM     50  C   UNL     1      -1.980  -5.580  15.585  1.00  0.00     0.031 A 
ATOM     51  C   UNL     1      -8.110  -5.366  13.393  1.00  0.00     0.049 A 
ATOM     52  C   UNL     1      -3.169  -6.482  15.780  1.00  0.00     0.074 A 
ATOM     53  C   UNL     1      -9.115  -6.297  13.592  1.00  0.00     0.029 A 
ATOM     54  N   UNL     1      -6.992  -5.839  14.064  1.00  0.00    -0.354 N 
ATOM     55  N   UNL     1      -4.378  -6.364  15.284  1.00  0.00    -0.248 NA
ATOM     56  C   UNL     1      -2.975  -7.676  16.614  1.00  0.00     0.031 C 
ATOM     57  C   UNL     1      -8.631  -7.287  14.447  1.00  0.00     0.029 A 
ATOM     58  C   UNL     1      -7.293  -7.031  14.701  1.00  0.00     0.049 A 
ATOM     59  H   UNL     1      -6.114  -5.393  14.085  1.00  0.00     0.167 HD
ATOM     60  C   UNL     1      -5.077  -7.487  15.715  1.00  0.00     0.074 A 
ATOM     61  C   UNL     1      -4.154  -8.277  16.503  1.00  0.00     0.031 C 
ATOM     62  C   UNL     1      -6.367  -7.827  15.473  1.00  0.00     0.031 A 
BRANCH  49  63
ATOM     63  C   UNL     1      -9.488  -3.784  11.989  1.00  0.00    -0.014 A 
ATOM     64  C   UNL     1     -10.632  -3.554  12.778  1.00  0.00     0.010 A 
ATOM     65  C   UNL     1      -9.626  -3.831  10.589  1.00  0.00     0.010 A 
ATOM     66  C   UNL     1     -11.890  -3.423  12.185  1.00  0.00     0.020 A 
ATOM     67  C   UNL     1     -10.878  -3.666   9.990  1.00  0.00     0.020 A 
ATOM     68  C   UNL     1     -12.006  -3.491  10.794  1.00  0.00     0.054 A 
BRANCH  68  69
ATOM     69  S   UNL     1     -13.655  -3.370  10.047  1.00  0.00     0.124 S 
ATOM     70  O   UNL     1     -14.253  -4.652  10.409  1.00  0.00    -0.237 OA
ATOM     71  O   UNL     1     -14.219  -2.199  10.713  1.00  0.00    -0.237 OA
ATOM     72  O   UNL     1     -13.374  -3.192   8.624  1.00  0.00    -0.744 OA
ENDBRANCH  68  69
ENDBRANCH  49  63
BRANCH  50  73
ATOM     73  C   UNL     1      -0.642  -5.915  16.151  1.00  0.00    -0.014 A 
ATOM     74  C   UNL     1      -0.036  -5.066  17.098  1.00  0.00     0.010 A 
ATOM     75  C   UNL     1       0.075  -7.030  15.683  1.00  0.00     0.010 A 
ATOM     76  C   UNL     1       1.279  -5.289  17.515  1.00  0.00     0.020 A 
ATOM     77  C   UNL     1       1.378  -7.279  16.127  1.00  0.00     0.020 A 
ATOM     78  C   UNL     1       1.982  -6.388  17.016  1.00  0.00     0.054 A 
BRANCH  78  79
ATOM     79  S   UNL     1       3.708  -6.617  17.524  1.00  0.00     0.124 S 
ATOM     80  O   UNL     1       4.380  -5.544  16.795  1.00  0.00    -0.237 OA
ATOM     81  O   UNL     1       3.638  -6.445  18.973  1.00  0.00    -0.237 OA
ATOM     82  O   UNL     1       4.023  -7.970  17.074  1.00  0.00    -0.744 OA
ENDBRANCH  78  79
ENDBRANCH  50  73
BRANCH  62  83
ATOM     83  C   UNL     1      -6.890  -9.129  16.034  1.00  0.00    -0.014 A 
ATOM     84  C   UNL     1      -7.321 -10.137  15.150  1.00  0.00     0.010 A 
ATOM     85  C   UNL     1      -7.102  -9.298  17.413  1.00  0.00     0.010 A 
ATOM     86  C   UNL     1      -7.998 -11.262  15.626  1.00  0.00     0.020 A 
ATOM     87  C   UNL     1      -7.746 -10.441  17.898  1.00  0.00     0.020 A 
ATOM     88  C   UNL     1      -8.218 -11.401  16.998  1.00  0.00     0.054 A 
BRANCH  88  89
ATOM     89  S   UNL     1      -9.149 -12.840  17.591  1.00  0.00     0.124 S 
ATOM     90  O   UNL     1     -10.513 -12.512  17.186  1.00  0.00    -0.237 OA
ATOM     91  O   UNL     1      -8.525 -13.945  16.867  1.00  0.00    -0.237 OA
ATOM     92  O   UNL     1      -8.909 -12.835  19.032  1.00  0.00    -0.744 OA
ENDBRANCH  88  89
ENDBRANCH  62  83
ENDBRANCH  36  37
ENDBRANCH  29  31
ENDBRANCH  28  29
ENDBRANCH  27  28
ENDBRANCH   1  27
TORSDOF 20
