REMARK SMILES O=C(CNC(=O)c1ccco1)Nc1cccc(C(=O)OCCOCCOC(=O)c2ccc(-c3c4nc(c(-c5ccc(S(=O)(=O)[O-])cc5)c5ccc([nH]5)c(-c5ccc(S(=O)(=O)[O-])cc5)c5nc(c(-c6ccc(S(=O)(=O)[O-])cc6)c6ccc3[nH]6)C=C5)C=C4)cc2)c1
REMARK SMILES IDX 22 1 21 2 20 3 18 4 19 5 17 6 13 7 14 8 89 9 15 10 16 11
REMARK SMILES IDX 12 12 1 13 2 14 3 16 4 17 5 18 6 20 7 21 8 22 11 23 9 24
REMARK SMILES IDX 10 25 23 26 24 27 25 28 26 29 27 30 28 31 29 32 30 33 88 34
REMARK SMILES IDX 31 35 87 36 32 37 33 38 34 39 81 40 35 41 86 42 80 43 82 44
REMARK SMILES IDX 36 45 85 46 79 47 78 48 37 50 67 51 48 52 66 53 49 54 52 55
REMARK SMILES IDX 65 56 83 57 50 58 51 59 64 61 84 62 53 63 38 64 39 65 47 66
REMARK SMILES IDX 40 67 46 68 41 69 42 70 43 71 44 72 45 73 68 74 69 75 77 76
REMARK SMILES IDX 70 77 76 78 71 79 72 80 73 81 74 82 75 83 54 84 55 85 63 86
REMARK SMILES IDX 56 87 62 88 57 89 58 90 59 91 60 92 61 93
REMARK H PARENT 12 15 4 19 82 49 52 60
REMARK Flexibility Score: inf
ROOT
ATOM      1  C   UNL     1      -2.058  -3.630   4.602  1.00  0.00     0.202 C 
ENDROOT
BRANCH   1   2
ATOM      2  C   UNL     1      -2.513  -2.401   3.807  1.00  0.00     0.261 C 
BRANCH   2   3
ATOM      3  O   UNL     1      -1.394  -1.607   3.384  1.00  0.00    -0.460 OA
BRANCH   3   4
ATOM      4  C   UNL     1      -1.233  -0.424   4.024  1.00  0.00     0.338 C 
ATOM      5  O   UNL     1      -1.984   0.075   4.849  1.00  0.00    -0.246 OA
BRANCH   4   6
ATOM      6  C   UNL     1       0.115   0.115   3.731  1.00  0.00     0.062 A 
ATOM      7  C   UNL     1       1.982   0.484   2.225  1.00  0.00     0.042 A 
ATOM      8  C   UNL     1       2.690   1.077   3.280  1.00  0.00     0.026 A 
ATOM      9  C   UNL     1       0.706  -0.030   2.471  1.00  0.00     0.041 A 
ATOM     10  C   UNL     1       2.103   1.217   4.542  1.00  0.00     0.003 A 
ATOM     11  C   UNL     1       0.809   0.752   4.763  1.00  0.00     0.016 A 
BRANCH   7  12
ATOM     12  N   UNL     1       2.599   0.442   0.956  1.00  0.00    -0.325 N 
ATOM     13  O   UNL     1       0.791  -0.161  -0.384  1.00  0.00    -0.273 OA
ATOM     14  C   UNL     1       1.977   0.123  -0.243  1.00  0.00     0.243 C 
ATOM     15  H   UNL     1       3.559   0.657   0.918  1.00  0.00     0.169 HD
BRANCH  14  16
ATOM     16  C   UNL     1       2.941  -0.030  -1.418  1.00  0.00     0.216 C 
BRANCH  16  17
ATOM     17  N   UNL     1       3.975   0.995  -1.439  1.00  0.00    -0.340 N 
ATOM     18  C   UNL     1       5.342   0.860  -1.468  1.00  0.00     0.287 C 
ATOM     19  H   UNL     1       3.646   1.923  -1.431  1.00  0.00     0.164 HD
ATOM     20  O   UNL     1       6.005   1.888  -1.330  1.00  0.00    -0.266 OA
BRANCH  18  21
ATOM     21  C   UNL     1       5.923  -0.457  -1.608  1.00  0.00     0.191 A 
ATOM     22  C   UNL     1       5.619  -1.553  -2.397  1.00  0.00     0.056 A 
ATOM     23  O   UNL     1       7.011  -0.756  -0.831  1.00  0.00    -0.459 OA
ATOM     24  C   UNL     1       6.524  -2.581  -2.041  1.00  0.00     0.043 A 
ATOM     25  C   UNL     1       7.356  -2.042  -1.091  1.00  0.00     0.196 A 
ENDBRANCH  18  21
ENDBRANCH  16  17
ENDBRANCH  14  16
ENDBRANCH   7  12
ENDBRANCH   4   6
ENDBRANCH   3   4
ENDBRANCH   2   3
ENDBRANCH   1   2
BRANCH   1  26
ATOM     26  O   UNL     1      -1.399  -3.380   5.844  1.00  0.00    -0.374 OA
BRANCH  26  27
ATOM     27  C   UNL     1      -0.013  -3.041   5.786  1.00  0.00     0.202 C 
BRANCH  27  28
ATOM     28  C   UNL     1       0.979  -4.195   5.599  1.00  0.00     0.261 C 
BRANCH  28  29
ATOM     29  O   UNL     1       0.868  -4.811   4.306  1.00  0.00    -0.460 OA
BRANCH  29  30
ATOM     30  C   UNL     1       0.264  -6.023   4.301  1.00  0.00     0.338 C 
ATOM     31  O   UNL     1      -0.143  -6.652   5.268  1.00  0.00    -0.246 OA
BRANCH  30  32
ATOM     32  C   UNL     1      -0.005  -6.431   2.910  1.00  0.00     0.060 A 
ATOM     33  C   UNL     1      -1.317  -6.784   2.568  1.00  0.00     0.016 A 
ATOM     34  C   UNL     1       1.023  -6.515   1.970  1.00  0.00     0.016 A 
ATOM     35  C   UNL     1      -1.601  -7.258   1.288  1.00  0.00     0.010 A 
ATOM     36  C   UNL     1       0.738  -6.997   0.691  1.00  0.00     0.010 A 
ATOM     37  C   UNL     1      -0.568  -7.397   0.352  1.00  0.00    -0.014 A 
BRANCH  37  38
ATOM     38  C   UNL     1      -0.807  -8.076  -0.943  1.00  0.00     0.031 A 
ATOM     39  C   UNL     1      -0.338  -9.494  -1.118  1.00  0.00     0.074 A 
ATOM     40  C   UNL     1      -1.411  -7.432  -1.957  1.00  0.00     0.049 A 
ATOM     41  N   UNL     1      -0.334 -10.240  -2.192  1.00  0.00    -0.248 NA
ATOM     42  C   UNL     1       0.207 -10.154   0.079  1.00  0.00     0.031 C 
ATOM     43  C   UNL     1      -1.963  -6.079  -1.892  1.00  0.00     0.029 A 
ATOM     44  N   UNL     1      -1.649  -7.832  -3.248  1.00  0.00    -0.354 N 
ATOM     45  C   UNL     1       0.226 -11.452  -1.806  1.00  0.00     0.074 A 
ATOM     46  C   UNL     1       0.580 -11.328  -0.408  1.00  0.00     0.031 C 
ATOM     47  C   UNL     1      -2.474  -5.760  -3.094  1.00  0.00     0.029 A 
ATOM     48  C   UNL     1      -2.240  -6.864  -4.023  1.00  0.00     0.049 A 
ATOM     49  H   UNL     1      -1.418  -8.727  -3.586  1.00  0.00     0.167 HD
ATOM     50  C   UNL     1       0.425 -12.569  -2.547  1.00  0.00     0.031 A 
ATOM     51  C   UNL     1      -2.535  -6.860  -5.338  1.00  0.00     0.031 A 
ATOM     52  C   UNL     1       0.095 -12.675  -3.944  1.00  0.00     0.049 A 
ATOM     53  C   UNL     1      -2.207  -8.072  -6.170  1.00  0.00     0.074 A 
ATOM     54  C   UNL     1       0.258 -13.758  -4.789  1.00  0.00     0.029 A 
ATOM     55  N   UNL     1      -0.459 -11.655  -4.705  1.00  0.00    -0.354 N 
ATOM     56  N   UNL     1      -1.676  -9.213  -5.795  1.00  0.00    -0.248 NA
ATOM     57  C   UNL     1      -2.519  -7.997  -7.604  1.00  0.00     0.031 C 
ATOM     58  C   UNL     1      -0.140 -13.374  -6.074  1.00  0.00     0.029 A 
ATOM     59  C   UNL     1      -0.619 -12.074  -6.015  1.00  0.00     0.049 A 
ATOM     60  H   UNL     1      -0.703 -10.764  -4.364  1.00  0.00     0.167 HD
ATOM     61  C   UNL     1      -1.630 -10.005  -6.938  1.00  0.00     0.074 A 
ATOM     62  C   UNL     1      -2.187  -9.213  -8.016  1.00  0.00     0.031 C 
ATOM     63  C   UNL     1      -1.178 -11.276  -7.079  1.00  0.00     0.031 A 
BRANCH  50  64
ATOM     64  C   UNL     1       1.075 -13.745  -1.863  1.00  0.00    -0.014 A 
ATOM     65  C   UNL     1       0.408 -14.465  -0.855  1.00  0.00     0.010 A 
ATOM     66  C   UNL     1       2.374 -14.136  -2.234  1.00  0.00     0.010 A 
ATOM     67  C   UNL     1       1.050 -15.513  -0.190  1.00  0.00     0.020 A 
ATOM     68  C   UNL     1       3.008 -15.205  -1.595  1.00  0.00     0.020 A 
ATOM     69  C   UNL     1       2.351 -15.870  -0.559  1.00  0.00     0.054 A 
BRANCH  69  70
ATOM     70  S   UNL     1       3.168 -17.223   0.332  1.00  0.00     0.124 S 
ATOM     71  O   UNL     1       3.446 -16.604   1.626  1.00  0.00    -0.237 OA
ATOM     72  O   UNL     1       2.144 -18.265   0.342  1.00  0.00    -0.237 OA
ATOM     73  O   UNL     1       4.344 -17.515  -0.483  1.00  0.00    -0.744 OA
ENDBRANCH  69  70
ENDBRANCH  50  64
BRANCH  51  74
ATOM     74  C   UNL     1      -3.179  -5.666  -5.951  1.00  0.00    -0.014 A 
ATOM     75  C   UNL     1      -4.510  -5.730  -6.399  1.00  0.00     0.010 A 
ATOM     76  C   UNL     1      -2.472  -4.456  -6.080  1.00  0.00     0.010 A 
ATOM     77  C   UNL     1      -5.119  -4.611  -6.974  1.00  0.00     0.020 A 
ATOM     78  C   UNL     1      -3.087  -3.327  -6.628  1.00  0.00     0.020 A 
ATOM     79  C   UNL     1      -4.405  -3.414  -7.079  1.00  0.00     0.054 A 
BRANCH  79  80
ATOM     80  S   UNL     1      -5.238  -1.961  -7.775  1.00  0.00     0.124 S 
ATOM     81  O   UNL     1      -5.349  -2.320  -9.185  1.00  0.00    -0.237 OA
ATOM     82  O   UNL     1      -6.493  -1.932  -7.028  1.00  0.00    -0.237 OA
ATOM     83  O   UNL     1      -4.318  -0.865  -7.478  1.00  0.00    -0.744 OA
ENDBRANCH  79  80
ENDBRANCH  51  74
BRANCH  63  84
ATOM     84  C   UNL     1      -1.312 -11.918  -8.437  1.00  0.00    -0.014 A 
ATOM     85  C   UNL     1      -0.505 -11.528  -9.520  1.00  0.00     0.010 A 
ATOM     86  C   UNL     1      -2.222 -12.979  -8.608  1.00  0.00     0.010 A 
ATOM     87  C   UNL     1      -0.624 -12.170 -10.756  1.00  0.00     0.020 A 
ATOM     88  C   UNL     1      -2.322 -13.643  -9.833  1.00  0.00     0.020 A 
ATOM     89  C   UNL     1      -1.530 -13.226 -10.904  1.00  0.00     0.054 A 
BRANCH  89  90
ATOM     90  S   UNL     1      -1.625 -14.078 -12.503  1.00  0.00     0.124 S 
ATOM     91  O   UNL     1      -2.289 -13.082 -13.340  1.00  0.00    -0.237 OA
ATOM     92  O   UNL     1      -0.219 -14.326 -12.816  1.00  0.00    -0.237 OA
ATOM     93  O   UNL     1      -2.413 -15.274 -12.213  1.00  0.00    -0.744 OA
ENDBRANCH  89  90
ENDBRANCH  63  84
ENDBRANCH  37  38
ENDBRANCH  30  32
ENDBRANCH  29  30
ENDBRANCH  28  29
ENDBRANCH  27  28
ENDBRANCH  26  27
ENDBRANCH   1  26
TORSDOF 21
