REMARK SMILES COc1ccccc1-c1ccc(C(=O)OCCOCCOC(=O)c2ccc(-c3c4nc(c(-c5ccc(S(=O)(=O)[O-])cc5)c5ccc([nH]5)c(-c5ccc(S(=O)(=O)[O-])cc5)c5nc(c(-c6ccc(S(=O)(=O)[O-])cc6)c6ccc3[nH]6)C=C5)C=C4)cc2)c(O)c1
REMARK SMILES IDX 19 1 18 2 17 3 16 4 15 5 13 6 14 7 12 8 9 9 10 10 86 11
REMARK SMILES IDX 11 12 84 13 8 14 3 15 4 16 5 17 7 18 6 19 2 20 1 21 85 22
REMARK SMILES IDX 20 24 21 25 22 26 23 27 24 28 25 29 83 30 26 31 82 32 27 33
REMARK SMILES IDX 28 34 29 35 76 36 30 37 81 38 75 39 77 40 31 41 80 42 74 43
REMARK SMILES IDX 73 44 32 46 62 47 43 48 61 49 44 50 47 51 60 52 78 53 45 54
REMARK SMILES IDX 46 55 59 57 79 58 48 59 33 60 34 61 42 62 35 63 41 64 36 65
REMARK SMILES IDX 37 66 38 67 39 68 40 69 63 70 64 71 72 72 65 73 71 74 66 75
REMARK SMILES IDX 67 76 68 77 69 78 70 79 49 80 50 81 58 82 51 83 57 84 52 85
REMARK SMILES IDX 53 86 54 87 55 88 56 89
REMARK H PARENT 85 23 77 45 47 56
REMARK Flexibility Score: inf
ROOT
ATOM      1  C   UNL     1       8.077  -1.810  -0.023  1.00  0.00     0.202 C 
ENDROOT
BRANCH   1   2
ATOM      2  O   UNL     1       8.310  -3.030  -0.728  1.00  0.00    -0.374 OA
BRANCH   2   3
ATOM      3  C   UNL     1       7.929  -3.078  -2.105  1.00  0.00     0.202 C 
BRANCH   3   4
ATOM      4  C   UNL     1       6.436  -3.243  -2.390  1.00  0.00     0.261 C 
BRANCH   4   5
ATOM      5  O   UNL     1       5.710  -2.108  -1.901  1.00  0.00    -0.460 OA
BRANCH   5   6
ATOM      6  C   UNL     1       4.769  -2.385  -0.974  1.00  0.00     0.341 C 
ATOM      7  O   UNL     1       4.391  -3.497  -0.629  1.00  0.00    -0.246 OA
BRANCH   6   8
ATOM      8  C   UNL     1       4.353  -1.170  -0.239  1.00  0.00     0.101 A 
ATOM      9  C   UNL     1       3.160   0.871   1.274  1.00  0.00    -0.011 A 
ATOM     10  C   UNL     1       3.540  -0.333   1.885  1.00  0.00     0.010 A 
ATOM     11  C   UNL     1       3.522   1.095  -0.067  1.00  0.00     0.056 A 
ATOM     12  C   UNL     1       4.123  -1.347   1.133  1.00  0.00     0.020 A 
ATOM     13  C   UNL     1       4.106   0.074  -0.825  1.00  0.00     0.130 A 
BRANCH   9  14
ATOM     14  C   UNL     1       2.223   1.758   1.980  1.00  0.00     0.024 A 
ATOM     15  C   UNL     1       0.907   1.961   1.511  1.00  0.00     0.126 A 
ATOM     16  C   UNL     1      -0.006   2.727   2.240  1.00  0.00     0.047 A 
ATOM     17  C   UNL     1       0.365   3.280   3.463  1.00  0.00     0.004 A 
ATOM     18  C   UNL     1       2.581   2.344   3.207  1.00  0.00     0.012 A 
ATOM     19  C   UNL     1       1.660   3.096   3.943  1.00  0.00     0.001 A 
BRANCH  15  20
ATOM     20  O   UNL     1       0.458   1.495   0.298  1.00  0.00    -0.496 OA
ATOM     21  C   UNL     1       0.264   0.079   0.280  1.00  0.00     0.278 C 
ENDBRANCH  15  20
ENDBRANCH   9  14
BRANCH  13  22
ATOM     22  O   UNL     1       4.349   0.283  -2.151  1.00  0.00    -0.507 OA
ATOM     23  H   UNL     1       4.740  -0.394  -2.668  1.00  0.00     0.293 HD
ENDBRANCH  13  22
ENDBRANCH   6   8
ENDBRANCH   5   6
ENDBRANCH   4   5
ENDBRANCH   3   4
ENDBRANCH   2   3
ENDBRANCH   1   2
BRANCH   1  24
ATOM     24  C   UNL     1       9.044  -0.651  -0.294  1.00  0.00     0.261 C 
BRANCH  24  25
ATOM     25  O   UNL     1       8.924  -0.130  -1.629  1.00  0.00    -0.460 OA
BRANCH  25  26
ATOM     26  C   UNL     1       9.968  -0.409  -2.446  1.00  0.00     0.338 C 
ATOM     27  O   UNL     1      11.001  -0.993  -2.149  1.00  0.00    -0.246 OA
BRANCH  26  28
ATOM     28  C   UNL     1       9.623  -0.066  -3.837  1.00  0.00     0.060 A 
ATOM     29  C   UNL     1       9.766  -1.065  -4.809  1.00  0.00     0.016 A 
ATOM     30  C   UNL     1       9.233   1.225  -4.198  1.00  0.00     0.016 A 
ATOM     31  C   UNL     1       9.559  -0.766  -6.154  1.00  0.00     0.010 A 
ATOM     32  C   UNL     1       9.038   1.526  -5.550  1.00  0.00     0.010 A 
ATOM     33  C   UNL     1       9.230   0.540  -6.536  1.00  0.00    -0.014 A 
BRANCH  33  34
ATOM     34  C   UNL     1       9.221   0.910  -7.971  1.00  0.00     0.031 A 
ATOM     35  C   UNL     1      10.419   1.611  -8.552  1.00  0.00     0.074 A 
ATOM     36  C   UNL     1       8.165   0.614  -8.750  1.00  0.00     0.049 A 
ATOM     37  N   UNL     1      10.603   2.069  -9.762  1.00  0.00    -0.248 NA
ATOM     38  C   UNL     1      11.559   1.824  -7.645  1.00  0.00     0.031 C 
ATOM     39  C   UNL     1       6.966  -0.102  -8.315  1.00  0.00     0.029 A 
ATOM     40  N   UNL     1       7.931   0.889 -10.074  1.00  0.00    -0.354 N 
ATOM     41  C   UNL     1      11.873   2.635  -9.762  1.00  0.00     0.074 A 
ATOM     42  C   UNL     1      12.404   2.484  -8.425  1.00  0.00     0.031 C 
ATOM     43  C   UNL     1       6.117  -0.200  -9.353  1.00  0.00     0.029 A 
ATOM     44  C   UNL     1       6.696   0.475 -10.513  1.00  0.00     0.049 A 
ATOM     45  H   UNL     1       8.586   1.341 -10.655  1.00  0.00     0.167 HD
ATOM     46  C   UNL     1      12.537   3.225 -10.784  1.00  0.00     0.031 A 
ATOM     47  C   UNL     1       6.093   0.642 -11.706  1.00  0.00     0.031 A 
ATOM     48  C   UNL     1      12.000   3.385 -12.109  1.00  0.00     0.049 A 
ATOM     49  C   UNL     1       6.823   1.365 -12.808  1.00  0.00     0.074 A 
ATOM     50  C   UNL     1      12.600   3.959 -13.217  1.00  0.00     0.029 A 
ATOM     51  N   UNL     1      10.735   2.978 -12.505  1.00  0.00    -0.354 N 
ATOM     52  N   UNL     1       8.030   1.879 -12.798  1.00  0.00    -0.248 NA
ATOM     53  C   UNL     1       6.111   1.524 -14.084  1.00  0.00     0.031 C 
ATOM     54  C   UNL     1      11.677   3.946 -14.268  1.00  0.00     0.029 A 
ATOM     55  C   UNL     1      10.525   3.310 -13.833  1.00  0.00     0.049 A 
ATOM     56  H   UNL     1      10.083   2.521 -11.927  1.00  0.00     0.167 HD
ATOM     57  C   UNL     1       8.233   2.395 -14.074  1.00  0.00     0.074 A 
ATOM     58  C   UNL     1       7.029   2.124 -14.831  1.00  0.00     0.031 C 
ATOM     59  C   UNL     1       9.321   3.032 -14.574  1.00  0.00     0.031 A 
BRANCH  46  60
ATOM     60  C   UNL     1      13.909   3.776 -10.495  1.00  0.00    -0.014 A 
ATOM     61  C   UNL     1      15.007   2.924 -10.283  1.00  0.00     0.010 A 
ATOM     62  C   UNL     1      14.107   5.168 -10.470  1.00  0.00     0.010 A 
ATOM     63  C   UNL     1      16.271   3.455 -10.011  1.00  0.00     0.020 A 
ATOM     64  C   UNL     1      15.375   5.703 -10.225  1.00  0.00     0.020 A 
ATOM     65  C   UNL     1      16.446   4.842  -9.980  1.00  0.00     0.054 A 
BRANCH  65  66
ATOM     66  S   UNL     1      18.101   5.505  -9.643  1.00  0.00     0.124 S 
ATOM     67  O   UNL     1      18.246   5.239  -8.214  1.00  0.00    -0.237 OA
ATOM     68  O   UNL     1      18.952   4.705 -10.520  1.00  0.00    -0.237 OA
ATOM     69  O   UNL     1      17.990   6.916 -10.006  1.00  0.00    -0.744 OA
ENDBRANCH  65  66
ENDBRANCH  46  60
BRANCH  47  70
ATOM     70  C   UNL     1       4.710   0.132 -11.915  1.00  0.00    -0.014 A 
ATOM     71  C   UNL     1       4.469  -0.962 -12.765  1.00  0.00     0.010 A 
ATOM     72  C   UNL     1       3.624   0.740 -11.258  1.00  0.00     0.010 A 
ATOM     73  C   UNL     1       3.167  -1.429 -12.965  1.00  0.00     0.020 A 
ATOM     74  C   UNL     1       2.324   0.259 -11.435  1.00  0.00     0.020 A 
ATOM     75  C   UNL     1       2.102  -0.817 -12.296  1.00  0.00     0.054 A 
BRANCH  75  76
ATOM     76  S   UNL     1       0.427  -1.473 -12.529  1.00  0.00     0.124 S 
ATOM     77  O   UNL     1       0.101  -1.003 -13.871  1.00  0.00    -0.237 OA
ATOM     78  O   UNL     1       0.630  -2.913 -12.393  1.00  0.00    -0.237 OA
ATOM     79  O   UNL     1      -0.335  -0.855 -11.446  1.00  0.00    -0.744 OA
ENDBRANCH  75  76
ENDBRANCH  47  70
BRANCH  59  80
ATOM     80  C   UNL     1       9.282   3.446 -16.022  1.00  0.00    -0.014 A 
ATOM     81  C   UNL     1       8.497   4.529 -16.453  1.00  0.00     0.010 A 
ATOM     82  C   UNL     1      10.098   2.777 -16.954  1.00  0.00     0.010 A 
ATOM     83  C   UNL     1       8.508   4.919 -17.795  1.00  0.00     0.020 A 
ATOM     84  C   UNL     1      10.132   3.180 -18.291  1.00  0.00     0.020 A 
ATOM     85  C   UNL     1       9.326   4.242 -18.706  1.00  0.00     0.054 A 
BRANCH  85  86
ATOM     86  S   UNL     1       9.361   4.799 -20.432  1.00  0.00     0.124 S 
ATOM     87  O   UNL     1       8.080   4.311 -20.935  1.00  0.00    -0.237 OA
ATOM     88  O   UNL     1       9.473   6.250 -20.300  1.00  0.00    -0.237 OA
ATOM     89  O   UNL     1      10.540   4.138 -20.986  1.00  0.00    -0.744 OA
ENDBRANCH  85  86
ENDBRANCH  59  80
ENDBRANCH  33  34
ENDBRANCH  26  28
ENDBRANCH  25  26
ENDBRANCH  24  25
ENDBRANCH   1  24
TORSDOF 20
