REMARK SMILES O=C(OCCOCCOC(=O)c1cc(S(=O)(=O)Nc2cccc(Cl)c2)ccc1O)c1ccc(-c2c3nc(c(-c4ccc(S(=O)(=O)[O-])cc4)c4ccc([nH]4)c(-c4ccc(S(=O)(=O)[O-])cc4)c4nc(c(-c5ccc(S(=O)(=O)[O-])cc5)c5ccc2[nH]5)C=C4)C=C3)cc1
REMARK SMILES IDX 6 1 5 2 4 3 3 4 2 5 1 6 30 7 31 8 89 9 32 10 88 11 33 12
REMARK SMILES IDX 34 13 35 14 82 15 36 16 87 17 81 18 83 19 37 20 86 21 80 22
REMARK SMILES IDX 79 23 38 25 68 26 49 27 67 28 50 29 53 30 66 31 84 32 51 33
REMARK SMILES IDX 52 34 65 36 85 37 54 38 39 39 40 40 48 41 41 42 47 43 42 44
REMARK SMILES IDX 43 45 44 46 45 47 46 48 69 49 70 50 78 51 71 52 77 53 72 54
REMARK SMILES IDX 73 55 74 56 75 57 76 58 55 59 56 60 64 61 57 62 63 63 58 64
REMARK SMILES IDX 59 65 60 66 61 67 62 68 7 69 8 70 9 71 10 72 11 73 12 74
REMARK SMILES IDX 13 75 28 76 14 77 27 78 26 79 29 80 15 82 16 83 17 84 18 85
REMARK SMILES IDX 19 87 20 88 25 89 21 90 23 91 22 92 24 93
REMARK H PARENT 83 24 53 35 29 81 18 86
REMARK Flexibility Score: inf
ROOT
ATOM      1  O   UNL     1       4.270  -0.697   1.587  1.00  0.00    -0.374 OA
ENDROOT
BRANCH   1   2
ATOM      2  C   UNL     1       4.440   0.719   1.593  1.00  0.00     0.202 C 
BRANCH   2   3
ATOM      3  C   UNL     1       4.141   1.412   0.260  1.00  0.00     0.261 C 
BRANCH   3   4
ATOM      4  O   UNL     1       2.760   1.223  -0.096  1.00  0.00    -0.460 OA
BRANCH   4   5
ATOM      5  C   UNL     1       2.258   0.539  -1.151  1.00  0.00     0.338 C 
ATOM      6  O   UNL     1       1.067   0.679  -1.426  1.00  0.00    -0.246 OA
BRANCH   5   7
ATOM      7  C   UNL     1       3.064  -0.414  -1.974  1.00  0.00     0.060 A 
ATOM      8  C   UNL     1       4.205  -1.081  -1.523  1.00  0.00     0.016 A 
ATOM      9  C   UNL     1       2.564  -0.751  -3.243  1.00  0.00     0.016 A 
ATOM     10  C   UNL     1       4.854  -2.027  -2.302  1.00  0.00     0.010 A 
ATOM     11  C   UNL     1       3.186  -1.734  -4.020  1.00  0.00     0.010 A 
ATOM     12  C   UNL     1       4.332  -2.377  -3.542  1.00  0.00    -0.014 A 
BRANCH  12  13
ATOM     13  C   UNL     1       5.021  -3.423  -4.314  1.00  0.00     0.031 A 
ATOM     14  C   UNL     1       5.893  -3.019  -5.458  1.00  0.00     0.074 A 
ATOM     15  C   UNL     1       4.914  -4.704  -3.912  1.00  0.00     0.049 A 
ATOM     16  N   UNL     1       6.535  -3.775  -6.304  1.00  0.00    -0.248 NA
ATOM     17  C   UNL     1       6.077  -1.573  -5.673  1.00  0.00     0.031 C 
ATOM     18  C   UNL     1       4.168  -5.159  -2.733  1.00  0.00     0.029 A 
ATOM     19  N   UNL     1       5.441  -5.855  -4.433  1.00  0.00    -0.354 N 
ATOM     20  C   UNL     1       7.171  -2.900  -7.175  1.00  0.00     0.074 A 
ATOM     21  C   UNL     1       6.853  -1.557  -6.748  1.00  0.00     0.031 C 
ATOM     22  C   UNL     1       4.290  -6.492  -2.622  1.00  0.00     0.029 A 
ATOM     23  C   UNL     1       5.059  -6.989  -3.756  1.00  0.00     0.049 A 
ATOM     24  H   UNL     1       6.037  -5.869  -5.217  1.00  0.00     0.167 HD
ATOM     25  C   UNL     1       7.932  -3.208  -8.249  1.00  0.00     0.031 A 
ATOM     26  C   UNL     1       5.265  -8.286  -4.057  1.00  0.00     0.031 A 
ATOM     27  C   UNL     1       8.218  -4.559  -8.646  1.00  0.00     0.049 A 
ATOM     28  C   UNL     1       6.034  -8.596  -5.314  1.00  0.00     0.074 A 
ATOM     29  C   UNL     1       8.956  -5.001  -9.727  1.00  0.00     0.029 A 
ATOM     30  N   UNL     1       7.764  -5.687  -7.976  1.00  0.00    -0.354 N 
ATOM     31  N   UNL     1       6.623  -7.764  -6.142  1.00  0.00    -0.248 NA
ATOM     32  C   UNL     1       6.148 -10.009  -5.694  1.00  0.00     0.031 C 
ATOM     33  C   UNL     1       8.895  -6.398  -9.746  1.00  0.00     0.029 A 
ATOM     34  C   UNL     1       8.168  -6.827  -8.645  1.00  0.00     0.049 A 
ATOM     35  H   UNL     1       7.234  -5.677  -7.146  1.00  0.00     0.167 HD
ATOM     36  C   UNL     1       7.175  -8.552  -7.142  1.00  0.00     0.074 A 
ATOM     37  C   UNL     1       6.880  -9.929  -6.797  1.00  0.00     0.031 C 
ATOM     38  C   UNL     1       7.851  -8.179  -8.257  1.00  0.00     0.031 A 
BRANCH  25  39
ATOM     39  C   UNL     1       8.422  -2.077  -9.107  1.00  0.00    -0.014 A 
ATOM     40  C   UNL     1       9.486  -1.250  -8.707  1.00  0.00     0.010 A 
ATOM     41  C   UNL     1       7.817  -1.861 -10.358  1.00  0.00     0.010 A 
ATOM     42  C   UNL     1       9.924  -0.214  -9.539  1.00  0.00     0.020 A 
ATOM     43  C   UNL     1       8.264  -0.840 -11.200  1.00  0.00     0.020 A 
ATOM     44  C   UNL     1       9.310  -0.016 -10.780  1.00  0.00     0.054 A 
BRANCH  44  45
ATOM     45  S   UNL     1       9.923   1.309 -11.857  1.00  0.00     0.124 S 
ATOM     46  O   UNL     1       9.446   2.505 -11.166  1.00  0.00    -0.237 OA
ATOM     47  O   UNL     1      11.369   1.103 -11.827  1.00  0.00    -0.237 OA
ATOM     48  O   UNL     1       9.285   1.037 -13.142  1.00  0.00    -0.744 OA
ENDBRANCH  44  45
ENDBRANCH  25  39
BRANCH  26  49
ATOM     49  C   UNL     1       4.647  -9.367  -3.236  1.00  0.00    -0.014 A 
ATOM     50  C   UNL     1       5.436 -10.305  -2.547  1.00  0.00     0.010 A 
ATOM     51  C   UNL     1       3.245  -9.484  -3.171  1.00  0.00     0.010 A 
ATOM     52  C   UNL     1       4.836 -11.355  -1.841  1.00  0.00     0.020 A 
ATOM     53  C   UNL     1       2.641 -10.511  -2.441  1.00  0.00     0.020 A 
ATOM     54  C   UNL     1       3.442 -11.455  -1.799  1.00  0.00     0.054 A 
BRANCH  54  55
ATOM     55  S   UNL     1       2.681 -12.824  -0.882  1.00  0.00     0.124 S 
ATOM     56  O   UNL     1       2.909 -13.953  -1.778  1.00  0.00    -0.237 OA
ATOM     57  O   UNL     1       3.446 -12.839   0.362  1.00  0.00    -0.237 OA
ATOM     58  O   UNL     1       1.287 -12.408  -0.742  1.00  0.00    -0.744 OA
ENDBRANCH  54  55
ENDBRANCH  26  49
BRANCH  38  59
ATOM     59  C   UNL     1       8.316  -9.274  -9.172  1.00  0.00    -0.014 A 
ATOM     60  C   UNL     1       7.408  -9.934 -10.017  1.00  0.00     0.010 A 
ATOM     61  C   UNL     1       9.687  -9.577  -9.253  1.00  0.00     0.010 A 
ATOM     62  C   UNL     1       7.864 -10.888 -10.927  1.00  0.00     0.020 A 
ATOM     63  C   UNL     1      10.149 -10.511 -10.181  1.00  0.00     0.020 A 
ATOM     64  C   UNL     1       9.232 -11.165 -11.008  1.00  0.00     0.054 A 
BRANCH  64  65
ATOM     65  S   UNL     1       9.807 -12.345 -12.257  1.00  0.00     0.124 S 
ATOM     66  O   UNL     1       9.394 -13.622 -11.683  1.00  0.00    -0.237 OA
ATOM     67  O   UNL     1       9.078 -11.927 -13.452  1.00  0.00    -0.237 OA
ATOM     68  O   UNL     1      11.251 -12.121 -12.306  1.00  0.00    -0.744 OA
ENDBRANCH  64  65
ENDBRANCH  38  59
ENDBRANCH  12  13
ENDBRANCH   5   7
ENDBRANCH   4   5
ENDBRANCH   3   4
ENDBRANCH   2   3
ENDBRANCH   1   2
BRANCH   1  69
ATOM     69  C   UNL     1       2.931  -1.171   1.786  1.00  0.00     0.202 C 
BRANCH  69  70
ATOM     70  C   UNL     1       2.975  -2.412   2.683  1.00  0.00     0.261 C 
BRANCH  70  71
ATOM     71  O   UNL     1       3.390  -1.979   3.987  1.00  0.00    -0.460 OA
BRANCH  71  72
ATOM     72  C   UNL     1       4.731  -1.950   4.213  1.00  0.00     0.342 C 
ATOM     73  O   UNL     1       5.581  -2.624   3.683  1.00  0.00    -0.246 OA
BRANCH  72  74
ATOM     74  C   UNL     1       5.016  -0.717   4.999  1.00  0.00     0.103 A 
ATOM     75  C   UNL     1       6.153   0.028   4.639  1.00  0.00     0.041 A 
ATOM     76  C   UNL     1       4.108  -0.194   5.931  1.00  0.00     0.130 A 
ATOM     77  C   UNL     1       6.305   1.325   5.136  1.00  0.00     0.088 A 
ATOM     78  C   UNL     1       4.242   1.116   6.384  1.00  0.00     0.048 A 
ATOM     79  C   UNL     1       5.306   1.894   5.935  1.00  0.00     0.026 A 
BRANCH  76  80
ATOM     80  O   UNL     1       3.083  -0.959   6.410  1.00  0.00    -0.507 OA
ATOM     81  H   UNL     1       2.980  -1.842   6.115  1.00  0.00     0.293 HD
ENDBRANCH  76  80
BRANCH  77  82
ATOM     82  S   UNL     1       7.709   2.313   4.673  1.00  0.00     0.261 S 
ATOM     83  O   UNL     1       8.537   1.544   3.772  1.00  0.00    -0.201 OA
ATOM     84  O   UNL     1       7.192   3.607   4.276  1.00  0.00    -0.201 OA
BRANCH  82  85
ATOM     85  N   UNL     1       8.653   2.602   6.074  1.00  0.00    -0.280 N 
ATOM     86  H   UNL     1       9.606   2.836   5.997  1.00  0.00     0.180 HD
BRANCH  85  87
ATOM     87  C   UNL     1       8.028   2.495   7.358  1.00  0.00     0.050 A 
ATOM     88  C   UNL     1       7.865   1.226   7.918  1.00  0.00     0.027 A 
ATOM     89  C   UNL     1       7.496   3.619   7.994  1.00  0.00     0.047 A 
ATOM     90  C   UNL     1       7.138   1.068   9.098  1.00  0.00     0.004 A 
ATOM     91  C   UNL     1       6.782   3.454   9.183  1.00  0.00     0.043 A 
ATOM     92  C   UNL     1       6.591   2.184   9.730  1.00  0.00     0.020 A 
ATOM     93  Cl  UNL     1       6.097   4.825   9.966  1.00  0.00    -0.084 Cl
ENDBRANCH  85  87
ENDBRANCH  82  85
ENDBRANCH  77  82
ENDBRANCH  72  74
ENDBRANCH  71  72
ENDBRANCH  70  71
ENDBRANCH  69  70
ENDBRANCH   1  69
TORSDOF 21
