REMARK SMILES CCC[NH2+][C@@H]1COC[C@@H]1C(=O)N[C@@](C)(CC)C(=O)OCCOCCOC(=O)c1ccc(-c2c3nc(c(-c4ccc(S(=O)(=O)[O-])cc4)c4ccc([nH]4)c(-c4ccc(S(=O)(=O)[O-])cc4)c4nc(c(-c5ccc(S(=O)(=O)[O-])cc5)c5ccc2[nH]5)C=C4)C=C3)cc1
REMARK SMILES IDX 21 1 20 2 19 3 17 4 18 5 13 6 14 7 12 8 10 9 11 10 9 12 5 13
REMARK SMILES IDX 6 14 7 15 8 16 4 17 3 20 2 21 1 22 15 23 16 24 22 25 23 26
REMARK SMILES IDX 24 27 25 28 26 29 27 30 28 31 29 32 87 33 30 34 86 35 31 36
REMARK SMILES IDX 32 37 33 38 80 39 34 40 85 41 79 42 81 43 35 44 84 45 78 46
REMARK SMILES IDX 77 47 36 49 66 50 47 51 65 52 48 53 51 54 64 55 82 56 49 57
REMARK SMILES IDX 50 58 63 60 83 61 52 62 37 63 38 64 46 65 39 66 45 67 40 68
REMARK SMILES IDX 41 69 42 70 43 71 44 72 67 73 68 74 76 75 69 76 75 77 70 78
REMARK SMILES IDX 71 79 72 80 73 81 74 82 53 83 54 84 62 85 55 86 61 87 56 88
REMARK SMILES IDX 57 89 58 90 59 91 60 92
REMARK H PARENT 12 11 4 18 4 19 81 48 51 59
REMARK Flexibility Score: inf
ROOT
ATOM      1  C   UNL     1       3.204   4.650   2.860  1.00  0.00     0.202 C 
ENDROOT
BRANCH   1   2
ATOM      2  C   UNL     1       2.341   5.912   3.081  1.00  0.00     0.261 C 
BRANCH   2   3
ATOM      3  O   UNL     1       0.938   5.600   3.184  1.00  0.00    -0.462 OA
BRANCH   3   4
ATOM      4  C   UNL     1       0.109   6.270   2.343  1.00  0.00     0.331 C 
ATOM      5  O   UNL     1       0.426   7.306   1.771  1.00  0.00    -0.249 OA
BRANCH   4   6
ATOM      6  C   UNL     1      -1.330   5.675   2.277  1.00  0.00     0.135 C 
ATOM      7  C   UNL     1      -2.098   6.749   3.122  1.00  0.00     0.047 C 
BRANCH   6   8
ATOM      8  N   UNL     1      -1.969   5.706   0.910  1.00  0.00    -0.340 N 
ATOM      9  C   UNL     1      -1.784   5.223  -0.346  1.00  0.00     0.232 C 
ATOM     10  O   UNL     1      -2.837   4.764  -0.827  1.00  0.00    -0.274 OA
ATOM     11  H   UNL     1      -2.785   6.256   0.937  1.00  0.00     0.164 HD
BRANCH   9  12
ATOM     12  C   UNL     1      -0.597   5.391  -1.314  1.00  0.00     0.164 C 
ATOM     13  C   UNL     1       0.508   4.358  -1.541  1.00  0.00     0.223 C 
ATOM     14  C   UNL     1       1.569   4.873  -0.581  1.00  0.00     0.225 C 
ATOM     15  O   UNL     1       1.533   6.304  -0.729  1.00  0.00    -0.374 OA
ATOM     16  C   UNL     1       0.204   6.670  -1.154  1.00  0.00     0.180 C 
BRANCH  13  17
ATOM     17  N   UNL     1       0.159   2.940  -1.710  1.00  0.00    -0.341 N 
ATOM     18  H   UNL     1      -0.836   2.879  -1.927  1.00  0.00     0.346 HD
ATOM     19  H   UNL     1       0.750   2.580  -2.460  1.00  0.00     0.346 HD
BRANCH  17  20
ATOM     20  C   UNL     1       0.420   2.118  -0.545  1.00  0.00     0.260 C 
BRANCH  20  21
ATOM     21  C   UNL     1      -0.087   0.669  -0.672  1.00  0.00     0.058 C 
ATOM     22  C   UNL     1       0.881  -0.271  -1.378  1.00  0.00     0.010 C 
ENDBRANCH  20  21
ENDBRANCH  17  20
ENDBRANCH  13  17
ENDBRANCH   9  12
ENDBRANCH   6   8
BRANCH   6  23
ATOM     23  C   UNL     1      -1.645   4.341   3.060  1.00  0.00     0.037 C 
ATOM     24  C   UNL     1      -2.142   3.119   2.289  1.00  0.00     0.007 C 
ENDBRANCH   6  23
ENDBRANCH   4   6
ENDBRANCH   3   4
ENDBRANCH   2   3
ENDBRANCH   1   2
BRANCH   1  25
ATOM     25  O   UNL     1       2.619   3.570   2.119  1.00  0.00    -0.374 OA
BRANCH  25  26
ATOM     26  C   UNL     1       1.439   3.044   2.723  1.00  0.00     0.202 C 
BRANCH  26  27
ATOM     27  C   UNL     1       1.209   1.548   2.551  1.00  0.00     0.261 C 
BRANCH  27  28
ATOM     28  O   UNL     1       2.179   0.805   3.239  1.00  0.00    -0.460 OA
BRANCH  28  29
ATOM     29  C   UNL     1       3.402   0.818   2.644  1.00  0.00     0.338 C 
ATOM     30  O   UNL     1       3.675   0.921   1.478  1.00  0.00    -0.246 OA
BRANCH  29  31
ATOM     31  C   UNL     1       4.295   0.984   3.799  1.00  0.00     0.060 A 
ATOM     32  C   UNL     1       5.407   1.823   3.686  1.00  0.00     0.016 A 
ATOM     33  C   UNL     1       3.884   0.451   5.029  1.00  0.00     0.016 A 
ATOM     34  C   UNL     1       6.139   2.106   4.827  1.00  0.00     0.010 A 
ATOM     35  C   UNL     1       4.552   0.802   6.170  1.00  0.00     0.010 A 
ATOM     36  C   UNL     1       5.715   1.571   6.050  1.00  0.00    -0.014 A 
BRANCH  36  37
ATOM     37  C   UNL     1       6.596   1.538   7.213  1.00  0.00     0.031 A 
ATOM     38  C   UNL     1       7.256   0.221   7.491  1.00  0.00     0.074 A 
ATOM     39  C   UNL     1       6.648   2.603   8.023  1.00  0.00     0.049 A 
ATOM     40  N   UNL     1       7.923  -0.160   8.539  1.00  0.00    -0.248 NA
ATOM     41  C   UNL     1       7.082  -0.835   6.469  1.00  0.00     0.031 C 
ATOM     42  C   UNL     1       5.974   3.883   7.790  1.00  0.00     0.029 A 
ATOM     43  N   UNL     1       7.281   2.764   9.217  1.00  0.00    -0.354 N 
ATOM     44  C   UNL     1       8.222  -1.499   8.314  1.00  0.00     0.074 A 
ATOM     45  C   UNL     1       7.604  -1.887   7.072  1.00  0.00     0.031 C 
ATOM     46  C   UNL     1       6.250   4.710   8.812  1.00  0.00     0.029 A 
ATOM     47  C   UNL     1       7.081   4.000   9.777  1.00  0.00     0.049 A 
ATOM     48  H   UNL     1       7.829   2.062   9.638  1.00  0.00     0.167 HD
ATOM     49  C   UNL     1       8.973  -2.318   9.081  1.00  0.00     0.031 A 
ATOM     50  C   UNL     1       7.533   4.475  10.950  1.00  0.00     0.031 A 
ATOM     51  C   UNL     1       9.565  -1.869  10.307  1.00  0.00     0.049 A 
ATOM     52  C   UNL     1       8.382   3.551  11.781  1.00  0.00     0.074 A 
ATOM     53  C   UNL     1      10.388  -2.553  11.176  1.00  0.00     0.029 A 
ATOM     54  N   UNL     1       9.388  -0.591  10.829  1.00  0.00    -0.354 N 
ATOM     55  N   UNL     1       8.717   2.301  11.539  1.00  0.00    -0.248 NA
ATOM     56  C   UNL     1       8.927   4.095  13.026  1.00  0.00     0.031 C 
ATOM     57  C   UNL     1      10.670  -1.701  12.250  1.00  0.00     0.029 A 
ATOM     58  C   UNL     1      10.073  -0.468  12.018  1.00  0.00     0.049 A 
ATOM     59  H   UNL     1       8.851   0.120  10.410  1.00  0.00     0.167 HD
ATOM     60  C   UNL     1       9.537   1.916  12.590  1.00  0.00     0.074 A 
ATOM     61  C   UNL     1       9.657   3.075  13.459  1.00  0.00     0.031 C 
ATOM     62  C   UNL     1      10.142   0.724  12.830  1.00  0.00     0.031 A 
BRANCH  49  63
ATOM     63  C   UNL     1       9.158  -3.735   8.609  1.00  0.00    -0.014 A 
ATOM     64  C   UNL     1       9.859  -4.025   7.421  1.00  0.00     0.010 A 
ATOM     65  C   UNL     1       8.598  -4.795   9.341  1.00  0.00     0.010 A 
ATOM     66  C   UNL     1       9.953  -5.338   6.951  1.00  0.00     0.020 A 
ATOM     67  C   UNL     1       8.718  -6.115   8.893  1.00  0.00     0.020 A 
ATOM     68  C   UNL     1       9.379  -6.375   7.690  1.00  0.00     0.054 A 
BRANCH  68  69
ATOM     69  S   UNL     1       9.534  -8.072   7.069  1.00  0.00     0.124 S 
ATOM     70  O   UNL     1       8.623  -8.060   5.927  1.00  0.00    -0.237 OA
ATOM     71  O   UNL     1      10.954  -8.162   6.737  1.00  0.00    -0.237 OA
ATOM     72  O   UNL     1       9.107  -8.895   8.197  1.00  0.00    -0.744 OA
ENDBRANCH  68  69
ENDBRANCH  49  63
BRANCH  50  73
ATOM     73  C   UNL     1       7.231   5.872  11.357  1.00  0.00    -0.014 A 
ATOM     74  C   UNL     1       8.248   6.843  11.369  1.00  0.00     0.010 A 
ATOM     75  C   UNL     1       5.918   6.259  11.683  1.00  0.00     0.010 A 
ATOM     76  C   UNL     1       7.964   8.167  11.718  1.00  0.00     0.020 A 
ATOM     77  C   UNL     1       5.624   7.588  12.008  1.00  0.00     0.020 A 
ATOM     78  C   UNL     1       6.652   8.531  12.034  1.00  0.00     0.054 A 
BRANCH  78  79
ATOM     79  S   UNL     1       6.301  10.265  12.439  1.00  0.00     0.124 S 
ATOM     80  O   UNL     1       6.921  10.401  13.753  1.00  0.00    -0.237 OA
ATOM     81  O   UNL     1       6.960  10.982  11.350  1.00  0.00    -0.237 OA
ATOM     82  O   UNL     1       4.842  10.331  12.424  1.00  0.00    -0.744 OA
ENDBRANCH  78  79
ENDBRANCH  50  73
BRANCH  62  83
ATOM     83  C   UNL     1      11.001   0.644  14.057  1.00  0.00    -0.014 A 
ATOM     84  C   UNL     1      10.427   0.592  15.338  1.00  0.00     0.010 A 
ATOM     85  C   UNL     1      12.396   0.548  13.911  1.00  0.00     0.010 A 
ATOM     86  C   UNL     1      11.244   0.480  16.462  1.00  0.00     0.020 A 
ATOM     87  C   UNL     1      13.212   0.401  15.031  1.00  0.00     0.020 A 
ATOM     88  C   UNL     1      12.630   0.383  16.300  1.00  0.00     0.054 A 
BRANCH  88  89
ATOM     89  S   UNL     1      13.663   0.188  17.774  1.00  0.00     0.124 S 
ATOM     90  O   UNL     1      13.614   1.527  18.355  1.00  0.00    -0.237 OA
ATOM     91  O   UNL     1      12.958  -0.849  18.523  1.00  0.00    -0.237 OA
ATOM     92  O   UNL     1      14.961  -0.212  17.237  1.00  0.00    -0.744 OA
ENDBRANCH  88  89
ENDBRANCH  62  83
ENDBRANCH  36  37
ENDBRANCH  29  31
ENDBRANCH  28  29
ENDBRANCH  27  28
ENDBRANCH  26  27
ENDBRANCH  25  26
ENDBRANCH   1  25
TORSDOF 23
