REMARK SMILES O=C(OCCOCCOC(=O)c1ccc(-c2ccc(Cl)cc2)cc1F)c1ccc(-c2c3nc(c(-c4ccc(S(=O)(=O)[O-])cc4)c4ccc([nH]4)c(-c4ccc(S(=O)(=O)[O-])cc4)c4nc(c(-c5ccc(S(=O)(=O)[O-])cc5)c5ccc2[nH]5)C=C4)C=C3)cc1
REMARK SMILES IDX 5 1 4 2 3 3 2 4 1 5 26 6 27 7 85 8 28 9 84 10 29 11 30 12
REMARK SMILES IDX 31 13 78 14 32 15 83 16 77 17 79 18 33 19 82 20 76 21 75 22
REMARK SMILES IDX 34 24 64 25 45 26 63 27 46 28 49 29 62 30 80 31 47 32 48 33
REMARK SMILES IDX 61 35 81 36 50 37 35 38 36 39 44 40 37 41 43 42 38 43 39 44
REMARK SMILES IDX 40 45 41 46 42 47 65 48 66 49 74 50 67 51 73 52 68 53 69 54
REMARK SMILES IDX 70 55 71 56 72 57 51 58 52 59 60 60 53 61 59 62 54 63 55 64
REMARK SMILES IDX 56 65 57 66 58 67 6 68 7 69 8 70 9 71 10 72 11 73 12 74
REMARK SMILES IDX 13 75 24 76 14 77 23 78 25 79 15 80 16 81 17 82 22 83 18 84
REMARK SMILES IDX 21 85 19 86 20 87
REMARK H PARENT 79 23 49 34
REMARK Flexibility Score: inf
ROOT
ATOM      1  C   UNL     1       4.210   1.575  -0.392  1.00  0.00     0.202 C 
ENDROOT
BRANCH   1   2
ATOM      2  C   UNL     1       3.866   0.367  -1.273  1.00  0.00     0.261 C 
BRANCH   2   3
ATOM      3  O   UNL     1       2.496  -0.033  -1.087  1.00  0.00    -0.460 OA
BRANCH   3   4
ATOM      4  C   UNL     1       2.026  -1.116  -0.419  1.00  0.00     0.338 C 
ATOM      5  O   UNL     1       0.822  -1.360  -0.463  1.00  0.00    -0.246 OA
BRANCH   4   6
ATOM      6  C   UNL     1       2.903  -2.028   0.376  1.00  0.00     0.060 A 
ATOM      7  C   UNL     1       4.104  -1.636   0.961  1.00  0.00     0.016 A 
ATOM      8  C   UNL     1       2.449  -3.334   0.621  1.00  0.00     0.016 A 
ATOM      9  C   UNL     1       4.882  -2.513   1.687  1.00  0.00     0.010 A 
ATOM     10  C   UNL     1       3.196  -4.213   1.417  1.00  0.00     0.010 A 
ATOM     11  C   UNL     1       4.424  -3.800   1.943  1.00  0.00    -0.014 A 
BRANCH  11  12
ATOM     12  C   UNL     1       5.325  -4.668   2.719  1.00  0.00     0.031 A 
ATOM     13  C   UNL     1       6.086  -5.734   1.997  1.00  0.00     0.074 A 
ATOM     14  C   UNL     1       5.595  -4.336   3.997  1.00  0.00     0.049 A 
ATOM     15  N   UNL     1       6.973  -6.568   2.465  1.00  0.00    -0.248 NA
ATOM     16  C   UNL     1       5.838  -5.864   0.550  1.00  0.00     0.031 C 
ATOM     17  C   UNL     1       4.989  -3.211   4.722  1.00  0.00     0.029 A 
ATOM     18  N   UNL     1       6.487  -4.860   4.892  1.00  0.00    -0.354 N 
ATOM     19  C   UNL     1       7.376  -7.332   1.378  1.00  0.00     0.074 A 
ATOM     20  C   UNL     1       6.631  -6.874   0.228  1.00  0.00     0.031 C 
ATOM     21  C   UNL     1       5.561  -3.106   5.931  1.00  0.00     0.029 A 
ATOM     22  C   UNL     1       6.506  -4.201   6.099  1.00  0.00     0.049 A 
ATOM     23  H   UNL     1       7.059  -5.636   4.691  1.00  0.00     0.167 HD
ATOM     24  C   UNL     1       8.288  -8.329   1.355  1.00  0.00     0.031 A 
ATOM     25  C   UNL     1       7.189  -4.480   7.225  1.00  0.00     0.031 A 
ATOM     26  C   UNL     1       8.998  -8.767   2.526  1.00  0.00     0.049 A 
ATOM     27  C   UNL     1       8.105  -5.673   7.199  1.00  0.00     0.074 A 
ATOM     28  C   UNL     1       9.873  -9.827   2.661  1.00  0.00     0.029 A 
ATOM     29  N   UNL     1       8.912  -8.152   3.769  1.00  0.00    -0.354 N 
ATOM     30  N   UNL     1       8.411  -6.452   6.186  1.00  0.00    -0.248 NA
ATOM     31  C   UNL     1       8.757  -6.034   8.462  1.00  0.00     0.031 C 
ATOM     32  C   UNL     1      10.279  -9.883   3.999  1.00  0.00     0.029 A 
ATOM     33  C   UNL     1       9.707  -8.819   4.682  1.00  0.00     0.049 A 
ATOM     34  H   UNL     1       8.366  -7.359   3.969  1.00  0.00     0.167 HD
ATOM     35  C   UNL     1       9.298  -7.394   6.689  1.00  0.00     0.074 A 
ATOM     36  C   UNL     1       9.508  -7.060   8.085  1.00  0.00     0.031 C 
ATOM     37  C   UNL     1       9.880  -8.449   6.065  1.00  0.00     0.031 A 
BRANCH  24  38
ATOM     38  C   UNL     1       8.499  -9.041   0.049  1.00  0.00    -0.014 A 
ATOM     39  C   UNL     1       9.190  -8.433  -1.015  1.00  0.00     0.010 A 
ATOM     40  C   UNL     1       7.991 -10.342  -0.119  1.00  0.00     0.010 A 
ATOM     41  C   UNL     1       9.345  -9.104  -2.232  1.00  0.00     0.020 A 
ATOM     42  C   UNL     1       8.165 -11.025  -1.325  1.00  0.00     0.020 A 
ATOM     43  C   UNL     1       8.830 -10.396  -2.379  1.00  0.00     0.054 A 
BRANCH  43  44
ATOM     44  S   UNL     1       9.070 -11.254  -3.960  1.00  0.00     0.124 S 
ATOM     45  O   UNL     1       8.172 -10.514  -4.843  1.00  0.00    -0.237 OA
ATOM     46  O   UNL     1      10.495 -11.064  -4.212  1.00  0.00    -0.237 OA
ATOM     47  O   UNL     1       8.667 -12.629  -3.674  1.00  0.00    -0.744 OA
ENDBRANCH  43  44
ENDBRANCH  24  38
BRANCH  25  48
ATOM     48  C   UNL     1       6.956  -3.696   8.473  1.00  0.00    -0.014 A 
ATOM     49  C   UNL     1       7.991  -2.981   9.100  1.00  0.00     0.010 A 
ATOM     50  C   UNL     1       5.680  -3.699   9.070  1.00  0.00     0.010 A 
ATOM     51  C   UNL     1       7.765  -2.321  10.315  1.00  0.00     0.020 A 
ATOM     52  C   UNL     1       5.439  -3.013  10.263  1.00  0.00     0.020 A 
ATOM     53  C   UNL     1       6.491  -2.348  10.891  1.00  0.00     0.054 A 
BRANCH  53  54
ATOM     54  S   UNL     1       6.217  -1.498  12.471  1.00  0.00     0.124 S 
ATOM     55  O   UNL     1       6.894  -2.384  13.412  1.00  0.00    -0.237 OA
ATOM     56  O   UNL     1       6.855  -0.203  12.250  1.00  0.00    -0.237 OA
ATOM     57  O   UNL     1       4.761  -1.455  12.588  1.00  0.00    -0.744 OA
ENDBRANCH  53  54
ENDBRANCH  25  48
BRANCH  37  58
ATOM     58  C   UNL     1      10.812  -9.287   6.892  1.00  0.00    -0.014 A 
ATOM     59  C   UNL     1      10.323 -10.134   7.902  1.00  0.00     0.010 A 
ATOM     60  C   UNL     1      12.193  -9.246   6.630  1.00  0.00     0.010 A 
ATOM     61  C   UNL     1      11.208 -10.894   8.668  1.00  0.00     0.020 A 
ATOM     62  C   UNL     1      13.076 -10.030   7.372  1.00  0.00     0.020 A 
ATOM     63  C   UNL     1      12.579 -10.835   8.399  1.00  0.00     0.054 A 
BRANCH  63  64
ATOM     64  S   UNL     1      13.705 -11.851   9.390  1.00  0.00     0.124 S 
ATOM     65  O   UNL     1      13.730 -11.126  10.657  1.00  0.00    -0.237 OA
ATOM     66  O   UNL     1      13.028 -13.145   9.419  1.00  0.00    -0.237 OA
ATOM     67  O   UNL     1      14.953 -11.824   8.631  1.00  0.00    -0.744 OA
ENDBRANCH  63  64
ENDBRANCH  37  58
ENDBRANCH  11  12
ENDBRANCH   4   6
ENDBRANCH   3   4
ENDBRANCH   2   3
ENDBRANCH   1   2
BRANCH   1  68
ATOM     68  O   UNL     1       3.967   1.400   1.004  1.00  0.00    -0.374 OA
BRANCH  68  69
ATOM     69  C   UNL     1       2.614   1.601   1.435  1.00  0.00     0.202 C 
BRANCH  69  70
ATOM     70  C   UNL     1       2.586   2.602   2.591  1.00  0.00     0.261 C 
BRANCH  70  71
ATOM     71  O   UNL     1       3.131   3.837   2.106  1.00  0.00    -0.460 OA
BRANCH  71  72
ATOM     72  C   UNL     1       4.473   3.948   2.250  1.00  0.00     0.341 C 
ATOM     73  O   UNL     1       5.194   3.335   3.019  1.00  0.00    -0.246 OA
BRANCH  72  74
ATOM     74  C   UNL     1       4.994   4.763   1.145  1.00  0.00     0.095 A 
ATOM     75  C   UNL     1       6.165   4.338   0.502  1.00  0.00     0.019 A 
ATOM     76  C   UNL     1       4.348   5.915   0.717  1.00  0.00     0.138 A 
ATOM     77  C   UNL     1       6.695   5.087  -0.549  1.00  0.00     0.010 A 
ATOM     78  C   UNL     1       4.884   6.673  -0.319  1.00  0.00     0.049 A 
ATOM     79  F   UNL     1       3.232   6.355   1.314  1.00  0.00    -0.206 F 
ATOM     80  C   UNL     1       6.082   6.286  -0.941  1.00  0.00    -0.015 A 
BRANCH  80  81
ATOM     81  C   UNL     1       6.757   7.203  -1.860  1.00  0.00    -0.018 A 
ATOM     82  C   UNL     1       7.308   8.387  -1.339  1.00  0.00     0.010 A 
ATOM     83  C   UNL     1       6.899   6.938  -3.228  1.00  0.00     0.010 A 
ATOM     84  C   UNL     1       7.982   9.289  -2.158  1.00  0.00     0.021 A 
ATOM     85  C   UNL     1       7.572   7.846  -4.055  1.00  0.00     0.021 A 
ATOM     86  C   UNL     1       8.110   9.015  -3.515  1.00  0.00     0.041 A 
ATOM     87  Cl  UNL     1       8.941  10.128  -4.530  1.00  0.00    -0.084 Cl
ENDBRANCH  80  81
ENDBRANCH  72  74
ENDBRANCH  71  72
ENDBRANCH  70  71
ENDBRANCH  69  70
ENDBRANCH  68  69
ENDBRANCH   1  68
TORSDOF 18
