REMARK SMILES Cc1cccc(C(=O)Nc2ccc(C(=O)NNC(=O)c3ccccc3C(=O)OCCOCCOC(=O)c3ccc(-c4c5nc(c(-c6ccc(S(=O)(=O)[O-])cc6)c6ccc([nH]6)c(-c6ccc(S(=O)(=O)[O-])cc6)c6nc(c(-c7ccc(S(=O)(=O)[O-])cc7)c7ccc4[nH]7)C=C6)C=C5)cc3)cc2)c1
REMARK SMILES IDX 30 1 29 2 28 3 26 4 27 5 25 6 20 7 21 8 22 9 24 10 23 11
REMARK SMILES IDX 18 12 17 13 19 15 16 16 14 17 15 18 13 20 10 21 11 22 98 23
REMARK SMILES IDX 12 24 97 25 9 26 7 27 8 28 6 30 1 31 2 32 3 33 99 34 4 35
REMARK SMILES IDX 5 36 31 37 32 38 33 39 34 40 35 41 36 42 37 43 38 44 96 45
REMARK SMILES IDX 39 46 95 47 40 48 41 49 42 50 89 51 43 52 94 53 88 54 90 55
REMARK SMILES IDX 44 56 93 57 87 58 86 59 45 61 75 62 56 63 74 64 57 65 60 66
REMARK SMILES IDX 73 67 91 68 58 69 59 70 72 72 92 73 61 74 46 75 47 76 55 77
REMARK SMILES IDX 48 78 54 79 49 80 50 81 51 82 52 83 53 84 76 85 77 86 85 87
REMARK SMILES IDX 78 88 84 89 79 90 80 91 81 92 82 93 83 94 62 95 63 96 71 97
REMARK SMILES IDX 64 98 70 99 65 100 66 101 67 102 68 103 69 104
REMARK H PARENT 17 14 16 19 9 29 90 60 60 71
REMARK Flexibility Score: inf
ROOT
ATOM      1  C   UNL     1       4.329   0.284   1.220  1.00  0.00     0.202 C 
ENDROOT
BRANCH   1   2
ATOM      2  C   UNL     1       4.869   1.611   0.798  1.00  0.00     0.261 C 
BRANCH   2   3
ATOM      3  O   UNL     1       5.781   1.510  -0.253  1.00  0.00    -0.460 OA
BRANCH   3   4
ATOM      4  C   UNL     1       7.038   1.157  -0.029  1.00  0.00     0.339 C 
ATOM      5  O   UNL     1       7.731   1.307   0.951  1.00  0.00    -0.246 OA
BRANCH   4   6
ATOM      6  C   UNL     1       7.248   0.264  -1.165  1.00  0.00     0.072 A 
ATOM      7  C   UNL     1       6.378   0.203  -2.281  1.00  0.00     0.056 A 
ATOM      8  C   UNL     1       6.725  -0.785  -3.236  1.00  0.00     0.015 A 
ATOM      9  C   UNL     1       7.787  -1.697  -3.045  1.00  0.00     0.001 A 
ATOM     10  C   UNL     1       8.326  -0.637  -0.980  1.00  0.00     0.016 A 
ATOM     11  C   UNL     1       8.581  -1.632  -1.909  1.00  0.00     0.001 A 
BRANCH   7  12
ATOM     12  C   UNL     1       5.256   1.190  -2.711  1.00  0.00     0.270 C 
ATOM     13  N   UNL     1       4.108   1.694  -1.932  1.00  0.00    -0.263 N 
ATOM     14  H   UNL     1       3.496   1.081  -1.465  1.00  0.00     0.191 HD
ATOM     15  O   UNL     1       5.365   1.443  -3.911  1.00  0.00    -0.267 OA
BRANCH  13  16
ATOM     16  N   UNL     1       3.911   3.213  -1.884  1.00  0.00    -0.263 N 
ATOM     17  C   UNL     1       3.304   4.165  -1.013  1.00  0.00     0.269 C 
ATOM     18  O   UNL     1       3.813   5.276  -0.812  1.00  0.00    -0.267 OA
ATOM     19  H   UNL     1       4.313   3.651  -2.668  1.00  0.00     0.191 HD
BRANCH  17  20
ATOM     20  C   UNL     1       1.939   4.120  -0.490  1.00  0.00     0.041 A 
ATOM     21  C   UNL     1      -0.700   3.952   0.296  1.00  0.00     0.041 A 
ATOM     22  C   UNL     1      -0.342   3.597  -0.989  1.00  0.00     0.027 A 
ATOM     23  C   UNL     1       0.161   4.725   1.060  1.00  0.00     0.027 A 
ATOM     24  C   UNL     1       0.985   3.642  -1.341  1.00  0.00     0.016 A 
ATOM     25  C   UNL     1       1.484   4.848   0.625  1.00  0.00     0.016 A 
BRANCH  21  26
ATOM     26  N   UNL     1      -1.919   3.522   0.796  1.00  0.00    -0.322 N 
ATOM     27  C   UNL     1      -2.592   2.364   0.453  1.00  0.00     0.255 C 
ATOM     28  O   UNL     1      -3.826   2.405   0.454  1.00  0.00    -0.269 OA
ATOM     29  H   UNL     1      -2.351   4.102   1.464  1.00  0.00     0.170 HD
BRANCH  27  30
ATOM     30  C   UNL     1      -1.897   1.012   0.312  1.00  0.00     0.040 A 
ATOM     31  C   UNL     1       1.374  -0.856  -0.441  1.00  0.00     0.044 C 
ATOM     32  C   UNL     1      -0.045  -0.587  -0.023  1.00  0.00    -0.050 A 
ATOM     33  C   UNL     1      -0.900  -1.650   0.255  1.00  0.00     0.003 A 
ATOM     34  C   UNL     1      -0.548   0.730   0.036  1.00  0.00     0.017 A 
ATOM     35  C   UNL     1      -2.235  -1.401   0.554  1.00  0.00     0.001 A 
ATOM     36  C   UNL     1      -2.726  -0.092   0.563  1.00  0.00     0.014 A 
ENDBRANCH  27  30
ENDBRANCH  21  26
ENDBRANCH  17  20
ENDBRANCH  13  16
ENDBRANCH   7  12
ENDBRANCH   4   6
ENDBRANCH   3   4
ENDBRANCH   2   3
ENDBRANCH   1   2
BRANCH   1  37
ATOM     37  O   UNL     1       5.267  -0.189   2.178  1.00  0.00    -0.374 OA
BRANCH  37  38
ATOM     38  C   UNL     1       4.812  -1.221   3.026  1.00  0.00     0.202 C 
BRANCH  38  39
ATOM     39  C   UNL     1       3.509  -0.884   3.767  1.00  0.00     0.261 C 
BRANCH  39  40
ATOM     40  O   UNL     1       3.717   0.324   4.537  1.00  0.00    -0.460 OA
BRANCH  40  41
ATOM     41  C   UNL     1       3.005   1.426   4.167  1.00  0.00     0.338 C 
ATOM     42  O   UNL     1       1.813   1.435   3.908  1.00  0.00    -0.246 OA
BRANCH  41  43
ATOM     43  C   UNL     1       3.940   2.564   3.868  1.00  0.00     0.060 A 
ATOM     44  C   UNL     1       3.478   3.675   3.135  1.00  0.00     0.016 A 
ATOM     45  C   UNL     1       5.312   2.390   4.021  1.00  0.00     0.016 A 
ATOM     46  C   UNL     1       4.372   4.477   2.384  1.00  0.00     0.010 A 
ATOM     47  C   UNL     1       6.179   3.149   3.232  1.00  0.00     0.010 A 
ATOM     48  C   UNL     1       5.708   4.130   2.312  1.00  0.00    -0.014 A 
BRANCH  48  49
ATOM     49  C   UNL     1       6.721   4.688   1.377  1.00  0.00     0.031 A 
ATOM     50  C   UNL     1       7.762   5.465   2.104  1.00  0.00     0.074 A 
ATOM     51  C   UNL     1       6.925   4.491   0.027  1.00  0.00     0.049 A 
ATOM     52  N   UNL     1       8.651   6.207   1.540  1.00  0.00    -0.248 NA
ATOM     53  C   UNL     1       7.830   5.550   3.575  1.00  0.00     0.031 C 
ATOM     54  C   UNL     1       8.259   4.367  -0.574  1.00  0.00     0.029 A 
ATOM     55  N   UNL     1       6.127   4.178  -1.087  1.00  0.00    -0.354 N 
ATOM     56  C   UNL     1       9.641   6.342   2.480  1.00  0.00     0.074 A 
ATOM     57  C   UNL     1       8.981   6.197   3.745  1.00  0.00     0.031 C 
ATOM     58  C   UNL     1       8.173   4.177  -1.901  1.00  0.00     0.029 A 
ATOM     59  C   UNL     1       6.789   4.308  -2.338  1.00  0.00     0.049 A 
ATOM     60  H   UNL     1       5.188   3.893  -1.008  1.00  0.00     0.167 HD
ATOM     61  C   UNL     1      10.937   6.274   2.073  1.00  0.00     0.031 A 
ATOM     62  C   UNL     1       6.383   4.987  -3.485  1.00  0.00     0.031 A 
ATOM     63  C   UNL     1      11.072   6.324   0.606  1.00  0.00     0.049 A 
ATOM     64  C   UNL     1       7.229   6.230  -3.645  1.00  0.00     0.074 A 
ATOM     65  C   UNL     1      11.651   5.530  -0.371  1.00  0.00     0.029 A 
ATOM     66  N   UNL     1      10.299   7.239  -0.095  1.00  0.00    -0.354 N 
ATOM     67  N   UNL     1       8.427   6.352  -3.153  1.00  0.00    -0.248 NA
ATOM     68  C   UNL     1       6.741   7.479  -4.231  1.00  0.00     0.031 C 
ATOM     69  C   UNL     1      11.250   6.030  -1.653  1.00  0.00     0.029 A 
ATOM     70  C   UNL     1      10.459   7.146  -1.459  1.00  0.00     0.049 A 
ATOM     71  H   UNL     1       9.698   7.888   0.339  1.00  0.00     0.167 HD
ATOM     72  C   UNL     1       8.735   7.677  -3.067  1.00  0.00     0.074 A 
ATOM     73  C   UNL     1       7.691   8.342  -3.830  1.00  0.00     0.031 C 
ATOM     74  C   UNL     1       9.764   8.124  -2.291  1.00  0.00     0.031 A 
BRANCH  61  75
ATOM     75  C   UNL     1      12.082   5.979   3.018  1.00  0.00    -0.014 A 
ATOM     76  C   UNL     1      13.393   5.960   2.511  1.00  0.00     0.010 A 
ATOM     77  C   UNL     1      11.949   5.669   4.390  1.00  0.00     0.010 A 
ATOM     78  C   UNL     1      14.500   5.676   3.324  1.00  0.00     0.020 A 
ATOM     79  C   UNL     1      13.046   5.422   5.224  1.00  0.00     0.020 A 
ATOM     80  C   UNL     1      14.321   5.429   4.683  1.00  0.00     0.054 A 
BRANCH  80  81
ATOM     81  S   UNL     1      15.762   5.135   5.732  1.00  0.00     0.124 S 
ATOM     82  O   UNL     1      16.312   3.905   5.170  1.00  0.00    -0.237 OA
ATOM     83  O   UNL     1      16.556   6.340   5.518  1.00  0.00    -0.237 OA
ATOM     84  O   UNL     1      15.195   5.000   7.074  1.00  0.00    -0.744 OA
ENDBRANCH  80  81
ENDBRANCH  61  75
BRANCH  62  85
ATOM     85  C   UNL     1       5.076   4.790  -4.271  1.00  0.00    -0.014 A 
ATOM     86  C   UNL     1       5.034   3.718  -5.186  1.00  0.00     0.010 A 
ATOM     87  C   UNL     1       3.825   5.357  -3.954  1.00  0.00     0.010 A 
ATOM     88  C   UNL     1       3.839   3.001  -5.449  1.00  0.00     0.020 A 
ATOM     89  C   UNL     1       2.610   4.650  -4.229  1.00  0.00     0.020 A 
ATOM     90  C   UNL     1       2.662   3.384  -4.832  1.00  0.00     0.054 A 
BRANCH  90  91
ATOM     91  S   UNL     1       1.388   2.061  -4.531  1.00  0.00     0.124 S 
ATOM     92  O   UNL     1       0.156   2.821  -4.338  1.00  0.00    -0.237 OA
ATOM     93  O   UNL     1       1.432   1.235  -5.730  1.00  0.00    -0.237 OA
ATOM     94  O   UNL     1       1.891   1.390  -3.324  1.00  0.00    -0.744 OA
ENDBRANCH  90  91
ENDBRANCH  62  85
BRANCH  74  95
ATOM     95  C   UNL     1      10.169   9.570  -2.208  1.00  0.00    -0.014 A 
ATOM     96  C   UNL     1      10.133  10.409  -3.330  1.00  0.00     0.010 A 
ATOM     97  C   UNL     1      10.758  10.089  -1.032  1.00  0.00     0.010 A 
ATOM     98  C   UNL     1      10.611  11.721  -3.263  1.00  0.00     0.020 A 
ATOM     99  C   UNL     1      11.264  11.383  -0.961  1.00  0.00     0.020 A 
ATOM    100  C   UNL     1      11.172  12.199  -2.078  1.00  0.00     0.054 A 
BRANCH 100 101
ATOM    101  S   UNL     1      11.841  13.873  -2.033  1.00  0.00     0.124 S 
ATOM    102  O   UNL     1      12.640  13.928  -3.255  1.00  0.00    -0.237 OA
ATOM    103  O   UNL     1      10.625  14.682  -2.040  1.00  0.00    -0.237 OA
ATOM    104  O   UNL     1      12.608  13.912  -0.790  1.00  0.00    -0.744 OA
ENDBRANCH 100 101
ENDBRANCH  74  95
ENDBRANCH  48  49
ENDBRANCH  41  43
ENDBRANCH  40  41
ENDBRANCH  39  40
ENDBRANCH  38  39
ENDBRANCH  37  38
ENDBRANCH   1  37
TORSDOF 22
