REMARK SMILES CC(C)[C@@H]1C(=O)Nc2ccccc2N1C(=O)N[C@H](Cc1ccccc1)C(=O)OCCOCCOC(=O)c1ccc(-c2c3nc(c(-c4ccc(S(=O)(=O)[O-])cc4)c4ccc([nH]4)c(-c4ccc(S(=O)(=O)[O-])cc4)c4nc(c(-c5ccc(S(=O)(=O)[O-])cc5)c5ccc2[nH]5)C=C4)C=C3)cc1
REMARK SMILES IDX 31 1 30 2 29 3 28 4 26 5 27 6 18 7 17 8 15 9 16 10 14 12
REMARK SMILES IDX 4 13 5 14 6 15 7 16 13 17 8 18 12 20 9 21 11 22 10 23 2 24
REMARK SMILES IDX 1 25 3 26 19 27 20 28 21 29 25 30 22 31 24 32 23 33 32 34
REMARK SMILES IDX 33 35 34 36 35 37 36 38 37 39 38 40 96 41 39 42 95 43 40 44
REMARK SMILES IDX 41 45 42 46 89 47 43 48 94 49 88 50 90 51 44 52 93 53 87 54
REMARK SMILES IDX 86 55 45 57 75 58 56 59 74 60 57 61 60 62 73 63 91 64 58 65
REMARK SMILES IDX 59 66 72 68 92 69 61 70 46 71 47 72 55 73 48 74 54 75 49 76
REMARK SMILES IDX 50 77 51 78 52 79 53 80 76 81 77 82 85 83 78 84 84 85 79 86
REMARK SMILES IDX 80 87 81 88 82 89 83 90 62 91 63 92 71 93 64 94 70 95 65 96
REMARK SMILES IDX 66 97 67 98 68 99 69 100
REMARK H PARENT 17 11 7 19 90 56 60 67
REMARK Flexibility Score: inf
ROOT
ATOM      1  O   UNL     1       1.856   2.255   4.958  1.00  0.00    -0.374 OA
ENDROOT
BRANCH   1   2
ATOM      2  C   UNL     1       3.010   2.082   4.128  1.00  0.00     0.202 C 
BRANCH   2   3
ATOM      3  C   UNL     1       3.320   0.607   3.850  1.00  0.00     0.261 C 
BRANCH   3   4
ATOM      4  O   UNL     1       2.892   0.228   2.524  1.00  0.00    -0.462 OA
BRANCH   4   5
ATOM      5  C   UNL     1       1.905  -0.698   2.415  1.00  0.00     0.329 C 
ATOM      6  O   UNL     1       1.255  -1.136   3.359  1.00  0.00    -0.250 OA
BRANCH   5   7
ATOM      7  C   UNL     1       1.558  -1.016   0.946  1.00  0.00     0.198 C 
BRANCH   7   8
ATOM      8  N   UNL     1       2.727  -0.858   0.011  1.00  0.00    -0.324 N 
ATOM      9  C   UNL     1       3.730  -0.125  -0.491  1.00  0.00     0.323 C 
ATOM     10  O   UNL     1       4.421  -0.848  -1.234  1.00  0.00    -0.248 OA
ATOM     11  H   UNL     1       2.780  -1.716  -0.468  1.00  0.00     0.166 HD
BRANCH   9  12
ATOM     12  N   UNL     1       4.099   1.176  -0.263  1.00  0.00    -0.280 N 
ATOM     13  C   UNL     1       3.287   2.448  -0.168  1.00  0.00     0.184 C 
ATOM     14  C   UNL     1       3.907   3.729  -0.799  1.00  0.00     0.247 C 
ATOM     15  O   UNL     1       3.280   4.771  -1.010  1.00  0.00    -0.272 OA
ATOM     16  N   UNL     1       5.235   3.763  -0.990  1.00  0.00    -0.322 N 
ATOM     17  C   UNL     1       5.558   1.452  -0.299  1.00  0.00     0.070 A 
ATOM     18  C   UNL     1       6.064   2.698  -0.708  1.00  0.00     0.065 A 
ATOM     19  H   UNL     1       5.637   4.588  -1.347  1.00  0.00     0.170 HD
ATOM     20  C   UNL     1       6.521   0.490   0.055  1.00  0.00     0.028 A 
ATOM     21  C   UNL     1       7.432   2.940  -0.875  1.00  0.00     0.028 A 
ATOM     22  C   UNL     1       7.901   0.751  -0.049  1.00  0.00     0.002 A 
ATOM     23  C   UNL     1       8.357   1.969  -0.535  1.00  0.00     0.002 A 
BRANCH  13  24
ATOM     24  C   UNL     1       1.822   2.512  -0.665  1.00  0.00     0.015 C 
ATOM     25  C   UNL     1       1.495   1.628  -1.865  1.00  0.00     0.010 C 
ATOM     26  C   UNL     1       0.918   2.650   0.558  1.00  0.00     0.010 C 
ENDBRANCH  13  24
ENDBRANCH   9  12
ENDBRANCH   7   8
BRANCH   7  27
ATOM     27  C   UNL     1       0.224  -0.332   0.589  1.00  0.00     0.072 C 
BRANCH  27  28
ATOM     28  C   UNL     1      -0.953  -0.734  -0.281  1.00  0.00    -0.045 A 
ATOM     29  C   UNL     1      -1.706   0.346  -0.815  1.00  0.00     0.004 A 
ATOM     30  C   UNL     1      -1.463  -2.013  -0.468  1.00  0.00     0.004 A 
ATOM     31  C   UNL     1      -2.900   0.179  -1.506  1.00  0.00     0.000 A 
ATOM     32  C   UNL     1      -2.678  -2.188  -1.166  1.00  0.00     0.000 A 
ATOM     33  C   UNL     1      -3.395  -1.099  -1.677  1.00  0.00     0.000 A 
ENDBRANCH  27  28
ENDBRANCH   7  27
ENDBRANCH   5   7
ENDBRANCH   4   5
ENDBRANCH   3   4
ENDBRANCH   2   3
ENDBRANCH   1   2
BRANCH   1  34
ATOM     34  C   UNL     1       0.623   2.387   4.255  1.00  0.00     0.202 C 
BRANCH  34  35
ATOM     35  C   UNL     1       0.255   3.842   3.926  1.00  0.00     0.261 C 
BRANCH  35  36
ATOM     36  O   UNL     1       1.274   4.502   3.150  1.00  0.00    -0.460 OA
BRANCH  36  37
ATOM     37  C   UNL     1       2.064   5.363   3.834  1.00  0.00     0.338 C 
ATOM     38  O   UNL     1       1.957   5.673   5.008  1.00  0.00    -0.246 OA
BRANCH  37  39
ATOM     39  C   UNL     1       3.193   5.821   2.990  1.00  0.00     0.060 A 
ATOM     40  C   UNL     1       4.461   5.848   3.578  1.00  0.00     0.016 A 
ATOM     41  C   UNL     1       3.021   6.309   1.694  1.00  0.00     0.016 A 
ATOM     42  C   UNL     1       5.541   6.431   2.908  1.00  0.00     0.010 A 
ATOM     43  C   UNL     1       4.115   6.875   1.016  1.00  0.00     0.010 A 
ATOM     44  C   UNL     1       5.374   6.990   1.635  1.00  0.00    -0.014 A 
BRANCH  44  45
ATOM     45  C   UNL     1       6.455   7.827   1.032  1.00  0.00     0.031 A 
ATOM     46  C   UNL     1       6.249   9.318   0.898  1.00  0.00     0.074 A 
ATOM     47  C   UNL     1       7.644   7.307   0.662  1.00  0.00     0.049 A 
ATOM     48  N   UNL     1       7.065  10.228   0.426  1.00  0.00    -0.248 NA
ATOM     49  C   UNL     1       4.966   9.857   1.379  1.00  0.00     0.031 C 
ATOM     50  C   UNL     1       8.042   5.909   0.806  1.00  0.00     0.029 A 
ATOM     51  N   UNL     1       8.740   7.904   0.080  1.00  0.00    -0.354 N 
ATOM     52  C   UNL     1       6.405  11.442   0.575  1.00  0.00     0.074 A 
ATOM     53  C   UNL     1       5.094  11.146   1.108  1.00  0.00     0.031 C 
ATOM     54  C   UNL     1       9.275   5.749   0.295  1.00  0.00     0.029 A 
ATOM     55  C   UNL     1       9.747   7.024  -0.238  1.00  0.00     0.049 A 
ATOM     56  H   UNL     1       8.797   8.871  -0.092  1.00  0.00     0.167 HD
ATOM     57  C   UNL     1       6.854  12.698   0.335  1.00  0.00     0.031 A 
ATOM     58  C   UNL     1      10.911   7.205  -0.896  1.00  0.00     0.031 A 
ATOM     59  C   UNL     1       8.153  13.014  -0.194  1.00  0.00     0.049 A 
ATOM     60  C   UNL     1      11.332   8.590  -1.305  1.00  0.00     0.074 A 
ATOM     61  C   UNL     1       8.702  14.263  -0.434  1.00  0.00     0.029 A 
ATOM     62  N   UNL     1       9.104  12.082  -0.575  1.00  0.00    -0.354 N 
ATOM     63  N   UNL     1      10.709   9.727  -1.113  1.00  0.00    -0.248 NA
ATOM     64  C   UNL     1      12.632   8.723  -1.980  1.00  0.00     0.031 C 
ATOM     65  C   UNL     1       9.963  14.084  -1.013  1.00  0.00     0.029 A 
ATOM     66  C   UNL     1      10.223  12.725  -1.076  1.00  0.00     0.049 A 
ATOM     67  H   UNL     1       8.999  11.105  -0.501  1.00  0.00     0.167 HD
ATOM     68  C   UNL     1      11.570  10.714  -1.583  1.00  0.00     0.074 A 
ATOM     69  C   UNL     1      12.747  10.040  -2.087  1.00  0.00     0.031 C 
ATOM     70  C   UNL     1      11.403  12.059  -1.568  1.00  0.00     0.031 A 
BRANCH  57  71
ATOM     71  C   UNL     1       5.918  13.835   0.650  1.00  0.00    -0.014 A 
ATOM     72  C   UNL     1       5.609  14.169   1.981  1.00  0.00     0.010 A 
ATOM     73  C   UNL     1       5.360  14.593  -0.395  1.00  0.00     0.010 A 
ATOM     74  C   UNL     1       4.721  15.210   2.261  1.00  0.00     0.020 A 
ATOM     75  C   UNL     1       4.494  15.654  -0.118  1.00  0.00     0.020 A 
ATOM     76  C   UNL     1       4.164  15.942   1.208  1.00  0.00     0.054 A 
BRANCH  76  77
ATOM     77  S   UNL     1       3.018  17.293   1.600  1.00  0.00     0.124 S 
ATOM     78  O   UNL     1       1.823  16.562   2.015  1.00  0.00    -0.237 OA
ATOM     79  O   UNL     1       3.717  18.008   2.664  1.00  0.00    -0.237 OA
ATOM     80  O   UNL     1       2.896  18.021   0.339  1.00  0.00    -0.744 OA
ENDBRANCH  76  77
ENDBRANCH  57  71
BRANCH  58  81
ATOM     81  C   UNL     1      11.767   6.031  -1.222  1.00  0.00    -0.014 A 
ATOM     82  C   UNL     1      12.987   5.816  -0.559  1.00  0.00     0.010 A 
ATOM     83  C   UNL     1      11.360   5.124  -2.219  1.00  0.00     0.010 A 
ATOM     84  C   UNL     1      13.793   4.725  -0.899  1.00  0.00     0.020 A 
ATOM     85  C   UNL     1      12.152   4.019  -2.545  1.00  0.00     0.020 A 
ATOM     86  C   UNL     1      13.369   3.832  -1.888  1.00  0.00     0.054 A 
BRANCH  86  87
ATOM     87  S   UNL     1      14.412   2.399  -2.277  1.00  0.00     0.124 S 
ATOM     88  O   UNL     1      15.546   3.022  -2.952  1.00  0.00    -0.237 OA
ATOM     89  O   UNL     1      14.687   1.846  -0.953  1.00  0.00    -0.237 OA
ATOM     90  O   UNL     1      13.554   1.573  -3.122  1.00  0.00    -0.744 OA
ENDBRANCH  86  87
ENDBRANCH  58  81
BRANCH  70  91
ATOM     91  C   UNL     1      12.546  12.917  -2.044  1.00  0.00    -0.014 A 
ATOM     92  C   UNL     1      12.878  13.016  -3.406  1.00  0.00     0.010 A 
ATOM     93  C   UNL     1      13.259  13.691  -1.108  1.00  0.00     0.010 A 
ATOM     94  C   UNL     1      13.917  13.857  -3.820  1.00  0.00     0.020 A 
ATOM     95  C   UNL     1      14.278  14.553  -1.520  1.00  0.00     0.020 A 
ATOM     96  C   UNL     1      14.609  14.622  -2.874  1.00  0.00     0.054 A 
BRANCH  96  97
ATOM     97  S   UNL     1      15.912  15.748  -3.444  1.00  0.00     0.124 S 
ATOM     98  O   UNL     1      16.991  14.822  -3.775  1.00  0.00    -0.237 OA
ATOM     99  O   UNL     1      15.285  16.415  -4.582  1.00  0.00    -0.237 OA
ATOM    100  O   UNL     1      16.160  16.605  -2.286  1.00  0.00    -0.744 OA
ENDBRANCH  96  97
ENDBRANCH  70  91
ENDBRANCH  44  45
ENDBRANCH  37  39
ENDBRANCH  36  37
ENDBRANCH  35  36
ENDBRANCH  34  35
ENDBRANCH   1  34
TORSDOF 22
