REMARK SMILES Cc1ccc(NC(=O)C[C@@H](C(=O)OCCOCCOC(=O)c2ccc(-c3c4nc(c(-c5ccc(S(=O)(=O)[O-])cc5)c5ccc([nH]5)c(-c5ccc(S(=O)(=O)[O-])cc5)c5nc(c(-c6ccc(S(=O)(=O)[O-])cc6)c6ccc3[nH]6)C=C5)C=C4)cc2)[C@@H](C)c2ccccc2)cc1Br
REMARK SMILES IDX 16 1 15 2 14 3 13 4 11 5 12 6 10 7 9 8 7 9 6 10 8 12 5 13
REMARK SMILES IDX 1 14 2 15 3 16 91 17 4 18 90 19 92 20 82 21 83 22 84 23
REMARK SMILES IDX 85 24 89 25 86 26 88 27 87 28 17 29 18 30 19 31 20 32 21 33
REMARK SMILES IDX 22 34 23 35 81 36 24 37 80 38 25 39 26 40 27 41 74 42 28 43
REMARK SMILES IDX 79 44 73 45 75 46 29 47 78 48 72 49 71 50 30 52 60 53 41 54
REMARK SMILES IDX 59 55 42 56 45 57 58 58 76 59 43 60 44 61 57 63 77 64 46 65
REMARK SMILES IDX 31 66 32 67 40 68 33 69 39 70 34 71 35 72 36 73 37 74 38 75
REMARK SMILES IDX 61 76 62 77 70 78 63 79 69 80 64 81 65 82 66 83 67 84 68 85
REMARK SMILES IDX 47 86 48 87 56 88 49 89 55 90 50 91 51 92 52 93 53 94 54 95
REMARK H PARENT 6 11 75 51 45 62
REMARK Flexibility Score: inf
ROOT
ATOM      1  O   UNL     1       0.901  -0.535   1.533  1.00  0.00    -0.374 OA
ENDROOT
BRANCH   1   2
ATOM      2  C   UNL     1       1.944  -0.346   0.380  1.00  0.00     0.202 C 
BRANCH   2   3
ATOM      3  C   UNL     1       1.708   0.130  -1.741  1.00  0.00     0.261 C 
BRANCH   3   4
ATOM      4  O   UNL     1       1.788   1.663  -2.380  1.00  0.00    -0.463 OA
BRANCH   4   5
ATOM      5  C   UNL     1       0.837   2.359  -3.019  1.00  0.00     0.310 C 
ATOM      6  O   UNL     1       0.557   2.107  -4.185  1.00  0.00    -0.252 OA
BRANCH   5   7
ATOM      7  C   UNL     1       0.238   3.575  -2.240  1.00  0.00     0.116 C 
BRANCH   7   8
ATOM      8  C   UNL     1       0.904   4.127  -0.944  1.00  0.00     0.116 C 
BRANCH   8   9
ATOM      9  C   UNL     1       2.380   4.010  -0.653  1.00  0.00     0.225 C 
ATOM     10  N   UNL     1       2.959   2.829  -0.322  1.00  0.00    -0.326 N 
ATOM     11  H   UNL     1       3.892   2.890  -0.013  1.00  0.00     0.169 HD
ATOM     12  O   UNL     1       3.085   5.023  -0.650  1.00  0.00    -0.275 OA
BRANCH  10  13
ATOM     13  C   UNL     1       2.426   1.540  -0.356  1.00  0.00     0.042 A 
ATOM     14  C   UNL     1       0.905  -3.280  -0.881  1.00  0.00     0.045 C 
ATOM     15  C   UNL     1       1.301  -1.835  -1.003  1.00  0.00    -0.037 A 
ATOM     16  C   UNL     1       3.049  -1.430  -1.118  1.00  0.00     0.007 A 
ATOM     17  C   UNL     1       0.095  -0.574  -0.591  1.00  0.00     0.022 A 
ATOM     18  C   UNL     1       3.605   0.246  -0.802  1.00  0.00     0.026 A 
ATOM     19  C   UNL     1       0.658   1.123  -0.287  1.00  0.00     0.042 A 
ATOM     20  Br  UNL     1      -1.704  -1.086  -0.232  1.00  0.00    -0.050 Br
ENDBRANCH  10  13
ENDBRANCH   8   9
ENDBRANCH   7   8
BRANCH   7  21
ATOM     21  C   UNL     1      -1.318   3.439  -1.969  1.00  0.00     0.031 C 
ATOM     22  C   UNL     1      -1.972   4.787  -1.607  1.00  0.00     0.013 C 
BRANCH  21  23
ATOM     23  C   UNL     1      -2.081   2.682  -3.041  1.00  0.00    -0.044 A 
ATOM     24  C   UNL     1      -2.733   3.281  -4.116  1.00  0.00     0.004 A 
ATOM     25  C   UNL     1      -2.049   1.280  -2.993  1.00  0.00     0.004 A 
ATOM     26  C   UNL     1      -3.288   2.489  -5.129  1.00  0.00     0.000 A 
ATOM     27  C   UNL     1      -2.575   0.487  -4.004  1.00  0.00     0.000 A 
ATOM     28  C   UNL     1      -3.192   1.097  -5.083  1.00  0.00     0.000 A 
ENDBRANCH  21  23
ENDBRANCH   7  21
ENDBRANCH   5   7
ENDBRANCH   4   5
ENDBRANCH   3   4
ENDBRANCH   2   3
ENDBRANCH   1   2
BRANCH   1  29
ATOM     29  C   UNL     1       0.404   0.500   2.384  1.00  0.00     0.202 C 
BRANCH  29  30
ATOM     30  C   UNL     1       1.312   1.394   3.239  1.00  0.00     0.261 C 
BRANCH  30  31
ATOM     31  O   UNL     1       2.681   1.460   2.874  1.00  0.00    -0.460 OA
BRANCH  31  32
ATOM     32  C   UNL     1       3.411   0.377   3.241  1.00  0.00     0.338 C 
ATOM     33  O   UNL     1       3.021  -0.604   3.846  1.00  0.00    -0.246 OA
BRANCH  32  34
ATOM     34  C   UNL     1       4.748   0.513   2.625  1.00  0.00     0.060 A 
ATOM     35  C   UNL     1       5.323  -0.606   2.010  1.00  0.00     0.016 A 
ATOM     36  C   UNL     1       5.420   1.738   2.647  1.00  0.00     0.016 A 
ATOM     37  C   UNL     1       6.606  -0.518   1.469  1.00  0.00     0.010 A 
ATOM     38  C   UNL     1       6.709   1.821   2.123  1.00  0.00     0.010 A 
ATOM     39  C   UNL     1       7.323   0.681   1.579  1.00  0.00    -0.014 A 
BRANCH  39  40
ATOM     40  C   UNL     1       8.793   0.682   1.399  1.00  0.00     0.031 A 
ATOM     41  C   UNL     1       9.640   0.459   2.624  1.00  0.00     0.074 A 
ATOM     42  C   UNL     1       9.367   0.897   0.203  1.00  0.00     0.049 A 
ATOM     43  N   UNL     1      10.941   0.464   2.746  1.00  0.00    -0.248 NA
ATOM     44  C   UNL     1       8.916   0.204   3.882  1.00  0.00     0.031 C 
ATOM     45  C   UNL     1       8.658   1.088  -1.059  1.00  0.00     0.029 A 
ATOM     46  N   UNL     1      10.694   1.000  -0.134  1.00  0.00    -0.354 N 
ATOM     47  C   UNL     1      11.191   0.221   4.092  1.00  0.00     0.074 A 
ATOM     48  C   UNL     1       9.909   0.107   4.751  1.00  0.00     0.031 C 
ATOM     49  C   UNL     1       9.559   1.294  -2.036  1.00  0.00     0.029 A 
ATOM     50  C   UNL     1      10.905   1.285  -1.462  1.00  0.00     0.049 A 
ATOM     51  H   UNL     1      11.425   0.882   0.514  1.00  0.00     0.167 HD
ATOM     52  C   UNL     1      12.381   0.102   4.725  1.00  0.00     0.031 A 
ATOM     53  C   UNL     1      12.053   1.528  -2.129  1.00  0.00     0.031 A 
ATOM     54  C   UNL     1      13.653   0.257   4.074  1.00  0.00     0.049 A 
ATOM     55  C   UNL     1      13.365   1.479  -1.384  1.00  0.00     0.074 A 
ATOM     56  C   UNL     1      14.917   0.141   4.623  1.00  0.00     0.029 A 
ATOM     57  N   UNL     1      13.824   0.582   2.737  1.00  0.00    -0.354 N 
ATOM     58  N   UNL     1      13.591   1.199  -0.121  1.00  0.00    -0.248 NA
ATOM     59  C   UNL     1      14.580   1.771  -2.159  1.00  0.00     0.031 C 
ATOM     60  C   UNL     1      15.850   0.474   3.637  1.00  0.00     0.029 A 
ATOM     61  C   UNL     1      15.172   0.710   2.451  1.00  0.00     0.049 A 
ATOM     62  H   UNL     1      13.094   0.704   2.087  1.00  0.00     0.167 HD
ATOM     63  C   UNL     1      14.974   1.244   0.038  1.00  0.00     0.074 A 
ATOM     64  C   UNL     1      15.532   1.567  -1.259  1.00  0.00     0.031 C 
ATOM     65  C   UNL     1      15.716   1.032   1.154  1.00  0.00     0.031 A 
BRANCH  52  66
ATOM     66  C   UNL     1      12.353  -0.157   6.209  1.00  0.00    -0.014 A 
ATOM     67  C   UNL     1      11.886  -1.377   6.733  1.00  0.00     0.010 A 
ATOM     68  C   UNL     1      12.818   0.833   7.093  1.00  0.00     0.010 A 
ATOM     69  C   UNL     1      11.843  -1.582   8.115  1.00  0.00     0.020 A 
ATOM     70  C   UNL     1      12.810   0.618   8.473  1.00  0.00     0.020 A 
ATOM     71  C   UNL     1      12.305  -0.582   8.976  1.00  0.00     0.054 A 
BRANCH  71  72
ATOM     72  S   UNL     1      12.251  -0.884  10.763  1.00  0.00     0.124 S 
ATOM     73  O   UNL     1      10.815  -0.858  11.030  1.00  0.00    -0.237 OA
ATOM     74  O   UNL     1      12.889  -2.193  10.883  1.00  0.00    -0.237 OA
ATOM     75  O   UNL     1      13.009   0.230  11.327  1.00  0.00    -0.744 OA
ENDBRANCH  71  72
ENDBRANCH  52  66
BRANCH  53  76
ATOM     76  C   UNL     1      12.019   1.844  -3.585  1.00  0.00    -0.014 A 
ATOM     77  C   UNL     1      12.568   0.954  -4.525  1.00  0.00     0.010 A 
ATOM     78  C   UNL     1      11.445   3.046  -4.041  1.00  0.00     0.010 A 
ATOM     79  C   UNL     1      12.556   1.263  -5.889  1.00  0.00     0.020 A 
ATOM     80  C   UNL     1      11.402   3.344  -5.407  1.00  0.00     0.020 A 
ATOM     81  C   UNL     1      11.966   2.453  -6.322  1.00  0.00     0.054 A 
BRANCH  81  82
ATOM     82  S   UNL     1      11.908   2.800  -8.102  1.00  0.00     0.124 S 
ATOM     83  O   UNL     1      13.313   3.043  -8.411  1.00  0.00    -0.237 OA
ATOM     84  O   UNL     1      11.344   1.565  -8.641  1.00  0.00    -0.237 OA
ATOM     85  O   UNL     1      11.036   3.969  -8.195  1.00  0.00    -0.744 OA
ENDBRANCH  81  82
ENDBRANCH  53  76
BRANCH  65  86
ATOM     86  C   UNL     1      17.219   1.091   1.026  1.00  0.00    -0.014 A 
ATOM     87  C   UNL     1      17.893   2.301   0.787  1.00  0.00     0.010 A 
ATOM     88  C   UNL     1      17.973  -0.083   1.218  1.00  0.00     0.010 A 
ATOM     89  C   UNL     1      19.290   2.330   0.711  1.00  0.00     0.020 A 
ATOM     90  C   UNL     1      19.369  -0.053   1.178  1.00  0.00     0.020 A 
ATOM     91  C   UNL     1      20.019   1.153   0.911  1.00  0.00     0.054 A 
BRANCH  91  92
ATOM     92  S   UNL     1      21.830   1.227   0.854  1.00  0.00     0.124 S 
ATOM     93  O   UNL     1      22.081   1.468  -0.565  1.00  0.00    -0.237 OA
ATOM     94  O   UNL     1      22.131   2.346   1.744  1.00  0.00    -0.237 OA
ATOM     95  O   UNL     1      22.248  -0.084   1.346  1.00  0.00    -0.744 OA
ENDBRANCH  91  92
ENDBRANCH  65  86
ENDBRANCH  39  40
ENDBRANCH  32  34
ENDBRANCH  31  32
ENDBRANCH  30  31
ENDBRANCH  29  30
ENDBRANCH   1  29
TORSDOF 22
