REMARK SMILES CCc1ncc(C[N@H+]2CCC[C@@H](c3cccc(C(=O)OCCOCCOC(=O)c4ccc(-c5c6nc(c(-c7ccc(S(=O)(=O)[O-])cc7)c7ccc([nH]7)c(-c7ccc(S(=O)(=O)[O-])cc7)c7nc(c(-c8ccc(S(=O)(=O)[O-])cc8)c8ccc5[nH]8)C=C7)C=C6)cc4)c3)C2)cn1
REMARK SMILES IDX 22 1 21 2 20 3 18 4 19 5 17 6 13 7 14 8 89 9 15 10 16 11
REMARK SMILES IDX 12 12 8 13 9 14 90 15 10 17 11 18 7 19 6 20 3 21 4 22 92 23
REMARK SMILES IDX 5 24 91 25 2 26 1 27 23 28 24 29 25 30 26 31 27 32 28 33
REMARK SMILES IDX 29 34 30 35 88 36 31 37 87 38 32 39 33 40 34 41 81 42 35 43
REMARK SMILES IDX 86 44 80 45 82 46 36 47 85 48 79 49 78 50 37 52 67 53 48 54
REMARK SMILES IDX 66 55 49 56 52 57 65 58 83 59 50 60 51 61 64 63 84 64 53 65
REMARK SMILES IDX 38 66 39 67 47 68 40 69 46 70 41 71 42 72 43 73 44 74 45 75
REMARK SMILES IDX 68 76 69 77 77 78 70 79 76 80 71 81 72 82 73 83 74 84 75 85
REMARK SMILES IDX 54 86 55 87 63 88 56 89 62 90 57 91 58 92 59 93 60 94 61 95
REMARK H PARENT 8 16 82 51 52 62
REMARK Flexibility Score: inf
ROOT
ATOM      1  C   UNL     1       4.858   1.014  13.865  1.00  0.00     0.202 C 
ENDROOT
BRANCH   1   2
ATOM      2  C   UNL     1       5.598   1.366  12.570  1.00  0.00     0.261 C 
BRANCH   2   3
ATOM      3  O   UNL     1       4.685   1.467  11.466  1.00  0.00    -0.460 OA
BRANCH   3   4
ATOM      4  C   UNL     1       4.790   0.486  10.539  1.00  0.00     0.338 C 
ATOM      5  O   UNL     1       5.672  -0.356  10.453  1.00  0.00    -0.246 OA
BRANCH   4   6
ATOM      6  C   UNL     1       3.546   0.432   9.736  1.00  0.00     0.060 A 
ATOM      7  C   UNL     1       1.645   1.467   8.623  1.00  0.00    -0.038 A 
ATOM      8  C   UNL     1       1.204   0.185   8.249  1.00  0.00     0.004 A 
ATOM      9  C   UNL     1       2.817   1.578   9.394  1.00  0.00     0.020 A 
ATOM     10  C   UNL     1       1.918  -0.957   8.613  1.00  0.00     0.001 A 
ATOM     11  C   UNL     1       3.094  -0.833   9.343  1.00  0.00     0.016 A 
BRANCH   7  12
ATOM     12  C   UNL     1       1.014   2.730   8.045  1.00  0.00     0.074 C 
ATOM     13  N   UNL     1       1.077   4.055   5.886  1.00  0.00    -0.331 N 
ATOM     14  C   UNL     1      -0.386   4.014   5.804  1.00  0.00     0.262 C 
ATOM     15  C   UNL     1       1.614   2.915   6.636  1.00  0.00     0.270 C 
ATOM     16  H   UNL     1       1.300   4.901   6.411  1.00  0.00     0.348 HD
ATOM     17  C   UNL     1      -1.024   3.940   7.195  1.00  0.00     0.062 C 
ATOM     18  C   UNL     1      -0.522   2.724   7.974  1.00  0.00     0.020 C 
BRANCH  13  19
ATOM     19  C   UNL     1       1.739   4.215   4.573  1.00  0.00     0.302 C 
BRANCH  19  20
ATOM     20  C   UNL     1       1.506   3.112   3.578  1.00  0.00     0.043 A 
ATOM     21  C   UNL     1       0.873   1.017   1.968  1.00  0.00     0.127 A 
ATOM     22  N   UNL     1       0.190   2.165   1.798  1.00  0.00    -0.241 NA
ATOM     23  N   UNL     1       1.895   0.855   2.827  1.00  0.00    -0.241 NA
ATOM     24  C   UNL     1       0.529   3.188   2.608  1.00  0.00     0.124 A 
ATOM     25  C   UNL     1       2.192   1.914   3.605  1.00  0.00     0.124 A 
BRANCH  21  26
ATOM     26  C   UNL     1       0.434  -0.181   1.176  1.00  0.00     0.074 C 
ATOM     27  C   UNL     1       0.965  -0.138  -0.245  1.00  0.00     0.012 C 
ENDBRANCH  21  26
ENDBRANCH  19  20
ENDBRANCH  13  19
ENDBRANCH   7  12
ENDBRANCH   4   6
ENDBRANCH   3   4
ENDBRANCH   2   3
ENDBRANCH   1   2
BRANCH   1  28
ATOM     28  O   UNL     1       4.207  -0.256  13.913  1.00  0.00    -0.374 OA
BRANCH  28  29
ATOM     29  C   UNL     1       2.940  -0.370  13.266  1.00  0.00     0.202 C 
BRANCH  29  30
ATOM     30  C   UNL     1       1.718   0.205  13.993  1.00  0.00     0.261 C 
BRANCH  30  31
ATOM     31  O   UNL     1       1.785   1.633  14.144  1.00  0.00    -0.460 OA
BRANCH  31  32
ATOM     32  C   UNL     1       2.064   2.053  15.401  1.00  0.00     0.338 C 
ATOM     33  O   UNL     1       2.199   1.359  16.398  1.00  0.00    -0.246 OA
BRANCH  32  34
ATOM     34  C   UNL     1       2.375   3.494  15.389  1.00  0.00     0.060 A 
ATOM     35  C   UNL     1       3.587   3.900  15.961  1.00  0.00     0.016 A 
ATOM     36  C   UNL     1       1.471   4.435  14.893  1.00  0.00     0.016 A 
ATOM     37  C   UNL     1       3.880   5.255  16.086  1.00  0.00     0.010 A 
ATOM     38  C   UNL     1       1.764   5.796  15.025  1.00  0.00     0.010 A 
ATOM     39  C   UNL     1       2.952   6.213  15.655  1.00  0.00    -0.014 A 
BRANCH  39  40
ATOM     40  C   UNL     1       3.160   7.642  15.992  1.00  0.00     0.031 A 
ATOM     41  C   UNL     1       2.384   8.244  17.132  1.00  0.00     0.074 A 
ATOM     42  C   UNL     1       4.048   8.387  15.310  1.00  0.00     0.049 A 
ATOM     43  N   UNL     1       2.385   9.473  17.578  1.00  0.00    -0.248 NA
ATOM     44  C   UNL     1       1.486   7.337  17.867  1.00  0.00     0.031 C 
ATOM     45  C   UNL     1       4.898   7.905  14.222  1.00  0.00     0.029 A 
ATOM     46  N   UNL     1       4.382   9.712  15.437  1.00  0.00    -0.354 N 
ATOM     47  C   UNL     1       1.485   9.492  18.638  1.00  0.00     0.074 A 
ATOM     48  C   UNL     1       0.930   8.160  18.744  1.00  0.00     0.031 C 
ATOM     49  C   UNL     1       5.658   8.922  13.780  1.00  0.00     0.029 A 
ATOM     50  C   UNL     1       5.321  10.133  14.527  1.00  0.00     0.049 A 
ATOM     51  H   UNL     1       3.986  10.305  16.117  1.00  0.00     0.167 HD
ATOM     52  C   UNL     1       1.156  10.522  19.454  1.00  0.00     0.031 A 
ATOM     53  C   UNL     1       5.836  11.359  14.308  1.00  0.00     0.031 A 
ATOM     54  C   UNL     1       1.696  11.851  19.331  1.00  0.00     0.049 A 
ATOM     55  C   UNL     1       5.386  12.511  15.168  1.00  0.00     0.074 A 
ATOM     56  C   UNL     1       1.431  12.964  20.109  1.00  0.00     0.029 A 
ATOM     57  N   UNL     1       2.605  12.249  18.362  1.00  0.00    -0.354 N 
ATOM     58  N   UNL     1       4.545  12.511  16.175  1.00  0.00    -0.248 NA
ATOM     59  C   UNL     1       5.962  13.829  14.864  1.00  0.00     0.031 C 
ATOM     60  C   UNL     1       2.132  14.049  19.573  1.00  0.00     0.029 A 
ATOM     61  C   UNL     1       2.890  13.597  18.505  1.00  0.00     0.049 A 
ATOM     62  H   UNL     1       2.992  11.661  17.674  1.00  0.00     0.167 HD
ATOM     63  C   UNL     1       4.517  13.820  16.646  1.00  0.00     0.074 A 
ATOM     64  C   UNL     1       5.433  14.580  15.821  1.00  0.00     0.031 C 
ATOM     65  C   UNL     1       3.803  14.344  17.674  1.00  0.00     0.031 A 
BRANCH  52  66
ATOM     66  C   UNL     1       0.133  10.255  20.529  1.00  0.00    -0.014 A 
ATOM     67  C   UNL     1       0.426   9.428  21.628  1.00  0.00     0.010 A 
ATOM     68  C   UNL     1      -1.136  10.858  20.448  1.00  0.00     0.010 A 
ATOM     69  C   UNL     1      -0.545   9.168  22.599  1.00  0.00     0.020 A 
ATOM     70  C   UNL     1      -2.100  10.627  21.433  1.00  0.00     0.020 A 
ATOM     71  C   UNL     1      -1.805   9.766  22.492  1.00  0.00     0.054 A 
BRANCH  71  72
ATOM     72  S   UNL     1      -3.046   9.414  23.767  1.00  0.00     0.124 S 
ATOM     73  O   UNL     1      -3.401   8.029  23.467  1.00  0.00    -0.237 OA
ATOM     74  O   UNL     1      -2.298   9.616  25.006  1.00  0.00    -0.237 OA
ATOM     75  O   UNL     1      -4.097  10.395  23.510  1.00  0.00    -0.744 OA
ENDBRANCH  71  72
ENDBRANCH  52  66
BRANCH  53  76
ATOM     76  C   UNL     1       6.834  11.562  13.222  1.00  0.00    -0.014 A 
ATOM     77  C   UNL     1       8.171  11.871  13.526  1.00  0.00     0.010 A 
ATOM     78  C   UNL     1       6.451  11.442  11.873  1.00  0.00     0.010 A 
ATOM     79  C   UNL     1       9.104  12.067  12.504  1.00  0.00     0.020 A 
ATOM     80  C   UNL     1       7.387  11.608  10.848  1.00  0.00     0.020 A 
ATOM     81  C   UNL     1       8.707  11.929  11.171  1.00  0.00     0.054 A 
BRANCH  81  82
ATOM     82  S   UNL     1       9.948  12.132   9.863  1.00  0.00     0.124 S 
ATOM     83  O   UNL     1      10.192  13.570   9.895  1.00  0.00    -0.237 OA
ATOM     84  O   UNL     1      11.045  11.292  10.340  1.00  0.00    -0.237 OA
ATOM     85  O   UNL     1       9.269  11.637   8.668  1.00  0.00    -0.744 OA
ENDBRANCH  81  82
ENDBRANCH  53  76
BRANCH  65  86
ATOM     86  C   UNL     1       4.010  15.802  17.995  1.00  0.00    -0.014 A 
ATOM     87  C   UNL     1       3.532  16.816  17.148  1.00  0.00     0.010 A 
ATOM     88  C   UNL     1       4.647  16.160  19.198  1.00  0.00     0.010 A 
ATOM     89  C   UNL     1       3.716  18.162  17.481  1.00  0.00     0.020 A 
ATOM     90  C   UNL     1       4.806  17.503  19.550  1.00  0.00     0.020 A 
ATOM     91  C   UNL     1       4.351  18.496  18.681  1.00  0.00     0.054 A 
BRANCH  91  92
ATOM     92  S   UNL     1       4.538  20.249  19.111  1.00  0.00     0.124 S 
ATOM     93  O   UNL     1       5.571  20.683  18.174  1.00  0.00    -0.237 OA
ATOM     94  O   UNL     1       3.201  20.783  18.864  1.00  0.00    -0.237 OA
ATOM     95  O   UNL     1       4.942  20.221  20.515  1.00  0.00    -0.744 OA
ENDBRANCH  91  92
ENDBRANCH  65  86
ENDBRANCH  39  40
ENDBRANCH  32  34
ENDBRANCH  31  32
ENDBRANCH  30  31
ENDBRANCH  29  30
ENDBRANCH  28  29
ENDBRANCH   1  28
TORSDOF 21
