REMARK SMILES CCC1(C(=O)OCCOCCOC(=O)c2ccc(-c3c4nc(c(-c5ccc(S(=O)(=O)[O-])cc5)c5ccc([nH]5)c(-c5ccc(S(=O)(=O)[O-])cc5)c5nc(c(-c6ccc(S(=O)(=O)[O-])cc6)c6ccc3[nH]6)C=C5)C=C4)cc2)CCN(C(=O)C[C@H]2CSCC[NH2+]2)CC1
REMARK SMILES IDX 10 1 9 2 8 3 7 4 6 5 4 6 5 7 3 8 75 9 88 10 76 11 87 12
REMARK SMILES IDX 77 13 78 14 79 15 2 16 1 17 80 18 81 19 82 20 86 21 83 22
REMARK SMILES IDX 85 23 84 26 11 27 12 28 13 29 14 30 15 31 16 32 74 33 17 34
REMARK SMILES IDX 73 35 18 36 19 37 20 38 67 39 21 40 72 41 66 42 68 43 22 44
REMARK SMILES IDX 71 45 65 46 64 47 23 49 53 50 34 51 52 52 35 53 38 54 51 55
REMARK SMILES IDX 69 56 36 57 37 58 50 60 70 61 39 62 24 63 25 64 33 65 26 66
REMARK SMILES IDX 32 67 27 68 28 69 29 70 30 71 31 72 54 73 55 74 63 75 56 76
REMARK SMILES IDX 62 77 57 78 58 79 59 80 60 81 61 82 40 83 41 84 49 85 42 86
REMARK SMILES IDX 48 87 43 88 44 89 45 90 46 91 47 92
REMARK H PARENT 86 24 86 25 68 48 38 59
REMARK Flexibility Score: inf
ROOT
ATOM      1  C   UNL     1      -0.284  11.854   5.093  1.00  0.00     0.202 C 
ENDROOT
BRANCH   1   2
ATOM      2  O   UNL     1      -1.637  12.304   5.080  1.00  0.00    -0.374 OA
BRANCH   2   3
ATOM      3  C   UNL     1      -2.623  11.420   4.550  1.00  0.00     0.202 C 
BRANCH   3   4
ATOM      4  C   UNL     1      -2.663  11.240   3.029  1.00  0.00     0.261 C 
BRANCH   4   5
ATOM      5  O   UNL     1      -1.411  10.773   2.504  1.00  0.00    -0.463 OA
BRANCH   5   6
ATOM      6  C   UNL     1      -0.783  11.607   1.635  1.00  0.00     0.312 C 
ATOM      7  O   UNL     1      -1.252  12.661   1.220  1.00  0.00    -0.252 OA
BRANCH   6   8
ATOM      8  C   UNL     1       0.588  11.081   1.177  1.00  0.00     0.071 C 
ATOM      9  C   UNL     1       1.160   9.921   2.051  1.00  0.00     0.040 C 
ATOM     10  C   UNL     1       0.322  10.556  -0.257  1.00  0.00     0.040 C 
ATOM     11  C   UNL     1       2.281   9.126   1.365  1.00  0.00     0.120 C 
ATOM     12  C   UNL     1       1.517   9.819  -0.841  1.00  0.00     0.120 C 
ATOM     13  N   UNL     1       1.848   8.710   0.034  1.00  0.00    -0.342 N 
ATOM     14  C   UNL     1       1.622   7.365  -0.224  1.00  0.00     0.228 C 
ATOM     15  O   UNL     1       1.961   6.489   0.576  1.00  0.00    -0.275 OA
BRANCH   8  16
ATOM     16  C   UNL     1       1.580  12.282   1.109  1.00  0.00     0.015 C 
ATOM     17  C   UNL     1       1.712  13.111   2.383  1.00  0.00     0.005 C 
ENDBRANCH   8  16
BRANCH  14  18
ATOM     18  C   UNL     1       0.888   6.962  -1.499  1.00  0.00     0.166 C 
BRANCH  18  19
ATOM     19  C   UNL     1      -0.642   7.106  -1.325  1.00  0.00     0.201 C 
ATOM     20  C   UNL     1      -1.221   8.089  -2.365  1.00  0.00     0.135 C 
ATOM     21  N   UNL     1      -1.295   5.786  -1.477  1.00  0.00    -0.342 N 
ATOM     22  S   UNL     1      -2.959   8.488  -2.007  1.00  0.00    -0.150 SA
ATOM     23  C   UNL     1      -2.733   5.842  -1.144  1.00  0.00     0.271 C 
ATOM     24  H   UNL     1      -0.838   5.118  -0.855  1.00  0.00     0.346 HD
ATOM     25  H   UNL     1      -1.206   5.499  -2.452  1.00  0.00     0.346 HD
ATOM     26  C   UNL     1      -3.576   6.775  -2.025  1.00  0.00     0.131 C 
ENDBRANCH  18  19
ENDBRANCH  14  18
ENDBRANCH   6   8
ENDBRANCH   5   6
ENDBRANCH   4   5
ENDBRANCH   3   4
ENDBRANCH   2   3
ENDBRANCH   1   2
BRANCH   1  27
ATOM     27  C   UNL     1       0.111  10.787   6.122  1.00  0.00     0.261 C 
BRANCH  27  28
ATOM     28  O   UNL     1      -0.551   9.531   5.903  1.00  0.00    -0.460 OA
BRANCH  28  29
ATOM     29  C   UNL     1      -1.473   9.211   6.842  1.00  0.00     0.338 C 
ATOM     30  O   UNL     1      -1.751   9.848   7.851  1.00  0.00    -0.246 OA
BRANCH  29  31
ATOM     31  C   UNL     1      -2.263   8.051   6.399  1.00  0.00     0.060 A 
ATOM     32  C   UNL     1      -3.659   8.179   6.384  1.00  0.00     0.016 A 
ATOM     33  C   UNL     1      -1.654   6.834   6.086  1.00  0.00     0.016 A 
ATOM     34  C   UNL     1      -4.459   7.073   6.107  1.00  0.00     0.010 A 
ATOM     35  C   UNL     1      -2.458   5.723   5.824  1.00  0.00     0.010 A 
ATOM     36  C   UNL     1      -3.861   5.830   5.874  1.00  0.00    -0.014 A 
BRANCH  36  37
ATOM     37  C   UNL     1      -4.683   4.599   5.871  1.00  0.00     0.031 A 
ATOM     38  C   UNL     1      -4.755   3.788   7.136  1.00  0.00     0.074 A 
ATOM     39  C   UNL     1      -5.336   4.202   4.766  1.00  0.00     0.049 A 
ATOM     40  N   UNL     1      -5.290   2.614   7.338  1.00  0.00    -0.248 NA
ATOM     41  C   UNL     1      -4.135   4.384   8.333  1.00  0.00     0.031 C 
ATOM     42  C   UNL     1      -5.393   4.940   3.505  1.00  0.00     0.029 A 
ATOM     43  N   UNL     1      -6.063   3.064   4.526  1.00  0.00    -0.354 N 
ATOM     44  C   UNL     1      -5.051   2.318   8.675  1.00  0.00     0.074 A 
ATOM     45  C   UNL     1      -4.313   3.429   9.233  1.00  0.00     0.031 C 
ATOM     46  C   UNL     1      -6.099   4.221   2.614  1.00  0.00     0.029 A 
ATOM     47  C   UNL     1      -6.503   2.958   3.229  1.00  0.00     0.049 A 
ATOM     48  H   UNL     1      -6.252   2.388   5.217  1.00  0.00     0.167 HD
ATOM     49  C   UNL     1      -5.410   1.214   9.373  1.00  0.00     0.031 A 
ATOM     50  C   UNL     1      -7.127   1.940   2.603  1.00  0.00     0.031 A 
ATOM     51  C   UNL     1      -6.129   0.108   8.804  1.00  0.00     0.049 A 
ATOM     52  C   UNL     1      -7.451   0.689   3.377  1.00  0.00     0.074 A 
ATOM     53  C   UNL     1      -6.538  -1.062   9.420  1.00  0.00     0.029 A 
ATOM     54  N   UNL     1      -6.544   0.034   7.483  1.00  0.00    -0.354 N 
ATOM     55  N   UNL     1      -7.213   0.416   4.638  1.00  0.00    -0.248 NA
ATOM     56  C   UNL     1      -8.129  -0.391   2.645  1.00  0.00     0.031 C 
ATOM     57  C   UNL     1      -7.160  -1.864   8.458  1.00  0.00     0.029 A 
ATOM     58  C   UNL     1      -7.191  -1.168   7.259  1.00  0.00     0.049 A 
ATOM     59  H   UNL     1      -6.400   0.733   6.805  1.00  0.00     0.167 HD
ATOM     60  C   UNL     1      -7.747  -0.849   4.861  1.00  0.00     0.074 A 
ATOM     61  C   UNL     1      -8.317  -1.289   3.604  1.00  0.00     0.031 C 
ATOM     62  C   UNL     1      -7.770  -1.577   6.004  1.00  0.00     0.031 A 
BRANCH  49  63
ATOM     63  C   UNL     1      -4.985   1.135  10.815  1.00  0.00    -0.014 A 
ATOM     64  C   UNL     1      -5.584   1.942  11.799  1.00  0.00     0.010 A 
ATOM     65  C   UNL     1      -3.986   0.219  11.194  1.00  0.00     0.010 A 
ATOM     66  C   UNL     1      -5.163   1.862  13.129  1.00  0.00     0.020 A 
ATOM     67  C   UNL     1      -3.582   0.118  12.528  1.00  0.00     0.020 A 
ATOM     68  C   UNL     1      -4.161   0.954  13.485  1.00  0.00     0.054 A 
BRANCH  68  69
ATOM     69  S   UNL     1      -3.644   0.860  15.221  1.00  0.00     0.124 S 
ATOM     70  O   UNL     1      -2.871   2.091  15.370  1.00  0.00    -0.237 OA
ATOM     71  O   UNL     1      -4.918   0.829  15.934  1.00  0.00    -0.237 OA
ATOM     72  O   UNL     1      -2.867  -0.375  15.286  1.00  0.00    -0.744 OA
ENDBRANCH  68  69
ENDBRANCH  49  63
BRANCH  50  73
ATOM     73  C   UNL     1      -7.461   2.054   1.157  1.00  0.00    -0.014 A 
ATOM     74  C   UNL     1      -8.796   2.179   0.738  1.00  0.00     0.010 A 
ATOM     75  C   UNL     1      -6.437   2.048   0.191  1.00  0.00     0.010 A 
ATOM     76  C   UNL     1      -9.104   2.286  -0.622  1.00  0.00     0.020 A 
ATOM     77  C   UNL     1      -6.739   2.181  -1.167  1.00  0.00     0.020 A 
ATOM     78  C   UNL     1      -8.072   2.289  -1.566  1.00  0.00     0.054 A 
BRANCH  78  79
ATOM     79  S   UNL     1      -8.489   2.492  -3.320  1.00  0.00     0.124 S 
ATOM     80  O   UNL     1      -9.020   1.176  -3.660  1.00  0.00    -0.237 OA
ATOM     81  O   UNL     1      -9.462   3.581  -3.290  1.00  0.00    -0.237 OA
ATOM     82  O   UNL     1      -7.207   2.831  -3.935  1.00  0.00    -0.744 OA
ENDBRANCH  78  79
ENDBRANCH  50  73
BRANCH  62  83
ATOM     83  C   UNL     1      -8.489  -2.899   5.981  1.00  0.00    -0.014 A 
ATOM     84  C   UNL     1      -7.924  -4.032   5.372  1.00  0.00     0.010 A 
ATOM     85  C   UNL     1      -9.709  -3.026   6.673  1.00  0.00     0.010 A 
ATOM     86  C   UNL     1      -8.574  -5.268   5.445  1.00  0.00     0.020 A 
ATOM     87  C   UNL     1     -10.348  -4.263   6.768  1.00  0.00     0.020 A 
ATOM     88  C   UNL     1      -9.779  -5.376   6.147  1.00  0.00     0.054 A 
BRANCH  88  89
ATOM     89  S   UNL     1     -10.562  -7.006   6.295  1.00  0.00     0.124 S 
ATOM     90  O   UNL     1     -11.112  -7.201   4.956  1.00  0.00    -0.237 OA
ATOM     91  O   UNL     1      -9.439  -7.871   6.646  1.00  0.00    -0.237 OA
ATOM     92  O   UNL     1     -11.552  -6.820   7.353  1.00  0.00    -0.744 OA
ENDBRANCH  88  89
ENDBRANCH  62  83
ENDBRANCH  36  37
ENDBRANCH  29  31
ENDBRANCH  28  29
ENDBRANCH  27  28
ENDBRANCH   1  27
TORSDOF 20
