REMARK SMILES C[C@H](Nc1nc(CC(=O)OCCOCCOC(=O)c2ccc(-c3c4nc(c(-c5ccc(S(=O)(=O)[O-])cc5)c5ccc([nH]5)c(-c5ccc(S(=O)(=O)[O-])cc5)c5nc(c(-c6ccc(S(=O)(=O)[O-])cc6)c6ccc3[nH]6)C=C5)C=C4)cc2)cs1)c1ccccc1
REMARK SMILES IDX 12 1 11 2 10 3 8 4 9 5 7 6 6 7 4 8 5 9 80 10 79 11 3 12 2 14
REMARK SMILES IDX 1 15 81 16 82 17 86 18 83 19 85 20 84 21 13 22 14 23 15 24
REMARK SMILES IDX 16 25 17 26 18 27 19 28 20 29 78 30 21 31 77 32 22 33 23 34
REMARK SMILES IDX 24 35 71 36 25 37 76 38 70 39 72 40 26 41 75 42 69 43 68 44
REMARK SMILES IDX 27 46 57 47 38 48 56 49 39 50 42 51 55 52 73 53 40 54 41 55
REMARK SMILES IDX 54 57 74 58 43 59 28 60 29 61 37 62 30 63 36 64 31 65 32 66
REMARK SMILES IDX 33 67 34 68 35 69 58 70 59 71 67 72 60 73 66 74 61 75 62 76
REMARK SMILES IDX 63 77 64 78 65 79 44 80 45 81 53 82 46 83 52 84 47 85 48 86
REMARK SMILES IDX 49 87 50 88 51 89
REMARK H PARENT 3 13 72 45 42 56
REMARK Flexibility Score: inf
ROOT
ATOM      1  C   UNL     1       5.515  -1.611   5.978  1.00  0.00     0.202 C 
ENDROOT
BRANCH   1   2
ATOM      2  C   UNL     1       4.182  -0.974   6.389  1.00  0.00     0.261 C 
BRANCH   2   3
ATOM      3  O   UNL     1       3.563  -0.246   5.308  1.00  0.00    -0.463 OA
BRANCH   3   4
ATOM      4  C   UNL     1       3.329   1.074   5.531  1.00  0.00     0.311 C 
ATOM      5  O   UNL     1       3.596   1.658   6.578  1.00  0.00    -0.252 OA
BRANCH   4   6
ATOM      6  C   UNL     1       2.661   1.795   4.387  1.00  0.00     0.179 C 
BRANCH   6   7
ATOM      7  C   UNL     1       2.850   1.230   3.018  1.00  0.00     0.065 A 
ATOM      8  C   UNL     1       2.018   0.493   1.094  1.00  0.00     0.183 A 
ATOM      9  N   UNL     1       1.714   0.894   2.304  1.00  0.00    -0.225 NA
ATOM     10  S   UNL     1       3.703   0.362   0.781  1.00  0.00    -0.105 S 
ATOM     11  C   UNL     1       4.009   1.155   2.270  1.00  0.00     0.093 A 
BRANCH   8  12
ATOM     12  N   UNL     1       1.124   0.364   0.095  1.00  0.00    -0.355 N 
ATOM     13  H   UNL     1       1.000  -0.480  -0.397  1.00  0.00     0.163 HD
BRANCH  12  14
ATOM     14  C   UNL     1       0.350   1.566  -0.208  1.00  0.00     0.108 C 
ATOM     15  C   UNL     1       0.737   2.046  -1.612  1.00  0.00     0.036 C 
BRANCH  14  16
ATOM     16  C   UNL     1      -1.147   1.383  -0.074  1.00  0.00    -0.026 A 
ATOM     17  C   UNL     1      -1.954   2.535   0.008  1.00  0.00     0.006 A 
ATOM     18  C   UNL     1      -1.770   0.130  -0.017  1.00  0.00     0.006 A 
ATOM     19  C   UNL     1      -3.339   2.437   0.139  1.00  0.00     0.000 A 
ATOM     20  C   UNL     1      -3.158   0.033   0.115  1.00  0.00     0.000 A 
ATOM     21  C   UNL     1      -3.941   1.184   0.191  1.00  0.00     0.000 A 
ENDBRANCH  14  16
ENDBRANCH  12  14
ENDBRANCH   8  12
ENDBRANCH   6   7
ENDBRANCH   4   6
ENDBRANCH   3   4
ENDBRANCH   2   3
ENDBRANCH   1   2
BRANCH   1  22
ATOM     22  O   UNL     1       6.582  -0.707   5.683  1.00  0.00    -0.374 OA
BRANCH  22  23
ATOM     23  C   UNL     1       6.520  -0.038   4.427  1.00  0.00     0.202 C 
BRANCH  23  24
ATOM     24  C   UNL     1       6.915  -0.865   3.196  1.00  0.00     0.261 C 
BRANCH  24  25
ATOM     25  O   UNL     1       5.995  -1.944   2.951  1.00  0.00    -0.460 OA
BRANCH  25  26
ATOM     26  C   UNL     1       6.550  -3.177   3.023  1.00  0.00     0.338 C 
ATOM     27  O   UNL     1       7.739  -3.438   3.153  1.00  0.00    -0.246 OA
BRANCH  26  28
ATOM     28  C   UNL     1       5.513  -4.222   3.101  1.00  0.00     0.060 A 
ATOM     29  C   UNL     1       5.618  -5.139   4.154  1.00  0.00     0.016 A 
ATOM     30  C   UNL     1       4.533  -4.381   2.118  1.00  0.00     0.016 A 
ATOM     31  C   UNL     1       4.794  -6.261   4.189  1.00  0.00     0.010 A 
ATOM     32  C   UNL     1       3.709  -5.516   2.152  1.00  0.00     0.010 A 
ATOM     33  C   UNL     1       3.869  -6.484   3.161  1.00  0.00    -0.014 A 
BRANCH  33  34
ATOM     34  C   UNL     1       3.209  -7.811   3.069  1.00  0.00     0.031 A 
ATOM     35  C   UNL     1       3.782  -8.846   2.135  1.00  0.00     0.074 A 
ATOM     36  C   UNL     1       2.166  -8.121   3.860  1.00  0.00     0.049 A 
ATOM     37  N   UNL     1       3.396 -10.079   1.928  1.00  0.00    -0.248 NA
ATOM     38  C   UNL     1       4.948  -8.439   1.333  1.00  0.00     0.031 C 
ATOM     39  C   UNL     1       1.551  -7.226   4.840  1.00  0.00     0.029 A 
ATOM     40  N   UNL     1       1.446  -9.285   3.969  1.00  0.00    -0.354 N 
ATOM     41  C   UNL     1       4.269 -10.595   0.976  1.00  0.00     0.074 A 
ATOM     42  C   UNL     1       5.186  -9.533   0.623  1.00  0.00     0.031 C 
ATOM     43  C   UNL     1       0.546  -7.876   5.453  1.00  0.00     0.029 A 
ATOM     44  C   UNL     1       0.430  -9.222   4.893  1.00  0.00     0.049 A 
ATOM     45  H   UNL     1       1.639 -10.090   3.435  1.00  0.00     0.167 HD
ATOM     46  C   UNL     1       4.312 -11.842   0.450  1.00  0.00     0.031 A 
ATOM     47  C   UNL     1      -0.493 -10.140   5.240  1.00  0.00     0.031 A 
ATOM     48  C   UNL     1       3.396 -12.897   0.791  1.00  0.00     0.049 A 
ATOM     49  C   UNL     1      -0.468 -11.499   4.589  1.00  0.00     0.074 A 
ATOM     50  C   UNL     1       3.357 -14.194   0.308  1.00  0.00     0.029 A 
ATOM     51  N   UNL     1       2.355 -12.777   1.699  1.00  0.00    -0.354 N 
ATOM     52  N   UNL     1       0.374 -11.972   3.701  1.00  0.00    -0.248 NA
ATOM     53  C   UNL     1      -1.511 -12.451   4.997  1.00  0.00     0.031 C 
ATOM     54  C   UNL     1       2.265 -14.845   0.892  1.00  0.00     0.029 A 
ATOM     55  C   UNL     1       1.657 -13.970   1.777  1.00  0.00     0.049 A 
ATOM     56  H   UNL     1       2.144 -11.964   2.212  1.00  0.00     0.167 HD
ATOM     57  C   UNL     1      -0.021 -13.286   3.468  1.00  0.00     0.074 A 
ATOM     58  C   UNL     1      -1.169 -13.535   4.315  1.00  0.00     0.031 C 
ATOM     59  C   UNL     1       0.520 -14.205   2.630  1.00  0.00     0.031 A 
BRANCH  46  60
ATOM     60  C   UNL     1       5.376 -12.127  -0.577  1.00  0.00    -0.014 A 
ATOM     61  C   UNL     1       6.724 -12.275  -0.203  1.00  0.00     0.010 A 
ATOM     62  C   UNL     1       5.016 -12.292  -1.927  1.00  0.00     0.010 A 
ATOM     63  C   UNL     1       7.698 -12.551  -1.167  1.00  0.00     0.020 A 
ATOM     64  C   UNL     1       5.984 -12.591  -2.890  1.00  0.00     0.020 A 
ATOM     65  C   UNL     1       7.322 -12.704  -2.505  1.00  0.00     0.054 A 
BRANCH  65  66
ATOM     66  S   UNL     1       8.602 -13.087  -3.733  1.00  0.00     0.124 S 
ATOM     67  O   UNL     1       9.285 -11.803  -3.865  1.00  0.00    -0.237 OA
ATOM     68  O   UNL     1       9.370 -14.143  -3.078  1.00  0.00    -0.237 OA
ATOM     69  O   UNL     1       7.841 -13.512  -4.906  1.00  0.00    -0.744 OA
ENDBRANCH  65  66
ENDBRANCH  46  60
BRANCH  47  70
ATOM     70  C   UNL     1      -1.538  -9.804   6.247  1.00  0.00    -0.014 A 
ATOM     71  C   UNL     1      -1.538 -10.410   7.516  1.00  0.00     0.010 A 
ATOM     72  C   UNL     1      -2.554  -8.884   5.929  1.00  0.00     0.010 A 
ATOM     73  C   UNL     1      -2.547 -10.120   8.439  1.00  0.00     0.020 A 
ATOM     74  C   UNL     1      -3.549  -8.572   6.858  1.00  0.00     0.020 A 
ATOM     75  C   UNL     1      -3.548  -9.204   8.103  1.00  0.00     0.054 A 
BRANCH  75  76
ATOM     76  S   UNL     1      -4.830  -8.815   9.327  1.00  0.00     0.124 S 
ATOM     77  O   UNL     1      -5.681  -9.999   9.261  1.00  0.00    -0.237 OA
ATOM     78  O   UNL     1      -4.058  -8.657  10.556  1.00  0.00    -0.237 OA
ATOM     79  O   UNL     1      -5.428  -7.584   8.814  1.00  0.00    -0.744 OA
ENDBRANCH  75  76
ENDBRANCH  47  70
BRANCH  59  80
ATOM     80  C   UNL     1      -0.093 -15.580   2.616  1.00  0.00    -0.014 A 
ATOM     81  C   UNL     1      -1.337 -15.819   2.007  1.00  0.00     0.010 A 
ATOM     82  C   UNL     1       0.617 -16.659   3.175  1.00  0.00     0.010 A 
ATOM     83  C   UNL     1      -1.876 -17.109   1.986  1.00  0.00     0.020 A 
ATOM     84  C   UNL     1       0.093 -17.954   3.133  1.00  0.00     0.020 A 
ATOM     85  C   UNL     1      -1.158 -18.168   2.552  1.00  0.00     0.054 A 
BRANCH  85  86
ATOM     86  S   UNL     1      -1.859 -19.840   2.477  1.00  0.00     0.124 S 
ATOM     87  O   UNL     1      -2.887 -19.785   3.511  1.00  0.00    -0.237 OA
ATOM     88  O   UNL     1      -2.352 -19.922   1.104  1.00  0.00    -0.237 OA
ATOM     89  O   UNL     1      -0.720 -20.706   2.775  1.00  0.00    -0.744 OA
ENDBRANCH  85  86
ENDBRANCH  59  80
ENDBRANCH  33  34
ENDBRANCH  26  28
ENDBRANCH  25  26
ENDBRANCH  24  25
ENDBRANCH  23  24
ENDBRANCH  22  23
ENDBRANCH   1  22
TORSDOF 21
