REMARK SMILES CSc1ncccc1C(=O)N1CSC[C@H]1C(=O)OCCOCCOC(=O)c1ccc(-c2c3nc(c(-c4ccc(S(=O)(=O)[O-])cc4)c4ccc([nH]4)c(-c4ccc(S(=O)(=O)[O-])cc4)c4nc(c(-c5ccc(S(=O)(=O)[O-])cc5)c5ccc2[nH]5)C=C4)C=C3)cc1
REMARK SMILES IDX 21 1 20 2 19 3 18 4 16 5 17 6 15 7 11 8 12 9 13 10 14 11
REMARK SMILES IDX 9 12 10 13 8 14 3 15 4 16 5 17 7 18 6 19 2 20 1 21 22 22
REMARK SMILES IDX 23 23 24 24 25 25 26 26 27 27 28 28 86 29 29 30 85 31 30 32
REMARK SMILES IDX 31 33 32 34 79 35 33 36 84 37 78 38 80 39 34 40 83 41 77 42
REMARK SMILES IDX 76 43 35 45 65 46 46 47 64 48 47 49 50 50 63 51 81 52 48 53
REMARK SMILES IDX 49 54 62 56 82 57 51 58 36 59 37 60 45 61 38 62 44 63 39 64
REMARK SMILES IDX 40 65 41 66 42 67 43 68 66 69 67 70 75 71 68 72 74 73 69 74
REMARK SMILES IDX 70 75 71 76 72 77 73 78 52 79 53 80 61 81 54 82 60 83 55 84
REMARK SMILES IDX 56 85 57 86 58 87 59 88
REMARK H PARENT 80 44 50 55
REMARK Flexibility Score: inf
ROOT
ATOM      1  O   UNL     1       4.707  -3.024   1.378  1.00  0.00    -0.374 OA
ENDROOT
BRANCH   1   2
ATOM      2  C   UNL     1       4.641  -3.052   2.799  1.00  0.00     0.202 C 
BRANCH   2   3
ATOM      3  C   UNL     1       5.158  -1.839   3.587  1.00  0.00     0.261 C 
BRANCH   3   4
ATOM      4  O   UNL     1       4.620  -0.562   3.175  1.00  0.00    -0.462 OA
BRANCH   4   5
ATOM      5  C   UNL     1       5.551   0.336   2.756  1.00  0.00     0.329 C 
ATOM      6  O   UNL     1       6.761   0.115   2.720  1.00  0.00    -0.250 OA
BRANCH   5   7
ATOM      7  C   UNL     1       5.009   1.731   2.430  1.00  0.00     0.206 C 
ATOM      8  N   UNL     1       3.583   2.023   2.204  1.00  0.00    -0.315 N 
ATOM      9  C   UNL     1       2.857   2.306   3.423  1.00  0.00     0.191 C 
ATOM     10  S   UNL     1       4.018   3.204   4.474  1.00  0.00    -0.138 SA
ATOM     11  C   UNL     1       5.492   2.653   3.560  1.00  0.00     0.108 C 
BRANCH   8  12
ATOM     12  C   UNL     1       3.127   2.213   0.897  1.00  0.00     0.258 C 
ATOM     13  O   UNL     1       3.624   1.593  -0.039  1.00  0.00    -0.269 OA
BRANCH  12  14
ATOM     14  C   UNL     1       2.163   3.322   0.612  1.00  0.00     0.072 A 
ATOM     15  C   UNL     1       1.166   3.303  -0.372  1.00  0.00     0.108 A 
ATOM     16  N   UNL     1       0.382   4.396  -0.616  1.00  0.00    -0.249 NA
ATOM     17  C   UNL     1       0.628   5.545   0.043  1.00  0.00     0.112 A 
ATOM     18  C   UNL     1       2.415   4.558   1.242  1.00  0.00     0.018 A 
ATOM     19  C   UNL     1       1.642   5.680   0.962  1.00  0.00     0.021 A 
BRANCH  15  20
ATOM     20  S   UNL     1       0.836   2.037  -1.577  1.00  0.00    -0.109 SA
ATOM     21  C   UNL     1       0.453   0.604  -0.562  1.00  0.00     0.092 C 
ENDBRANCH  15  20
ENDBRANCH  12  14
ENDBRANCH   8  12
ENDBRANCH   5   7
ENDBRANCH   4   5
ENDBRANCH   3   4
ENDBRANCH   2   3
ENDBRANCH   1   2
BRANCH   1  22
ATOM     22  C   UNL     1       4.094  -1.936   0.705  1.00  0.00     0.202 C 
BRANCH  22  23
ATOM     23  C   UNL     1       2.600  -1.669   0.929  1.00  0.00     0.261 C 
BRANCH  23  24
ATOM     24  O   UNL     1       2.094  -1.879   2.252  1.00  0.00    -0.460 OA
BRANCH  24  25
ATOM     25  C   UNL     1       1.139  -2.838   2.346  1.00  0.00     0.338 C 
ATOM     26  O   UNL     1       0.653  -3.498   1.446  1.00  0.00    -0.246 OA
BRANCH  25  27
ATOM     27  C   UNL     1       0.804  -3.054   3.761  1.00  0.00     0.060 A 
ATOM     28  C   UNL     1       1.201  -4.255   4.356  1.00  0.00     0.016 A 
ATOM     29  C   UNL     1       0.003  -2.140   4.450  1.00  0.00     0.016 A 
ATOM     30  C   UNL     1       0.757  -4.568   5.638  1.00  0.00     0.010 A 
ATOM     31  C   UNL     1      -0.440  -2.457   5.738  1.00  0.00     0.010 A 
ATOM     32  C   UNL     1      -0.098  -3.689   6.320  1.00  0.00    -0.014 A 
BRANCH  32  33
ATOM     33  C   UNL     1      -0.735  -4.141   7.581  1.00  0.00     0.031 A 
ATOM     34  C   UNL     1      -2.148  -4.660   7.544  1.00  0.00     0.074 A 
ATOM     35  C   UNL     1      -0.037  -4.145   8.731  1.00  0.00     0.049 A 
ATOM     36  N   UNL     1      -2.866  -5.169   8.511  1.00  0.00    -0.248 NA
ATOM     37  C   UNL     1      -2.841  -4.600   6.247  1.00  0.00     0.031 C 
ATOM     38  C   UNL     1       1.344  -3.687   8.882  1.00  0.00     0.029 A 
ATOM     39  N   UNL     1      -0.394  -4.562   9.988  1.00  0.00    -0.354 N 
ATOM     40  C   UNL     1      -4.093  -5.491   7.942  1.00  0.00     0.074 A 
ATOM     41  C   UNL     1      -4.035  -5.086   6.554  1.00  0.00     0.031 C 
ATOM     42  C   UNL     1       1.722  -3.859  10.160  1.00  0.00     0.029 A 
ATOM     43  C   UNL     1       0.606  -4.418  10.919  1.00  0.00     0.049 A 
ATOM     44  H   UNL     1      -1.281  -4.929  10.203  1.00  0.00     0.167 HD
ATOM     45  C   UNL     1      -5.168  -6.081   8.519  1.00  0.00     0.031 A 
ATOM     46  C   UNL     1       0.620  -4.706  12.236  1.00  0.00     0.031 A 
ATOM     47  C   UNL     1      -5.226  -6.470   9.903  1.00  0.00     0.049 A 
ATOM     48  C   UNL     1      -0.599  -5.327  12.863  1.00  0.00     0.074 A 
ATOM     49  C   UNL     1      -6.263  -7.083  10.583  1.00  0.00     0.029 A 
ATOM     50  N   UNL     1      -4.202  -6.282  10.819  1.00  0.00    -0.354 N 
ATOM     51  N   UNL     1      -1.740  -5.652  12.302  1.00  0.00    -0.248 NA
ATOM     52  C   UNL     1      -0.521  -5.639  14.297  1.00  0.00     0.031 C 
ATOM     53  C   UNL     1      -5.884  -7.222  11.923  1.00  0.00     0.029 A 
ATOM     54  C   UNL     1      -4.589  -6.749  12.064  1.00  0.00     0.049 A 
ATOM     55  H   UNL     1      -3.329  -5.877  10.615  1.00  0.00     0.167 HD
ATOM     56  C   UNL     1      -2.506  -6.232  13.308  1.00  0.00     0.074 A 
ATOM     57  C   UNL     1      -1.691  -6.226  14.507  1.00  0.00     0.031 C 
ATOM     58  C   UNL     1      -3.766  -6.730  13.246  1.00  0.00     0.031 A 
BRANCH  45  59
ATOM     59  C   UNL     1      -6.379  -6.314   7.655  1.00  0.00    -0.014 A 
ATOM     60  C   UNL     1      -6.382  -7.303   6.655  1.00  0.00     0.010 A 
ATOM     61  C   UNL     1      -7.543  -5.553   7.867  1.00  0.00     0.010 A 
ATOM     62  C   UNL     1      -7.513  -7.501   5.857  1.00  0.00     0.020 A 
ATOM     63  C   UNL     1      -8.685  -5.764   7.088  1.00  0.00     0.020 A 
ATOM     64  C   UNL     1      -8.656  -6.726   6.077  1.00  0.00     0.054 A 
BRANCH  64  65
ATOM     65  S   UNL     1     -10.118  -7.014   5.040  1.00  0.00     0.124 S 
ATOM     66  O   UNL     1      -9.710  -6.415   3.772  1.00  0.00    -0.237 OA
ATOM     67  O   UNL     1     -10.229  -8.471   5.040  1.00  0.00    -0.237 OA
ATOM     68  O   UNL     1     -11.187  -6.312   5.746  1.00  0.00    -0.744 OA
ENDBRANCH  64  65
ENDBRANCH  45  59
BRANCH  46  69
ATOM     69  C   UNL     1       1.833  -4.413  13.046  1.00  0.00    -0.014 A 
ATOM     70  C   UNL     1       2.639  -5.453  13.542  1.00  0.00     0.010 A 
ATOM     71  C   UNL     1       2.193  -3.080  13.319  1.00  0.00     0.010 A 
ATOM     72  C   UNL     1       3.773  -5.166  14.309  1.00  0.00     0.020 A 
ATOM     73  C   UNL     1       3.339  -2.789  14.062  1.00  0.00     0.020 A 
ATOM     74  C   UNL     1       4.117  -3.835  14.562  1.00  0.00     0.054 A 
BRANCH  74  75
ATOM     75  S   UNL     1       5.622  -3.481  15.511  1.00  0.00     0.124 S 
ATOM     76  O   UNL     1       5.205  -3.802  16.872  1.00  0.00    -0.237 OA
ATOM     77  O   UNL     1       6.594  -4.394  14.914  1.00  0.00    -0.237 OA
ATOM     78  O   UNL     1       5.866  -2.065  15.247  1.00  0.00    -0.744 OA
ENDBRANCH  74  75
ENDBRANCH  46  69
BRANCH  58  79
ATOM     79  C   UNL     1      -4.326  -7.343  14.502  1.00  0.00    -0.014 A 
ATOM     80  C   UNL     1      -4.708  -6.547  15.597  1.00  0.00     0.010 A 
ATOM     81  C   UNL     1      -4.503  -8.737  14.572  1.00  0.00     0.010 A 
ATOM     82  C   UNL     1      -5.214  -7.140  16.757  1.00  0.00     0.020 A 
ATOM     83  C   UNL     1      -5.034  -9.330  15.719  1.00  0.00     0.020 A 
ATOM     84  C   UNL     1      -5.367  -8.529  16.813  1.00  0.00     0.054 A 
BRANCH  84  85
ATOM     85  S   UNL     1      -6.042  -9.275  18.322  1.00  0.00     0.124 S 
ATOM     86  O   UNL     1      -4.897  -9.215  19.227  1.00  0.00    -0.237 OA
ATOM     87  O   UNL     1      -7.153  -8.386  18.653  1.00  0.00    -0.237 OA
ATOM     88  O   UNL     1      -6.432 -10.618  17.898  1.00  0.00    -0.744 OA
ENDBRANCH  84  85
ENDBRANCH  58  79
ENDBRANCH  32  33
ENDBRANCH  25  27
ENDBRANCH  24  25
ENDBRANCH  23  24
ENDBRANCH  22  23
ENDBRANCH   1  22
TORSDOF 20
