REMARK SMILES CC1(C)C[C@](CC(=O)OCCOCCOC(=O)c2ccc(-c3c4nc(c(-c5ccc(S(=O)(=O)[O-])cc5)c5ccc([nH]5)c(-c5ccc(S(=O)(=O)[O-])cc5)c5nc(c(-c6ccc(S(=O)(=O)[O-])cc6)c6ccc3[nH]6)C=C5)C=C4)cc2)([NH+]2CCCC2)C(C)(C)O1
REMARK SMILES IDX 13 1 12 2 11 3 10 4 9 5 7 6 8 7 6 8 5 9 1 10 2 11 3 12 4 13
REMARK SMILES IDX 86 14 83 15 84 16 85 17 78 18 79 19 82 20 80 22 81 23 14 24
REMARK SMILES IDX 15 25 16 26 17 27 18 28 19 29 77 30 20 31 76 32 21 33 22 34
REMARK SMILES IDX 23 35 70 36 24 37 75 38 69 39 71 40 25 41 74 42 68 43 67 44
REMARK SMILES IDX 26 46 56 47 37 48 55 49 38 50 41 51 54 52 72 53 39 54 40 55
REMARK SMILES IDX 53 57 73 58 42 59 27 60 28 61 36 62 29 63 35 64 30 65 31 66
REMARK SMILES IDX 32 67 33 68 34 69 57 70 58 71 66 72 59 73 65 74 60 75 61 76
REMARK SMILES IDX 62 77 63 78 64 79 43 80 44 81 52 82 45 83 51 84 46 85 47 86
REMARK SMILES IDX 48 87 49 88 50 89
REMARK H PARENT 78 21 71 45 41 56
REMARK Flexibility Score: inf
ROOT
ATOM      1  C   UNL     1       0.069  -0.562   8.507  1.00  0.00     0.202 C 
ENDROOT
BRANCH   1   2
ATOM      2  O   UNL     1       1.194   0.013   9.167  1.00  0.00    -0.374 OA
BRANCH   2   3
ATOM      3  C   UNL     1       1.837   1.101   8.500  1.00  0.00     0.202 C 
BRANCH   3   4
ATOM      4  C   UNL     1       2.751   0.726   7.327  1.00  0.00     0.261 C 
BRANCH   4   5
ATOM      5  O   UNL     1       2.061   0.384   6.098  1.00  0.00    -0.463 OA
BRANCH   5   6
ATOM      6  C   UNL     1       2.223  -0.891   5.672  1.00  0.00     0.312 C 
ATOM      7  O   UNL     1       2.710  -1.783   6.364  1.00  0.00    -0.252 OA
BRANCH   6   8
ATOM      8  C   UNL     1       1.901  -1.153   4.213  1.00  0.00     0.194 C 
BRANCH   8   9
ATOM      9  C   UNL     1       0.894  -0.362   3.308  1.00  0.00     0.140 C 
ATOM     10  C   UNL     1       2.111   0.161  -0.128  1.00  0.00     0.042 C 
ATOM     11  C   UNL     1       0.923   0.132   0.847  1.00  0.00     0.070 C 
ATOM     12  C   UNL     1      -0.345   0.017  -0.017  1.00  0.00     0.042 C 
ATOM     13  C   UNL     1       1.081  -0.989   1.879  1.00  0.00     0.107 C 
ATOM     14  O   UNL     1       0.889   1.362   1.590  1.00  0.00    -0.363 OA
ATOM     15  C   UNL     1       1.296   1.132   2.973  1.00  0.00     0.118 C 
ATOM     16  C   UNL     1       2.815   1.407   3.018  1.00  0.00     0.049 C 
ATOM     17  C   UNL     1       0.632   2.227   3.818  1.00  0.00     0.049 C 
BRANCH   9  18
ATOM     18  N   UNL     1      -0.518  -0.673   3.693  1.00  0.00    -0.327 N 
ATOM     19  C   UNL     1      -0.885  -0.523   5.089  1.00  0.00     0.263 C 
ATOM     20  C   UNL     1      -1.619  -0.138   2.893  1.00  0.00     0.263 C 
ATOM     21  H   UNL     1      -0.428  -1.663   3.463  1.00  0.00     0.348 HD
ATOM     22  C   UNL     1      -2.400  -0.615   5.111  1.00  0.00     0.067 C 
ATOM     23  C   UNL     1      -2.819   0.028   3.814  1.00  0.00     0.067 C 
ENDBRANCH   9  18
ENDBRANCH   8   9
ENDBRANCH   6   8
ENDBRANCH   5   6
ENDBRANCH   4   5
ENDBRANCH   3   4
ENDBRANCH   2   3
ENDBRANCH   1   2
BRANCH   1  24
ATOM     24  C   UNL     1      -1.192   0.308   8.534  1.00  0.00     0.261 C 
BRANCH  24  25
ATOM     25  O   UNL     1      -1.012   1.466   7.698  1.00  0.00    -0.460 OA
BRANCH  25  26
ATOM     26  C   UNL     1      -1.688   2.560   8.107  1.00  0.00     0.338 C 
ATOM     27  O   UNL     1      -2.612   2.591   8.910  1.00  0.00    -0.246 OA
BRANCH  26  28
ATOM     28  C   UNL     1      -0.999   3.767   7.620  1.00  0.00     0.060 A 
ATOM     29  C   UNL     1      -0.248   4.493   8.550  1.00  0.00     0.016 A 
ATOM     30  C   UNL     1      -1.151   4.236   6.314  1.00  0.00     0.016 A 
ATOM     31  C   UNL     1       0.287   5.731   8.198  1.00  0.00     0.010 A 
ATOM     32  C   UNL     1      -0.597   5.477   5.959  1.00  0.00     0.010 A 
ATOM     33  C   UNL     1       0.079   6.259   6.915  1.00  0.00    -0.014 A 
BRANCH  33  34
ATOM     34  C   UNL     1       0.427   7.689   6.669  1.00  0.00     0.031 A 
ATOM     35  C   UNL     1      -0.671   8.725   6.639  1.00  0.00     0.074 A 
ATOM     36  C   UNL     1       1.711   8.091   6.590  1.00  0.00     0.049 A 
ATOM     37  N   UNL     1      -0.575  10.031   6.593  1.00  0.00    -0.248 NA
ATOM     38  C   UNL     1      -2.055   8.228   6.675  1.00  0.00     0.031 C 
ATOM     39  C   UNL     1       2.878   7.212   6.630  1.00  0.00     0.029 A 
ATOM     40  N   UNL     1       2.246   9.354   6.487  1.00  0.00    -0.354 N 
ATOM     41  C   UNL     1      -1.880  10.509   6.601  1.00  0.00     0.074 A 
ATOM     42  C   UNL     1      -2.751   9.354   6.610  1.00  0.00     0.031 C 
ATOM     43  C   UNL     1       3.993   7.963   6.576  1.00  0.00     0.029 A 
ATOM     44  C   UNL     1       3.621   9.374   6.478  1.00  0.00     0.049 A 
ATOM     45  H   UNL     1       1.696  10.168   6.424  1.00  0.00     0.167 HD
ATOM     46  C   UNL     1      -2.324  11.790   6.618  1.00  0.00     0.031 A 
ATOM     47  C   UNL     1       4.487  10.406   6.404  1.00  0.00     0.031 A 
ATOM     48  C   UNL     1      -1.473  12.950   6.604  1.00  0.00     0.049 A 
ATOM     49  C   UNL     1       3.970  11.822   6.358  1.00  0.00     0.074 A 
ATOM     50  C   UNL     1      -1.841  14.284   6.651  1.00  0.00     0.029 A 
ATOM     51  N   UNL     1      -0.090  12.921   6.527  1.00  0.00    -0.354 N 
ATOM     52  N   UNL     1       2.733  12.251   6.423  1.00  0.00    -0.248 NA
ATOM     53  C   UNL     1       4.972  12.893   6.240  1.00  0.00     0.031 C 
ATOM     54  C   UNL     1      -0.684  15.063   6.541  1.00  0.00     0.029 A 
ATOM     55  C   UNL     1       0.408  14.213   6.489  1.00  0.00     0.049 A 
ATOM     56  H   UNL     1       0.457  12.103   6.503  1.00  0.00     0.167 HD
ATOM     57  C   UNL     1       2.811  13.641   6.376  1.00  0.00     0.074 A 
ATOM     58  C   UNL     1       4.216  13.981   6.296  1.00  0.00     0.031 C 
ATOM     59  C   UNL     1       1.806  14.551   6.400  1.00  0.00     0.031 A 
BRANCH  46  60
ATOM     60  C   UNL     1      -3.814  12.007   6.633  1.00  0.00    -0.014 A 
ATOM     61  C   UNL     1      -4.577  11.738   7.784  1.00  0.00     0.010 A 
ATOM     62  C   UNL     1      -4.453  12.528   5.494  1.00  0.00     0.010 A 
ATOM     63  C   UNL     1      -5.958  11.950   7.782  1.00  0.00     0.020 A 
ATOM     64  C   UNL     1      -5.830  12.767   5.496  1.00  0.00     0.020 A 
ATOM     65  C   UNL     1      -6.576  12.460   6.636  1.00  0.00     0.054 A 
BRANCH  65  66
ATOM     66  S   UNL     1      -8.367  12.742   6.665  1.00  0.00     0.124 S 
ATOM     67  O   UNL     1      -8.887  11.378   6.604  1.00  0.00    -0.237 OA
ATOM     68  O   UNL     1      -8.563  13.432   7.938  1.00  0.00    -0.237 OA
ATOM     69  O   UNL     1      -8.611  13.554   5.476  1.00  0.00    -0.744 OA
ENDBRANCH  65  66
ENDBRANCH  46  60
BRANCH  47  70
ATOM     70  C   UNL     1       5.953  10.142   6.360  1.00  0.00    -0.014 A 
ATOM     71  C   UNL     1       6.784  10.490   7.440  1.00  0.00     0.010 A 
ATOM     72  C   UNL     1       6.526   9.549   5.220  1.00  0.00     0.010 A 
ATOM     73  C   UNL     1       8.162  10.263   7.374  1.00  0.00     0.020 A 
ATOM     74  C   UNL     1       7.899   9.296   5.161  1.00  0.00     0.020 A 
ATOM     75  C   UNL     1       8.710   9.665   6.235  1.00  0.00     0.054 A 
BRANCH  75  76
ATOM     76  S   UNL     1      10.493   9.329   6.191  1.00  0.00     0.124 S 
ATOM     77  O   UNL     1      11.048  10.662   5.981  1.00  0.00    -0.237 OA
ATOM     78  O   UNL     1      10.736   8.741   7.506  1.00  0.00    -0.237 OA
ATOM     79  O   UNL     1      10.638   8.405   5.068  1.00  0.00    -0.744 OA
ENDBRANCH  75  76
ENDBRANCH  47  70
BRANCH  59  80
ATOM     80  C   UNL     1       2.179  16.012   6.357  1.00  0.00    -0.014 A 
ATOM     81  C   UNL     1       2.670  16.604   5.179  1.00  0.00     0.010 A 
ATOM     82  C   UNL     1       1.979  16.817   7.493  1.00  0.00     0.010 A 
ATOM     83  C   UNL     1       2.982  17.967   5.149  1.00  0.00     0.020 A 
ATOM     84  C   UNL     1       2.265  18.186   7.459  1.00  0.00     0.020 A 
ATOM     85  C   UNL     1       2.778  18.749   6.290  1.00  0.00     0.054 A 
BRANCH  85  86
ATOM     86  S   UNL     1       3.151  20.524   6.211  1.00  0.00     0.124 S 
ATOM     87  O   UNL     1       4.611  20.529   6.229  1.00  0.00    -0.237 OA
ATOM     88  O   UNL     1       2.537  20.926   4.948  1.00  0.00    -0.237 OA
ATOM     89  O   UNL     1       2.511  21.066   7.408  1.00  0.00    -0.744 OA
ENDBRANCH  85  86
ENDBRANCH  59  80
ENDBRANCH  33  34
ENDBRANCH  26  28
ENDBRANCH  25  26
ENDBRANCH  24  25
ENDBRANCH   1  24
TORSDOF 19
