REMARK SMILES Cc1cnn([C@H]2CC[C@@]([NH3+])(C(=O)OCCOCCOC(=O)c3ccc(-c4c5nc(c(-c6ccc(S(=O)(=O)[O-])cc6)c6ccc([nH]6)c(-c6ccc(S(=O)(=O)[O-])cc6)c6nc(c(-c7ccc(S(=O)(=O)[O-])cc7)c7ccc4[nH]7)C=C6)C=C5)cc3)C2)c1
REMARK SMILES IDX 17 1 16 2 15 3 14 4 13 5 11 6 12 7 9 8 6 9 7 10 82 11 8 12
REMARK SMILES IDX 5 13 1 14 2 15 3 16 83 17 4 18 10 19 18 23 19 24 20 25 21 26
REMARK SMILES IDX 22 27 23 28 81 29 24 30 80 31 25 32 26 33 27 34 74 35 28 36
REMARK SMILES IDX 79 37 73 38 75 39 29 40 78 41 72 42 71 43 30 45 60 46 41 47
REMARK SMILES IDX 59 48 42 49 45 50 58 51 76 52 43 53 44 54 57 56 77 57 46 58
REMARK SMILES IDX 31 59 32 60 40 61 33 62 39 63 34 64 35 65 36 66 37 67 38 68
REMARK SMILES IDX 61 69 62 70 70 71 63 72 69 73 64 74 65 75 66 76 67 77 68 78
REMARK SMILES IDX 47 79 48 80 56 81 49 82 55 83 50 84 51 85 52 86 53 87 54 88
REMARK H PARENT 10 20 10 21 10 22 75 44 45 55
REMARK Flexibility Score: inf
ROOT
ATOM      1  C   UNL     1      -2.053  -2.897   7.465  1.00  0.00     0.202 C 
ENDROOT
BRANCH   1   2
ATOM      2  O   UNL     1      -1.376  -3.322   8.645  1.00  0.00    -0.374 OA
BRANCH   2   3
ATOM      3  C   UNL     1      -1.677  -2.516   9.787  1.00  0.00     0.202 C 
BRANCH   3   4
ATOM      4  C   UNL     1      -0.952  -1.169   9.793  1.00  0.00     0.261 C 
BRANCH   4   5
ATOM      5  O   UNL     1      -1.169  -0.435   8.568  1.00  0.00    -0.459 OA
BRANCH   5   6
ATOM      6  C   UNL     1      -0.118  -0.413   7.697  1.00  0.00     0.368 C 
ATOM      7  O   UNL     1       1.000  -0.852   7.953  1.00  0.00    -0.245 OA
BRANCH   6   8
ATOM      8  C   UNL     1      -0.439   0.355   6.374  1.00  0.00     0.194 C 
ATOM      9  C   UNL     1      -0.197  -1.124   4.390  1.00  0.00     0.114 C 
ATOM     10  C   UNL     1      -1.672  -0.696   4.494  1.00  0.00     0.034 C 
ATOM     11  C   UNL     1       0.527  -0.066   5.240  1.00  0.00     0.108 C 
ATOM     12  C   UNL     1      -1.838   0.127   5.779  1.00  0.00     0.083 C 
BRANCH   9  13
ATOM     13  N   UNL     1       0.027  -2.534   4.683  1.00  0.00    -0.269 N 
ATOM     14  C   UNL     1       0.799  -5.427   6.753  1.00  0.00     0.048 C 
ATOM     15  C   UNL     1       0.443  -4.436   5.710  1.00  0.00    -0.013 A 
ATOM     16  C   UNL     1      -0.459  -4.597   4.639  1.00  0.00     0.138 A 
ATOM     17  C   UNL     1       0.846  -3.118   5.609  1.00  0.00     0.112 A 
ATOM     18  N   UNL     1      -0.690  -3.450   3.996  1.00  0.00    -0.181 NA
ENDBRANCH   9  13
BRANCH   8  19
ATOM     19  N   UNL     1      -0.265   1.792   6.689  1.00  0.00    -0.343 N 
ATOM     20  H   UNL     1      -0.907   2.057   7.437  1.00  0.00     0.345 HD
ATOM     21  H   UNL     1      -0.465   2.349   5.858  1.00  0.00     0.345 HD
ATOM     22  H   UNL     1       0.695   1.961   6.990  1.00  0.00     0.345 HD
ENDBRANCH   8  19
ENDBRANCH   6   8
ENDBRANCH   5   6
ENDBRANCH   4   5
ENDBRANCH   3   4
ENDBRANCH   2   3
ENDBRANCH   1   2
BRANCH   1  23
ATOM     23  C   UNL     1      -2.837  -4.009   6.783  1.00  0.00     0.261 C 
BRANCH  23  24
ATOM     24  O   UNL     1      -4.169  -3.978   7.270  1.00  0.00    -0.460 OA
BRANCH  24  25
ATOM     25  C   UNL     1      -4.291  -4.123   8.608  1.00  0.00     0.338 C 
ATOM     26  O   UNL     1      -3.653  -4.832   9.362  1.00  0.00    -0.246 OA
BRANCH  25  27
ATOM     27  C   UNL     1      -5.429  -3.273   8.951  1.00  0.00     0.060 A 
ATOM     28  C   UNL     1      -6.460  -3.968   9.559  1.00  0.00     0.016 A 
ATOM     29  C   UNL     1      -5.616  -2.072   8.232  1.00  0.00     0.016 A 
ATOM     30  C   UNL     1      -7.724  -3.656   9.141  1.00  0.00     0.010 A 
ATOM     31  C   UNL     1      -6.883  -1.767   7.812  1.00  0.00     0.010 A 
ATOM     32  C   UNL     1      -7.894  -2.641   8.184  1.00  0.00    -0.014 A 
BRANCH  32  33
ATOM     33  C   UNL     1      -9.216  -2.496   7.641  1.00  0.00     0.031 A 
ATOM     34  C   UNL     1     -10.132  -1.875   8.608  1.00  0.00     0.074 A 
ATOM     35  C   UNL     1      -9.561  -2.887   6.406  1.00  0.00     0.049 A 
ATOM     36  N   UNL     1     -11.000  -2.476   9.347  1.00  0.00    -0.248 NA
ATOM     37  C   UNL     1      -9.868  -0.476   8.970  1.00  0.00     0.031 C 
ATOM     38  C   UNL     1      -8.712  -3.240   5.269  1.00  0.00     0.029 A 
ATOM     39  N   UNL     1     -10.811  -2.941   5.890  1.00  0.00    -0.354 N 
ATOM     40  C   UNL     1     -11.543  -1.481  10.142  1.00  0.00     0.074 A 
ATOM     41  C   UNL     1     -10.661  -0.345  10.032  1.00  0.00     0.031 C 
ATOM     42  C   UNL     1      -9.467  -3.218   4.143  1.00  0.00     0.029 A 
ATOM     43  C   UNL     1     -10.857  -2.981   4.509  1.00  0.00     0.049 A 
ATOM     44  H   UNL     1     -11.620  -2.951   6.451  1.00  0.00     0.167 HD
ATOM     45  C   UNL     1     -12.810  -1.568  10.624  1.00  0.00     0.031 A 
ATOM     46  C   UNL     1     -11.952  -2.706   3.756  1.00  0.00     0.031 A 
ATOM     47  C   UNL     1     -13.344  -2.900  10.498  1.00  0.00     0.049 A 
ATOM     48  C   UNL     1     -13.144  -2.858   4.641  1.00  0.00     0.074 A 
ATOM     49  C   UNL     1     -12.986  -4.134  11.004  1.00  0.00     0.029 A 
ATOM     50  N   UNL     1     -14.156  -3.152   9.414  1.00  0.00    -0.354 N 
ATOM     51  N   UNL     1     -13.517  -4.003   5.146  1.00  0.00    -0.248 NA
ATOM     52  C   UNL     1     -13.627  -1.685   5.360  1.00  0.00     0.031 C 
ATOM     53  C   UNL     1     -13.214  -5.052   9.938  1.00  0.00     0.029 A 
ATOM     54  C   UNL     1     -13.752  -4.342   8.861  1.00  0.00     0.049 A 
ATOM     55  H   UNL     1     -14.893  -2.582   9.094  1.00  0.00     0.167 HD
ATOM     56  C   UNL     1     -13.909  -3.718   6.450  1.00  0.00     0.074 A 
ATOM     57  C   UNL     1     -14.042  -2.263   6.493  1.00  0.00     0.031 C 
ATOM     58  C   UNL     1     -13.813  -4.651   7.445  1.00  0.00     0.031 A 
BRANCH  45  59
ATOM     59  C   UNL     1     -13.676  -0.357  10.824  1.00  0.00    -0.014 A 
ATOM     60  C   UNL     1     -14.936  -0.511  11.426  1.00  0.00     0.010 A 
ATOM     61  C   UNL     1     -13.401   0.884  10.209  1.00  0.00     0.010 A 
ATOM     62  C   UNL     1     -15.893   0.510  11.360  1.00  0.00     0.020 A 
ATOM     63  C   UNL     1     -14.325   1.923  10.181  1.00  0.00     0.020 A 
ATOM     64  C   UNL     1     -15.582   1.715  10.725  1.00  0.00     0.054 A 
BRANCH  64  65
ATOM     65  S   UNL     1     -16.857   2.981  10.537  1.00  0.00     0.124 S 
ATOM     66  O   UNL     1     -17.793   2.328   9.627  1.00  0.00    -0.237 OA
ATOM     67  O   UNL     1     -17.321   3.157  11.911  1.00  0.00    -0.237 OA
ATOM     68  O   UNL     1     -16.129   4.119   9.979  1.00  0.00    -0.744 OA
ENDBRANCH  64  65
ENDBRANCH  45  59
BRANCH  46  69
ATOM     69  C   UNL     1     -11.966  -1.933   2.486  1.00  0.00    -0.014 A 
ATOM     70  C   UNL     1     -13.118  -1.859   1.684  1.00  0.00     0.010 A 
ATOM     71  C   UNL     1     -10.907  -1.048   2.188  1.00  0.00     0.010 A 
ATOM     72  C   UNL     1     -13.224  -0.902   0.657  1.00  0.00     0.020 A 
ATOM     73  C   UNL     1     -11.000  -0.101   1.164  1.00  0.00     0.020 A 
ATOM     74  C   UNL     1     -12.169  -0.017   0.416  1.00  0.00     0.054 A 
BRANCH  74  75
ATOM     75  S   UNL     1     -12.373   1.325  -0.792  1.00  0.00     0.124 S 
ATOM     76  O   UNL     1     -12.368   0.605  -2.062  1.00  0.00    -0.237 OA
ATOM     77  O   UNL     1     -13.651   1.913  -0.402  1.00  0.00    -0.237 OA
ATOM     78  O   UNL     1     -11.207   2.178  -0.559  1.00  0.00    -0.744 OA
ENDBRANCH  74  75
ENDBRANCH  46  69
BRANCH  58  79
ATOM     79  C   UNL     1     -13.500  -6.083   7.062  1.00  0.00    -0.014 A 
ATOM     80  C   UNL     1     -12.314  -6.471   6.406  1.00  0.00     0.010 A 
ATOM     81  C   UNL     1     -14.360  -7.090   7.535  1.00  0.00     0.010 A 
ATOM     82  C   UNL     1     -12.013  -7.827   6.207  1.00  0.00     0.020 A 
ATOM     83  C   UNL     1     -14.057  -8.442   7.357  1.00  0.00     0.020 A 
ATOM     84  C   UNL     1     -12.889  -8.806   6.685  1.00  0.00     0.054 A 
BRANCH  84  85
ATOM     85  S   UNL     1     -12.473 -10.560   6.469  1.00  0.00     0.124 S 
ATOM     86  O   UNL     1     -12.614 -10.744   5.028  1.00  0.00    -0.237 OA
ATOM     87  O   UNL     1     -11.108 -10.637   6.984  1.00  0.00    -0.237 OA
ATOM     88  O   UNL     1     -13.471 -11.256   7.281  1.00  0.00    -0.744 OA
ENDBRANCH  84  85
ENDBRANCH  58  79
ENDBRANCH  32  33
ENDBRANCH  25  27
ENDBRANCH  24  25
ENDBRANCH  23  24
ENDBRANCH   1  23
TORSDOF 19
