REMARK SMILES C[C@H](C(=O)OCCOCCOC(=O)c1ccc(-c2c3nc(c(-c4ccc(S(=O)(=O)[O-])cc4)c4ccc([nH]4)c(-c4ccc(S(=O)(=O)[O-])cc4)c4nc(c(-c5ccc(S(=O)(=O)[O-])cc5)c5ccc2[nH]5)C=C4)C=C3)cc1)[C@@H](C)Nc1ccccc1Oc1ccccc1
REMARK SMILES IDX 7 1 6 2 5 3 3 4 4 5 2 6 1 7 74 8 75 9 76 10 77 12 78 13
REMARK SMILES IDX 82 14 79 15 81 16 80 17 83 18 84 19 85 20 89 21 86 22 88 23
REMARK SMILES IDX 87 24 8 25 9 26 10 27 11 28 12 29 13 30 14 31 15 32 73 33
REMARK SMILES IDX 16 34 72 35 17 36 18 37 19 38 66 39 20 40 71 41 65 42 67 43
REMARK SMILES IDX 21 44 70 45 64 46 63 47 22 49 52 50 33 51 51 52 34 53 37 54
REMARK SMILES IDX 50 55 68 56 35 57 36 58 49 60 69 61 38 62 23 63 24 64 32 65
REMARK SMILES IDX 25 66 31 67 26 68 27 69 28 70 29 71 30 72 53 73 54 74 62 75
REMARK SMILES IDX 55 76 61 77 56 78 57 79 58 80 59 81 60 82 39 83 40 84 48 85
REMARK SMILES IDX 41 86 47 87 42 88 43 89 44 90 45 91 46 92
REMARK H PARENT 76 11 67 48 37 59
REMARK Flexibility Score: inf
ROOT
ATOM      1  C   UNL     1       1.350   1.377   2.301  1.00  0.00     0.202 C 
ENDROOT
BRANCH   1   2
ATOM      2  C   UNL     1       2.279   1.278   1.092  1.00  0.00     0.261 C 
BRANCH   2   3
ATOM      3  O   UNL     1       1.597   0.708  -0.046  1.00  0.00    -0.463 OA
BRANCH   3   4
ATOM      4  C   UNL     1       1.939  -0.558  -0.395  1.00  0.00     0.310 C 
ATOM      5  O   UNL     1       2.750  -1.240   0.221  1.00  0.00    -0.252 OA
BRANCH   4   6
ATOM      6  C   UNL     1       1.293  -1.008  -1.712  1.00  0.00     0.118 C 
ATOM      7  C   UNL     1       1.412  -2.535  -1.787  1.00  0.00     0.022 C 
BRANCH   6   8
ATOM      8  C   UNL     1      -0.165  -0.494  -1.915  1.00  0.00     0.090 C 
ATOM      9  C   UNL     1      -0.108   0.963  -2.413  1.00  0.00     0.031 C 
BRANCH   8  10
ATOM     10  N   UNL     1      -0.854  -1.241  -2.971  1.00  0.00    -0.379 N 
ATOM     11  H   UNL     1      -0.436  -1.156  -3.859  1.00  0.00     0.160 HD
BRANCH  10  12
ATOM     12  C   UNL     1      -1.981  -2.043  -2.954  1.00  0.00     0.078 A 
ATOM     13  C   UNL     1      -1.883  -3.168  -3.815  1.00  0.00     0.029 A 
ATOM     14  C   UNL     1      -3.154  -1.971  -2.178  1.00  0.00     0.150 A 
ATOM     15  C   UNL     1      -2.859  -4.165  -3.907  1.00  0.00     0.002 A 
ATOM     16  C   UNL     1      -4.145  -2.978  -2.287  1.00  0.00     0.049 A 
ATOM     17  C   UNL     1      -4.004  -4.067  -3.140  1.00  0.00     0.004 A 
BRANCH  14  18
ATOM     18  O   UNL     1      -3.499  -1.092  -1.179  1.00  0.00    -0.455 OA
BRANCH  18  19
ATOM     19  C   UNL     1      -3.305   0.252  -1.288  1.00  0.00     0.127 A 
ATOM     20  C   UNL     1      -2.704   0.819  -0.169  1.00  0.00     0.047 A 
ATOM     21  C   UNL     1      -3.726   1.063  -2.336  1.00  0.00     0.047 A 
ATOM     22  C   UNL     1      -2.357   2.160  -0.162  1.00  0.00     0.004 A 
ATOM     23  C   UNL     1      -3.454   2.439  -2.286  1.00  0.00     0.004 A 
ATOM     24  C   UNL     1      -2.743   2.982  -1.212  1.00  0.00     0.000 A 
ENDBRANCH  18  19
ENDBRANCH  14  18
ENDBRANCH  10  12
ENDBRANCH   8  10
ENDBRANCH   6   8
ENDBRANCH   4   6
ENDBRANCH   3   4
ENDBRANCH   2   3
ENDBRANCH   1   2
BRANCH   1  25
ATOM     25  O   UNL     1       1.065   0.104   2.882  1.00  0.00    -0.374 OA
BRANCH  25  26
ATOM     26  C   UNL     1      -0.157  -0.491   2.442  1.00  0.00     0.202 C 
BRANCH  26  27
ATOM     27  C   UNL     1      -1.363  -0.069   3.292  1.00  0.00     0.261 C 
BRANCH  27  28
ATOM     28  O   UNL     1      -1.701   1.311   3.041  1.00  0.00    -0.460 OA
BRANCH  28  29
ATOM     29  C   UNL     1      -1.441   2.175   4.056  1.00  0.00     0.338 C 
ATOM     30  O   UNL     1      -1.097   1.890   5.183  1.00  0.00    -0.246 OA
BRANCH  29  31
ATOM     31  C   UNL     1      -1.449   3.570   3.541  1.00  0.00     0.060 A 
ATOM     32  C   UNL     1      -0.445   4.426   4.000  1.00  0.00     0.016 A 
ATOM     33  C   UNL     1      -2.403   4.047   2.638  1.00  0.00     0.016 A 
ATOM     34  C   UNL     1      -0.422   5.764   3.599  1.00  0.00     0.010 A 
ATOM     35  C   UNL     1      -2.342   5.375   2.186  1.00  0.00     0.010 A 
ATOM     36  C   UNL     1      -1.387   6.263   2.710  1.00  0.00    -0.014 A 
BRANCH  36  37
ATOM     37  C   UNL     1      -1.482   7.737   2.495  1.00  0.00     0.031 A 
ATOM     38  C   UNL     1      -2.646   8.494   3.093  1.00  0.00     0.074 A 
ATOM     39  C   UNL     1      -0.505   8.424   1.868  1.00  0.00     0.049 A 
ATOM     40  N   UNL     1      -2.848   9.787   3.151  1.00  0.00    -0.248 NA
ATOM     41  C   UNL     1      -3.720   7.694   3.704  1.00  0.00     0.031 C 
ATOM     42  C   UNL     1       0.683   7.838   1.248  1.00  0.00     0.029 A 
ATOM     43  N   UNL     1      -0.347   9.777   1.676  1.00  0.00    -0.354 N 
ATOM     44  C   UNL     1      -4.066   9.951   3.803  1.00  0.00     0.074 A 
ATOM     45  C   UNL     1      -4.584   8.628   4.068  1.00  0.00     0.031 C 
ATOM     46  C   UNL     1       1.464   8.827   0.777  1.00  0.00     0.029 A 
ATOM     47  C   UNL     1       0.825  10.116   1.040  1.00  0.00     0.049 A 
ATOM     48  H   UNL     1      -1.012  10.442   1.966  1.00  0.00     0.167 HD
ATOM     49  C   UNL     1      -4.694  11.091   4.175  1.00  0.00     0.031 A 
ATOM     50  C   UNL     1       1.336  11.322   0.715  1.00  0.00     0.031 A 
ATOM     51  C   UNL     1      -4.192  12.415   3.929  1.00  0.00     0.049 A 
ATOM     52  C   UNL     1       0.596  12.580   1.094  1.00  0.00     0.074 A 
ATOM     53  C   UNL     1      -4.745  13.626   4.309  1.00  0.00     0.029 A 
ATOM     54  N   UNL     1      -3.030  12.707   3.234  1.00  0.00    -0.354 N 
ATOM     55  N   UNL     1      -0.522  12.709   1.767  1.00  0.00    -0.248 NA
ATOM     56  C   UNL     1       1.197  13.857   0.679  1.00  0.00     0.031 C 
ATOM     57  C   UNL     1      -3.948  14.652   3.792  1.00  0.00     0.029 A 
ATOM     58  C   UNL     1      -2.866  14.079   3.145  1.00  0.00     0.049 A 
ATOM     59  H   UNL     1      -2.412  12.038   2.860  1.00  0.00     0.167 HD
ATOM     60  C   UNL     1      -0.740  14.080   1.882  1.00  0.00     0.074 A 
ATOM     61  C   UNL     1       0.366  14.738   1.220  1.00  0.00     0.031 C 
ATOM     62  C   UNL     1      -1.764  14.732   2.486  1.00  0.00     0.031 A 
BRANCH  49  63
ATOM     63  C   UNL     1      -6.016  10.953   4.881  1.00  0.00    -0.014 A 
ATOM     64  C   UNL     1      -6.091  10.472   6.201  1.00  0.00     0.010 A 
ATOM     65  C   UNL     1      -7.198  11.340   4.224  1.00  0.00     0.010 A 
ATOM     66  C   UNL     1      -7.329  10.339   6.835  1.00  0.00     0.020 A 
ATOM     67  C   UNL     1      -8.434  11.237   4.865  1.00  0.00     0.020 A 
ATOM     68  C   UNL     1      -8.493  10.719   6.161  1.00  0.00     0.054 A 
BRANCH  68  69
ATOM     69  S   UNL     1     -10.085  10.552   7.013  1.00  0.00     0.124 S 
ATOM     70  O   UNL     1     -10.285   9.105   6.994  1.00  0.00    -0.237 OA
ATOM     71  O   UNL     1      -9.809  11.130   8.325  1.00  0.00    -0.237 OA
ATOM     72  O   UNL     1     -11.007  11.319   6.179  1.00  0.00    -0.744 OA
ENDBRANCH  68  69
ENDBRANCH  49  63
BRANCH  50  73
ATOM     73  C   UNL     1       2.636  11.411  -0.011  1.00  0.00    -0.014 A 
ATOM     74  C   UNL     1       3.782  11.923   0.623  1.00  0.00     0.010 A 
ATOM     75  C   UNL     1       2.724  10.999  -1.353  1.00  0.00     0.010 A 
ATOM     76  C   UNL     1       4.988  12.038  -0.077  1.00  0.00     0.020 A 
ATOM     77  C   UNL     1       3.934  11.087  -2.048  1.00  0.00     0.020 A 
ATOM     78  C   UNL     1       5.056  11.616  -1.408  1.00  0.00     0.054 A 
BRANCH  78  79
ATOM     79  S   UNL     1       6.643  11.726  -2.283  1.00  0.00     0.124 S 
ATOM     80  O   UNL     1       6.758  13.160  -2.525  1.00  0.00    -0.237 OA
ATOM     81  O   UNL     1       7.579  11.169  -1.309  1.00  0.00    -0.237 OA
ATOM     82  O   UNL     1       6.433  10.903  -3.473  1.00  0.00    -0.744 OA
ENDBRANCH  78  79
ENDBRANCH  50  73
BRANCH  62  83
ATOM     83  C   UNL     1      -1.735  16.240   2.494  1.00  0.00    -0.014 A 
ATOM     84  C   UNL     1      -1.975  16.983   1.326  1.00  0.00     0.010 A 
ATOM     85  C   UNL     1      -1.532  16.923   3.708  1.00  0.00     0.010 A 
ATOM     86  C   UNL     1      -1.984  18.381   1.365  1.00  0.00     0.020 A 
ATOM     87  C   UNL     1      -1.567  18.319   3.757  1.00  0.00     0.020 A 
ATOM     88  C   UNL     1      -1.779  19.041   2.581  1.00  0.00     0.054 A 
BRANCH  88  89
ATOM     89  S   UNL     1      -1.841  20.854   2.614  1.00  0.00     0.124 S 
ATOM     90  O   UNL     1      -0.577  21.213   1.978  1.00  0.00    -0.237 OA
ATOM     91  O   UNL     1      -3.042  21.149   1.836  1.00  0.00    -0.237 OA
ATOM     92  O   UNL     1      -1.935  21.172   4.037  1.00  0.00    -0.744 OA
ENDBRANCH  88  89
ENDBRANCH  62  83
ENDBRANCH  36  37
ENDBRANCH  29  31
ENDBRANCH  28  29
ENDBRANCH  27  28
ENDBRANCH  26  27
ENDBRANCH  25  26
ENDBRANCH   1  25
TORSDOF 22
