REMARK SMILES CC(C)OC(=O)c1c(NC(=O)[C@H]2[C@@H](C(=O)OCCOCCOC(=O)c3ccc(-c4c5nc(c(-c6ccc(S(=O)(=O)[O-])cc6)c6ccc([nH]6)c(-c6ccc(S(=O)(=O)[O-])cc6)c6nc(c(-c7ccc(S(=O)(=O)[O-])cc7)c7ccc4[nH]7)C=C6)C=C5)cc3)[C@@H]3C=C[C@H]2CC3)sc2c1CCC2
REMARK SMILES IDX 18 1 17 2 16 3 14 4 15 5 13 6 12 7 88 8 85 9 87 10 89 11
REMARK SMILES IDX 86 12 90 13 10 14 9 15 11 17 8 18 7 19 93 20 91 21 92 22
REMARK SMILES IDX 94 23 96 24 95 25 5 26 6 27 4 28 2 29 1 30 3 31 19 32 20 33
REMARK SMILES IDX 21 34 22 35 23 36 24 37 25 38 26 39 84 40 27 41 83 42 28 43
REMARK SMILES IDX 29 44 30 45 77 46 31 47 82 48 76 49 78 50 32 51 81 52 75 53
REMARK SMILES IDX 74 54 33 56 63 57 44 58 62 59 45 60 48 61 61 62 79 63 46 64
REMARK SMILES IDX 47 65 60 67 80 68 49 69 34 70 35 71 43 72 36 73 42 74 37 75
REMARK SMILES IDX 38 76 39 77 40 78 41 79 64 80 65 81 73 82 66 83 72 84 67 85
REMARK SMILES IDX 68 86 69 87 70 88 71 89 50 90 51 91 59 92 52 93 58 94 53 95
REMARK SMILES IDX 54 96 55 97 56 98 57 99
REMARK H PARENT 9 16 78 55 48 66
REMARK Flexibility Score: inf
ROOT
ATOM      1  C   UNL     1     -10.334   4.982  -0.544  1.00  0.00     0.202 C 
ENDROOT
BRANCH   1   2
ATOM      2  C   UNL     1     -10.334   4.114   0.715  1.00  0.00     0.261 C 
BRANCH   2   3
ATOM      3  O   UNL     1      -9.107   4.148   1.475  1.00  0.00    -0.463 OA
BRANCH   3   4
ATOM      4  C   UNL     1      -8.401   2.982   1.504  1.00  0.00     0.310 C 
ATOM      5  O   UNL     1      -8.677   1.999   0.832  1.00  0.00    -0.252 OA
BRANCH   4   6
ATOM      6  C   UNL     1      -7.291   3.029   2.546  1.00  0.00     0.119 C 
ATOM      7  C   UNL     1      -6.144   1.987   2.316  1.00  0.00     0.100 C 
ATOM      8  C   UNL     1      -6.350   0.798   3.307  1.00  0.00     0.025 C 
ATOM      9  C   UNL     1      -7.921   2.769   3.952  1.00  0.00     0.026 C 
ATOM     10  C   UNL     1      -6.050   1.423   4.668  1.00  0.00    -0.027 C 
ATOM     11  C   UNL     1      -7.823   0.326   3.350  1.00  0.00     0.009 C 
ATOM     12  C   UNL     1      -6.816   2.490   4.963  1.00  0.00    -0.027 C 
ATOM     13  C   UNL     1      -8.732   1.451   3.903  1.00  0.00     0.009 C 
BRANCH   7  14
ATOM     14  C   UNL     1      -5.831   1.569   0.879  1.00  0.00     0.229 C 
ATOM     15  N   UNL     1      -5.200   2.394  -0.019  1.00  0.00    -0.317 N 
ATOM     16  H   UNL     1      -5.237   2.056  -0.943  1.00  0.00     0.170 HD
ATOM     17  O   UNL     1      -6.166   0.450   0.472  1.00  0.00    -0.274 OA
BRANCH  15  18
ATOM     18  C   UNL     1      -4.521   3.602   0.090  1.00  0.00     0.110 A 
ATOM     19  C   UNL     1      -4.185   4.474  -0.960  1.00  0.00     0.098 A 
ATOM     20  C   UNL     1      -3.745   5.719  -0.406  1.00  0.00    -0.017 A 
ATOM     21  S   UNL     1      -3.962   4.189   1.598  1.00  0.00    -0.122 S 
ATOM     22  C   UNL     1      -3.657   5.682   0.953  1.00  0.00     0.011 A 
ATOM     23  C   UNL     1      -3.499   7.092  -0.915  1.00  0.00     0.038 C 
ATOM     24  C   UNL     1      -3.378   6.971   1.609  1.00  0.00     0.047 C 
ATOM     25  C   UNL     1      -3.216   7.909   0.383  1.00  0.00     0.010 C 
BRANCH  19  26
ATOM     26  C   UNL     1      -4.463   4.191  -2.372  1.00  0.00     0.341 C 
ATOM     27  O   UNL     1      -5.074   3.189  -2.719  1.00  0.00    -0.246 OA
BRANCH  26  28
ATOM     28  O   UNL     1      -4.010   5.166  -3.204  1.00  0.00    -0.459 OA
BRANCH  28  29
ATOM     29  C   UNL     1      -4.320   5.181  -4.619  1.00  0.00     0.170 C 
ATOM     30  C   UNL     1      -4.259   3.825  -5.317  1.00  0.00     0.052 C 
ATOM     31  C   UNL     1      -5.649   5.889  -4.856  1.00  0.00     0.052 C 
ENDBRANCH  28  29
ENDBRANCH  26  28
ENDBRANCH  19  26
ENDBRANCH  15  18
ENDBRANCH   7  14
ENDBRANCH   4   6
ENDBRANCH   3   4
ENDBRANCH   2   3
ENDBRANCH   1   2
BRANCH   1  32
ATOM     32  O   UNL     1      -9.489   4.603  -1.620  1.00  0.00    -0.374 OA
BRANCH  32  33
ATOM     33  C   UNL     1      -8.101   4.429  -1.410  1.00  0.00     0.202 C 
BRANCH  33  34
ATOM     34  C   UNL     1      -7.306   5.452  -0.607  1.00  0.00     0.261 C 
BRANCH  34  35
ATOM     35  O   UNL     1      -8.020   6.500   0.007  1.00  0.00    -0.460 OA
BRANCH  35  36
ATOM     36  C   UNL     1      -8.184   7.551  -0.821  1.00  0.00     0.338 C 
ATOM     37  O   UNL     1      -8.341   7.514  -2.027  1.00  0.00    -0.246 OA
BRANCH  36  38
ATOM     38  C   UNL     1      -7.884   8.764  -0.052  1.00  0.00     0.060 A 
ATOM     39  C   UNL     1      -8.057   9.980  -0.710  1.00  0.00     0.016 A 
ATOM     40  C   UNL     1      -7.245   8.683   1.200  1.00  0.00     0.016 A 
ATOM     41  C   UNL     1      -7.506  11.114  -0.154  1.00  0.00     0.010 A 
ATOM     42  C   UNL     1      -6.681   9.815   1.747  1.00  0.00     0.010 A 
ATOM     43  C   UNL     1      -6.787  11.011   1.042  1.00  0.00    -0.014 A 
BRANCH  43  44
ATOM     44  C   UNL     1      -6.236  12.230   1.588  1.00  0.00     0.031 A 
ATOM     45  C   UNL     1      -7.223  13.108   2.243  1.00  0.00     0.074 A 
ATOM     46  C   UNL     1      -4.926  12.516   1.588  1.00  0.00     0.049 A 
ATOM     47  N   UNL     1      -7.653  14.250   1.825  1.00  0.00    -0.248 NA
ATOM     48  C   UNL     1      -7.913  12.590   3.432  1.00  0.00     0.031 C 
ATOM     49  C   UNL     1      -3.812  11.635   1.258  1.00  0.00     0.029 A 
ATOM     50  N   UNL     1      -4.315  13.653   2.004  1.00  0.00    -0.354 N 
ATOM     51  C   UNL     1      -8.541  14.692   2.796  1.00  0.00     0.074 A 
ATOM     52  C   UNL     1      -8.790  13.566   3.662  1.00  0.00     0.031 C 
ATOM     53  C   UNL     1      -2.664  12.179   1.714  1.00  0.00     0.029 A 
ATOM     54  C   UNL     1      -2.956  13.509   2.221  1.00  0.00     0.049 A 
ATOM     55  H   UNL     1      -4.794  14.502   2.139  1.00  0.00     0.167 HD
ATOM     56  C   UNL     1      -8.837  16.010   2.953  1.00  0.00     0.031 A 
ATOM     57  C   UNL     1      -2.149  14.399   2.844  1.00  0.00     0.031 A 
ATOM     58  C   UNL     1      -8.397  16.801   1.833  1.00  0.00     0.049 A 
ATOM     59  C   UNL     1      -2.819  15.723   2.784  1.00  0.00     0.074 A 
ATOM     60  C   UNL     1      -8.697  16.834   0.487  1.00  0.00     0.029 A 
ATOM     61  N   UNL     1      -7.221  17.500   1.984  1.00  0.00    -0.354 N 
ATOM     62  N   UNL     1      -3.019  16.378   1.673  1.00  0.00    -0.248 NA
ATOM     63  C   UNL     1      -3.644  16.147   3.905  1.00  0.00     0.031 C 
ATOM     64  C   UNL     1      -7.476  17.181  -0.161  1.00  0.00     0.029 A 
ATOM     65  C   UNL     1      -6.502  17.363   0.824  1.00  0.00     0.049 A 
ATOM     66  H   UNL     1      -6.946  18.008   2.781  1.00  0.00     0.167 HD
ATOM     67  C   UNL     1      -4.250  16.998   1.833  1.00  0.00     0.074 A 
ATOM     68  C   UNL     1      -4.524  16.923   3.264  1.00  0.00     0.031 C 
ATOM     69  C   UNL     1      -5.055  17.266   0.762  1.00  0.00     0.031 A 
BRANCH  56  70
ATOM     70  C   UNL     1      -9.174  16.628   4.285  1.00  0.00    -0.014 A 
ATOM     71  C   UNL     1      -9.540  17.988   4.331  1.00  0.00     0.010 A 
ATOM     72  C   UNL     1      -8.875  16.002   5.513  1.00  0.00     0.010 A 
ATOM     73  C   UNL     1      -9.519  18.702   5.535  1.00  0.00     0.020 A 
ATOM     74  C   UNL     1      -8.900  16.691   6.724  1.00  0.00     0.020 A 
ATOM     75  C   UNL     1      -9.175  18.050   6.720  1.00  0.00     0.054 A 
BRANCH  75  76
ATOM     76  S   UNL     1      -8.985  19.006   8.242  1.00  0.00     0.124 S 
ATOM     77  O   UNL     1      -7.781  19.779   7.957  1.00  0.00    -0.237 OA
ATOM     78  O   UNL     1     -10.232  19.765   8.293  1.00  0.00    -0.237 OA
ATOM     79  O   UNL     1      -8.843  17.980   9.273  1.00  0.00    -0.744 OA
ENDBRANCH  75  76
ENDBRANCH  56  70
BRANCH  57  80
ATOM     80  C   UNL     1      -1.012  14.080   3.735  1.00  0.00    -0.014 A 
ATOM     81  C   UNL     1      -0.090  15.067   4.118  1.00  0.00     0.010 A 
ATOM     82  C   UNL     1      -0.973  12.842   4.415  1.00  0.00     0.010 A 
ATOM     83  C   UNL     1       0.803  14.843   5.178  1.00  0.00     0.020 A 
ATOM     84  C   UNL     1      -0.079  12.607   5.462  1.00  0.00     0.020 A 
ATOM     85  C   UNL     1       0.790  13.619   5.855  1.00  0.00     0.054 A 
BRANCH  85  86
ATOM     86  S   UNL     1       1.825  13.401   7.331  1.00  0.00     0.124 S 
ATOM     87  O   UNL     1       3.166  13.325   6.760  1.00  0.00    -0.237 OA
ATOM     88  O   UNL     1       1.531  14.604   8.104  1.00  0.00    -0.237 OA
ATOM     89  O   UNL     1       1.329  12.156   7.917  1.00  0.00    -0.744 OA
ENDBRANCH  85  86
ENDBRANCH  57  80
BRANCH  69  90
ATOM     90  C   UNL     1      -4.460  17.167  -0.625  1.00  0.00    -0.014 A 
ATOM     91  C   UNL     1      -3.990  15.957  -1.170  1.00  0.00     0.010 A 
ATOM     92  C   UNL     1      -4.556  18.290  -1.467  1.00  0.00     0.010 A 
ATOM     93  C   UNL     1      -3.620  15.874  -2.520  1.00  0.00     0.020 A 
ATOM     94  C   UNL     1      -4.205  18.210  -2.818  1.00  0.00     0.020 A 
ATOM     95  C   UNL     1      -3.737  17.002  -3.338  1.00  0.00     0.054 A 
BRANCH  95  96
ATOM     96  S   UNL     1      -3.356  16.858  -5.107  1.00  0.00     0.124 S 
ATOM     97  O   UNL     1      -1.899  16.768  -5.111  1.00  0.00    -0.237 OA
ATOM     98  O   UNL     1      -4.062  15.639  -5.495  1.00  0.00    -0.237 OA
ATOM     99  O   UNL     1      -3.902  18.087  -5.682  1.00  0.00    -0.744 OA
ENDBRANCH  95  96
ENDBRANCH  69  90
ENDBRANCH  43  44
ENDBRANCH  36  38
ENDBRANCH  35  36
ENDBRANCH  34  35
ENDBRANCH  33  34
ENDBRANCH  32  33
ENDBRANCH   1  32
TORSDOF 22
