REMARK SMILES O=C(OCCOCCOC(=O)[C@@H](Cc1ccccc1)N1C(=O)/C(=C/c2ccncc2)SC1=S)c1ccc(-c2c3nc(c(-c4ccc(S(=O)(=O)[O-])cc4)c4ccc([nH]4)c(-c4ccc(S(=O)(=O)[O-])cc4)c4nc(c(-c5ccc(S(=O)(=O)[O-])cc5)c5ccc2[nH]5)C=C4)C=C3)cc1
REMARK SMILES IDX 5 1 4 2 3 3 2 4 1 5 34 6 35 7 93 8 36 9 92 10 37 11 38 12
REMARK SMILES IDX 39 13 86 14 40 15 91 16 85 17 87 18 41 19 90 20 84 21 83 22
REMARK SMILES IDX 42 24 72 25 53 26 71 27 54 28 57 29 70 30 88 31 55 32 56 33
REMARK SMILES IDX 69 35 89 36 58 37 43 38 44 39 52 40 45 41 51 42 46 43 47 44
REMARK SMILES IDX 48 45 49 46 50 47 73 48 74 49 82 50 75 51 81 52 76 53 77 54
REMARK SMILES IDX 78 55 79 56 80 57 59 58 60 59 68 60 61 61 67 62 62 63 63 64
REMARK SMILES IDX 64 65 65 66 66 67 6 68 7 69 8 70 9 71 10 72 11 73 12 74
REMARK SMILES IDX 13 75 14 76 15 77 19 78 16 79 18 80 17 81 20 82 21 83 32 84
REMARK SMILES IDX 22 85 23 86 31 87 33 88 24 89 25 90 26 91 30 92 27 93 29 94
REMARK SMILES IDX 28 95
REMARK H PARENT 87 23 57 34
REMARK Flexibility Score: inf
ROOT
ATOM      1  C   UNL     1       4.561   0.323  -0.936  1.00  0.00     0.202 C 
ENDROOT
BRANCH   1   2
ATOM      2  C   UNL     1       4.103  -1.093  -0.581  1.00  0.00     0.261 C 
BRANCH   2   3
ATOM      3  O   UNL     1       2.675  -1.147  -0.406  1.00  0.00    -0.460 OA
BRANCH   3   4
ATOM      4  C   UNL     1       2.011  -1.224   0.776  1.00  0.00     0.338 C 
ATOM      5  O   UNL     1       0.795  -1.392   0.780  1.00  0.00    -0.246 OA
BRANCH   4   6
ATOM      6  C   UNL     1       2.728  -1.125   2.077  1.00  0.00     0.060 A 
ATOM      7  C   UNL     1       3.859  -0.337   2.253  1.00  0.00     0.016 A 
ATOM      8  C   UNL     1       2.223  -1.801   3.192  1.00  0.00     0.016 A 
ATOM      9  C   UNL     1       4.550  -0.279   3.432  1.00  0.00     0.010 A 
ATOM     10  C   UNL     1       2.875  -1.698   4.428  1.00  0.00     0.010 A 
ATOM     11  C   UNL     1       4.047  -0.939   4.535  1.00  0.00    -0.014 A 
BRANCH  11  12
ATOM     12  C   UNL     1       4.894  -0.869   5.727  1.00  0.00     0.031 A 
ATOM     13  C   UNL     1       5.731  -2.061   6.050  1.00  0.00     0.074 A 
ATOM     14  C   UNL     1       5.078   0.329   6.313  1.00  0.00     0.049 A 
ATOM     15  N   UNL     1       6.532  -2.249   7.058  1.00  0.00    -0.248 NA
ATOM     16  C   UNL     1       5.678  -3.187   5.098  1.00  0.00     0.031 C 
ATOM     17  C   UNL     1       4.453   1.589   5.881  1.00  0.00     0.029 A 
ATOM     18  N   UNL     1       5.890   0.705   7.343  1.00  0.00    -0.354 N 
ATOM     19  C   UNL     1       7.033  -3.533   6.896  1.00  0.00     0.074 A 
ATOM     20  C   UNL     1       6.470  -4.073   5.682  1.00  0.00     0.031 C 
ATOM     21  C   UNL     1       4.938   2.598   6.618  1.00  0.00     0.029 A 
ATOM     22  C   UNL     1       5.819   2.046   7.636  1.00  0.00     0.049 A 
ATOM     23  H   UNL     1       6.471   0.076   7.830  1.00  0.00     0.167 HD
ATOM     24  C   UNL     1       7.869  -4.197   7.724  1.00  0.00     0.031 A 
ATOM     25  C   UNL     1       6.366   2.729   8.658  1.00  0.00     0.031 A 
ATOM     26  C   UNL     1       8.388  -3.605   8.925  1.00  0.00     0.049 A 
ATOM     27  C   UNL     1       7.185   1.936   9.637  1.00  0.00     0.074 A 
ATOM     28  C   UNL     1       9.143  -4.183   9.924  1.00  0.00     0.029 A 
ATOM     29  N   UNL     1       8.198  -2.272   9.277  1.00  0.00    -0.354 N 
ATOM     30  N   UNL     1       7.537   0.671   9.574  1.00  0.00    -0.248 NA
ATOM     31  C   UNL     1       7.653   2.639  10.833  1.00  0.00     0.031 C 
ATOM     32  C   UNL     1       9.372  -3.210  10.903  1.00  0.00     0.029 A 
ATOM     33  C   UNL     1       8.810  -2.010  10.486  1.00  0.00     0.049 A 
ATOM     34  H   UNL     1       7.701  -1.612   8.742  1.00  0.00     0.167 HD
ATOM     35  C   UNL     1       8.274   0.424  10.722  1.00  0.00     0.074 A 
ATOM     36  C   UNL     1       8.338   1.683  11.446  1.00  0.00     0.031 C 
ATOM     37  C   UNL     1       8.839  -0.731  11.153  1.00  0.00     0.031 A 
BRANCH  24  38
ATOM     38  C   UNL     1       8.140  -5.639   7.404  1.00  0.00    -0.014 A 
ATOM     39  C   UNL     1       8.963  -6.020   6.329  1.00  0.00     0.010 A 
ATOM     40  C   UNL     1       7.504  -6.636   8.166  1.00  0.00     0.010 A 
ATOM     41  C   UNL     1       9.108  -7.371   5.995  1.00  0.00     0.020 A 
ATOM     42  C   UNL     1       7.665  -7.987   7.851  1.00  0.00     0.020 A 
ATOM     43  C   UNL     1       8.450  -8.346   6.754  1.00  0.00     0.054 A 
BRANCH  43  44
ATOM     44  S   UNL     1       8.641 -10.090   6.294  1.00  0.00     0.124 S 
ATOM     45  O   UNL     1       7.828 -10.172   5.083  1.00  0.00    -0.237 OA
ATOM     46  O   UNL     1      10.082 -10.212   6.091  1.00  0.00    -0.237 OA
ATOM     47  O   UNL     1       8.114 -10.813   7.448  1.00  0.00    -0.744 OA
ENDBRANCH  43  44
ENDBRANCH  24  38
BRANCH  25  48
ATOM     48  C   UNL     1       6.061   4.174   8.856  1.00  0.00    -0.014 A 
ATOM     49  C   UNL     1       7.071   5.149   8.807  1.00  0.00     0.010 A 
ATOM     50  C   UNL     1       4.734   4.587   9.095  1.00  0.00     0.010 A 
ATOM     51  C   UNL     1       6.765   6.500   9.012  1.00  0.00     0.020 A 
ATOM     52  C   UNL     1       4.418   5.937   9.268  1.00  0.00     0.020 A 
ATOM     53  C   UNL     1       5.440   6.885   9.242  1.00  0.00     0.054 A 
BRANCH  53  54
ATOM     54  S   UNL     1       5.058   8.644   9.481  1.00  0.00     0.124 S 
ATOM     55  O   UNL     1       5.570   8.884  10.827  1.00  0.00    -0.237 OA
ATOM     56  O   UNL     1       5.802   9.280   8.397  1.00  0.00    -0.237 OA
ATOM     57  O   UNL     1       3.604   8.700   9.345  1.00  0.00    -0.744 OA
ENDBRANCH  53  54
ENDBRANCH  25  48
BRANCH  37  58
ATOM     58  C   UNL     1       9.600  -0.661  12.443  1.00  0.00    -0.014 A 
ATOM     59  C   UNL     1       8.929  -0.588  13.675  1.00  0.00     0.010 A 
ATOM     60  C   UNL     1      11.003  -0.740  12.415  1.00  0.00     0.010 A 
ATOM     61  C   UNL     1       9.656  -0.570  14.864  1.00  0.00     0.020 A 
ATOM     62  C   UNL     1      11.730  -0.751  13.603  1.00  0.00     0.020 A 
ATOM     63  C   UNL     1      11.052  -0.654  14.820  1.00  0.00     0.054 A 
BRANCH  63  64
ATOM     64  S   UNL     1      11.972  -0.692  16.380  1.00  0.00     0.124 S 
ATOM     65  O   UNL     1      11.905   0.704  16.804  1.00  0.00    -0.237 OA
ATOM     66  O   UNL     1      11.197  -1.632  17.186  1.00  0.00    -0.237 OA
ATOM     67  O   UNL     1      13.298  -1.163  15.988  1.00  0.00    -0.744 OA
ENDBRANCH  63  64
ENDBRANCH  37  58
ENDBRANCH  11  12
ENDBRANCH   4   6
ENDBRANCH   3   4
ENDBRANCH   2   3
ENDBRANCH   1   2
BRANCH   1  68
ATOM     68  O   UNL     1       4.122   1.387  -0.099  1.00  0.00    -0.374 OA
BRANCH  68  69
ATOM     69  C   UNL     1       2.801   1.891  -0.282  1.00  0.00     0.202 C 
BRANCH  69  70
ATOM     70  C   UNL     1       2.877   3.404  -0.516  1.00  0.00     0.261 C 
BRANCH  70  71
ATOM     71  O   UNL     1       3.362   3.678  -1.845  1.00  0.00    -0.462 OA
BRANCH  71  72
ATOM     72  C   UNL     1       4.663   3.373  -2.086  1.00  0.00     0.329 C 
ATOM     73  O   UNL     1       5.534   3.269  -1.231  1.00  0.00    -0.250 OA
BRANCH  72  74
ATOM     74  C   UNL     1       4.943   3.176  -3.581  1.00  0.00     0.206 C 
BRANCH  74  75
ATOM     75  C   UNL     1       4.237   1.895  -4.143  1.00  0.00     0.073 C 
BRANCH  75  76
ATOM     76  C   UNL     1       2.750   1.600  -3.927  1.00  0.00    -0.045 A 
ATOM     77  C   UNL     1       1.750   2.583  -3.871  1.00  0.00     0.004 A 
ATOM     78  C   UNL     1       2.334   0.261  -3.791  1.00  0.00     0.004 A 
ATOM     79  C   UNL     1       0.412   2.258  -3.615  1.00  0.00     0.000 A 
ATOM     80  C   UNL     1       0.998  -0.067  -3.530  1.00  0.00     0.000 A 
ATOM     81  C   UNL     1       0.037   0.933  -3.434  1.00  0.00     0.000 A 
ENDBRANCH  75  76
ENDBRANCH  74  75
BRANCH  74  82
ATOM     82  N   UNL     1       4.715   4.461  -4.265  1.00  0.00    -0.278 N 
ATOM     83  C   UNL     1       3.956   4.548  -5.403  1.00  0.00     0.267 C 
ATOM     84  C   UNL     1       5.404   5.625  -3.954  1.00  0.00     0.149 C 
ATOM     85  O   UNL     1       3.583   3.634  -6.136  1.00  0.00    -0.268 OA
ATOM     86  C   UNL     1       3.700   5.951  -5.748  1.00  0.00     0.081 C 
ATOM     87  S   UNL     1       4.663   6.983  -4.789  1.00  0.00    -0.054 SA
ATOM     88  S   UNL     1       6.745   5.845  -2.990  1.00  0.00    -0.052 S 
ATOM     89  C   UNL     1       2.805   6.247  -6.697  1.00  0.00     0.029 C 
BRANCH  89  90
ATOM     90  C   UNL     1       2.486   7.597  -7.137  1.00  0.00    -0.021 A 
ATOM     91  C   UNL     1       3.482   8.440  -7.626  1.00  0.00     0.028 A 
ATOM     92  C   UNL     1       1.170   8.044  -7.079  1.00  0.00     0.028 A 
ATOM     93  C   UNL     1       3.123   9.717  -8.003  1.00  0.00     0.111 A 
ATOM     94  C   UNL     1       0.912   9.338  -7.491  1.00  0.00     0.111 A 
ATOM     95  N   UNL     1       1.858  10.185  -7.952  1.00  0.00    -0.265 NA
ENDBRANCH  89  90
ENDBRANCH  74  82
ENDBRANCH  72  74
ENDBRANCH  71  72
ENDBRANCH  70  71
ENDBRANCH  69  70
ENDBRANCH  68  69
ENDBRANCH   1  68
TORSDOF 21
