REMARK SMILES Cc1c(CC(=O)OCCOCCOC(=O)c2ccc(-c3c4nc(c(-c5ccc(S(=O)(=O)[O-])cc5)c5ccc([nH]5)c(-c5ccc(S(=O)(=O)[O-])cc5)c5nc(c(-c6ccc(S(=O)(=O)[O-])cc6)c6ccc3[nH]6)C=C5)C=C4)cc2)cc(-c2ccc(S(C)(=O)=O)cc2)n1-c1ccccc1
REMARK SMILES IDX 10 1 9 2 8 3 7 4 5 5 6 6 4 7 3 8 1 9 2 10 88 11 76 12 77 13
REMARK SMILES IDX 89 14 90 15 94 16 91 17 93 18 92 19 78 20 79 21 87 22 80 23
REMARK SMILES IDX 86 24 81 25 82 26 83 27 84 28 85 29 11 30 12 31 13 32 14 33
REMARK SMILES IDX 15 34 16 35 17 36 75 37 18 38 74 39 19 40 20 41 21 42 68 43
REMARK SMILES IDX 22 44 73 45 67 46 69 47 23 48 72 49 66 50 65 51 24 53 54 54
REMARK SMILES IDX 35 55 53 56 36 57 39 58 52 59 70 60 37 61 38 62 51 64 71 65
REMARK SMILES IDX 40 66 25 67 26 68 34 69 27 70 33 71 28 72 29 73 30 74 31 75
REMARK SMILES IDX 32 76 55 77 56 78 64 79 57 80 63 81 58 82 59 83 60 84 61 85
REMARK SMILES IDX 62 86 41 87 42 88 50 89 43 90 49 91 44 92 45 93 46 94 47 95
REMARK SMILES IDX 48 96
REMARK H PARENT 69 52 39 63
REMARK Flexibility Score: inf
ROOT
ATOM      1  O   UNL     1       4.328  -2.065  -0.684  1.00  0.00    -0.374 OA
ENDROOT
BRANCH   1   2
ATOM      2  C   UNL     1       4.673  -2.656  -1.925  1.00  0.00     0.202 C 
BRANCH   2   3
ATOM      3  C   UNL     1       3.535  -3.426  -2.618  1.00  0.00     0.261 C 
BRANCH   3   4
ATOM      4  O   UNL     1       2.317  -2.658  -2.746  1.00  0.00    -0.463 OA
BRANCH   4   5
ATOM      5  C   UNL     1       1.225  -3.154  -2.104  1.00  0.00     0.310 C 
ATOM      6  O   UNL     1       1.180  -4.274  -1.595  1.00  0.00    -0.252 OA
BRANCH   5   7
ATOM      7  C   UNL     1      -0.008  -2.268  -2.124  1.00  0.00     0.160 C 
BRANCH   7   8
ATOM      8  C   UNL     1       0.122  -0.776  -2.336  1.00  0.00    -0.015 A 
ATOM      9  C   UNL     1       0.248   0.192   0.090  1.00  0.00     0.065 C 
ATOM     10  C   UNL     1       0.245   0.261  -1.402  1.00  0.00     0.024 A 
ATOM     11  N   UNL     1       0.251   1.486  -2.083  1.00  0.00    -0.314 N 
ATOM     12  C   UNL     1      -0.072  -0.143  -3.590  1.00  0.00     0.033 A 
ATOM     13  C   UNL     1      -0.073   1.227  -3.409  1.00  0.00     0.053 A 
BRANCH  11  14
ATOM     14  C   UNL     1       0.511   2.786  -1.538  1.00  0.00     0.046 A 
ATOM     15  C   UNL     1      -0.418   3.819  -1.627  1.00  0.00     0.026 A 
ATOM     16  C   UNL     1       1.792   3.095  -1.083  1.00  0.00     0.026 A 
ATOM     17  C   UNL     1      -0.060   5.117  -1.222  1.00  0.00     0.002 A 
ATOM     18  C   UNL     1       2.157   4.377  -0.672  1.00  0.00     0.002 A 
ATOM     19  C   UNL     1       1.222   5.395  -0.740  1.00  0.00     0.000 A 
ENDBRANCH  11  14
BRANCH  13  20
ATOM     20  C   UNL     1      -0.255   2.249  -4.430  1.00  0.00    -0.001 A 
ATOM     21  C   UNL     1       0.840   2.999  -4.866  1.00  0.00     0.011 A 
ATOM     22  C   UNL     1      -1.520   2.479  -4.980  1.00  0.00     0.011 A 
ATOM     23  C   UNL     1       0.681   3.986  -5.834  1.00  0.00     0.021 A 
ATOM     24  C   UNL     1      -1.691   3.472  -5.945  1.00  0.00     0.021 A 
ATOM     25  C   UNL     1      -0.587   4.223  -6.362  1.00  0.00     0.067 A 
BRANCH  25  26
ATOM     26  S   UNL     1      -0.782   5.456  -7.622  1.00  0.00     0.175 S 
ATOM     27  C   UNL     1      -0.294   6.972  -6.839  1.00  0.00     0.163 C 
ATOM     28  O   UNL     1       0.187   5.137  -8.665  1.00  0.00    -0.224 OA
ATOM     29  O   UNL     1      -2.190   5.550  -7.927  1.00  0.00    -0.224 OA
ENDBRANCH  25  26
ENDBRANCH  13  20
ENDBRANCH   7   8
ENDBRANCH   5   7
ENDBRANCH   4   5
ENDBRANCH   3   4
ENDBRANCH   2   3
ENDBRANCH   1   2
BRANCH   1  30
ATOM     30  C   UNL     1       3.530  -0.883  -0.777  1.00  0.00     0.202 C 
BRANCH  30  31
ATOM     31  C   UNL     1       4.183   0.423  -1.343  1.00  0.00     0.261 C 
BRANCH  31  32
ATOM     32  O   UNL     1       3.903   0.983  -2.721  1.00  0.00    -0.460 OA
BRANCH  32  33
ATOM     33  C   UNL     1       4.904   1.812  -3.271  1.00  0.00     0.338 C 
ATOM     34  O   UNL     1       6.043   1.763  -2.816  1.00  0.00    -0.246 OA
BRANCH  33  35
ATOM     35  C   UNL     1       4.652   2.776  -4.521  1.00  0.00     0.060 A 
ATOM     36  C   UNL     1       5.203   2.469  -5.766  1.00  0.00     0.016 A 
ATOM     37  C   UNL     1       4.252   4.141  -4.478  1.00  0.00     0.016 A 
ATOM     38  C   UNL     1       5.254   3.426  -6.896  1.00  0.00     0.010 A 
ATOM     39  C   UNL     1       4.356   5.141  -5.631  1.00  0.00     0.010 A 
ATOM     40  C   UNL     1       4.855   4.828  -6.916  1.00  0.00    -0.014 A 
BRANCH  40  41
ATOM     41  C   UNL     1       5.474   5.836  -8.185  1.00  0.00     0.031 A 
ATOM     42  C   UNL     1       6.848   5.282  -8.283  1.00  0.00     0.074 A 
ATOM     43  C   UNL     1       5.359   7.002  -9.012  1.00  0.00     0.049 A 
ATOM     44  N   UNL     1       7.566   5.309  -7.200  1.00  0.00    -0.248 NA
ATOM     45  C   UNL     1       7.327   4.369  -9.316  1.00  0.00     0.031 C 
ATOM     46  C   UNL     1       4.334   8.071  -8.974  1.00  0.00     0.029 A 
ATOM     47  N   UNL     1       6.163   7.559 -10.119  1.00  0.00    -0.354 N 
ATOM     48  C   UNL     1       8.728   4.649  -7.478  1.00  0.00     0.074 A 
ATOM     49  C   UNL     1       8.435   3.921  -8.710  1.00  0.00     0.031 C 
ATOM     50  C   UNL     1       4.442   8.968 -10.010  1.00  0.00     0.029 A 
ATOM     51  C   UNL     1       5.587   8.685 -10.885  1.00  0.00     0.049 A 
ATOM     52  H   UNL     1       7.050   7.193 -10.340  1.00  0.00     0.167 HD
ATOM     53  C   UNL     1       9.854   5.330  -7.121  1.00  0.00     0.031 A 
ATOM     54  C   UNL     1       6.011   9.398 -12.042  1.00  0.00     0.031 A 
ATOM     55  C   UNL     1      10.427   5.998  -8.261  1.00  0.00     0.049 A 
ATOM     56  C   UNL     1       7.476   9.328 -12.015  1.00  0.00     0.074 A 
ATOM     57  C   UNL     1      10.700   5.568  -9.545  1.00  0.00     0.029 A 
ATOM     58  N   UNL     1      10.338   7.375  -8.308  1.00  0.00    -0.354 N 
ATOM     59  N   UNL     1       8.170  10.098 -11.236  1.00  0.00    -0.248 NA
ATOM     60  C   UNL     1       8.254   8.505 -12.930  1.00  0.00     0.031 C 
ATOM     61  C   UNL     1      10.310   6.634 -10.381  1.00  0.00     0.029 A 
ATOM     62  C   UNL     1      10.198   7.789  -9.620  1.00  0.00     0.049 A 
ATOM     63  H   UNL     1      10.370   7.971  -7.526  1.00  0.00     0.167 HD
ATOM     64  C   UNL     1       9.353   9.434 -11.136  1.00  0.00     0.074 A 
ATOM     65  C   UNL     1       9.451   8.657 -12.360  1.00  0.00     0.031 C 
ATOM     66  C   UNL     1       9.779   9.149  -9.878  1.00  0.00     0.031 A 
BRANCH  53  67
ATOM     67  C   UNL     1       9.778   5.894  -5.716  1.00  0.00    -0.014 A 
ATOM     68  C   UNL     1      10.477   5.241  -4.691  1.00  0.00     0.010 A 
ATOM     69  C   UNL     1       8.867   6.916  -5.355  1.00  0.00     0.010 A 
ATOM     70  C   UNL     1      10.234   5.563  -3.347  1.00  0.00     0.020 A 
ATOM     71  C   UNL     1       8.596   7.217  -4.017  1.00  0.00     0.020 A 
ATOM     72  C   UNL     1       9.279   6.532  -3.017  1.00  0.00     0.054 A 
BRANCH  72  73
ATOM     73  S   UNL     1       8.898   6.826  -1.266  1.00  0.00     0.124 S 
ATOM     74  O   UNL     1       8.670   5.475  -0.755  1.00  0.00    -0.237 OA
ATOM     75  O   UNL     1      10.118   7.469  -0.789  1.00  0.00    -0.237 OA
ATOM     76  O   UNL     1       7.705   7.669  -1.296  1.00  0.00    -0.744 OA
ENDBRANCH  72  73
ENDBRANCH  53  67
BRANCH  54  77
ATOM     77  C   UNL     1       5.646  10.434 -13.233  1.00  0.00    -0.014 A 
ATOM     78  C   UNL     1       6.671  11.280 -13.823  1.00  0.00     0.010 A 
ATOM     79  C   UNL     1       4.517  10.307 -14.063  1.00  0.00     0.010 A 
ATOM     80  C   UNL     1       6.644  11.801 -15.155  1.00  0.00     0.020 A 
ATOM     81  C   UNL     1       4.466  10.855 -15.400  1.00  0.00     0.020 A 
ATOM     82  C   UNL     1       5.548  11.547 -15.961  1.00  0.00     0.054 A 
BRANCH  82  83
ATOM     83  S   UNL     1       5.621  11.965 -17.759  1.00  0.00     0.124 S 
ATOM     84  O   UNL     1       5.634  13.425 -17.767  1.00  0.00    -0.237 OA
ATOM     85  O   UNL     1       6.865  11.329 -18.191  1.00  0.00    -0.237 OA
ATOM     86  O   UNL     1       4.408  11.356 -18.303  1.00  0.00    -0.744 OA
ENDBRANCH  82  83
ENDBRANCH  54  77
BRANCH  66  87
ATOM     87  C   UNL     1       9.597  10.221  -8.805  1.00  0.00    -0.014 A 
ATOM     88  C   UNL     1       8.456  11.045  -8.645  1.00  0.00     0.010 A 
ATOM     89  C   UNL     1      10.676  10.461  -7.937  1.00  0.00     0.010 A 
ATOM     90  C   UNL     1       8.429  12.108  -7.731  1.00  0.00     0.020 A 
ATOM     91  C   UNL     1      10.638  11.486  -6.983  1.00  0.00     0.020 A 
ATOM     92  C   UNL     1       9.530  12.329  -6.912  1.00  0.00     0.054 A 
BRANCH  92  93
ATOM     93  S   UNL     1       9.514  13.748  -5.783  1.00  0.00     0.124 S 
ATOM     94  O   UNL     1       9.550  14.880  -6.707  1.00  0.00    -0.237 OA
ATOM     95  O   UNL     1       8.257  13.573  -5.061  1.00  0.00    -0.237 OA
ATOM     96  O   UNL     1      10.726  13.569  -4.986  1.00  0.00    -0.744 OA
ENDBRANCH  92  93
ENDBRANCH  66  87
ENDBRANCH  40  41
ENDBRANCH  33  35
ENDBRANCH  32  33
ENDBRANCH  31  32
ENDBRANCH  30  31
ENDBRANCH   1  30
TORSDOF 21
