REMARK SMILES O=C(C[C@@H]1CN(C(=O)[C@H]2C[C@H](O)C[NH2+]2)CCO1)OCCOCCOC(=O)c1ccc(-c2c3nc(c(-c4ccc(S(=O)(=O)[O-])cc4)c4ccc([nH]4)c(-c4ccc(S(=O)(=O)[O-])cc4)c4nc(c(-c5ccc(S(=O)(=O)[O-])cc5)c5ccc2[nH]5)C=C4)C=C3)cc1
REMARK SMILES IDX 20 1 19 2 18 3 2 4 1 5 3 6 4 7 5 8 17 9 6 10 16 11 15 12
REMARK SMILES IDX 7 13 8 14 9 15 10 16 14 17 11 18 13 19 12 22 21 24 22 25
REMARK SMILES IDX 23 26 24 27 25 28 26 29 27 30 28 31 86 32 29 33 85 34 30 35
REMARK SMILES IDX 31 36 32 37 79 38 33 39 84 40 78 41 80 42 34 43 83 44 77 45
REMARK SMILES IDX 76 46 35 48 65 49 46 50 64 51 47 52 50 53 63 54 81 55 48 56
REMARK SMILES IDX 49 57 62 59 82 60 51 61 36 62 37 63 45 64 38 65 44 66 39 67
REMARK SMILES IDX 40 68 41 69 42 70 43 71 66 72 67 73 75 74 68 75 74 76 69 77
REMARK SMILES IDX 70 78 71 79 72 80 73 81 52 82 53 83 61 84 54 85 60 86 55 87
REMARK SMILES IDX 56 88 57 89 58 90 59 91
REMARK H PARENT 14 20 14 21 12 23 80 47 50 58
REMARK Flexibility Score: inf
ROOT
ATOM      1  C   UNL     1       4.678   0.911  -1.297  1.00  0.00     0.202 C 
ENDROOT
BRANCH   1   2
ATOM      2  C   UNL     1       4.027  -0.332  -0.687  1.00  0.00     0.261 C 
BRANCH   2   3
ATOM      3  O   UNL     1       2.621  -0.297  -0.408  1.00  0.00    -0.463 OA
BRANCH   3   4
ATOM      4  C   UNL     1       2.014   0.334   0.612  1.00  0.00     0.308 C 
ATOM      5  O   UNL     1       0.857   0.047   0.910  1.00  0.00    -0.252 OA
BRANCH   4   6
ATOM      6  C   UNL     1       2.754   1.395   1.367  1.00  0.00     0.156 C 
BRANCH   6   7
ATOM      7  C   UNL     1       3.781   0.891   2.372  1.00  0.00     0.148 C 
ATOM      8  C   UNL     1       3.444  -0.485   2.990  1.00  0.00     0.152 C 
ATOM      9  O   UNL     1       3.878   1.902   3.400  1.00  0.00    -0.374 OA
ATOM     10  N   UNL     1       4.413  -0.831   4.031  1.00  0.00    -0.333 N 
ATOM     11  C   UNL     1       4.871   1.561   4.378  1.00  0.00     0.182 C 
ATOM     12  C   UNL     1       4.546   0.223   5.045  1.00  0.00     0.148 C 
BRANCH  10  13
ATOM     13  C   UNL     1       5.141  -2.001   4.189  1.00  0.00     0.281 C 
ATOM     14  O   UNL     1       5.851  -2.149   5.193  1.00  0.00    -0.268 OA
BRANCH  13  15
ATOM     15  C   UNL     1       5.168  -3.109   3.107  1.00  0.00     0.275 C 
ATOM     16  C   UNL     1       3.851  -3.747   2.669  1.00  0.00     0.113 C 
ATOM     17  N   UNL     1       5.873  -2.646   1.880  1.00  0.00    -0.334 N 
ATOM     18  C   UNL     1       3.891  -3.711   1.144  1.00  0.00     0.175 C 
ATOM     19  C   UNL     1       5.369  -3.522   0.818  1.00  0.00     0.293 C 
ATOM     20  H   UNL     1       6.883  -2.748   1.984  1.00  0.00     0.347 HD
ATOM     21  H   UNL     1       5.705  -1.659   1.684  1.00  0.00     0.347 HD
BRANCH  18  22
ATOM     22  O   UNL     1       3.343  -4.873   0.554  1.00  0.00    -0.387 OA
ATOM     23  H   UNL     1       3.831  -5.653   0.862  1.00  0.00     0.211 HD
ENDBRANCH  18  22
ENDBRANCH  13  15
ENDBRANCH  10  13
ENDBRANCH   6   7
ENDBRANCH   4   6
ENDBRANCH   3   4
ENDBRANCH   2   3
ENDBRANCH   1   2
BRANCH   1  24
ATOM     24  O   UNL     1       3.860   1.968  -1.765  1.00  0.00    -0.374 OA
BRANCH  24  25
ATOM     25  C   UNL     1       2.743   1.688  -2.599  1.00  0.00     0.202 C 
BRANCH  25  26
ATOM     26  C   UNL     1       2.990   0.996  -3.940  1.00  0.00     0.261 C 
BRANCH  26  27
ATOM     27  O   UNL     1       3.438  -0.364  -3.810  1.00  0.00    -0.460 OA
BRANCH  27  28
ATOM     28  C   UNL     1       4.693  -0.600  -4.256  1.00  0.00     0.338 C 
ATOM     29  O   UNL     1       5.503   0.235  -4.639  1.00  0.00    -0.246 OA
BRANCH  28  30
ATOM     30  C   UNL     1       5.036  -2.026  -4.118  1.00  0.00     0.060 A 
ATOM     31  C   UNL     1       6.266  -2.355  -3.534  1.00  0.00     0.016 A 
ATOM     32  C   UNL     1       4.216  -3.021  -4.655  1.00  0.00     0.016 A 
ATOM     33  C   UNL     1       6.702  -3.680  -3.530  1.00  0.00     0.010 A 
ATOM     34  C   UNL     1       4.660  -4.347  -4.659  1.00  0.00     0.010 A 
ATOM     35  C   UNL     1       5.919  -4.677  -4.128  1.00  0.00    -0.014 A 
BRANCH  35  36
ATOM     36  C   UNL     1       6.463  -6.045  -4.303  1.00  0.00     0.031 A 
ATOM     37  C   UNL     1       7.071  -6.433  -5.624  1.00  0.00     0.074 A 
ATOM     38  C   UNL     1       6.413  -6.933  -3.293  1.00  0.00     0.049 A 
ATOM     39  N   UNL     1       7.556  -7.587  -6.003  1.00  0.00    -0.248 NA
ATOM     40  C   UNL     1       7.139  -5.383  -6.654  1.00  0.00     0.031 C 
ATOM     41  C   UNL     1       5.871  -6.668  -1.961  1.00  0.00     0.029 A 
ATOM     42  N   UNL     1       6.814  -8.244  -3.241  1.00  0.00    -0.354 N 
ATOM     43  C   UNL     1       7.979  -7.408  -7.315  1.00  0.00     0.074 A 
ATOM     44  C   UNL     1       7.678  -6.039  -7.673  1.00  0.00     0.031 C 
ATOM     45  C   UNL     1       5.963  -7.789  -1.224  1.00  0.00     0.029 A 
ATOM     46  C   UNL     1       6.535  -8.856  -2.043  1.00  0.00     0.049 A 
ATOM     47  H   UNL     1       7.258  -8.702  -3.990  1.00  0.00     0.167 HD
ATOM     48  C   UNL     1       8.567  -8.303  -8.145  1.00  0.00     0.031 A 
ATOM     49  C   UNL     1       6.695 -10.138  -1.660  1.00  0.00     0.031 A 
ATOM     50  C   UNL     1       8.853  -9.668  -7.792  1.00  0.00     0.049 A 
ATOM     51  C   UNL     1       7.289 -11.131  -2.625  1.00  0.00     0.074 A 
ATOM     52  C   UNL     1       9.468 -10.643  -8.559  1.00  0.00     0.029 A 
ATOM     53  N   UNL     1       8.535 -10.255  -6.578  1.00  0.00    -0.354 N 
ATOM     54  N   UNL     1       7.718 -10.935  -3.850  1.00  0.00    -0.248 NA
ATOM     55  C   UNL     1       7.423 -12.517  -2.154  1.00  0.00     0.031 C 
ATOM     56  C   UNL     1       9.476 -11.835  -7.826  1.00  0.00     0.029 A 
ATOM     57  C   UNL     1       8.914 -11.587  -6.584  1.00  0.00     0.049 A 
ATOM     58  H   UNL     1       8.104  -9.794  -5.823  1.00  0.00     0.167 HD
ATOM     59  C   UNL     1       8.192 -12.168  -4.286  1.00  0.00     0.074 A 
ATOM     60  C   UNL     1       8.012 -13.098  -3.191  1.00  0.00     0.031 C 
ATOM     61  C   UNL     1       8.728 -12.501  -5.486  1.00  0.00     0.031 A 
BRANCH  48  62
ATOM     62  C   UNL     1       8.918  -7.843  -9.534  1.00  0.00    -0.014 A 
ATOM     63  C   UNL     1      10.015  -6.993  -9.762  1.00  0.00     0.010 A 
ATOM     64  C   UNL     1       8.180  -8.320 -10.633  1.00  0.00     0.010 A 
ATOM     65  C   UNL     1      10.352  -6.610 -11.063  1.00  0.00     0.020 A 
ATOM     66  C   UNL     1       8.527  -7.956 -11.936  1.00  0.00     0.020 A 
ATOM     67  C   UNL     1       9.606  -7.093 -12.142  1.00  0.00     0.054 A 
BRANCH  67  68
ATOM     68  S   UNL     1      10.092  -6.612 -13.823  1.00  0.00     0.124 S 
ATOM     69  O   UNL     1       9.652  -5.220 -13.876  1.00  0.00    -0.237 OA
ATOM     70  O   UNL     1      11.538  -6.814 -13.809  1.00  0.00    -0.237 OA
ATOM     71  O   UNL     1       9.346  -7.533 -14.677  1.00  0.00    -0.744 OA
ENDBRANCH  67  68
ENDBRANCH  48  62
BRANCH  49  72
ATOM     72  C   UNL     1       6.252 -10.572  -0.308  1.00  0.00    -0.014 A 
ATOM     73  C   UNL     1       7.190 -10.932   0.674  1.00  0.00     0.010 A 
ATOM     74  C   UNL     1       4.880 -10.644  -0.006  1.00  0.00     0.010 A 
ATOM     75  C   UNL     1       6.763 -11.378   1.929  1.00  0.00     0.020 A 
ATOM     76  C   UNL     1       4.450 -11.064   1.256  1.00  0.00     0.020 A 
ATOM     77  C   UNL     1       5.396 -11.443   2.210  1.00  0.00     0.054 A 
BRANCH  77  78
ATOM     78  S   UNL     1       4.861 -11.985   3.857  1.00  0.00     0.124 S 
ATOM     79  O   UNL     1       5.041 -13.430   3.773  1.00  0.00    -0.237 OA
ATOM     80  O   UNL     1       5.789 -11.280   4.739  1.00  0.00    -0.237 OA
ATOM     81  O   UNL     1       3.476 -11.525   3.931  1.00  0.00    -0.744 OA
ENDBRANCH  77  78
ENDBRANCH  49  72
BRANCH  61  82
ATOM     82  C   UNL     1       9.188 -13.922  -5.670  1.00  0.00    -0.014 A 
ATOM     83  C   UNL     1       8.265 -14.969  -5.839  1.00  0.00     0.010 A 
ATOM     84  C   UNL     1      10.565 -14.205  -5.728  1.00  0.00     0.010 A 
ATOM     85  C   UNL     1       8.711 -16.279  -6.033  1.00  0.00     0.020 A 
ATOM     86  C   UNL     1      11.015 -15.509  -5.946  1.00  0.00     0.020 A 
ATOM     87  C   UNL     1      10.084 -16.541  -6.083  1.00  0.00     0.054 A 
BRANCH  87  88
ATOM     88  S   UNL     1      10.641 -18.243  -6.376  1.00  0.00     0.124 S 
ATOM     89  O   UNL     1      10.413 -18.865  -5.075  1.00  0.00    -0.237 OA
ATOM     90  O   UNL     1       9.757 -18.691  -7.450  1.00  0.00    -0.237 OA
ATOM     91  O   UNL     1      12.043 -18.087  -6.757  1.00  0.00    -0.744 OA
ENDBRANCH  87  88
ENDBRANCH  61  82
ENDBRANCH  35  36
ENDBRANCH  28  30
ENDBRANCH  27  28
ENDBRANCH  26  27
ENDBRANCH  25  26
ENDBRANCH  24  25
ENDBRANCH   1  24
TORSDOF 21
