REMARK SMILES CN1C(=O)/C(=C\c2ccc(-c3ccccc3C(=O)OCCOCCOC(=O)c3ccc(-c4c5nc(c(-c6ccc(S(=O)(=O)[O-])cc6)c6ccc([nH]6)c(-c6ccc(S(=O)(=O)[O-])cc6)c6nc(c(-c7ccc(S(=O)(=O)[O-])cc7)c7ccc4[nH]7)C=C6)C=C5)cc3)o2)C(=O)[NH+]=C1S
REMARK SMILES IDX 22 1 21 2 20 3 19 4 17 5 18 6 16 7 11 8 12 9 13 10 15 11
REMARK SMILES IDX 14 12 10 13 7 14 8 15 88 16 9 17 6 18 1 19 2 20 3 21 92 22
REMARK SMILES IDX 4 23 5 24 91 25 89 26 90 28 93 29 23 31 24 32 25 33 26 34
REMARK SMILES IDX 27 35 28 36 29 37 87 38 30 39 86 40 31 41 32 42 33 43 80 44
REMARK SMILES IDX 34 45 85 46 79 47 81 48 35 49 84 50 78 51 77 52 36 54 66 55
REMARK SMILES IDX 47 56 65 57 48 58 51 59 64 60 82 61 49 62 50 63 63 65 83 66
REMARK SMILES IDX 52 67 37 68 38 69 46 70 39 71 45 72 40 73 41 74 42 75 43 76
REMARK SMILES IDX 44 77 67 78 68 79 76 80 69 81 75 82 70 83 71 84 72 85 73 86
REMARK SMILES IDX 74 87 53 88 54 89 62 90 55 91 61 92 56 93 57 94 58 95 59 96
REMARK SMILES IDX 60 97
REMARK H PARENT 91 27 93 30 81 53 51 64
REMARK Flexibility Score: inf
ROOT
ATOM      1  O   UNL     1      -5.942  -2.544  -8.051  1.00  0.00    -0.374 OA
ENDROOT
BRANCH   1   2
ATOM      2  C   UNL     1      -6.150  -2.208  -6.678  1.00  0.00     0.202 C 
BRANCH   2   3
ATOM      3  C   UNL     1      -5.503  -3.133  -5.648  1.00  0.00     0.261 C 
BRANCH   3   4
ATOM      4  O   UNL     1      -4.078  -3.079  -5.780  1.00  0.00    -0.460 OA
BRANCH   4   5
ATOM      5  C   UNL     1      -3.426  -4.256  -5.882  1.00  0.00     0.338 C 
ATOM      6  O   UNL     1      -3.922  -5.368  -5.799  1.00  0.00    -0.246 OA
BRANCH   5   7
ATOM      7  C   UNL     1      -2.017  -4.033  -6.300  1.00  0.00     0.071 A 
ATOM      8  C   UNL     1      -1.185  -2.997  -5.834  1.00  0.00     0.032 A 
ATOM      9  C   UNL     1       0.140  -2.951  -6.318  1.00  0.00     0.013 A 
ATOM     10  C   UNL     1       0.612  -3.873  -7.258  1.00  0.00     0.001 A 
ATOM     11  C   UNL     1      -1.538  -4.945  -7.263  1.00  0.00     0.016 A 
ATOM     12  C   UNL     1      -0.234  -4.860  -7.745  1.00  0.00     0.001 A 
BRANCH   8  13
ATOM     13  C   UNL     1      -1.606  -1.978  -4.876  1.00  0.00     0.135 A 
ATOM     14  C   UNL     1      -1.544   0.093  -4.075  1.00  0.00     0.128 A 
ATOM     15  C   UNL     1      -2.466  -0.621  -3.322  1.00  0.00     0.051 A 
ATOM     16  O   UNL     1      -1.079  -0.730  -5.069  1.00  0.00    -0.457 OA
ATOM     17  C   UNL     1      -2.440  -1.954  -3.780  1.00  0.00     0.051 A 
BRANCH  14  18
ATOM     18  C   UNL     1      -1.064   1.407  -3.850  1.00  0.00     0.071 C 
ATOM     19  C   UNL     1       1.012   0.128   0.352  1.00  0.00     0.301 C 
ATOM     20  N   UNL     1       0.677   1.135  -0.652  1.00  0.00    -0.189 N 
ATOM     21  C   UNL     1       0.274   0.667  -1.881  1.00  0.00     0.349 C 
ATOM     22  C   UNL     1       0.882   2.481  -0.476  1.00  0.00     0.318 C 
ATOM     23  O   UNL     1       0.431  -0.502  -2.224  1.00  0.00    -0.240 OA
ATOM     24  C   UNL     1      -0.279   1.695  -2.793  1.00  0.00     0.157 C 
ATOM     25  N   UNL     1       0.615   3.400  -1.333  1.00  0.00    -0.200 N 
ATOM     26  C   UNL     1       0.023   3.116  -2.528  1.00  0.00     0.347 C 
ATOM     27  H   UNL     1       0.844   4.334  -1.122  1.00  0.00     0.316 HD
ATOM     28  O   UNL     1      -0.259   3.986  -3.346  1.00  0.00    -0.241 OA
BRANCH  22  29
ATOM     29  S   UNL     1       1.615   3.020   1.017  1.00  0.00    -0.055 SA
ATOM     30  H   UNL     1       1.840   1.949   1.824  1.00  0.00     0.116 HD
ENDBRANCH  22  29
ENDBRANCH  14  18
ENDBRANCH   8  13
ENDBRANCH   5   7
ENDBRANCH   4   5
ENDBRANCH   3   4
ENDBRANCH   2   3
ENDBRANCH   1   2
BRANCH   1  31
ATOM     31  C   UNL     1      -4.640  -2.337  -8.598  1.00  0.00     0.202 C 
BRANCH  31  32
ATOM     32  C   UNL     1      -4.215  -0.896  -8.914  1.00  0.00     0.261 C 
BRANCH  32  33
ATOM     33  O   UNL     1      -4.217  -0.020  -7.777  1.00  0.00    -0.460 OA
BRANCH  33  34
ATOM     34  C   UNL     1      -5.253   0.855  -7.749  1.00  0.00     0.338 C 
ATOM     35  O   UNL     1      -6.146   0.966  -8.572  1.00  0.00    -0.246 OA
BRANCH  34  36
ATOM     36  C   UNL     1      -5.266   1.591  -6.472  1.00  0.00     0.060 A 
ATOM     37  C   UNL     1      -6.419   1.499  -5.683  1.00  0.00     0.016 A 
ATOM     38  C   UNL     1      -4.222   2.443  -6.109  1.00  0.00     0.016 A 
ATOM     39  C   UNL     1      -6.550   2.294  -4.547  1.00  0.00     0.010 A 
ATOM     40  C   UNL     1      -4.358   3.245  -4.969  1.00  0.00     0.010 A 
ATOM     41  C   UNL     1      -5.536   3.198  -4.201  1.00  0.00    -0.014 A 
BRANCH  41  42
ATOM     42  C   UNL     1      -5.767   4.165  -3.100  1.00  0.00     0.031 A 
ATOM     43  C   UNL     1      -6.090   5.599  -3.426  1.00  0.00     0.074 A 
ATOM     44  C   UNL     1      -5.724   3.757  -1.818  1.00  0.00     0.049 A 
ATOM     45  N   UNL     1      -6.333   6.596  -2.615  1.00  0.00    -0.248 NA
ATOM     46  C   UNL     1      -6.151   5.956  -4.853  1.00  0.00     0.031 C 
ATOM     47  C   UNL     1      -5.460   2.387  -1.375  1.00  0.00     0.029 A 
ATOM     48  N   UNL     1      -5.905   4.457  -0.652  1.00  0.00    -0.354 N 
ATOM     49  C   UNL     1      -6.558   7.702  -3.429  1.00  0.00     0.074 A 
ATOM     50  C   UNL     1      -6.401   7.257  -4.796  1.00  0.00     0.031 C 
ATOM     51  C   UNL     1      -5.495   2.349  -0.033  1.00  0.00     0.029 A 
ATOM     52  C   UNL     1      -5.748   3.694   0.480  1.00  0.00     0.049 A 
ATOM     53  H   UNL     1      -6.127   5.416  -0.629  1.00  0.00     0.167 HD
ATOM     54  C   UNL     1      -6.869   8.971  -3.070  1.00  0.00     0.031 A 
ATOM     55  C   UNL     1      -5.786   4.042   1.781  1.00  0.00     0.031 A 
ATOM     56  C   UNL     1      -7.016   9.411  -1.707  1.00  0.00     0.049 A 
ATOM     57  C   UNL     1      -6.077   5.472   2.155  1.00  0.00     0.074 A 
ATOM     58  C   UNL     1      -7.364  10.669  -1.243  1.00  0.00     0.029 A 
ATOM     59  N   UNL     1      -6.811   8.617  -0.589  1.00  0.00    -0.354 N 
ATOM     60  N   UNL     1      -6.330   6.494   1.373  1.00  0.00    -0.248 NA
ATOM     61  C   UNL     1      -6.098   5.792   3.590  1.00  0.00     0.031 C 
ATOM     62  C   UNL     1      -7.302  10.652   0.154  1.00  0.00     0.029 A 
ATOM     63  C   UNL     1      -6.989   9.366   0.563  1.00  0.00     0.049 A 
ATOM     64  H   UNL     1      -6.575   7.662  -0.611  1.00  0.00     0.167 HD
ATOM     65  C   UNL     1      -6.565   7.572   2.220  1.00  0.00     0.074 A 
ATOM     66  C   UNL     1      -6.444   7.072   3.575  1.00  0.00     0.031 C 
ATOM     67  C   UNL     1      -6.856   8.859   1.907  1.00  0.00     0.031 A 
BRANCH  54  68
ATOM     68  C   UNL     1      -7.034   9.991  -4.167  1.00  0.00    -0.014 A 
ATOM     69  C   UNL     1      -8.139   9.963  -5.038  1.00  0.00     0.010 A 
ATOM     70  C   UNL     1      -6.093  11.030  -4.293  1.00  0.00     0.010 A 
ATOM     71  C   UNL     1      -8.281  10.936  -6.032  1.00  0.00     0.020 A 
ATOM     72  C   UNL     1      -6.247  12.021  -5.266  1.00  0.00     0.020 A 
ATOM     73  C   UNL     1      -7.335  11.960  -6.139  1.00  0.00     0.054 A 
BRANCH  73  74
ATOM     74  S   UNL     1      -7.564  13.229  -7.415  1.00  0.00     0.124 S 
ATOM     75  O   UNL     1      -7.280  12.482  -8.638  1.00  0.00    -0.237 OA
ATOM     76  O   UNL     1      -8.959  13.620  -7.229  1.00  0.00    -0.237 OA
ATOM     77  O   UNL     1      -6.582  14.253  -7.070  1.00  0.00    -0.744 OA
ENDBRANCH  73  74
ENDBRANCH  54  68
BRANCH  55  78
ATOM     78  C   UNL     1      -5.511   3.021   2.829  1.00  0.00    -0.014 A 
ATOM     79  C   UNL     1      -6.522   2.591   3.706  1.00  0.00     0.010 A 
ATOM     80  C   UNL     1      -4.220   2.473   2.953  1.00  0.00     0.010 A 
ATOM     81  C   UNL     1      -6.243   1.646   4.698  1.00  0.00     0.020 A 
ATOM     82  C   UNL     1      -3.946   1.505   3.921  1.00  0.00     0.020 A 
ATOM     83  C   UNL     1      -4.957   1.106   4.795  1.00  0.00     0.054 A 
BRANCH  83  84
ATOM     84  S   UNL     1      -4.629  -0.160   6.053  1.00  0.00     0.124 S 
ATOM     85  O   UNL     1      -4.630   0.627   7.282  1.00  0.00    -0.237 OA
ATOM     86  O   UNL     1      -5.757  -1.072   5.882  1.00  0.00    -0.237 OA
ATOM     87  O   UNL     1      -3.332  -0.703   5.657  1.00  0.00    -0.744 OA
ENDBRANCH  83  84
ENDBRANCH  55  78
BRANCH  67  88
ATOM     88  C   UNL     1      -7.094   9.816   3.048  1.00  0.00    -0.014 A 
ATOM     89  C   UNL     1      -6.044  10.236   3.884  1.00  0.00     0.010 A 
ATOM     90  C   UNL     1      -8.385  10.335   3.260  1.00  0.00     0.010 A 
ATOM     91  C   UNL     1      -6.289  11.124   4.935  1.00  0.00     0.020 A 
ATOM     92  C   UNL     1      -8.628  11.249   4.289  1.00  0.00     0.020 A 
ATOM     93  C   UNL     1      -7.580  11.624   5.132  1.00  0.00     0.054 A 
BRANCH  93  94
ATOM     94  S   UNL     1      -7.865  12.796   6.486  1.00  0.00     0.124 S 
ATOM     95  O   UNL     1      -7.772  11.932   7.660  1.00  0.00    -0.237 OA
ATOM     96  O   UNL     1      -6.772  13.751   6.319  1.00  0.00    -0.237 OA
ATOM     97  O   UNL     1      -9.198  13.328   6.210  1.00  0.00    -0.744 OA
ENDBRANCH  93  94
ENDBRANCH  67  88
ENDBRANCH  41  42
ENDBRANCH  34  36
ENDBRANCH  33  34
ENDBRANCH  32  33
ENDBRANCH  31  32
ENDBRANCH   1  31
TORSDOF 20
