REMARK SMILES O=C(OCCOCCOC(=O)[C@@H]1C[NH2+]CCN1C(=O)N[C@H]1CCOC1)c1ccc(-c2c3nc(c(-c4ccc(S(=O)(=O)[O-])cc4)c4ccc([nH]4)c(-c4ccc(S(=O)(=O)[O-])cc4)c4nc(c(-c5ccc(S(=O)(=O)[O-])cc5)c5ccc2[nH]5)C=C4)C=C3)cc1
REMARK SMILES IDX 5 1 4 2 3 3 2 4 1 5 26 6 27 7 85 8 28 9 84 10 29 11 30 12
REMARK SMILES IDX 31 13 78 14 32 15 83 16 77 17 79 18 33 19 82 20 76 21 75 22
REMARK SMILES IDX 34 24 64 25 45 26 63 27 46 28 49 29 62 30 80 31 47 32 48 33
REMARK SMILES IDX 61 35 81 36 50 37 35 38 36 39 44 40 37 41 43 42 38 43 39 44
REMARK SMILES IDX 40 45 41 46 42 47 65 48 66 49 74 50 67 51 73 52 68 53 69 54
REMARK SMILES IDX 70 55 71 56 72 57 51 58 52 59 60 60 53 61 59 62 54 63 55 64
REMARK SMILES IDX 56 65 57 66 58 67 6 68 7 69 8 70 9 71 10 72 11 73 12 74
REMARK SMILES IDX 13 75 17 76 14 77 16 78 15 79 18 82 19 83 20 84 21 86 22 87
REMARK SMILES IDX 25 88 23 89 24 90
REMARK H PARENT 79 23 49 34 14 80 14 81 20 85
REMARK Flexibility Score: inf
ROOT
ATOM      1  C   UNL     1       4.130  -0.483   1.475  1.00  0.00     0.202 C 
ENDROOT
BRANCH   1   2
ATOM      2  C   UNL     1       4.340   0.909   2.060  1.00  0.00     0.261 C 
BRANCH   2   3
ATOM      3  O   UNL     1       3.133   1.677   2.065  1.00  0.00    -0.460 OA
BRANCH   3   4
ATOM      4  C   UNL     1       2.451   2.118   0.979  1.00  0.00     0.338 C 
ATOM      5  O   UNL     1       1.249   2.349   1.123  1.00  0.00    -0.246 OA
BRANCH   4   6
ATOM      6  C   UNL     1       3.066   2.408  -0.369  1.00  0.00     0.060 A 
ATOM      7  C   UNL     1       4.275   1.913  -0.884  1.00  0.00     0.016 A 
ATOM      8  C   UNL     1       2.305   3.247  -1.203  1.00  0.00     0.016 A 
ATOM      9  C   UNL     1       4.742   2.277  -2.148  1.00  0.00     0.010 A 
ATOM     10  C   UNL     1       2.773   3.642  -2.456  1.00  0.00     0.010 A 
ATOM     11  C   UNL     1       4.020   3.196  -2.902  1.00  0.00    -0.014 A 
BRANCH  11  12
ATOM     12  C   UNL     1       4.712   3.943  -3.964  1.00  0.00     0.031 A 
ATOM     13  C   UNL     1       5.416   5.201  -3.544  1.00  0.00     0.074 A 
ATOM     14  C   UNL     1       4.705   3.522  -5.237  1.00  0.00     0.049 A 
ATOM     15  N   UNL     1       5.978   6.122  -4.274  1.00  0.00    -0.248 NA
ATOM     16  C   UNL     1       5.491   5.451  -2.092  1.00  0.00     0.031 C 
ATOM     17  C   UNL     1       4.128   2.264  -5.708  1.00  0.00     0.029 A 
ATOM     18  N   UNL     1       5.187   4.122  -6.368  1.00  0.00    -0.354 N 
ATOM     19  C   UNL     1       6.444   7.073  -3.373  1.00  0.00     0.074 A 
ATOM     20  C   UNL     1       6.106   6.620  -2.046  1.00  0.00     0.031 C 
ATOM     21  C   UNL     1       4.263   2.200  -7.044  1.00  0.00     0.029 A 
ATOM     22  C   UNL     1       4.882   3.437  -7.519  1.00  0.00     0.049 A 
ATOM     23  H   UNL     1       5.701   4.962  -6.359  1.00  0.00     0.167 HD
ATOM     24  C   UNL     1       7.074   8.239  -3.638  1.00  0.00     0.031 A 
ATOM     25  C   UNL     1       5.041   3.804  -8.806  1.00  0.00     0.031 A 
ATOM     26  C   UNL     1       7.330   8.694  -4.974  1.00  0.00     0.049 A 
ATOM     27  C   UNL     1       5.661   5.147  -9.091  1.00  0.00     0.074 A 
ATOM     28  C   UNL     1       7.911   9.875  -5.390  1.00  0.00     0.029 A 
ATOM     29  N   UNL     1       6.992   7.979  -6.117  1.00  0.00    -0.354 N 
ATOM     30  N   UNL     1       6.085   6.054  -8.239  1.00  0.00    -0.248 NA
ATOM     31  C   UNL     1       5.823   5.525 -10.501  1.00  0.00     0.031 C 
ATOM     32  C   UNL     1       7.869   9.900  -6.788  1.00  0.00     0.029 A 
ATOM     33  C   UNL     1       7.330   8.704  -7.242  1.00  0.00     0.049 A 
ATOM     34  H   UNL     1       6.572   7.089  -6.123  1.00  0.00     0.167 HD
ATOM     35  C   UNL     1       6.587   7.098  -9.007  1.00  0.00     0.074 A 
ATOM     36  C   UNL     1       6.414   6.710 -10.394  1.00  0.00     0.031 C 
ATOM     37  C   UNL     1       7.147   8.268  -8.607  1.00  0.00     0.031 A 
BRANCH  24  38
ATOM     38  C   UNL     1       7.406   9.114  -2.459  1.00  0.00    -0.014 A 
ATOM     39  C   UNL     1       8.380   8.740  -1.514  1.00  0.00     0.010 A 
ATOM     40  C   UNL     1       6.670  10.294  -2.250  1.00  0.00     0.010 A 
ATOM     41  C   UNL     1       8.559   9.490  -0.348  1.00  0.00     0.020 A 
ATOM     42  C   UNL     1       6.868  11.064  -1.101  1.00  0.00     0.020 A 
ATOM     43  C   UNL     1       7.790  10.640  -0.142  1.00  0.00     0.054 A 
BRANCH  43  44
ATOM     44  S   UNL     1       8.005  11.569   1.401  1.00  0.00     0.124 S 
ATOM     45  O   UNL     1       7.349  10.695   2.371  1.00  0.00    -0.237 OA
ATOM     46  O   UNL     1       9.457  11.661   1.521  1.00  0.00    -0.237 OA
ATOM     47  O   UNL     1       7.323  12.835   1.142  1.00  0.00    -0.744 OA
ENDBRANCH  43  44
ENDBRANCH  24  38
BRANCH  25  48
ATOM     48  C   UNL     1       4.556   2.905  -9.890  1.00  0.00    -0.014 A 
ATOM     49  C   UNL     1       5.456   2.213 -10.717  1.00  0.00     0.010 A 
ATOM     50  C   UNL     1       3.174   2.679 -10.051  1.00  0.00     0.010 A 
ATOM     51  C   UNL     1       4.986   1.303 -11.673  1.00  0.00     0.020 A 
ATOM     52  C   UNL     1       2.702   1.753 -10.986  1.00  0.00     0.020 A 
ATOM     53  C   UNL     1       3.613   1.070 -11.793  1.00  0.00     0.054 A 
BRANCH  53  54
ATOM     54  S   UNL     1       3.033  -0.185 -12.971  1.00  0.00     0.124 S 
ATOM     55  O   UNL     1       3.267   0.470 -14.254  1.00  0.00    -0.237 OA
ATOM     56  O   UNL     1       3.902  -1.321 -12.674  1.00  0.00    -0.237 OA
ATOM     57  O   UNL     1       1.629  -0.372 -12.611  1.00  0.00    -0.744 OA
ENDBRANCH  53  54
ENDBRANCH  25  48
BRANCH  37  58
ATOM     58  C   UNL     1       7.664   9.196  -9.671  1.00  0.00    -0.014 A 
ATOM     59  C   UNL     1       6.793  10.000 -10.424  1.00  0.00     0.010 A 
ATOM     60  C   UNL     1       9.055   9.365  -9.804  1.00  0.00     0.010 A 
ATOM     61  C   UNL     1       7.308  10.966 -11.292  1.00  0.00     0.020 A 
ATOM     62  C   UNL     1       9.571  10.346 -10.651  1.00  0.00     0.020 A 
ATOM     63  C   UNL     1       8.694  11.139 -11.392  1.00  0.00     0.054 A 
BRANCH  63  64
ATOM     64  S   UNL     1       9.333  12.473 -12.441  1.00  0.00     0.124 S 
ATOM     65  O   UNL     1       9.098  11.944 -13.781  1.00  0.00    -0.237 OA
ATOM     66  O   UNL     1       8.499  13.609 -12.057  1.00  0.00    -0.237 OA
ATOM     67  O   UNL     1      10.737  12.579 -12.050  1.00  0.00    -0.744 OA
ENDBRANCH  63  64
ENDBRANCH  37  58
ENDBRANCH  11  12
ENDBRANCH   4   6
ENDBRANCH   3   4
ENDBRANCH   2   3
ENDBRANCH   1   2
BRANCH   1  68
ATOM     68  O   UNL     1       3.351  -0.447   0.279  1.00  0.00    -0.374 OA
BRANCH  68  69
ATOM     69  C   UNL     1       2.023  -0.942   0.387  1.00  0.00     0.202 C 
BRANCH  69  70
ATOM     70  C   UNL     1       1.878  -2.322  -0.243  1.00  0.00     0.261 C 
BRANCH  70  71
ATOM     71  O   UNL     1       2.740  -3.319   0.318  1.00  0.00    -0.462 OA
BRANCH  71  72
ATOM     72  C   UNL     1       4.074  -3.280   0.069  1.00  0.00     0.334 C 
ATOM     73  O   UNL     1       4.736  -2.394  -0.475  1.00  0.00    -0.250 OA
BRANCH  72  74
ATOM     74  C   UNL     1       4.733  -4.470   0.634  1.00  0.00     0.252 C 
ATOM     75  C   UNL     1       6.234  -4.277   0.931  1.00  0.00     0.298 C 
ATOM     76  N   UNL     1       4.506  -5.720  -0.074  1.00  0.00    -0.300 N 
ATOM     77  N   UNL     1       6.745  -5.361   1.812  1.00  0.00    -0.343 N 
ATOM     78  C   UNL     1       4.879  -6.824   0.833  1.00  0.00     0.183 C 
ATOM     79  C   UNL     1       6.374  -6.686   1.254  1.00  0.00     0.282 C 
ATOM     80  H   UNL     1       6.338  -5.260   2.742  1.00  0.00     0.346 HD
ATOM     81  H   UNL     1       7.761  -5.294   1.870  1.00  0.00     0.346 HD
BRANCH  76  82
ATOM     82  C   UNL     1       4.651  -5.970  -1.397  1.00  0.00     0.318 C 
ATOM     83  O   UNL     1       4.938  -7.125  -1.760  1.00  0.00    -0.249 OA
ATOM     84  N   UNL     1       4.535  -5.172  -2.453  1.00  0.00    -0.333 N 
ATOM     85  H   UNL     1       5.196  -5.533  -3.087  1.00  0.00     0.165 HD
BRANCH  84  86
ATOM     86  C   UNL     1       3.935  -4.010  -3.195  1.00  0.00     0.112 C 
ATOM     87  C   UNL     1       4.303  -2.542  -3.030  1.00  0.00     0.056 C 
ATOM     88  C   UNL     1       4.422  -4.133  -4.665  1.00  0.00     0.185 C 
ATOM     89  C   UNL     1       3.925  -1.917  -4.365  1.00  0.00     0.162 C 
ATOM     90  O   UNL     1       4.142  -2.916  -5.353  1.00  0.00    -0.379 OA
ENDBRANCH  84  86
ENDBRANCH  76  82
ENDBRANCH  72  74
ENDBRANCH  71  72
ENDBRANCH  70  71
ENDBRANCH  69  70
ENDBRANCH  68  69
ENDBRANCH   1  68
TORSDOF 19
