REMARK SMILES CC(C)n1cncc1C[NH2+][C@H]1[C@@H]2CC[C@@H](C2)[C@@H]1C(=O)OCCOCCOC(=O)c1ccc(-c2c3nc(c(-c4ccc(S(=O)(=O)[O-])cc4)c4ccc([nH]4)c(-c4ccc(S(=O)(=O)[O-])cc4)c4nc(c(-c5ccc(S(=O)(=O)[O-])cc5)c5ccc2[nH]5)C=C4)C=C3)cc1
REMARK SMILES IDX 22 1 21 2 20 3 18 4 19 5 17 6 11 7 12 8 13 9 16 10 15 11
REMARK SMILES IDX 14 12 10 13 9 16 8 17 4 18 5 19 6 20 7 21 2 22 1 23 3 24
REMARK SMILES IDX 23 25 24 26 25 27 26 28 27 29 28 30 29 31 30 32 88 33 31 34
REMARK SMILES IDX 87 35 32 36 33 37 34 38 81 39 35 40 86 41 80 42 82 43 36 44
REMARK SMILES IDX 85 45 79 46 78 47 37 49 67 50 48 51 66 52 49 53 52 54 65 55
REMARK SMILES IDX 83 56 50 57 51 58 64 60 84 61 53 62 38 63 39 64 47 65 40 66
REMARK SMILES IDX 46 67 41 68 42 69 43 70 44 71 45 72 68 73 69 74 77 75 70 76
REMARK SMILES IDX 76 77 71 78 72 79 73 80 74 81 75 82 54 83 55 84 63 85 56 86
REMARK SMILES IDX 62 87 57 88 58 89 59 90 60 91 61 92
REMARK H PARENT 10 14 10 15 82 48 52 59
REMARK Flexibility Score: inf
ROOT
ATOM      1  C   UNL     1      -0.348   7.019   1.730  1.00  0.00     0.202 C 
ENDROOT
BRANCH   1   2
ATOM      2  C   UNL     1       0.346   5.957   0.879  1.00  0.00     0.261 C 
BRANCH   2   3
ATOM      3  O   UNL     1      -0.198   5.884  -0.447  1.00  0.00    -0.463 OA
BRANCH   3   4
ATOM      4  C   UNL     1      -1.115   4.906  -0.592  1.00  0.00     0.315 C 
ATOM      5  O   UNL     1      -1.396   4.108   0.298  1.00  0.00    -0.252 OA
BRANCH   4   6
ATOM      6  C   UNL     1      -1.791   4.863  -1.942  1.00  0.00     0.160 C 
ATOM      7  C   UNL     1      -1.065   3.906  -2.912  1.00  0.00     0.200 C 
ATOM      8  C   UNL     1      -1.201   4.669  -4.259  1.00  0.00     0.049 C 
ATOM      9  C   UNL     1      -0.158   5.806  -4.266  1.00  0.00     0.010 C 
ATOM     10  C   UNL     1      -2.499   5.469  -4.094  1.00  0.00     0.014 C 
ATOM     11  C   UNL     1      -2.030   6.133  -2.787  1.00  0.00     0.010 C 
ATOM     12  C   UNL     1      -0.743   6.817  -3.273  1.00  0.00     0.005 C 
BRANCH   7  13
ATOM     13  N   UNL     1      -1.690   2.570  -2.946  1.00  0.00    -0.338 N 
ATOM     14  H   UNL     1      -2.690   2.667  -3.122  1.00  0.00     0.346 HD
ATOM     15  H   UNL     1      -1.264   2.017  -3.689  1.00  0.00     0.346 HD
BRANCH  13  16
ATOM     16  C   UNL     1      -1.484   1.896  -1.660  1.00  0.00     0.317 C 
BRANCH  16  17
ATOM     17  C   UNL     1      -1.905   0.480  -1.675  1.00  0.00     0.093 A 
ATOM     18  N   UNL     1      -1.073  -0.608  -1.524  1.00  0.00    -0.327 N 
ATOM     19  C   UNL     1      -1.877  -1.711  -1.419  1.00  0.00     0.200 A 
ATOM     20  N   UNL     1      -3.151  -1.405  -1.502  1.00  0.00    -0.245 NA
ATOM     21  C   UNL     1      -3.181  -0.047  -1.648  1.00  0.00     0.140 A 
BRANCH  18  22
ATOM     22  C   UNL     1       0.387  -0.585  -1.446  1.00  0.00     0.082 C 
ATOM     23  C   UNL     1       0.873  -0.229  -0.037  1.00  0.00     0.031 C 
ATOM     24  C   UNL     1       1.046  -1.885  -1.915  1.00  0.00     0.031 C 
ENDBRANCH  18  22
ENDBRANCH  16  17
ENDBRANCH  13  16
ENDBRANCH   7  13
ENDBRANCH   4   6
ENDBRANCH   3   4
ENDBRANCH   2   3
ENDBRANCH   1   2
BRANCH   1  25
ATOM     25  O   UNL     1      -1.736   6.864   2.013  1.00  0.00    -0.374 OA
BRANCH  25  26
ATOM     26  C   UNL     1      -2.718   7.121   1.012  1.00  0.00     0.202 C 
BRANCH  26  27
ATOM     27  C   UNL     1      -2.876   8.535   0.479  1.00  0.00     0.261 C 
BRANCH  27  28
ATOM     28  O   UNL     1      -1.724   8.978  -0.225  1.00  0.00    -0.460 OA
BRANCH  28  29
ATOM     29  C   UNL     1      -1.007   9.904   0.447  1.00  0.00     0.338 C 
ATOM     30  O   UNL     1      -1.024  10.110   1.657  1.00  0.00    -0.246 OA
BRANCH  29  31
ATOM     31  C   UNL     1      -0.324  10.771  -0.510  1.00  0.00     0.060 A 
ATOM     32  C   UNL     1       0.321  11.882   0.029  1.00  0.00     0.016 A 
ATOM     33  C   UNL     1      -0.583  10.653  -1.885  1.00  0.00     0.016 A 
ATOM     34  C   UNL     1       0.495  12.980  -0.778  1.00  0.00     0.010 A 
ATOM     35  C   UNL     1      -0.407  11.754  -2.691  1.00  0.00     0.010 A 
ATOM     36  C   UNL     1       0.047  12.931  -2.107  1.00  0.00    -0.014 A 
BRANCH  36  37
ATOM     37  C   UNL     1       0.264  14.102  -2.927  1.00  0.00     0.031 A 
ATOM     38  C   UNL     1       1.702  14.285  -3.197  1.00  0.00     0.074 A 
ATOM     39  C   UNL     1      -0.705  14.904  -3.405  1.00  0.00     0.049 A 
ATOM     40  N   UNL     1       2.501  15.050  -2.533  1.00  0.00    -0.248 NA
ATOM     41  C   UNL     1       2.378  13.332  -4.091  1.00  0.00     0.031 C 
ATOM     42  C   UNL     1      -2.154  14.707  -3.390  1.00  0.00     0.029 A 
ATOM     43  N   UNL     1      -0.567  16.071  -4.089  1.00  0.00    -0.354 N 
ATOM     44  C   UNL     1       3.736  14.887  -3.135  1.00  0.00     0.074 A 
ATOM     45  C   UNL     1       3.656  13.660  -3.885  1.00  0.00     0.031 C 
ATOM     46  C   UNL     1      -2.735  15.595  -4.235  1.00  0.00     0.029 A 
ATOM     47  C   UNL     1      -1.720  16.512  -4.731  1.00  0.00     0.049 A 
ATOM     48  H   UNL     1       0.283  16.566  -4.127  1.00  0.00     0.167 HD
ATOM     49  C   UNL     1       4.583  15.946  -3.247  1.00  0.00     0.031 A 
ATOM     50  C   UNL     1      -1.806  17.533  -5.627  1.00  0.00     0.031 A 
ATOM     51  C   UNL     1       4.190  17.029  -2.376  1.00  0.00     0.049 A 
ATOM     52  C   UNL     1      -0.636  18.415  -5.392  1.00  0.00     0.074 A 
ATOM     53  C   UNL     1       3.988  17.167  -1.016  1.00  0.00     0.029 A 
ATOM     54  N   UNL     1       3.531  18.081  -2.970  1.00  0.00    -0.354 N 
ATOM     55  N   UNL     1      -0.490  19.122  -4.308  1.00  0.00    -0.248 NA
ATOM     56  C   UNL     1       0.587  18.148  -6.131  1.00  0.00     0.031 C 
ATOM     57  C   UNL     1       2.855  18.026  -0.894  1.00  0.00     0.029 A 
ATOM     58  C   UNL     1       2.478  18.440  -2.172  1.00  0.00     0.049 A 
ATOM     59  H   UNL     1       3.776  18.503  -3.825  1.00  0.00     0.167 HD
ATOM     60  C   UNL     1       0.850  18.983  -3.978  1.00  0.00     0.074 A 
ATOM     61  C   UNL     1       1.482  18.457  -5.189  1.00  0.00     0.031 C 
ATOM     62  C   UNL     1       1.258  19.037  -2.675  1.00  0.00     0.031 A 
BRANCH  49  63
ATOM     63  C   UNL     1       5.421  16.178  -4.479  1.00  0.00    -0.014 A 
ATOM     64  C   UNL     1       6.272  17.299  -4.508  1.00  0.00     0.010 A 
ATOM     65  C   UNL     1       5.194  15.515  -5.704  1.00  0.00     0.010 A 
ATOM     66  C   UNL     1       6.812  17.767  -5.711  1.00  0.00     0.020 A 
ATOM     67  C   UNL     1       5.763  15.944  -6.901  1.00  0.00     0.020 A 
ATOM     68  C   UNL     1       6.548  17.086  -6.900  1.00  0.00     0.054 A 
BRANCH  68  69
ATOM     69  S   UNL     1       7.211  17.725  -8.454  1.00  0.00     0.124 S 
ATOM     70  O   UNL     1       6.494  18.989  -8.588  1.00  0.00    -0.237 OA
ATOM     71  O   UNL     1       8.637  17.830  -8.155  1.00  0.00    -0.237 OA
ATOM     72  O   UNL     1       6.857  16.693  -9.425  1.00  0.00    -0.744 OA
ENDBRANCH  68  69
ENDBRANCH  49  63
BRANCH  50  73
ATOM     73  C   UNL     1      -2.611  17.619  -6.876  1.00  0.00    -0.014 A 
ATOM     74  C   UNL     1      -2.659  18.815  -7.624  1.00  0.00     0.010 A 
ATOM     75  C   UNL     1      -3.065  16.443  -7.504  1.00  0.00     0.010 A 
ATOM     76  C   UNL     1      -3.061  18.817  -8.973  1.00  0.00     0.020 A 
ATOM     77  C   UNL     1      -3.472  16.439  -8.845  1.00  0.00     0.020 A 
ATOM     78  C   UNL     1      -3.439  17.620  -9.583  1.00  0.00     0.054 A 
BRANCH  78  79
ATOM     79  S   UNL     1      -3.753  17.584 -11.376  1.00  0.00     0.124 S 
ATOM     80  O   UNL     1      -5.022  18.297 -11.486  1.00  0.00    -0.237 OA
ATOM     81  O   UNL     1      -2.589  18.279 -11.919  1.00  0.00    -0.237 OA
ATOM     82  O   UNL     1      -3.816  16.156 -11.684  1.00  0.00    -0.744 OA
ENDBRANCH  78  79
ENDBRANCH  50  73
BRANCH  62  83
ATOM     83  C   UNL     1       0.306  19.609  -1.649  1.00  0.00    -0.014 A 
ATOM     84  C   UNL     1      -0.989  19.120  -1.383  1.00  0.00     0.010 A 
ATOM     85  C   UNL     1       0.800  20.656  -0.850  1.00  0.00     0.010 A 
ATOM     86  C   UNL     1      -1.784  19.706  -0.385  1.00  0.00     0.020 A 
ATOM     87  C   UNL     1       0.024  21.228   0.158  1.00  0.00     0.020 A 
ATOM     88  C   UNL     1      -1.273  20.766   0.372  1.00  0.00     0.054 A 
BRANCH  88  89
ATOM     89  S   UNL     1      -2.307  21.546   1.643  1.00  0.00     0.124 S 
ATOM     90  O   UNL     1      -3.360  22.176   0.852  1.00  0.00    -0.237 OA
ATOM     91  O   UNL     1      -2.727  20.412   2.462  1.00  0.00    -0.237 OA
ATOM     92  O   UNL     1      -1.397  22.477   2.309  1.00  0.00    -0.744 OA
ENDBRANCH  88  89
ENDBRANCH  62  83
ENDBRANCH  36  37
ENDBRANCH  29  31
ENDBRANCH  28  29
ENDBRANCH  27  28
ENDBRANCH  26  27
ENDBRANCH  25  26
ENDBRANCH   1  25
TORSDOF 21
