REMARK SMILES C#CCN(CC(=O)OCCOCCOC(=O)c1ccc(-c2c3nc(c(-c4ccc(S(=O)(=O)[O-])cc4)c4ccc([nH]4)c(-c4ccc(S(=O)(=O)[O-])cc4)c4nc(c(-c5ccc(S(=O)(=O)[O-])cc5)c5ccc2[nH]5)C=C4)C=C3)cc1)C(=O)CCOc1ccc(C)cc1
REMARK SMILES IDX 9 1 8 2 6 3 7 4 5 5 4 6 3 7 2 8 1 9 77 10 78 11 79 12 80 13
REMARK SMILES IDX 81 14 82 15 83 16 88 17 84 18 87 19 85 20 86 21 10 22 11 23
REMARK SMILES IDX 12 24 13 25 14 26 15 27 16 28 17 29 18 30 76 31 19 32 75 33
REMARK SMILES IDX 20 34 21 35 22 36 69 37 23 38 74 39 68 40 70 41 24 42 73 43
REMARK SMILES IDX 67 44 66 45 25 47 55 48 36 49 54 50 37 51 40 52 53 53 71 54
REMARK SMILES IDX 38 55 39 56 52 58 72 59 41 60 26 61 27 62 35 63 28 64 34 65
REMARK SMILES IDX 29 66 30 67 31 68 32 69 33 70 56 71 57 72 65 73 58 74 64 75
REMARK SMILES IDX 59 76 60 77 61 78 62 79 63 80 42 81 43 82 51 83 44 84 50 85
REMARK SMILES IDX 45 86 46 87 47 88 48 89 49 90
REMARK H PARENT 70 46 40 57
REMARK Flexibility Score: inf
ROOT
ATOM      1  C   UNL     1      -6.740   0.332  -1.986  1.00  0.00     0.261 C 
ENDROOT
BRANCH   1   2
ATOM      2  O   UNL     1      -5.327   0.205  -1.669  1.00  0.00    -0.462 OA
BRANCH   2   3
ATOM      3  C   UNL     1      -4.866  -1.075  -1.668  1.00  0.00     0.325 C 
ATOM      4  O   UNL     1      -5.586  -2.058  -1.846  1.00  0.00    -0.250 OA
BRANCH   3   5
ATOM      5  C   UNL     1      -3.352  -1.277  -1.459  1.00  0.00     0.243 C 
BRANCH   5   6
ATOM      6  N   UNL     1      -2.309  -0.237  -1.350  1.00  0.00    -0.320 N 
BRANCH   6   7
ATOM      7  C   UNL     1      -1.749   0.066   0.001  1.00  0.00     0.210 C 
BRANCH   7   8
ATOM      8  C   UNL     1      -0.229   0.066   0.001  1.00  0.00    -0.085 C 
ATOM      9  C   UNL     1       1.075   0.066   0.001  1.00  0.00     0.006 C 
ENDBRANCH   7   8
ENDBRANCH   6   7
BRANCH   6  10
ATOM     10  C   UNL     1      -1.746   0.393  -2.456  1.00  0.00     0.227 C 
ATOM     11  O   UNL     1      -1.089   1.433  -2.353  1.00  0.00    -0.275 OA
BRANCH  10  12
ATOM     12  C   UNL     1      -1.873  -0.247  -3.839  1.00  0.00     0.141 C 
BRANCH  12  13
ATOM     13  C   UNL     1      -0.758  -1.246  -4.192  1.00  0.00     0.239 C 
BRANCH  13  14
ATOM     14  O   UNL     1      -1.081  -2.634  -3.961  1.00  0.00    -0.493 OA
BRANCH  14  15
ATOM     15  C   UNL     1      -0.816  -3.193  -2.741  1.00  0.00     0.119 A 
ATOM     16  C   UNL     1      -1.248  -4.500  -2.513  1.00  0.00     0.046 A 
ATOM     17  C   UNL     1      -0.226  -2.524  -1.688  1.00  0.00     0.046 A 
ATOM     18  C   UNL     1      -1.252  -5.043  -1.213  1.00  0.00     0.007 A 
ATOM     19  C   UNL     1      -0.275  -3.037  -0.389  1.00  0.00     0.007 A 
ATOM     20  C   UNL     1      -0.858  -4.266  -0.125  1.00  0.00    -0.051 A 
ATOM     21  C   UNL     1      -1.013  -4.695   1.303  1.00  0.00     0.044 C 
ENDBRANCH  14  15
ENDBRANCH  13  14
ENDBRANCH  12  13
ENDBRANCH  10  12
ENDBRANCH   6  10
ENDBRANCH   5   6
ENDBRANCH   3   5
ENDBRANCH   2   3
ENDBRANCH   1   2
BRANCH   1  22
ATOM     22  C   UNL     1      -7.069   1.343  -3.096  1.00  0.00     0.202 C 
BRANCH  22  23
ATOM     23  O   UNL     1      -6.399   1.211  -4.346  1.00  0.00    -0.374 OA
BRANCH  23  24
ATOM     24  C   UNL     1      -4.982   1.351  -4.342  1.00  0.00     0.202 C 
BRANCH  24  25
ATOM     25  C   UNL     1      -4.383   2.716  -3.978  1.00  0.00     0.261 C 
BRANCH  25  26
ATOM     26  O   UNL     1      -4.779   3.182  -2.678  1.00  0.00    -0.460 OA
BRANCH  26  27
ATOM     27  C   UNL     1      -5.457   4.353  -2.692  1.00  0.00     0.338 C 
ATOM     28  O   UNL     1      -5.683   5.068  -3.664  1.00  0.00    -0.246 OA
BRANCH  27  29
ATOM     29  C   UNL     1      -6.111   4.583  -1.397  1.00  0.00     0.060 A 
ATOM     30  C   UNL     1      -7.511   4.627  -1.395  1.00  0.00     0.016 A 
ATOM     31  C   UNL     1      -5.383   4.865  -0.239  1.00  0.00     0.016 A 
ATOM     32  C   UNL     1      -8.188   5.009  -0.247  1.00  0.00     0.010 A 
ATOM     33  C   UNL     1      -6.068   5.263   0.914  1.00  0.00     0.010 A 
ATOM     34  C   UNL     1      -7.469   5.378   0.897  1.00  0.00    -0.014 A 
BRANCH  34  35
ATOM     35  C   UNL     1      -8.222   6.029   1.993  1.00  0.00     0.031 A 
ATOM     36  C   UNL     1      -8.222   7.530   2.085  1.00  0.00     0.074 A 
ATOM     37  C   UNL     1      -9.002   5.285   2.797  1.00  0.00     0.049 A 
ATOM     38  N   UNL     1      -8.929   8.309   2.861  1.00  0.00    -0.248 NA
ATOM     39  C   UNL     1      -7.312   8.252   1.179  1.00  0.00     0.031 C 
ATOM     40  C   UNL     1      -9.101   3.824   2.756  1.00  0.00     0.029 A 
ATOM     41  N   UNL     1      -9.880   5.654   3.782  1.00  0.00    -0.354 N 
ATOM     42  C   UNL     1      -8.547   9.608   2.544  1.00  0.00     0.074 A 
ATOM     43  C   UNL     1      -7.528   9.514   1.522  1.00  0.00     0.031 C 
ATOM     44  C   UNL     1     -10.006   3.423   3.664  1.00  0.00     0.029 A 
ATOM     45  C   UNL     1     -10.527   4.592   4.367  1.00  0.00     0.049 A 
ATOM     46  H   UNL     1     -10.033   6.590   4.045  1.00  0.00     0.167 HD
ATOM     47  C   UNL     1      -9.009  10.772   3.058  1.00  0.00     0.031 A 
ATOM     48  C   UNL     1     -11.434   4.568   5.363  1.00  0.00     0.031 A 
ATOM     49  C   UNL     1     -10.023  10.845   4.078  1.00  0.00     0.049 A 
ATOM     50  C   UNL     1     -11.903   5.877   5.941  1.00  0.00     0.074 A 
ATOM     51  C   UNL     1     -10.587  11.971   4.651  1.00  0.00     0.029 A 
ATOM     52  N   UNL     1     -10.616   9.747   4.684  1.00  0.00    -0.354 N 
ATOM     53  N   UNL     1     -11.566   7.098   5.597  1.00  0.00    -0.248 NA
ATOM     54  C   UNL     1     -12.887   5.805   7.028  1.00  0.00     0.031 C 
ATOM     55  C   UNL     1     -11.468  11.554   5.654  1.00  0.00     0.029 A 
ATOM     56  C   UNL     1     -11.509  10.168   5.655  1.00  0.00     0.049 A 
ATOM     57  H   UNL     1     -10.429   8.808   4.458  1.00  0.00     0.167 HD
ATOM     58  C   UNL     1     -12.309   7.941   6.415  1.00  0.00     0.074 A 
ATOM     59  C   UNL     1     -13.137   7.088   7.245  1.00  0.00     0.031 C 
ATOM     60  C   UNL     1     -12.307   9.297   6.481  1.00  0.00     0.031 A 
BRANCH  47  61
ATOM     61  C   UNL     1      -8.392  12.057   2.569  1.00  0.00    -0.014 A 
ATOM     62  C   UNL     1      -8.637  12.551   1.275  1.00  0.00     0.010 A 
ATOM     63  C   UNL     1      -7.597  12.815   3.449  1.00  0.00     0.010 A 
ATOM     64  C   UNL     1      -8.081  13.768   0.865  1.00  0.00     0.020 A 
ATOM     65  C   UNL     1      -7.061  14.043   3.052  1.00  0.00     0.020 A 
ATOM     66  C   UNL     1      -7.299  14.508   1.757  1.00  0.00     0.054 A 
BRANCH  66  67
ATOM     67  S   UNL     1      -6.633  16.107   1.216  1.00  0.00     0.124 S 
ATOM     68  O   UNL     1      -5.616  15.699   0.250  1.00  0.00    -0.237 OA
ATOM     69  O   UNL     1      -7.807  16.767   0.652  1.00  0.00    -0.237 OA
ATOM     70  O   UNL     1      -6.118  16.703   2.446  1.00  0.00    -0.744 OA
ENDBRANCH  66  67
ENDBRANCH  47  61
BRANCH  48  71
ATOM     71  C   UNL     1     -11.926   3.266   5.893  1.00  0.00    -0.014 A 
ATOM     72  C   UNL     1     -13.268   2.874   5.749  1.00  0.00     0.010 A 
ATOM     73  C   UNL     1     -11.034   2.405   6.560  1.00  0.00     0.010 A 
ATOM     74  C   UNL     1     -13.713   1.660   6.284  1.00  0.00     0.020 A 
ATOM     75  C   UNL     1     -11.466   1.177   7.066  1.00  0.00     0.020 A 
ATOM     76  C   UNL     1     -12.808   0.819   6.939  1.00  0.00     0.054 A 
BRANCH  76  77
ATOM     77  S   UNL     1     -13.396  -0.766   7.596  1.00  0.00     0.124 S 
ATOM     78  O   UNL     1     -14.180  -0.344   8.752  1.00  0.00    -0.237 OA
ATOM     79  O   UNL     1     -14.161  -1.308   6.475  1.00  0.00    -0.237 OA
ATOM     80  O   UNL     1     -12.163  -1.487   7.904  1.00  0.00    -0.744 OA
ENDBRANCH  76  77
ENDBRANCH  48  71
BRANCH  60  81
ATOM     81  C   UNL     1     -13.244   9.932   7.474  1.00  0.00    -0.014 A 
ATOM     82  C   UNL     1     -13.027   9.817   8.859  1.00  0.00     0.010 A 
ATOM     83  C   UNL     1     -14.349  10.671   7.012  1.00  0.00     0.010 A 
ATOM     84  C   UNL     1     -13.931  10.377   9.764  1.00  0.00     0.020 A 
ATOM     85  C   UNL     1     -15.235  11.264   7.914  1.00  0.00     0.020 A 
ATOM     86  C   UNL     1     -15.033  11.092   9.285  1.00  0.00     0.054 A 
BRANCH  86  87
ATOM     87  S   UNL     1     -16.192  11.811  10.479  1.00  0.00     0.124 S 
ATOM     88  O   UNL     1     -16.899  10.629  10.964  1.00  0.00    -0.237 OA
ATOM     89  O   UNL     1     -15.302  12.452  11.444  1.00  0.00    -0.237 OA
ATOM     90  O   UNL     1     -16.994  12.730   9.674  1.00  0.00    -0.744 OA
ENDBRANCH  86  87
ENDBRANCH  60  81
ENDBRANCH  34  35
ENDBRANCH  27  29
ENDBRANCH  26  27
ENDBRANCH  25  26
ENDBRANCH  24  25
ENDBRANCH  23  24
ENDBRANCH  22  23
ENDBRANCH   1  22
TORSDOF 25
