REMARK SMILES Cc1ccc(NC(=O)COc2ccc(Cl)cc2/C=C2\SC(=S)N(CC(=O)OCCOCCOC(=O)c3ccc(-c4c5nc(c(-c6ccc(S(=O)(=O)[O-])cc6)c6ccc([nH]6)c(-c6ccc(S(=O)(=O)[O-])cc6)c6nc(c(-c7ccc(S(=O)(=O)[O-])cc7)c7ccc4[nH]7)C=C6)C=C5)cc3)C2=O)cc1
REMARK SMILES IDX 28 1 27 2 25 3 26 4 24 5 23 6 18 7 19 8 20 9 96 10 21 11
REMARK SMILES IDX 97 12 22 13 17 14 11 15 12 16 13 17 16 18 14 19 15 20 10 21
REMARK SMILES IDX 9 22 7 23 6 24 8 26 5 27 1 28 2 29 3 30 99 31 4 32 98 33
REMARK SMILES IDX 29 34 30 35 31 36 32 37 33 38 34 39 35 40 36 41 37 42 95 43
REMARK SMILES IDX 38 44 94 45 39 46 40 47 41 48 88 49 42 50 93 51 87 52 89 53
REMARK SMILES IDX 43 54 92 55 86 56 85 57 44 59 74 60 55 61 73 62 56 63 59 64
REMARK SMILES IDX 72 65 90 66 57 67 58 68 71 70 91 71 60 72 45 73 46 74 54 75
REMARK SMILES IDX 47 76 53 77 48 78 49 79 50 80 51 81 52 82 75 83 76 84 84 85
REMARK SMILES IDX 77 86 83 87 78 88 79 89 80 90 81 91 82 92 61 93 62 94 70 95
REMARK SMILES IDX 63 96 69 97 64 98 65 99 66 100 67 101 68 102
REMARK H PARENT 6 25 89 58 59 69
REMARK Flexibility Score: inf
ROOT
ATOM      1  C   UNL     1       0.711  -1.092   2.452  1.00  0.00     0.261 C 
ENDROOT
BRANCH   1   2
ATOM      2  O   UNL     1      -0.229  -2.178   2.321  1.00  0.00    -0.462 OA
BRANCH   2   3
ATOM      3  C   UNL     1      -0.696  -2.670   3.510  1.00  0.00     0.326 C 
ATOM      4  O   UNL     1      -0.246  -2.410   4.620  1.00  0.00    -0.250 OA
BRANCH   3   5
ATOM      5  C   UNL     1      -1.971  -3.491   3.350  1.00  0.00     0.250 C 
BRANCH   5   6
ATOM      6  N   UNL     1      -2.185  -3.993   1.992  1.00  0.00    -0.282 N 
ATOM      7  C   UNL     1      -2.589  -2.863  -1.380  1.00  0.00     0.033 C 
ATOM      8  C   UNL     1      -2.454  -3.667  -0.319  1.00  0.00     0.081 C 
ATOM      9  S   UNL     1      -2.391  -5.364  -0.197  1.00  0.00    -0.054 SA
ATOM     10  C   UNL     1      -2.570  -3.085   1.049  1.00  0.00     0.266 C 
ATOM     11  C   UNL     1      -2.216  -5.297   1.571  1.00  0.00     0.148 C 
ATOM     12  O   UNL     1      -3.091  -2.006   1.304  1.00  0.00    -0.268 OA
ATOM     13  S   UNL     1      -2.176  -6.673   2.507  1.00  0.00    -0.052 S 
BRANCH   7  14
ATOM     14  C   UNL     1      -3.166  -3.075  -2.685  1.00  0.00     0.019 A 
ATOM     15  C   UNL     1      -4.488  -3.451  -2.626  1.00  0.00     0.127 A 
ATOM     16  C   UNL     1      -5.002  -4.162  -3.694  1.00  0.00     0.048 A 
ATOM     17  C   UNL     1      -4.387  -4.018  -4.937  1.00  0.00     0.024 A 
ATOM     18  C   UNL     1      -2.671  -2.667  -3.915  1.00  0.00     0.032 A 
ATOM     19  C   UNL     1      -3.324  -3.122  -5.058  1.00  0.00     0.041 A 
ATOM     20  Cl  UNL     1      -2.858  -2.560  -6.614  1.00  0.00    -0.084 Cl
BRANCH  15  21
ATOM     21  O   UNL     1      -5.254  -3.163  -1.539  1.00  0.00    -0.483 OA
BRANCH  21  22
ATOM     22  C   UNL     1      -5.192  -1.864  -0.913  1.00  0.00     0.329 C 
BRANCH  22  23
ATOM     23  C   UNL     1      -4.775  -0.252  -1.011  1.00  0.00     0.262 C 
ATOM     24  N   UNL     1      -3.647   0.497  -1.209  1.00  0.00    -0.323 N 
ATOM     25  H   UNL     1      -3.944   1.424  -1.353  1.00  0.00     0.170 HD
ATOM     26  O   UNL     1      -5.759   0.516  -0.857  1.00  0.00    -0.271 OA
BRANCH  24  27
ATOM     27  C   UNL     1      -2.222   0.506  -1.294  1.00  0.00     0.041 A 
ATOM     28  C   UNL     1       2.078   0.381  -2.043  1.00  0.00     0.044 C 
ATOM     29  C   UNL     1       0.611   0.499  -1.758  1.00  0.00    -0.051 A 
ATOM     30  C   UNL     1       0.013  -0.461  -0.970  1.00  0.00     0.005 A 
ATOM     31  C   UNL     1      -0.191   1.551  -2.204  1.00  0.00     0.005 A 
ATOM     32  C   UNL     1      -1.345  -0.351  -0.656  1.00  0.00     0.026 A 
ATOM     33  C   UNL     1      -1.591   1.546  -1.985  1.00  0.00     0.026 A 
ENDBRANCH  24  27
ENDBRANCH  22  23
ENDBRANCH  21  22
ENDBRANCH  15  21
ENDBRANCH   7  14
ENDBRANCH   5   6
ENDBRANCH   3   5
ENDBRANCH   2   3
ENDBRANCH   1   2
BRANCH   1  34
ATOM     34  C   UNL     1       0.011   0.266   2.347  1.00  0.00     0.202 C 
BRANCH  34  35
ATOM     35  O   UNL     1      -1.092   0.328   3.237  1.00  0.00    -0.374 OA
BRANCH  35  36
ATOM     36  C   UNL     1      -2.162   1.228   2.959  1.00  0.00     0.202 C 
BRANCH  36  37
ATOM     37  C   UNL     1      -2.095   2.341   1.882  1.00  0.00     0.261 C 
BRANCH  37  38
ATOM     38  O   UNL     1      -0.807   2.945   1.713  1.00  0.00    -0.460 OA
BRANCH  38  39
ATOM     39  C   UNL     1      -0.616   4.154   2.318  1.00  0.00     0.338 C 
ATOM     40  O   UNL     1      -1.383   5.080   2.377  1.00  0.00    -0.246 OA
BRANCH  39  41
ATOM     41  C   UNL     1       0.413   3.828   3.323  1.00  0.00     0.060 A 
ATOM     42  C   UNL     1       1.762   3.614   3.007  1.00  0.00     0.016 A 
ATOM     43  C   UNL     1      -0.163   3.288   4.464  1.00  0.00     0.016 A 
ATOM     44  C   UNL     1       2.532   2.770   3.822  1.00  0.00     0.010 A 
ATOM     45  C   UNL     1       0.543   2.322   5.131  1.00  0.00     0.010 A 
ATOM     46  C   UNL     1       1.905   2.077   4.854  1.00  0.00    -0.014 A 
BRANCH  46  47
ATOM     47  C   UNL     1       2.475   1.070   5.753  1.00  0.00     0.031 A 
ATOM     48  C   UNL     1       2.292   1.313   7.217  1.00  0.00     0.074 A 
ATOM     49  C   UNL     1       2.778  -0.174   5.312  1.00  0.00     0.049 A 
ATOM     50  N   UNL     1       2.576   0.469   8.142  1.00  0.00    -0.248 NA
ATOM     51  C   UNL     1       1.759   2.571   7.763  1.00  0.00     0.031 C 
ATOM     52  C   UNL     1       2.639  -1.425   6.064  1.00  0.00     0.029 A 
ATOM     53  N   UNL     1       3.410  -0.578   4.136  1.00  0.00    -0.354 N 
ATOM     54  C   UNL     1       1.976   0.902   9.301  1.00  0.00     0.074 A 
ATOM     55  C   UNL     1       1.531   2.243   9.036  1.00  0.00     0.031 C 
ATOM     56  C   UNL     1       3.371  -2.383   5.475  1.00  0.00     0.029 A 
ATOM     57  C   UNL     1       4.151  -1.736   4.438  1.00  0.00     0.049 A 
ATOM     58  H   UNL     1       3.349  -0.136   3.259  1.00  0.00     0.167 HD
ATOM     59  C   UNL     1       1.840   0.022  10.327  1.00  0.00     0.031 A 
ATOM     60  C   UNL     1       5.509  -1.830   4.315  1.00  0.00     0.031 A 
ATOM     61  C   UNL     1       2.705  -1.136  10.127  1.00  0.00     0.049 A 
ATOM     62  C   UNL     1       6.185  -2.093   5.650  1.00  0.00     0.074 A 
ATOM     63  C   UNL     1       2.495  -2.458   9.785  1.00  0.00     0.029 A 
ATOM     64  N   UNL     1       4.069  -0.900   9.979  1.00  0.00    -0.354 N 
ATOM     65  N   UNL     1       5.574  -2.024   6.801  1.00  0.00    -0.248 NA
ATOM     66  C   UNL     1       7.607  -2.390   5.801  1.00  0.00     0.031 C 
ATOM     67  C   UNL     1       3.737  -2.979   9.315  1.00  0.00     0.029 A 
ATOM     68  C   UNL     1       4.703  -1.992   9.424  1.00  0.00     0.049 A 
ATOM     69  H   UNL     1       4.521  -0.065  10.237  1.00  0.00     0.167 HD
ATOM     70  C   UNL     1       6.480  -2.134   7.817  1.00  0.00     0.074 A 
ATOM     71  C   UNL     1       7.735  -2.408   7.140  1.00  0.00     0.031 C 
ATOM     72  C   UNL     1       6.130  -1.922   9.120  1.00  0.00     0.031 A 
BRANCH  59  73
ATOM     73  C   UNL     1       0.848   0.157  11.455  1.00  0.00    -0.014 A 
ATOM     74  C   UNL     1       0.846  -0.805  12.485  1.00  0.00     0.010 A 
ATOM     75  C   UNL     1      -0.177   1.126  11.503  1.00  0.00     0.010 A 
ATOM     76  C   UNL     1      -0.115  -0.794  13.509  1.00  0.00     0.020 A 
ATOM     77  C   UNL     1      -1.123   1.168  12.539  1.00  0.00     0.020 A 
ATOM     78  C   UNL     1      -1.093   0.198  13.533  1.00  0.00     0.054 A 
BRANCH  78  79
ATOM     79  S   UNL     1      -2.332   0.192  14.855  1.00  0.00     0.124 S 
ATOM     80  O   UNL     1      -3.062  -1.046  14.592  1.00  0.00    -0.237 OA
ATOM     81  O   UNL     1      -1.510   0.195  16.062  1.00  0.00    -0.237 OA
ATOM     82  O   UNL     1      -3.093   1.418  14.625  1.00  0.00    -0.744 OA
ENDBRANCH  78  79
ENDBRANCH  59  73
BRANCH  60  83
ATOM     83  C   UNL     1       6.055  -0.957   3.234  1.00  0.00    -0.014 A 
ATOM     84  C   UNL     1       5.751  -1.332   1.906  1.00  0.00     0.010 A 
ATOM     85  C   UNL     1       6.315   0.396   3.524  1.00  0.00     0.010 A 
ATOM     86  C   UNL     1       5.466  -0.354   0.950  1.00  0.00     0.020 A 
ATOM     87  C   UNL     1       6.033   1.376   2.564  1.00  0.00     0.020 A 
ATOM     88  C   UNL     1       5.527   0.991   1.319  1.00  0.00     0.054 A 
BRANCH  88  89
ATOM     89  S   UNL     1       4.676   2.207   0.270  1.00  0.00     0.124 S 
ATOM     90  O   UNL     1       5.110   1.841  -1.074  1.00  0.00    -0.237 OA
ATOM     91  O   UNL     1       3.279   1.916   0.582  1.00  0.00    -0.237 OA
ATOM     92  O   UNL     1       5.161   3.490   0.766  1.00  0.00    -0.744 OA
ENDBRANCH  88  89
ENDBRANCH  60  83
BRANCH  72  93
ATOM     93  C   UNL     1       7.111  -1.635  10.235  1.00  0.00    -0.014 A 
ATOM     94  C   UNL     1       8.428  -1.194  10.023  1.00  0.00     0.010 A 
ATOM     95  C   UNL     1       6.663  -1.675  11.578  1.00  0.00     0.010 A 
ATOM     96  C   UNL     1       9.284  -0.905  11.093  1.00  0.00     0.020 A 
ATOM     97  C   UNL     1       7.490  -1.331  12.651  1.00  0.00     0.020 A 
ATOM     98  C   UNL     1       8.813  -0.989  12.402  1.00  0.00     0.054 A 
BRANCH  98  99
ATOM     99  S   UNL     1       9.932  -0.613  13.772  1.00  0.00     0.124 S 
ATOM    100  O   UNL     1      10.623  -1.887  13.950  1.00  0.00    -0.237 OA
ATOM    101  O   UNL     1      10.751   0.473  13.238  1.00  0.00    -0.237 OA
ATOM    102  O   UNL     1       9.032  -0.229  14.856  1.00  0.00    -0.744 OA
ENDBRANCH  98  99
ENDBRANCH  72  93
ENDBRANCH  46  47
ENDBRANCH  39  41
ENDBRANCH  38  39
ENDBRANCH  37  38
ENDBRANCH  36  37
ENDBRANCH  35  36
ENDBRANCH  34  35
ENDBRANCH   1  34
TORSDOF 23
