REMARK SMILES CC(C)C[N@@H+](C[C@@H](C)C(=O)OCCOCCOC(=O)c1ccc(-c2c3nc(c(-c4ccc(S(=O)(=O)[O-])cc4)c4ccc([nH]4)c(-c4ccc(S(=O)(=O)[O-])cc4)c4nc(c(-c5ccc(S(=O)(=O)[O-])cc5)c5ccc2[nH]5)C=C4)C=C3)cc1)C1CCCC1
REMARK SMILES IDX 13 1 12 2 11 3 9 4 10 5 7 6 8 7 6 8 5 9 4 11 2 12 1 13 3 14
REMARK SMILES IDX 80 15 81 16 84 17 82 18 83 19 14 20 15 21 16 22 17 23 18 24
REMARK SMILES IDX 19 25 20 26 21 27 79 28 22 29 78 30 23 31 24 32 25 33 72 34
REMARK SMILES IDX 26 35 77 36 71 37 73 38 27 39 76 40 70 41 69 42 28 44 58 45
REMARK SMILES IDX 39 46 57 47 40 48 43 49 56 50 74 51 41 52 42 53 55 55 75 56
REMARK SMILES IDX 44 57 29 58 30 59 38 60 31 61 37 62 32 63 33 64 34 65 35 66
REMARK SMILES IDX 36 67 59 68 60 69 68 70 61 71 67 72 62 73 63 74 64 75 65 76
REMARK SMILES IDX 66 77 45 78 46 79 54 80 47 81 53 82 48 83 49 84 50 85 51 86
REMARK SMILES IDX 52 87
REMARK H PARENT 5 10 73 43 43 54
REMARK Flexibility Score: inf
ROOT
ATOM      1  C   UNL     1      -7.896   0.405   0.717  1.00  0.00     0.202 C 
ENDROOT
BRANCH   1   2
ATOM      2  C   UNL     1      -7.290  -0.642  -0.221  1.00  0.00     0.261 C 
BRANCH   2   3
ATOM      3  O   UNL     1      -5.860  -0.733  -0.114  1.00  0.00    -0.463 OA
BRANCH   3   4
ATOM      4  C   UNL     1      -5.169  -0.054  -1.067  1.00  0.00     0.314 C 
ATOM      5  O   UNL     1      -5.675   0.617  -1.959  1.00  0.00    -0.252 OA
BRANCH   4   6
ATOM      6  C   UNL     1      -3.672  -0.286  -0.985  1.00  0.00     0.151 C 
ATOM      7  C   UNL     1      -3.391  -1.511  -1.843  1.00  0.00     0.026 C 
BRANCH   6   8
ATOM      8  C   UNL     1      -3.133  -0.347   0.465  1.00  0.00     0.277 C 
BRANCH   8   9
ATOM      9  N   UNL     1      -1.675  -0.310   0.718  1.00  0.00    -0.332 N 
ATOM     10  H   UNL     1      -1.611  -0.048   1.701  1.00  0.00     0.348 HD
BRANCH   9  11
ATOM     11  C   UNL     1      -1.001   0.785   0.003  1.00  0.00     0.265 C 
BRANCH  11  12
ATOM     12  C   UNL     1       0.438   1.213   0.404  1.00  0.00     0.038 C 
ATOM     13  C   UNL     1       1.536   0.313  -0.168  1.00  0.00     0.013 C 
ATOM     14  C   UNL     1       0.691   2.642  -0.107  1.00  0.00     0.013 C 
ENDBRANCH  11  12
ENDBRANCH   9  11
BRANCH   9  15
ATOM     15  C   UNL     1      -0.953  -1.566   0.918  1.00  0.00     0.184 C 
ATOM     16  C   UNL     1      -1.605  -2.633   1.826  1.00  0.00     0.065 C 
ATOM     17  C   UNL     1      -0.478  -2.340  -0.326  1.00  0.00     0.065 C 
ATOM     18  C   UNL     1      -0.931  -3.932   1.403  1.00  0.00     0.006 C 
ATOM     19  C   UNL     1      -0.878  -3.794  -0.107  1.00  0.00     0.006 C 
ENDBRANCH   9  15
ENDBRANCH   8   9
ENDBRANCH   6   8
ENDBRANCH   4   6
ENDBRANCH   3   4
ENDBRANCH   2   3
ENDBRANCH   1   2
BRANCH   1  20
ATOM     20  O   UNL     1      -7.489   1.757   0.522  1.00  0.00    -0.374 OA
BRANCH  20  21
ATOM     21  C   UNL     1      -6.242   2.151   1.095  1.00  0.00     0.202 C 
BRANCH  21  22
ATOM     22  C   UNL     1      -6.235   2.430   2.601  1.00  0.00     0.261 C 
BRANCH  22  23
ATOM     23  O   UNL     1      -6.436   1.226   3.364  1.00  0.00    -0.460 OA
BRANCH  23  24
ATOM     24  C   UNL     1      -7.639   1.162   3.984  1.00  0.00     0.338 C 
ATOM     25  O   UNL     1      -8.486   2.038   4.031  1.00  0.00    -0.246 OA
BRANCH  24  26
ATOM     26  C   UNL     1      -7.905  -0.207   4.469  1.00  0.00     0.060 A 
ATOM     27  C   UNL     1      -9.166  -0.740   4.176  1.00  0.00     0.016 A 
ATOM     28  C   UNL     1      -7.011  -0.903   5.286  1.00  0.00     0.016 A 
ATOM     29  C   UNL     1      -9.586  -1.913   4.791  1.00  0.00     0.010 A 
ATOM     30  C   UNL     1      -7.435  -2.085   5.907  1.00  0.00     0.010 A 
ATOM     31  C   UNL     1      -8.750  -2.550   5.716  1.00  0.00    -0.014 A 
BRANCH  31  32
ATOM     32  C   UNL     1      -9.364  -3.530   6.646  1.00  0.00     0.031 A 
ATOM     33  C   UNL     1      -9.792  -3.049   8.010  1.00  0.00     0.074 A 
ATOM     34  C   UNL     1      -9.642  -4.785   6.251  1.00  0.00     0.049 A 
ATOM     35  N   UNL     1     -10.439  -3.688   8.950  1.00  0.00    -0.248 NA
ATOM     36  C   UNL     1      -9.451  -1.658   8.358  1.00  0.00     0.031 C 
ATOM     37  C   UNL     1      -9.327  -5.349   4.939  1.00  0.00     0.029 A 
ATOM     38  N   UNL     1     -10.276  -5.804   6.914  1.00  0.00    -0.354 N 
ATOM     39  C   UNL     1     -10.575  -2.783   9.998  1.00  0.00     0.074 A 
ATOM     40  C   UNL     1      -9.916  -1.562   9.593  1.00  0.00     0.031 C 
ATOM     41  C   UNL     1      -9.783  -6.613   4.889  1.00  0.00     0.029 A 
ATOM     42  C   UNL     1     -10.403  -6.951   6.169  1.00  0.00     0.049 A 
ATOM     43  H   UNL     1     -10.610  -5.721   7.837  1.00  0.00     0.167 HD
ATOM     44  C   UNL     1     -11.202  -2.947  11.187  1.00  0.00     0.031 A 
ATOM     45  C   UNL     1     -10.959  -8.138   6.484  1.00  0.00     0.031 A 
ATOM     46  C   UNL     1     -11.857  -4.161  11.590  1.00  0.00     0.049 A 
ATOM     47  C   UNL     1     -11.609  -8.313   7.832  1.00  0.00     0.074 A 
ATOM     48  C   UNL     1     -12.529  -4.427  12.770  1.00  0.00     0.029 A 
ATOM     49  N   UNL     1     -11.920  -5.315  10.823  1.00  0.00    -0.354 N 
ATOM     50  N   UNL     1     -11.744  -7.440   8.803  1.00  0.00    -0.248 NA
ATOM     51  C   UNL     1     -12.198  -9.628   8.117  1.00  0.00     0.031 C 
ATOM     52  C   UNL     1     -12.957  -5.759  12.737  1.00  0.00     0.029 A 
ATOM     53  C   UNL     1     -12.603  -6.302  11.512  1.00  0.00     0.049 A 
ATOM     54  H   UNL     1     -11.537  -5.416   9.923  1.00  0.00     0.167 HD
ATOM     55  C   UNL     1     -12.467  -8.091   9.799  1.00  0.00     0.074 A 
ATOM     56  C   UNL     1     -12.745  -9.426   9.308  1.00  0.00     0.031 C 
ATOM     57  C   UNL     1     -12.872  -7.624  11.006  1.00  0.00     0.031 A 
BRANCH  44  58
ATOM     58  C   UNL     1     -11.169  -1.791  12.152  1.00  0.00    -0.014 A 
ATOM     59  C   UNL     1     -11.924  -0.625  11.926  1.00  0.00     0.010 A 
ATOM     60  C   UNL     1     -10.383  -1.882  13.315  1.00  0.00     0.010 A 
ATOM     61  C   UNL     1     -11.859   0.444  12.824  1.00  0.00     0.020 A 
ATOM     62  C   UNL     1     -10.336  -0.826  14.228  1.00  0.00     0.020 A 
ATOM     63  C   UNL     1     -11.060   0.339  13.967  1.00  0.00     0.054 A 
BRANCH  63  64
ATOM     64  S   UNL     1     -11.002   1.734  15.125  1.00  0.00     0.124 S 
ATOM     65  O   UNL     1     -10.172   2.692  14.399  1.00  0.00    -0.237 OA
ATOM     66  O   UNL     1     -12.410   2.099  15.260  1.00  0.00    -0.237 OA
ATOM     67  O   UNL     1     -10.392   1.165  16.324  1.00  0.00    -0.744 OA
ENDBRANCH  63  64
ENDBRANCH  44  58
BRANCH  45  68
ATOM     68  C   UNL     1     -10.935  -9.254   5.500  1.00  0.00    -0.014 A 
ATOM     69  C   UNL     1     -12.116  -9.689   4.873  1.00  0.00     0.010 A 
ATOM     70  C   UNL     1      -9.721  -9.892   5.186  1.00  0.00     0.010 A 
ATOM     71  C   UNL     1     -12.086 -10.752   3.965  1.00  0.00     0.020 A 
ATOM     72  C   UNL     1      -9.683 -10.937   4.260  1.00  0.00     0.020 A 
ATOM     73  C   UNL     1     -10.869 -11.368   3.663  1.00  0.00     0.054 A 
BRANCH  73  74
ATOM     74  S   UNL     1     -10.844 -12.712   2.444  1.00  0.00     0.124 S 
ATOM     75  O   UNL     1     -11.418 -13.819   3.201  1.00  0.00    -0.237 OA
ATOM     76  O   UNL     1     -11.677 -12.179   1.369  1.00  0.00    -0.237 OA
ATOM     77  O   UNL     1      -9.427 -12.845   2.114  1.00  0.00    -0.744 OA
ENDBRANCH  73  74
ENDBRANCH  45  68
BRANCH  57  78
ATOM     78  C   UNL     1     -13.704  -8.545  11.860  1.00  0.00    -0.014 A 
ATOM     79  C   UNL     1     -13.142  -9.665  12.496  1.00  0.00     0.010 A 
ATOM     80  C   UNL     1     -15.068  -8.257  12.055  1.00  0.00     0.010 A 
ATOM     81  C   UNL     1     -13.940 -10.509  13.274  1.00  0.00     0.020 A 
ATOM     82  C   UNL     1     -15.862  -9.082  12.855  1.00  0.00     0.020 A 
ATOM     83  C   UNL     1     -15.297 -10.215  13.443  1.00  0.00     0.054 A 
BRANCH  83  84
ATOM     84  S   UNL     1     -16.311 -11.314  14.470  1.00  0.00     0.124 S 
ATOM     85  O   UNL     1     -16.515 -12.455  13.582  1.00  0.00    -0.237 OA
ATOM     86  O   UNL     1     -15.452 -11.561  15.625  1.00  0.00    -0.237 OA
ATOM     87  O   UNL     1     -17.506 -10.521  14.749  1.00  0.00    -0.744 OA
ENDBRANCH  83  84
ENDBRANCH  57  78
ENDBRANCH  31  32
ENDBRANCH  24  26
ENDBRANCH  23  24
ENDBRANCH  22  23
ENDBRANCH  21  22
ENDBRANCH  20  21
ENDBRANCH   1  20
TORSDOF 22
