REMARK SMILES O=C(OCCOCCOC(=O)c1ccc(N2C(=O)N=C(O)/C(=C\c3cccs3)C2=O)cc1)c1ccc(-c2c3nc(c(-c4ccc(S(=O)(=O)[O-])cc4)c4ccc([nH]4)c(-c4ccc(S(=O)(=O)[O-])cc4)c4nc(c(-c5ccc(S(=O)(=O)[O-])cc5)c5ccc2[nH]5)C=C4)C=C3)cc1
REMARK SMILES IDX 5 1 4 2 3 3 2 4 1 5 33 6 34 7 92 8 35 9 91 10 36 11 37 12
REMARK SMILES IDX 38 13 85 14 39 15 90 16 84 17 86 18 40 19 89 20 83 21 82 22
REMARK SMILES IDX 41 24 71 25 52 26 70 27 53 28 56 29 69 30 87 31 54 32 55 33
REMARK SMILES IDX 68 35 88 36 57 37 42 38 43 39 51 40 44 41 50 42 45 43 46 44
REMARK SMILES IDX 47 45 48 46 49 47 72 48 73 49 81 50 74 51 80 52 75 53 76 54
REMARK SMILES IDX 77 55 78 56 79 57 58 58 59 59 67 60 60 61 66 62 61 63 62 64
REMARK SMILES IDX 63 65 64 66 65 67 6 68 7 69 8 70 9 71 10 72 11 73 12 74
REMARK SMILES IDX 13 75 32 76 14 77 31 78 15 79 16 80 17 81 29 82 18 83 19 84
REMARK SMILES IDX 22 85 30 86 20 87 23 88 21 89 24 91 25 92 28 93 26 94 27 95
REMARK H PARENT 86 23 56 34 21 90
REMARK Flexibility Score: inf
ROOT
ATOM      1  C   UNL     1       4.324  -0.913  -1.373  1.00  0.00     0.202 C 
ENDROOT
BRANCH   1   2
ATOM      2  C   UNL     1       3.966  -1.366   0.045  1.00  0.00     0.261 C 
BRANCH   2   3
ATOM      3  O   UNL     1       2.587  -1.079   0.329  1.00  0.00    -0.460 OA
BRANCH   3   4
ATOM      4  C   UNL     1       2.073  -0.056   1.053  1.00  0.00     0.338 C 
ATOM      5  O   UNL     1       0.851   0.010   1.185  1.00  0.00    -0.246 OA
BRANCH   4   6
ATOM      6  C   UNL     1       2.906   0.992   1.717  1.00  0.00     0.060 A 
ATOM      7  C   UNL     1       4.156   1.424   1.272  1.00  0.00     0.016 A 
ATOM      8  C   UNL     1       2.345   1.642   2.831  1.00  0.00     0.016 A 
ATOM      9  C   UNL     1       4.875   2.393   1.954  1.00  0.00     0.010 A 
ATOM     10  C   UNL     1       3.041   2.655   3.498  1.00  0.00     0.010 A 
ATOM     11  C   UNL     1       4.327   3.006   3.076  1.00  0.00    -0.014 A 
BRANCH  11  12
ATOM     12  C   UNL     1       5.199   3.909   3.848  1.00  0.00     0.031 A 
ATOM     13  C   UNL     1       5.818   3.384   5.109  1.00  0.00     0.074 A 
ATOM     14  C   UNL     1       5.552   5.096   3.323  1.00  0.00     0.049 A 
ATOM     15  N   UNL     1       6.658   3.965   5.920  1.00  0.00    -0.248 NA
ATOM     16  C   UNL     1       5.456   2.009   5.498  1.00  0.00     0.031 C 
ATOM     17  C   UNL     1       5.092   5.618   2.032  1.00  0.00     0.029 A 
ATOM     18  N   UNL     1       6.417   6.054   3.779  1.00  0.00    -0.354 N 
ATOM     19  C   UNL     1       6.902   3.041   6.929  1.00  0.00     0.074 A 
ATOM     20  C   UNL     1       6.121   1.863   6.633  1.00  0.00     0.031 C 
ATOM     21  C   UNL     1       5.714   6.782   1.782  1.00  0.00     0.029 A 
ATOM     22  C   UNL     1       6.565   7.116   2.918  1.00  0.00     0.049 A 
ATOM     23  H   UNL     1       6.888   5.989   4.641  1.00  0.00     0.167 HD
ATOM     24  C   UNL     1       7.700   3.177   8.013  1.00  0.00     0.031 A 
ATOM     25  C   UNL     1       7.298   8.238   3.050  1.00  0.00     0.031 A 
ATOM     26  C   UNL     1       8.453   4.370   8.285  1.00  0.00     0.049 A 
ATOM     27  C   UNL     1       8.113   8.399   4.306  1.00  0.00     0.074 A 
ATOM     28  C   UNL     1       9.242   4.665   9.381  1.00  0.00     0.029 A 
ATOM     29  N   UNL     1       8.509   5.469   7.438  1.00  0.00    -0.354 N 
ATOM     30  N   UNL     1       8.277   7.549   5.294  1.00  0.00    -0.248 NA
ATOM     31  C   UNL     1       8.832   9.666   4.471  1.00  0.00     0.031 C 
ATOM     32  C   UNL     1       9.737   5.964   9.216  1.00  0.00     0.029 A 
ATOM     33  C   UNL     1       9.306   6.453   7.991  1.00  0.00     0.049 A 
ATOM     34  H   UNL     1       8.048   5.538   6.571  1.00  0.00     0.167 HD
ATOM     35  C   UNL     1       9.138   8.170   6.189  1.00  0.00     0.074 A 
ATOM     36  C   UNL     1       9.471   9.460   5.615  1.00  0.00     0.031 C 
ATOM     37  C   UNL     1       9.613   7.722   7.379  1.00  0.00     0.031 A 
BRANCH  24  38
ATOM     38  C   UNL     1       7.703   2.047   9.005  1.00  0.00    -0.014 A 
ATOM     39  C   UNL     1       8.328   0.817   8.727  1.00  0.00     0.010 A 
ATOM     40  C   UNL     1       7.026   2.208  10.227  1.00  0.00     0.010 A 
ATOM     41  C   UNL     1       8.229  -0.246   9.631  1.00  0.00     0.020 A 
ATOM     42  C   UNL     1       6.946   1.157  11.144  1.00  0.00     0.020 A 
ATOM     43  C   UNL     1       7.529  -0.072  10.830  1.00  0.00     0.054 A 
BRANCH  43  44
ATOM     44  S   UNL     1       7.396  -1.470  11.978  1.00  0.00     0.124 S 
ATOM     45  O   UNL     1       6.425  -2.325  11.299  1.00  0.00    -0.237 OA
ATOM     46  O   UNL     1       8.762  -1.984  12.020  1.00  0.00    -0.237 OA
ATOM     47  O   UNL     1       6.926  -0.857  13.218  1.00  0.00    -0.744 OA
ENDBRANCH  43  44
ENDBRANCH  24  38
BRANCH  25  48
ATOM     48  C   UNL     1       7.262   9.294   1.999  1.00  0.00    -0.014 A 
ATOM     49  C   UNL     1       8.406   9.613   1.247  1.00  0.00     0.010 A 
ATOM     50  C   UNL     1       6.067   9.995   1.744  1.00  0.00     0.010 A 
ATOM     51  C   UNL     1       8.361  10.623   0.277  1.00  0.00     0.020 A 
ATOM     52  C   UNL     1       6.010  10.983   0.756  1.00  0.00     0.020 A 
ATOM     53  C   UNL     1       7.163  11.302   0.039  1.00  0.00     0.054 A 
BRANCH  53  54
ATOM     54  S   UNL     1       7.117  12.586  -1.243  1.00  0.00     0.124 S 
ATOM     55  O   UNL     1       7.840  13.680  -0.603  1.00  0.00    -0.237 OA
ATOM     56  O   UNL     1       7.802  11.943  -2.362  1.00  0.00    -0.237 OA
ATOM     57  O   UNL     1       5.688  12.815  -1.446  1.00  0.00    -0.744 OA
ENDBRANCH  53  54
ENDBRANCH  25  48
BRANCH  37  58
ATOM     58  C   UNL     1      10.576   8.617   8.105  1.00  0.00    -0.014 A 
ATOM     59  C   UNL     1      10.140   9.783   8.756  1.00  0.00     0.010 A 
ATOM     60  C   UNL     1      11.932   8.250   8.175  1.00  0.00     0.010 A 
ATOM     61  C   UNL     1      11.054  10.589   9.438  1.00  0.00     0.020 A 
ATOM     62  C   UNL     1      12.843   9.037   8.879  1.00  0.00     0.020 A 
ATOM     63  C   UNL     1      12.400  10.211   9.493  1.00  0.00     0.054 A 
BRANCH  63  64
ATOM     64  S   UNL     1      13.563  11.251  10.416  1.00  0.00     0.124 S 
ATOM     65  O   UNL     1      13.761  12.370   9.499  1.00  0.00    -0.237 OA
ATOM     66  O   UNL     1      12.820  11.560  11.635  1.00  0.00    -0.237 OA
ATOM     67  O   UNL     1      14.725  10.385  10.605  1.00  0.00    -0.744 OA
ENDBRANCH  63  64
ENDBRANCH  37  58
ENDBRANCH  11  12
ENDBRANCH   4   6
ENDBRANCH   3   4
ENDBRANCH   2   3
ENDBRANCH   1   2
BRANCH   1  68
ATOM     68  O   UNL     1       4.118   0.479  -1.625  1.00  0.00    -0.374 OA
BRANCH  68  69
ATOM     69  C   UNL     1       2.795   0.849  -2.033  1.00  0.00     0.202 C 
BRANCH  69  70
ATOM     70  C   UNL     1       2.856   1.631  -3.348  1.00  0.00     0.261 C 
BRANCH  70  71
ATOM     71  O   UNL     1       3.401   0.772  -4.361  1.00  0.00    -0.460 OA
BRANCH  71  72
ATOM     72  C   UNL     1       4.755   0.801  -4.448  1.00  0.00     0.338 C 
ATOM     73  O   UNL     1       5.514   1.677  -4.072  1.00  0.00    -0.246 OA
BRANCH  72  74
ATOM     74  C   UNL     1       5.193  -0.543  -4.869  1.00  0.00     0.060 A 
ATOM     75  C   UNL     1       6.257  -1.137  -4.179  1.00  0.00     0.018 A 
ATOM     76  C   UNL     1       4.514  -1.242  -5.869  1.00  0.00     0.018 A 
ATOM     77  C   UNL     1       6.617  -2.455  -4.454  1.00  0.00     0.028 A 
ATOM     78  C   UNL     1       4.914  -2.535  -6.188  1.00  0.00     0.028 A 
ATOM     79  C   UNL     1       5.958  -3.146  -5.476  1.00  0.00     0.054 A 
BRANCH  79  80
ATOM     80  N   UNL     1       6.414  -4.429  -5.875  1.00  0.00    -0.226 N 
ATOM     81  C   UNL     1       6.272  -5.502  -4.989  1.00  0.00     0.358 C 
ATOM     82  C   UNL     1       6.992  -4.511  -7.133  1.00  0.00     0.272 C 
ATOM     83  O   UNL     1       5.751  -5.363  -3.884  1.00  0.00    -0.245 OA
ATOM     84  N   UNL     1       6.704  -6.741  -5.377  1.00  0.00    -0.156 NA
ATOM     85  C   UNL     1       7.388  -5.879  -7.558  1.00  0.00     0.104 C 
ATOM     86  O   UNL     1       7.183  -3.545  -7.873  1.00  0.00    -0.268 OA
ATOM     87  C   UNL     1       7.217  -6.919  -6.537  1.00  0.00     0.228 C 
ATOM     88  C   UNL     1       7.805  -5.951  -8.837  1.00  0.00     0.038 C 
BRANCH  87  89
ATOM     89  O   UNL     1       7.652  -8.161  -6.795  1.00  0.00    -0.493 OA
ATOM     90  H   UNL     1       7.551  -8.836  -6.154  1.00  0.00     0.295 HD
ENDBRANCH  87  89
BRANCH  88  91
ATOM     91  C   UNL     1       8.115  -7.144  -9.525  1.00  0.00     0.028 A 
ATOM     92  C   UNL     1       7.252  -8.059 -10.096  1.00  0.00     0.020 A 
ATOM     93  S   UNL     1       9.751  -7.605  -9.750  1.00  0.00    -0.144 S 
ATOM     94  C   UNL     1       7.937  -9.162 -10.680  1.00  0.00     0.012 A 
ATOM     95  C   UNL     1       9.303  -9.042 -10.558  1.00  0.00     0.065 A 
ENDBRANCH  88  91
ENDBRANCH  79  80
ENDBRANCH  72  74
ENDBRANCH  71  72
ENDBRANCH  70  71
ENDBRANCH  69  70
ENDBRANCH  68  69
ENDBRANCH   1  68
TORSDOF 20
