REMARK SMILES N#Cc1ccc(-c2ccc(F)c(C(=O)OCCOCCOC(=O)c3ccc(-c4c5nc(c(-c6ccc(S(=O)(=O)[O-])cc6)c6ccc([nH]6)c(-c6ccc(S(=O)(=O)[O-])cc6)c6nc(c(-c7ccc(S(=O)(=O)[O-])cc7)c7ccc4[nH]7)C=C6)C=C5)cc3)c2)cc1
REMARK SMILES IDX 19 1 18 2 17 3 16 4 15 5 13 6 14 7 12 8 7 9 8 10 84 11 9 12
REMARK SMILES IDX 10 13 11 14 6 15 3 16 4 17 86 18 5 19 85 20 2 21 1 22 20 23
REMARK SMILES IDX 21 24 22 25 23 26 24 27 25 28 83 29 26 30 82 31 27 32 28 33
REMARK SMILES IDX 29 34 76 35 30 36 81 37 75 38 77 39 31 40 80 41 74 42 73 43
REMARK SMILES IDX 32 45 62 46 43 47 61 48 44 49 47 50 60 51 78 52 45 53 46 54
REMARK SMILES IDX 59 56 79 57 48 58 33 59 34 60 42 61 35 62 41 63 36 64 37 65
REMARK SMILES IDX 38 66 39 67 40 68 63 69 64 70 72 71 65 72 71 73 66 74 67 75
REMARK SMILES IDX 68 76 69 77 70 78 49 79 50 80 58 81 51 82 57 83 52 84 53 85
REMARK SMILES IDX 54 86 55 87 56 88
REMARK H PARENT 77 44 47 55
REMARK Flexibility Score: inf
ROOT
ATOM      1  C   UNL     1       6.215   3.437   2.607  1.00  0.00     0.202 C 
ENDROOT
BRANCH   1   2
ATOM      2  O   UNL     1       6.728   3.411   3.936  1.00  0.00    -0.374 OA
BRANCH   2   3
ATOM      3  C   UNL     1       7.978   2.766   4.170  1.00  0.00     0.202 C 
BRANCH   3   4
ATOM      4  C   UNL     1       8.035   1.236   4.132  1.00  0.00     0.261 C 
BRANCH   4   5
ATOM      5  O   UNL     1       7.570   0.709   2.882  1.00  0.00    -0.460 OA
BRANCH   5   6
ATOM      6  C   UNL     1       6.372   0.082   2.939  1.00  0.00     0.341 C 
ATOM      7  O   UNL     1       5.705  -0.131   3.940  1.00  0.00    -0.246 OA
BRANCH   6   8
ATOM      8  C   UNL     1       5.830  -0.133   1.585  1.00  0.00     0.096 A 
ATOM      9  C   UNL     1       3.836  -0.193   0.179  1.00  0.00    -0.017 A 
ATOM     10  C   UNL     1       4.644  -0.567  -0.905  1.00  0.00     0.012 A 
ATOM     11  C   UNL     1       4.446   0.030   1.420  1.00  0.00     0.027 A 
ATOM     12  C   UNL     1       6.028  -0.703  -0.749  1.00  0.00     0.041 A 
ATOM     13  C   UNL     1       6.617  -0.485   0.495  1.00  0.00     0.137 A 
ATOM     14  F   UNL     1       7.941  -0.649   0.612  1.00  0.00    -0.206 F 
BRANCH   9  15
ATOM     15  C   UNL     1       2.378  -0.105   0.057  1.00  0.00    -0.018 A 
ATOM     16  C   UNL     1      -0.435   0.011  -0.040  1.00  0.00     0.052 A 
ATOM     17  C   UNL     1       0.316   1.190  -0.002  1.00  0.00     0.020 A 
ATOM     18  C   UNL     1       0.217  -1.224  -0.038  1.00  0.00     0.020 A 
ATOM     19  C   UNL     1       1.714   1.131   0.049  1.00  0.00     0.010 A 
ATOM     20  C   UNL     1       1.612  -1.279   0.008  1.00  0.00     0.010 A 
BRANCH  16  21
ATOM     21  C   UNL     1      -1.869   0.063  -0.069  1.00  0.00     0.099 C 
ATOM     22  N   UNL     1      -3.026   0.097  -0.092  1.00  0.00    -0.192 NA
ENDBRANCH  16  21
ENDBRANCH   9  15
ENDBRANCH   6   8
ENDBRANCH   5   6
ENDBRANCH   4   5
ENDBRANCH   3   4
ENDBRANCH   2   3
ENDBRANCH   1   2
BRANCH   1  23
ATOM     23  C   UNL     1       6.902   4.311   1.548  1.00  0.00     0.261 C 
BRANCH  23  24
ATOM     24  O   UNL     1       8.286   3.996   1.335  1.00  0.00    -0.460 OA
BRANCH  24  25
ATOM     25  C   UNL     1       9.149   4.881   1.896  1.00  0.00     0.338 C 
ATOM     26  O   UNL     1       8.866   5.888   2.521  1.00  0.00    -0.246 OA
BRANCH  25  27
ATOM     27  C   UNL     1      10.525   4.360   1.810  1.00  0.00     0.060 A 
ATOM     28  C   UNL     1      11.237   4.186   3.005  1.00  0.00     0.016 A 
ATOM     29  C   UNL     1      11.136   4.129   0.578  1.00  0.00     0.016 A 
ATOM     30  C   UNL     1      12.580   3.821   2.969  1.00  0.00     0.010 A 
ATOM     31  C   UNL     1      12.486   3.768   0.545  1.00  0.00     0.010 A 
ATOM     32  C   UNL     1      13.224   3.647   1.738  1.00  0.00    -0.014 A 
BRANCH  32  33
ATOM     33  C   UNL     1      14.694   3.455   1.691  1.00  0.00     0.031 A 
ATOM     34  C   UNL     1      15.571   4.594   1.242  1.00  0.00     0.074 A 
ATOM     35  C   UNL     1      15.242   2.280   2.053  1.00  0.00     0.049 A 
ATOM     36  N   UNL     1      16.869   4.625   1.081  1.00  0.00    -0.248 NA
ATOM     37  C   UNL     1      14.897   5.865   0.929  1.00  0.00     0.031 C 
ATOM     38  C   UNL     1      14.501   1.118   2.547  1.00  0.00     0.029 A 
ATOM     39  N   UNL     1      16.551   1.868   2.056  1.00  0.00    -0.354 N 
ATOM     40  C   UNL     1      17.164   5.904   0.623  1.00  0.00     0.074 A 
ATOM     41  C   UNL     1      15.908   6.614   0.512  1.00  0.00     0.031 C 
ATOM     42  C   UNL     1      15.369   0.126   2.807  1.00  0.00     0.029 A 
ATOM     43  C   UNL     1      16.717   0.562   2.453  1.00  0.00     0.049 A 
ATOM     44  H   UNL     1      17.300   2.453   1.798  1.00  0.00     0.167 HD
ATOM     45  C   UNL     1      18.372   6.437   0.323  1.00  0.00     0.031 A 
ATOM     46  C   UNL     1      17.827  -0.202   2.501  1.00  0.00     0.031 A 
ATOM     47  C   UNL     1      19.617   5.722   0.434  1.00  0.00     0.049 A 
ATOM     48  C   UNL     1      19.148   0.396   2.089  1.00  0.00     0.074 A 
ATOM     49  C   UNL     1      20.898   6.188   0.192  1.00  0.00     0.029 A 
ATOM     50  N   UNL     1      19.740   4.391   0.804  1.00  0.00    -0.354 N 
ATOM     51  N   UNL     1      19.417   1.621   1.701  1.00  0.00    -0.248 NA
ATOM     52  C   UNL     1      20.319  -0.492   2.128  1.00  0.00     0.031 C 
ATOM     53  C   UNL     1      21.785   5.117   0.332  1.00  0.00     0.029 A 
ATOM     54  C   UNL     1      21.070   4.007   0.753  1.00  0.00     0.049 A 
ATOM     55  H   UNL     1      18.992   3.806   1.064  1.00  0.00     0.167 HD
ATOM     56  C   UNL     1      20.792   1.659   1.492  1.00  0.00     0.074 A 
ATOM     57  C   UNL     1      21.300   0.341   1.810  1.00  0.00     0.031 C 
ATOM     58  C   UNL     1      21.566   2.693   1.077  1.00  0.00     0.031 A 
BRANCH  45  59
ATOM     59  C   UNL     1      18.413   7.850  -0.204  1.00  0.00    -0.014 A 
ATOM     60  C   UNL     1      18.110   8.954   0.613  1.00  0.00     0.010 A 
ATOM     61  C   UNL     1      18.833   8.077  -1.528  1.00  0.00     0.010 A 
ATOM     62  C   UNL     1      18.200  10.254   0.107  1.00  0.00     0.020 A 
ATOM     63  C   UNL     1      18.956   9.376  -2.028  1.00  0.00     0.020 A 
ATOM     64  C   UNL     1      18.627  10.457  -1.210  1.00  0.00     0.054 A 
BRANCH  64  65
ATOM     65  S   UNL     1      18.776  12.157  -1.824  1.00  0.00     0.124 S 
ATOM     66  O   UNL     1      17.379  12.579  -1.888  1.00  0.00    -0.237 OA
ATOM     67  O   UNL     1      19.579  12.800  -0.787  1.00  0.00    -0.237 OA
ATOM     68  O   UNL     1      19.439  12.004  -3.117  1.00  0.00    -0.744 OA
ENDBRANCH  64  65
ENDBRANCH  45  59
BRANCH  46  69
ATOM     69  C   UNL     1      17.743  -1.625   2.937  1.00  0.00    -0.014 A 
ATOM     70  C   UNL     1      18.383  -2.054   4.113  1.00  0.00     0.010 A 
ATOM     71  C   UNL     1      17.043  -2.567   2.160  1.00  0.00     0.010 A 
ATOM     72  C   UNL     1      18.354  -3.401   4.485  1.00  0.00     0.020 A 
ATOM     73  C   UNL     1      16.979  -3.908   2.549  1.00  0.00     0.020 A 
ATOM     74  C   UNL     1      17.650  -4.319   3.702  1.00  0.00     0.054 A 
BRANCH  74  75
ATOM     75  S   UNL     1      17.604  -6.056   4.222  1.00  0.00     0.124 S 
ATOM     76  O   UNL     1      18.981  -6.479   3.991  1.00  0.00    -0.237 OA
ATOM     77  O   UNL     1      17.199  -5.952   5.622  1.00  0.00    -0.237 OA
ATOM     78  O   UNL     1      16.608  -6.653   3.335  1.00  0.00    -0.744 OA
ENDBRANCH  74  75
ENDBRANCH  46  69
BRANCH  58  79
ATOM     79  C   UNL     1      23.055   2.464   0.993  1.00  0.00    -0.014 A 
ATOM     80  C   UNL     1      23.619   1.612   0.027  1.00  0.00     0.010 A 
ATOM     81  C   UNL     1      23.909   3.163   1.867  1.00  0.00     0.010 A 
ATOM     82  C   UNL     1      25.004   1.435  -0.038  1.00  0.00     0.020 A 
ATOM     83  C   UNL     1      25.295   3.019   1.781  1.00  0.00     0.020 A 
ATOM     84  C   UNL     1      25.834   2.144   0.837  1.00  0.00     0.054 A 
BRANCH  84  85
ATOM     85  S   UNL     1      27.629   1.930   0.701  1.00  0.00     0.124 S 
ATOM     86  O   UNL     1      27.812   0.564   1.183  1.00  0.00    -0.237 OA
ATOM     87  O   UNL     1      27.866   2.130  -0.727  1.00  0.00    -0.237 OA
ATOM     88  O   UNL     1      28.171   2.974   1.568  1.00  0.00    -0.744 OA
ENDBRANCH  84  85
ENDBRANCH  58  79
ENDBRANCH  32  33
ENDBRANCH  25  27
ENDBRANCH  24  25
ENDBRANCH  23  24
ENDBRANCH   1  23
TORSDOF 19
