REMARK SMILES CC1=C([C@H](NC(=O)[C@@H]2[C@H](C)c3cc(F)ccc3N2C)C(=O)OCCOCCOC(=O)c2ccc(-c3c4nc(c(-c5ccc(S(=O)(=O)[O-])cc5)c5ccc([nH]5)c(-c5ccc(S(=O)(=O)[O-])cc5)c5nc(c(-c6ccc(S(=O)(=O)[O-])cc6)c6ccc3[nH]6)C=C5)C=C4)cc2)[C@@H](C)N=N1
REMARK SMILES IDX 26 1 25 2 24 3 23 4 22 5 20 6 21 7 4 8 3 9 1 10 2 11 94 12
REMARK SMILES IDX 91 13 93 14 92 15 5 16 6 17 7 19 8 20 9 21 18 22 11 23 10 24
REMARK SMILES IDX 17 25 19 26 12 27 16 28 13 29 15 30 14 31 27 32 28 33 29 34
REMARK SMILES IDX 30 35 31 36 32 37 90 38 33 39 89 40 34 41 35 42 36 43 83 44
REMARK SMILES IDX 37 45 88 46 82 47 84 48 38 49 87 50 81 51 80 52 39 54 69 55
REMARK SMILES IDX 50 56 68 57 51 58 54 59 67 60 85 61 52 62 53 63 66 65 86 66
REMARK SMILES IDX 55 67 40 68 41 69 49 70 42 71 48 72 43 73 44 74 45 75 46 76
REMARK SMILES IDX 47 77 70 78 71 79 79 80 72 81 78 82 73 83 74 84 75 85 76 86
REMARK SMILES IDX 77 87 56 88 57 89 65 90 58 91 64 92 59 93 60 94 61 95 62 96
REMARK SMILES IDX 63 97
REMARK H PARENT 5 18 84 53 54 64
REMARK Flexibility Score: inf
ROOT
ATOM      1  C   UNL     1      -2.811   2.019  -0.292  1.00  0.00     0.202 C 
ENDROOT
BRANCH   1   2
ATOM      2  O   UNL     1      -3.467   3.263  -0.035  1.00  0.00    -0.374 OA
BRANCH   2   3
ATOM      3  C   UNL     1      -3.944   4.024  -1.138  1.00  0.00     0.202 C 
BRANCH   3   4
ATOM      4  C   UNL     1      -2.914   4.671  -2.070  1.00  0.00     0.261 C 
BRANCH   4   5
ATOM      5  O   UNL     1      -1.871   3.781  -2.498  1.00  0.00    -0.461 OA
BRANCH   5   6
ATOM      6  C   UNL     1      -0.703   4.030  -1.859  1.00  0.00     0.333 C 
ATOM      7  O   UNL     1      -0.561   4.894  -0.994  1.00  0.00    -0.249 OA
BRANCH   6   8
ATOM      8  C   UNL     1       0.485   3.175  -2.323  1.00  0.00     0.223 C 
BRANCH   8   9
ATOM      9  C   UNL     1       1.255   3.914  -3.340  1.00  0.00     0.012 C 
ATOM     10  C   UNL     1       2.204   5.835  -1.951  1.00  0.00     0.069 C 
ATOM     11  C   UNL     1       2.006   5.010  -3.179  1.00  0.00     0.064 C 
ATOM     12  N   UNL     1       2.641   5.362  -4.340  1.00  0.00    -0.160 NA
ATOM     13  C   UNL     1       1.358   3.567  -4.780  1.00  0.00     0.156 C 
ATOM     14  N   UNL     1       2.325   4.573  -5.274  1.00  0.00    -0.181 NA
ATOM     15  C   UNL     1       0.049   3.703  -5.540  1.00  0.00     0.040 C 
ENDBRANCH   8   9
BRANCH   8  16
ATOM     16  N   UNL     1       0.344   1.771  -2.669  1.00  0.00    -0.337 N 
ATOM     17  C   UNL     1       1.288   0.768  -2.538  1.00  0.00     0.244 C 
ATOM     18  H   UNL     1      -0.526   1.501  -3.041  1.00  0.00     0.164 HD
ATOM     19  O   UNL     1       0.849  -0.379  -2.675  1.00  0.00    -0.273 OA
BRANCH  17  20
ATOM     20  C   UNL     1       2.819   1.078  -2.373  1.00  0.00     0.178 C 
ATOM     21  C   UNL     1       3.781  -0.115  -2.792  1.00  0.00     0.050 C 
ATOM     22  N   UNL     1       3.336   1.485  -1.028  1.00  0.00    -0.362 N 
ATOM     23  C   UNL     1       5.043   0.316  -2.084  1.00  0.00    -0.016 A 
ATOM     24  C   UNL     1       3.403  -1.522  -2.331  1.00  0.00     0.015 C 
ATOM     25  C   UNL     1       4.728   1.293  -1.139  1.00  0.00     0.041 A 
ATOM     26  C   UNL     1       2.903   2.572  -0.193  1.00  0.00     0.144 C 
ATOM     27  C   UNL     1       6.347  -0.133  -2.245  1.00  0.00     0.045 A 
ATOM     28  C   UNL     1       5.742   1.939  -0.440  1.00  0.00     0.029 A 
ATOM     29  C   UNL     1       7.347   0.478  -1.491  1.00  0.00     0.123 A 
ATOM     30  C   UNL     1       7.062   1.531  -0.623  1.00  0.00     0.041 A 
ATOM     31  F   UNL     1       8.612   0.050  -1.600  1.00  0.00    -0.207 F 
ENDBRANCH  17  20
ENDBRANCH   8  16
ENDBRANCH   6   8
ENDBRANCH   5   6
ENDBRANCH   4   5
ENDBRANCH   3   4
ENDBRANCH   2   3
ENDBRANCH   1   2
BRANCH   1  32
ATOM     32  C   UNL     1      -3.501   0.984  -1.201  1.00  0.00     0.261 C 
BRANCH  32  33
ATOM     33  O   UNL     1      -3.590   1.448  -2.559  1.00  0.00    -0.460 OA
BRANCH  33  34
ATOM     34  C   UNL     1      -4.779   1.212  -3.181  1.00  0.00     0.338 C 
ATOM     35  O   UNL     1      -5.618   0.380  -2.876  1.00  0.00    -0.246 OA
BRANCH  34  36
ATOM     36  C   UNL     1      -5.042   2.399  -4.023  1.00  0.00     0.060 A 
ATOM     37  C   UNL     1      -4.075   2.885  -4.903  1.00  0.00     0.016 A 
ATOM     38  C   UNL     1      -6.162   3.176  -3.681  1.00  0.00     0.016 A 
ATOM     39  C   UNL     1      -4.185   4.197  -5.355  1.00  0.00     0.010 A 
ATOM     40  C   UNL     1      -6.241   4.504  -4.095  1.00  0.00     0.010 A 
ATOM     41  C   UNL     1      -5.230   5.029  -4.898  1.00  0.00    -0.014 A 
BRANCH  41  42
ATOM     42  C   UNL     1      -5.325   6.375  -5.466  1.00  0.00     0.031 A 
ATOM     43  C   UNL     1      -5.671   6.330  -6.908  1.00  0.00     0.074 A 
ATOM     44  C   UNL     1      -5.220   7.575  -4.855  1.00  0.00     0.049 A 
ATOM     45  N   UNL     1      -4.888   6.580  -7.902  1.00  0.00    -0.248 NA
ATOM     46  C   UNL     1      -6.978   5.772  -7.279  1.00  0.00     0.031 C 
ATOM     47  C   UNL     1      -5.157   7.890  -3.426  1.00  0.00     0.029 A 
ATOM     48  N   UNL     1      -5.212   8.815  -5.436  1.00  0.00    -0.354 N 
ATOM     49  C   UNL     1      -5.653   6.371  -9.042  1.00  0.00     0.074 A 
ATOM     50  C   UNL     1      -6.869   5.729  -8.606  1.00  0.00     0.031 C 
ATOM     51  C   UNL     1      -5.330   9.225  -3.250  1.00  0.00     0.029 A 
ATOM     52  C   UNL     1      -5.359   9.877  -4.550  1.00  0.00     0.049 A 
ATOM     53  H   UNL     1      -5.110   8.945  -6.407  1.00  0.00     0.167 HD
ATOM     54  C   UNL     1      -5.313   6.905 -10.245  1.00  0.00     0.031 A 
ATOM     55  C   UNL     1      -5.507  11.191  -4.869  1.00  0.00     0.031 A 
ATOM     56  C   UNL     1      -3.962   7.395 -10.253  1.00  0.00     0.049 A 
ATOM     57  C   UNL     1      -4.933  11.380  -6.221  1.00  0.00     0.074 A 
ATOM     58  C   UNL     1      -2.713   6.820 -10.148  1.00  0.00     0.029 A 
ATOM     59  N   UNL     1      -3.795   8.736 -10.012  1.00  0.00    -0.354 N 
ATOM     60  N   UNL     1      -3.666  11.260  -6.496  1.00  0.00    -0.248 NA
ATOM     61  C   UNL     1      -5.830  11.355  -7.364  1.00  0.00     0.031 C 
ATOM     62  C   UNL     1      -1.925   7.767  -9.434  1.00  0.00     0.029 A 
ATOM     63  C   UNL     1      -2.714   8.893  -9.184  1.00  0.00     0.049 A 
ATOM     64  H   UNL     1      -4.356   9.461 -10.372  1.00  0.00     0.167 HD
ATOM     65  C   UNL     1      -3.634  10.723  -7.773  1.00  0.00     0.074 A 
ATOM     66  C   UNL     1      -4.984  10.914  -8.296  1.00  0.00     0.031 C 
ATOM     67  C   UNL     1      -2.596   9.938  -8.182  1.00  0.00     0.031 A 
BRANCH  54  68
ATOM     68  C   UNL     1      -6.316   7.280 -11.301  1.00  0.00    -0.014 A 
ATOM     69  C   UNL     1      -7.693   7.422 -11.034  1.00  0.00     0.010 A 
ATOM     70  C   UNL     1      -5.858   7.729 -12.555  1.00  0.00     0.010 A 
ATOM     71  C   UNL     1      -8.582   7.933 -11.978  1.00  0.00     0.020 A 
ATOM     72  C   UNL     1      -6.735   8.288 -13.495  1.00  0.00     0.020 A 
ATOM     73  C   UNL     1      -8.096   8.370 -13.204  1.00  0.00     0.054 A 
BRANCH  73  74
ATOM     74  S   UNL     1      -9.272   9.086 -14.375  1.00  0.00     0.124 S 
ATOM     75  O   UNL     1     -10.088   7.927 -14.724  1.00  0.00    -0.237 OA
ATOM     76  O   UNL     1      -9.936  10.105 -13.566  1.00  0.00    -0.237 OA
ATOM     77  O   UNL     1      -8.421   9.597 -15.446  1.00  0.00    -0.744 OA
ENDBRANCH  73  74
ENDBRANCH  54  68
BRANCH  55  78
ATOM     78  C   UNL     1      -6.486  12.174  -4.321  1.00  0.00    -0.014 A 
ATOM     79  C   UNL     1      -7.697  11.715  -3.769  1.00  0.00     0.010 A 
ATOM     80  C   UNL     1      -6.402  13.540  -4.670  1.00  0.00     0.010 A 
ATOM     81  C   UNL     1      -8.813  12.557  -3.664  1.00  0.00     0.020 A 
ATOM     82  C   UNL     1      -7.518  14.390  -4.568  1.00  0.00     0.020 A 
ATOM     83  C   UNL     1      -8.730  13.878  -4.104  1.00  0.00     0.054 A 
BRANCH  83  84
ATOM     84  S   UNL     1     -10.255  14.868  -4.150  1.00  0.00     0.124 S 
ATOM     85  O   UNL     1     -11.025  14.190  -5.189  1.00  0.00    -0.237 OA
ATOM     86  O   UNL     1     -10.768  14.719  -2.791  1.00  0.00    -0.237 OA
ATOM     87  O   UNL     1      -9.789  16.210  -4.493  1.00  0.00    -0.744 OA
ENDBRANCH  83  84
ENDBRANCH  55  78
BRANCH  67  88
ATOM     88  C   UNL     1      -1.299   9.967  -7.401  1.00  0.00    -0.014 A 
ATOM     89  C   UNL     1      -0.120  10.179  -8.140  1.00  0.00     0.010 A 
ATOM     90  C   UNL     1      -1.181   9.629  -6.038  1.00  0.00     0.010 A 
ATOM     91  C   UNL     1       1.137  10.015  -7.559  1.00  0.00     0.020 A 
ATOM     92  C   UNL     1       0.083   9.491  -5.439  1.00  0.00     0.020 A 
ATOM     93  C   UNL     1       1.234   9.662  -6.213  1.00  0.00     0.054 A 
BRANCH  93  94
ATOM     94  S   UNL     1       2.892   9.409  -5.523  1.00  0.00     0.124 S 
ATOM     95  O   UNL     1       3.355   8.234  -6.256  1.00  0.00    -0.237 OA
ATOM     96  O   UNL     1       3.572  10.657  -5.864  1.00  0.00    -0.237 OA
ATOM     97  O   UNL     1       2.655   9.206  -4.095  1.00  0.00    -0.744 OA
ENDBRANCH  93  94
ENDBRANCH  67  88
ENDBRANCH  41  42
ENDBRANCH  34  36
ENDBRANCH  33  34
ENDBRANCH  32  33
ENDBRANCH   1  32
TORSDOF 20
