REMARK SMILES O=C(C[C@H]1C(=O)Nc2ccccc21)OCCOCCOC(=O)c1ccc(-c2c3nc(c(-c4ccc(S(=O)(=O)[O-])cc4)c4ccc([nH]4)c(-c4ccc(S(=O)(=O)[O-])cc4)c4nc(c(-c5ccc(S(=O)(=O)[O-])cc5)c5ccc2[nH]5)C=C4)C=C3)cc1
REMARK SMILES IDX 18 1 17 2 16 3 15 4 14 5 2 6 1 7 3 8 4 9 5 10 13 11 6 12
REMARK SMILES IDX 7 13 8 14 12 15 9 17 11 18 10 19 19 20 20 21 21 22 22 23
REMARK SMILES IDX 23 24 24 25 82 26 25 27 81 28 26 29 27 30 28 31 75 32 29 33
REMARK SMILES IDX 80 34 74 35 76 36 30 37 79 38 73 39 72 40 31 42 61 43 42 44
REMARK SMILES IDX 60 45 43 46 46 47 59 48 77 49 44 50 45 51 58 53 78 54 47 55
REMARK SMILES IDX 32 56 33 57 41 58 34 59 40 60 35 61 36 62 37 63 38 64 39 65
REMARK SMILES IDX 62 66 63 67 71 68 64 69 70 70 65 71 66 72 67 73 68 74 69 75
REMARK SMILES IDX 48 76 49 77 57 78 50 79 56 80 51 81 52 82 53 83 54 84 55 85
REMARK H PARENT 7 16 76 41 46 52
REMARK Flexibility Score: inf
ROOT
ATOM      1  C   UNL     1       0.853  -1.874  -4.264  1.00  0.00     0.202 C 
ENDROOT
BRANCH   1   2
ATOM      2  O   UNL     1       1.051  -2.107  -2.865  1.00  0.00    -0.374 OA
BRANCH   2   3
ATOM      3  C   UNL     1       0.583  -1.132  -1.945  1.00  0.00     0.202 C 
BRANCH   3   4
ATOM      4  C   UNL     1       1.387   0.165  -1.824  1.00  0.00     0.261 C 
BRANCH   4   5
ATOM      5  O   UNL     1       1.953   0.652  -3.048  1.00  0.00    -0.463 OA
BRANCH   5   6
ATOM      6  C   UNL     1       3.211   0.362  -3.458  1.00  0.00     0.307 C 
ATOM      7  O   UNL     1       3.663   0.876  -4.480  1.00  0.00    -0.252 OA
BRANCH   6   8
ATOM      8  C   UNL     1       4.017  -0.643  -2.680  1.00  0.00     0.141 C 
BRANCH   8   9
ATOM      9  C   UNL     1       4.721  -0.124  -1.431  1.00  0.00     0.122 C 
ATOM     10  C   UNL     1       6.105  -0.801  -1.357  1.00  0.00     0.232 C 
ATOM     11  C   UNL     1       5.098   1.334  -1.412  1.00  0.00    -0.011 A 
ATOM     12  O   UNL     1       6.325  -2.000  -1.298  1.00  0.00    -0.274 OA
ATOM     13  N   UNL     1       7.066   0.197  -1.394  1.00  0.00    -0.325 N 
ATOM     14  C   UNL     1       6.485   1.453  -1.423  1.00  0.00     0.045 A 
ATOM     15  C   UNL     1       4.301   2.465  -1.352  1.00  0.00     0.007 A 
ATOM     16  H   UNL     1       8.037   0.033  -1.398  1.00  0.00     0.169 HD
ATOM     17  C   UNL     1       7.127   2.672  -1.434  1.00  0.00     0.026 A 
ATOM     18  C   UNL     1       4.927   3.714  -1.359  1.00  0.00     0.000 A 
ATOM     19  C   UNL     1       6.328   3.817  -1.410  1.00  0.00     0.002 A 
ENDBRANCH   8   9
ENDBRANCH   6   8
ENDBRANCH   5   6
ENDBRANCH   4   5
ENDBRANCH   3   4
ENDBRANCH   2   3
ENDBRANCH   1   2
BRANCH   1  20
ATOM     20  C   UNL     1      -0.567  -1.558  -4.742  1.00  0.00     0.261 C 
BRANCH  20  21
ATOM     21  O   UNL     1      -0.942  -0.203  -4.423  1.00  0.00    -0.460 OA
BRANCH  21  22
ATOM     22  C   UNL     1      -2.083  -0.083  -3.708  1.00  0.00     0.338 C 
ATOM     23  O   UNL     1      -2.805  -0.989  -3.316  1.00  0.00    -0.246 OA
BRANCH  22  24
ATOM     24  C   UNL     1      -2.291   1.309  -3.286  1.00  0.00     0.060 A 
ATOM     25  C   UNL     1      -2.405   1.563  -1.913  1.00  0.00     0.016 A 
ATOM     26  C   UNL     1      -2.568   2.303  -4.225  1.00  0.00     0.016 A 
ATOM     27  C   UNL     1      -2.893   2.791  -1.475  1.00  0.00     0.010 A 
ATOM     28  C   UNL     1      -3.067   3.532  -3.784  1.00  0.00     0.010 A 
ATOM     29  C   UNL     1      -3.293   3.751  -2.413  1.00  0.00    -0.014 A 
BRANCH  29  30
ATOM     30  C   UNL     1      -4.176   4.857  -1.972  1.00  0.00     0.031 A 
ATOM     31  C   UNL     1      -5.667   4.675  -2.105  1.00  0.00     0.074 A 
ATOM     32  C   UNL     1      -3.672   5.976  -1.425  1.00  0.00     0.049 A 
ATOM     33  N   UNL     1      -6.635   5.490  -1.778  1.00  0.00    -0.248 NA
ATOM     34  C   UNL     1      -6.124   3.400  -2.686  1.00  0.00     0.031 C 
ATOM     35  C   UNL     1      -2.253   6.244  -1.201  1.00  0.00     0.029 A 
ATOM     36  N   UNL     1      -4.308   7.096  -0.954  1.00  0.00    -0.354 N 
ATOM     37  C   UNL     1      -7.813   4.835  -2.125  1.00  0.00     0.074 A 
ATOM     38  C   UNL     1      -7.438   3.566  -2.708  1.00  0.00     0.031 C 
ATOM     39  C   UNL     1      -2.125   7.456  -0.633  1.00  0.00     0.029 A 
ATOM     40  C   UNL     1      -3.449   8.055  -0.477  1.00  0.00     0.049 A 
ATOM     41  H   UNL     1      -5.287   7.201  -0.958  1.00  0.00     0.167 HD
ATOM     42  C   UNL     1      -9.092   5.251  -1.972  1.00  0.00     0.031 A 
ATOM     43  C   UNL     1      -3.707   9.280   0.022  1.00  0.00     0.031 A 
ATOM     44  C   UNL     1      -9.462   6.518  -1.402  1.00  0.00     0.049 A 
ATOM     45  C   UNL     1      -5.135   9.741   0.141  1.00  0.00     0.074 A 
ATOM     46  C   UNL     1     -10.728   7.033  -1.190  1.00  0.00     0.029 A 
ATOM     47  N   UNL     1      -8.560   7.473  -0.956  1.00  0.00    -0.354 N 
ATOM     48  N   UNL     1      -6.238   9.103  -0.174  1.00  0.00    -0.248 NA
ATOM     49  C   UNL     1      -5.353  11.083   0.700  1.00  0.00     0.031 C 
ATOM     50  C   UNL     1     -10.591   8.319  -0.656  1.00  0.00     0.029 A 
ATOM     51  C   UNL     1      -9.241   8.582  -0.485  1.00  0.00     0.049 A 
ATOM     52  H   UNL     1      -7.581   7.376  -0.972  1.00  0.00     0.167 HD
ATOM     53  C   UNL     1      -7.282   9.951   0.183  1.00  0.00     0.074 A 
ATOM     54  C   UNL     1      -6.677  11.145   0.740  1.00  0.00     0.031 C 
ATOM     55  C   UNL     1      -8.620   9.757   0.070  1.00  0.00     0.031 A 
BRANCH  42  56
ATOM     56  C   UNL     1     -10.179   4.337  -2.474  1.00  0.00    -0.014 A 
ATOM     57  C   UNL     1     -10.496   3.140  -1.806  1.00  0.00     0.010 A 
ATOM     58  C   UNL     1     -10.897   4.686  -3.632  1.00  0.00     0.010 A 
ATOM     59  C   UNL     1     -11.479   2.285  -2.316  1.00  0.00     0.020 A 
ATOM     60  C   UNL     1     -11.897   3.846  -4.131  1.00  0.00     0.020 A 
ATOM     61  C   UNL     1     -12.166   2.640  -3.480  1.00  0.00     0.054 A 
BRANCH  61  62
ATOM     62  S   UNL     1     -13.437   1.516  -4.124  1.00  0.00     0.124 S 
ATOM     63  O   UNL     1     -12.626   0.460  -4.725  1.00  0.00    -0.237 OA
ATOM     64  O   UNL     1     -14.170   1.135  -2.919  1.00  0.00    -0.237 OA
ATOM     65  O   UNL     1     -14.184   2.342  -5.069  1.00  0.00    -0.744 OA
ENDBRANCH  61  62
ENDBRANCH  42  56
BRANCH  43  66
ATOM     66  C   UNL     1      -2.584  10.152   0.461  1.00  0.00    -0.014 A 
ATOM     67  C   UNL     1      -2.365  10.399   1.827  1.00  0.00     0.010 A 
ATOM     68  C   UNL     1      -1.721  10.730  -0.487  1.00  0.00     0.010 A 
ATOM     69  C   UNL     1      -1.309  11.219   2.238  1.00  0.00     0.020 A 
ATOM     70  C   UNL     1      -0.650  11.530  -0.080  1.00  0.00     0.020 A 
ATOM     71  C   UNL     1      -0.456  11.777   1.281  1.00  0.00     0.054 A 
BRANCH  71  72
ATOM     72  S   UNL     1       0.947  12.784   1.839  1.00  0.00     0.124 S 
ATOM     73  O   UNL     1       0.292  14.030   2.223  1.00  0.00    -0.237 OA
ATOM     74  O   UNL     1       1.490  11.988   2.937  1.00  0.00    -0.237 OA
ATOM     75  O   UNL     1       1.802  12.862   0.656  1.00  0.00    -0.744 OA
ENDBRANCH  71  72
ENDBRANCH  43  66
BRANCH  55  76
ATOM     76  C   UNL     1      -9.521  10.834   0.611  1.00  0.00    -0.014 A 
ATOM     77  C   UNL     1      -9.680  12.062  -0.055  1.00  0.00     0.010 A 
ATOM     78  C   UNL     1     -10.252  10.591   1.788  1.00  0.00     0.010 A 
ATOM     79  C   UNL     1     -10.521  13.046   0.473  1.00  0.00     0.020 A 
ATOM     80  C   UNL     1     -11.114  11.562   2.304  1.00  0.00     0.020 A 
ATOM     81  C   UNL     1     -11.228  12.791   1.653  1.00  0.00     0.054 A 
BRANCH  81  82
ATOM     82  S   UNL     1     -12.332  14.072   2.309  1.00  0.00     0.124 S 
ATOM     83  O   UNL     1     -11.387  14.999   2.925  1.00  0.00    -0.237 OA
ATOM     84  O   UNL     1     -13.005  14.565   1.109  1.00  0.00    -0.237 OA
ATOM     85  O   UNL     1     -13.190  13.344   3.241  1.00  0.00    -0.744 OA
ENDBRANCH  81  82
ENDBRANCH  55  76
ENDBRANCH  29  30
ENDBRANCH  22  24
ENDBRANCH  21  22
ENDBRANCH  20  21
ENDBRANCH   1  20
TORSDOF 18
