REMARK SMILES CC(C)OCCS(=O)(=O)N1CCC[C@H](C(=O)OCCOCCOC(=O)c2ccc(-c3c4nc(c(-c5ccc(S(=O)(=O)[O-])cc5)c5ccc([nH]5)c(-c5ccc(S(=O)(=O)[O-])cc5)c5nc(c(-c6ccc(S(=O)(=O)[O-])cc6)c6ccc3[nH]6)C=C5)C=C4)cc2)C1
REMARK SMILES IDX 19 1 18 2 17 3 15 4 16 5 14 6 10 7 11 8 86 9 12 10 13 11
REMARK SMILES IDX 7 12 8 13 9 14 6 15 5 16 4 17 2 18 1 19 3 20 20 21 21 22
REMARK SMILES IDX 22 23 23 24 24 25 25 26 26 27 27 28 85 29 28 30 84 31 29 32
REMARK SMILES IDX 30 33 31 34 78 35 32 36 83 37 77 38 79 39 33 40 82 41 76 42
REMARK SMILES IDX 75 43 34 45 64 46 45 47 63 48 46 49 49 50 62 51 80 52 47 53
REMARK SMILES IDX 48 54 61 56 81 57 50 58 35 59 36 60 44 61 37 62 43 63 38 64
REMARK SMILES IDX 39 65 40 66 41 67 42 68 65 69 66 70 74 71 67 72 73 73 68 74
REMARK SMILES IDX 69 75 70 76 71 77 72 78 51 79 52 80 60 81 53 82 59 83 54 84
REMARK SMILES IDX 55 85 56 86 57 87 58 88
REMARK H PARENT 79 44 49 55
REMARK Flexibility Score: inf
ROOT
ATOM      1  C   UNL     1       5.969  -3.585  -0.808  1.00  0.00     0.202 C 
ENDROOT
BRANCH   1   2
ATOM      2  C   UNL     1       5.214  -2.569   0.057  1.00  0.00     0.261 C 
BRANCH   2   3
ATOM      3  O   UNL     1       3.994  -3.088   0.618  1.00  0.00    -0.463 OA
BRANCH   3   4
ATOM      4  C   UNL     1       2.862  -2.579   0.080  1.00  0.00     0.310 C 
ATOM      5  O   UNL     1       2.825  -1.757  -0.834  1.00  0.00    -0.252 OA
BRANCH   4   6
ATOM      6  C   UNL     1       1.581  -3.107   0.689  1.00  0.00     0.114 C 
ATOM      7  N   UNL     1       1.131  -2.148   3.010  1.00  0.00    -0.201 NA
ATOM      8  C   UNL     1       0.932  -3.510   3.535  1.00  0.00     0.102 C 
ATOM      9  C   UNL     1       0.993  -2.007   1.551  1.00  0.00     0.117 C 
ATOM     10  C   UNL     1       1.847  -4.483   2.798  1.00  0.00     0.018 C 
ATOM     11  C   UNL     1       1.547  -4.493   1.310  1.00  0.00     0.018 C 
BRANCH   7  12
ATOM     12  S   UNL     1       0.493  -0.860   3.944  1.00  0.00     0.216 S 
ATOM     13  O   UNL     1       1.300   0.311   3.708  1.00  0.00    -0.212 OA
ATOM     14  O   UNL     1       0.328  -1.361   5.296  1.00  0.00    -0.212 OA
BRANCH  12  15
ATOM     15  C   UNL     1      -1.156  -0.580   3.277  1.00  0.00     0.182 C 
BRANCH  15  16
ATOM     16  C   UNL     1      -1.327   0.581   2.288  1.00  0.00     0.178 C 
BRANCH  16  17
ATOM     17  O   UNL     1      -1.318   0.220   0.901  1.00  0.00    -0.378 OA
BRANCH  17  18
ATOM     18  C   UNL     1      -0.215   0.578   0.054  1.00  0.00     0.112 C 
ATOM     19  C   UNL     1      -0.701   1.313  -1.193  1.00  0.00     0.038 C 
ATOM     20  C   UNL     1       0.928   1.378   0.662  1.00  0.00     0.038 C 
ENDBRANCH  17  18
ENDBRANCH  16  17
ENDBRANCH  15  16
ENDBRANCH  12  15
ENDBRANCH   7  12
ENDBRANCH   4   6
ENDBRANCH   3   4
ENDBRANCH   2   3
ENDBRANCH   1   2
BRANCH   1  21
ATOM     21  O   UNL     1       5.310  -4.111  -1.955  1.00  0.00    -0.374 OA
BRANCH  21  22
ATOM     22  C   UNL     1       4.171  -4.948  -1.774  1.00  0.00     0.202 C 
BRANCH  22  23
ATOM     23  C   UNL     1       4.316  -6.223  -0.931  1.00  0.00     0.261 C 
BRANCH  23  24
ATOM     24  O   UNL     1       4.620  -5.963   0.453  1.00  0.00    -0.460 OA
BRANCH  24  25
ATOM     25  C   UNL     1       5.781  -6.508   0.890  1.00  0.00     0.338 C 
ATOM     26  O   UNL     1       6.546  -7.212   0.252  1.00  0.00    -0.246 OA
BRANCH  25  27
ATOM     27  C   UNL     1       6.128  -6.000   2.228  1.00  0.00     0.060 A 
ATOM     28  C   UNL     1       7.292  -5.230   2.346  1.00  0.00     0.016 A 
ATOM     29  C   UNL     1       5.435  -6.420   3.364  1.00  0.00     0.016 A 
ATOM     30  C   UNL     1       7.806  -4.931   3.605  1.00  0.00     0.010 A 
ATOM     31  C   UNL     1       5.957  -6.122   4.629  1.00  0.00     0.010 A 
ATOM     32  C   UNL     1       7.170  -5.420   4.753  1.00  0.00    -0.014 A 
BRANCH  32  33
ATOM     33  C   UNL     1       7.870  -5.331   6.058  1.00  0.00     0.031 A 
ATOM     34  C   UNL     1       8.559  -6.554   6.606  1.00  0.00     0.074 A 
ATOM     35  C   UNL     1       7.945  -4.161   6.717  1.00  0.00     0.049 A 
ATOM     36  N   UNL     1       9.215  -6.703   7.728  1.00  0.00    -0.248 NA
ATOM     37  C   UNL     1       8.502  -7.771   5.778  1.00  0.00     0.031 C 
ATOM     38  C   UNL     1       7.373  -2.896   6.258  1.00  0.00     0.029 A 
ATOM     39  N   UNL     1       8.538  -3.849   7.914  1.00  0.00    -0.354 N 
ATOM     40  C   UNL     1       9.635  -8.029   7.749  1.00  0.00     0.074 A 
ATOM     41  C   UNL     1       9.137  -8.649   6.541  1.00  0.00     0.031 C 
ATOM     42  C   UNL     1       7.641  -1.942   7.166  1.00  0.00     0.029 A 
ATOM     43  C   UNL     1       8.364  -2.537   8.288  1.00  0.00     0.049 A 
ATOM     44  H   UNL     1       9.039  -4.501   8.454  1.00  0.00     0.167 HD
ATOM     45  C   UNL     1      10.371  -8.670   8.689  1.00  0.00     0.031 A 
ATOM     46  C   UNL     1       8.725  -1.895   9.416  1.00  0.00     0.031 A 
ATOM     47  C   UNL     1      10.857  -8.048   9.893  1.00  0.00     0.049 A 
ATOM     48  C   UNL     1       9.473  -2.651  10.485  1.00  0.00     0.074 A 
ATOM     49  C   UNL     1      11.623  -8.607  10.901  1.00  0.00     0.029 A 
ATOM     50  N   UNL     1      10.619  -6.731  10.257  1.00  0.00    -0.354 N 
ATOM     51  N   UNL     1       9.876  -3.900  10.484  1.00  0.00    -0.248 NA
ATOM     52  C   UNL     1       9.822  -1.907  11.703  1.00  0.00     0.031 C 
ATOM     53  C   UNL     1      11.790  -7.649  11.905  1.00  0.00     0.029 A 
ATOM     54  C   UNL     1      11.194  -6.469  11.490  1.00  0.00     0.049 A 
ATOM     55  H   UNL     1      10.115  -6.078   9.719  1.00  0.00     0.167 HD
ATOM     56  C   UNL     1      10.551  -4.082  11.687  1.00  0.00     0.074 A 
ATOM     57  C   UNL     1      10.515  -2.811  12.381  1.00  0.00     0.031 C 
ATOM     58  C   UNL     1      11.149  -5.199  12.171  1.00  0.00     0.031 A 
BRANCH  45  59
ATOM     59  C   UNL     1      10.660 -10.134   8.475  1.00  0.00    -0.014 A 
ATOM     60  C   UNL     1      11.541 -10.572   7.469  1.00  0.00     0.010 A 
ATOM     61  C   UNL     1      10.071 -11.088   9.326  1.00  0.00     0.010 A 
ATOM     62  C   UNL     1      11.797 -11.936   7.295  1.00  0.00     0.020 A 
ATOM     63  C   UNL     1      10.348 -12.449   9.176  1.00  0.00     0.020 A 
ATOM     64  C   UNL     1      11.197 -12.866   8.150  1.00  0.00     0.054 A 
BRANCH  64  65
ATOM     65  S   UNL     1      11.565 -14.627   7.916  1.00  0.00     0.124 S 
ATOM     66  O   UNL     1      10.861 -14.919   6.670  1.00  0.00    -0.237 OA
ATOM     67  O   UNL     1      13.023 -14.640   7.831  1.00  0.00    -0.237 OA
ATOM     68  O   UNL     1      11.007 -15.261   9.108  1.00  0.00    -0.744 OA
ENDBRANCH  64  65
ENDBRANCH  45  59
BRANCH  46  69
ATOM     69  C   UNL     1       8.361  -0.464   9.604  1.00  0.00    -0.014 A 
ATOM     70  C   UNL     1       9.350   0.534   9.636  1.00  0.00     0.010 A 
ATOM     71  C   UNL     1       7.011  -0.090   9.750  1.00  0.00     0.010 A 
ATOM     72  C   UNL     1       8.999   1.874   9.826  1.00  0.00     0.020 A 
ATOM     73  C   UNL     1       6.653   1.251   9.908  1.00  0.00     0.020 A 
ATOM     74  C   UNL     1       7.652   2.225   9.958  1.00  0.00     0.054 A 
BRANCH  74  75
ATOM     75  S   UNL     1       7.220   3.975  10.158  1.00  0.00     0.124 S 
ATOM     76  O   UNL     1       7.693   4.252  11.511  1.00  0.00    -0.237 OA
ATOM     77  O   UNL     1       7.977   4.610   9.082  1.00  0.00    -0.237 OA
ATOM     78  O   UNL     1       5.770   3.994   9.986  1.00  0.00    -0.744 OA
ENDBRANCH  74  75
ENDBRANCH  46  69
BRANCH  58  79
ATOM     79  C   UNL     1      11.853  -5.093  13.501  1.00  0.00    -0.014 A 
ATOM     80  C   UNL     1      11.136  -4.950  14.702  1.00  0.00     0.010 A 
ATOM     81  C   UNL     1      13.256  -5.196  13.550  1.00  0.00     0.010 A 
ATOM     82  C   UNL     1      11.812  -4.878  15.924  1.00  0.00     0.020 A 
ATOM     83  C   UNL     1      13.932  -5.158  14.772  1.00  0.00     0.020 A 
ATOM     84  C   UNL     1      13.206  -4.984  15.951  1.00  0.00     0.054 A 
BRANCH  84  85
ATOM     85  S   UNL     1      14.054  -4.932  17.554  1.00  0.00     0.124 S 
ATOM     86  O   UNL     1      13.913  -3.528  17.928  1.00  0.00    -0.237 OA
ATOM     87  O   UNL     1      13.280  -5.877  18.356  1.00  0.00    -0.237 OA
ATOM     88  O   UNL     1      15.416  -5.359  17.241  1.00  0.00    -0.744 OA
ENDBRANCH  84  85
ENDBRANCH  58  79
ENDBRANCH  32  33
ENDBRANCH  25  27
ENDBRANCH  24  25
ENDBRANCH  23  24
ENDBRANCH  22  23
ENDBRANCH  21  22
ENDBRANCH   1  21
TORSDOF 22
