REMARK SMILES CC[C@@](O)(C(=O)OCCOCCOC(=O)c1ccc(-c2c3nc(c(-c4ccc(S(=O)(=O)[O-])cc4)c4ccc([nH]4)c(-c4ccc(S(=O)(=O)[O-])cc4)c4nc(c(-c5ccc(S(=O)(=O)[O-])cc5)c5ccc2[nH]5)C=C4)C=C3)cc1)[C@@H](C)c1ccc(OC)c(OC)c1
REMARK SMILES IDX 10 1 9 2 8 3 7 4 5 5 6 6 3 7 2 8 1 9 4 10 76 12 77 13 78 14
REMARK SMILES IDX 79 15 87 16 80 17 84 18 81 19 85 20 86 21 82 22 83 23 11 24
REMARK SMILES IDX 12 25 13 26 14 27 15 28 16 29 17 30 75 31 18 32 74 33 19 34
REMARK SMILES IDX 20 35 21 36 68 37 22 38 73 39 67 40 69 41 23 42 72 43 66 44
REMARK SMILES IDX 65 45 24 47 54 48 35 49 53 50 36 51 39 52 52 53 70 54 37 55
REMARK SMILES IDX 38 56 51 58 71 59 40 60 25 61 26 62 34 63 27 64 33 65 28 66
REMARK SMILES IDX 29 67 30 68 31 69 32 70 55 71 56 72 64 73 57 74 63 75 58 76
REMARK SMILES IDX 59 77 60 78 61 79 62 80 41 81 42 82 50 83 43 84 49 85 44 86
REMARK SMILES IDX 45 87 46 88 47 89 48 90
REMARK H PARENT 4 11 69 46 39 57
REMARK Flexibility Score: inf
ROOT
ATOM      1  O   UNL     1       0.444   0.519  -6.266  1.00  0.00    -0.374 OA
ENDROOT
BRANCH   1   2
ATOM      2  C   UNL     1      -0.760  -0.230  -6.074  1.00  0.00     0.202 C 
BRANCH   2   3
ATOM      3  C   UNL     1      -0.603  -1.600  -5.408  1.00  0.00     0.261 C 
BRANCH   3   4
ATOM      4  O   UNL     1      -0.289  -1.439  -4.013  1.00  0.00    -0.461 OA
BRANCH   4   5
ATOM      5  C   UNL     1       0.888  -1.971  -3.583  1.00  0.00     0.338 C 
ATOM      6  O   UNL     1       1.625  -2.656  -4.285  1.00  0.00    -0.249 OA
BRANCH   5   7
ATOM      7  C   UNL     1       1.214  -1.581  -2.107  1.00  0.00     0.168 C 
BRANCH   7   8
ATOM      8  C   UNL     1       0.387  -0.355  -1.613  1.00  0.00     0.044 C 
ATOM      9  C   UNL     1       0.255  -0.136  -0.108  1.00  0.00     0.007 C 
ENDBRANCH   7   8
BRANCH   7  10
ATOM     10  O   UNL     1       0.787  -2.746  -1.370  1.00  0.00    -0.378 OA
ATOM     11  H   UNL     1      -0.177  -2.828  -1.426  1.00  0.00     0.212 HD
ENDBRANCH   7  10
BRANCH   7  12
ATOM     12  C   UNL     1       2.788  -1.424  -2.030  1.00  0.00     0.059 C 
ATOM     13  C   UNL     1       3.344  -0.299  -2.926  1.00  0.00     0.016 C 
BRANCH  12  14
ATOM     14  C   UNL     1       3.336  -1.352  -0.609  1.00  0.00    -0.038 A 
ATOM     15  C   UNL     1       3.480  -2.539   0.115  1.00  0.00     0.008 A 
ATOM     16  C   UNL     1       3.682  -0.144   0.018  1.00  0.00     0.054 A 
ATOM     17  C   UNL     1       3.886  -2.507   1.445  1.00  0.00     0.051 A 
ATOM     18  C   UNL     1       4.066  -0.094   1.369  1.00  0.00     0.160 A 
ATOM     19  C   UNL     1       4.167  -1.296   2.090  1.00  0.00     0.160 A 
BRANCH  18  20
ATOM     20  O   UNL     1       4.351   1.087   2.002  1.00  0.00    -0.493 OA
ATOM     21  C   UNL     1       3.869   2.288   1.409  1.00  0.00     0.278 C 
ENDBRANCH  18  20
BRANCH  19  22
ATOM     22  O   UNL     1       4.506  -1.487   3.403  1.00  0.00    -0.493 OA
ATOM     23  C   UNL     1       4.754  -0.353   4.216  1.00  0.00     0.278 C 
ENDBRANCH  19  22
ENDBRANCH  12  14
ENDBRANCH   7  12
ENDBRANCH   5   7
ENDBRANCH   4   5
ENDBRANCH   3   4
ENDBRANCH   2   3
ENDBRANCH   1   2
BRANCH   1  24
ATOM     24  C   UNL     1       1.002   1.151  -5.118  1.00  0.00     0.202 C 
BRANCH  24  25
ATOM     25  C   UNL     1       0.418   2.508  -4.711  1.00  0.00     0.261 C 
BRANCH  25  26
ATOM     26  O   UNL     1      -0.983   2.427  -4.415  1.00  0.00    -0.460 OA
BRANCH  26  27
ATOM     27  C   UNL     1      -1.779   2.914  -5.395  1.00  0.00     0.338 C 
ATOM     28  O   UNL     1      -1.423   3.496  -6.412  1.00  0.00    -0.246 OA
BRANCH  27  29
ATOM     29  C   UNL     1      -3.171   2.490  -5.175  1.00  0.00     0.060 A 
ATOM     30  C   UNL     1      -3.831   1.891  -6.256  1.00  0.00     0.016 A 
ATOM     31  C   UNL     1      -3.839   2.722  -3.971  1.00  0.00     0.016 A 
ATOM     32  C   UNL     1      -5.182   1.579  -6.158  1.00  0.00     0.010 A 
ATOM     33  C   UNL     1      -5.200   2.414  -3.877  1.00  0.00     0.010 A 
ATOM     34  C   UNL     1      -5.884   1.881  -4.985  1.00  0.00    -0.014 A 
BRANCH  34  35
ATOM     35  C   UNL     1      -7.363   1.792  -4.989  1.00  0.00     0.031 A 
ATOM     36  C   UNL     1      -8.162   3.051  -5.190  1.00  0.00     0.074 A 
ATOM     37  C   UNL     1      -7.980   0.604  -4.872  1.00  0.00     0.049 A 
ATOM     38  N   UNL     1      -9.459   3.209  -5.234  1.00  0.00    -0.248 NA
ATOM     39  C   UNL     1      -7.397   4.297  -5.368  1.00  0.00     0.031 C 
ATOM     40  C   UNL     1      -7.307  -0.687  -4.724  1.00  0.00     0.029 A 
ATOM     41  N   UNL     1      -9.315   0.291  -4.863  1.00  0.00    -0.354 N 
ATOM     42  C   UNL     1      -9.667   4.569  -5.437  1.00  0.00     0.074 A 
ATOM     43  C   UNL     1      -8.364   5.196  -5.477  1.00  0.00     0.031 C 
ATOM     44  C   UNL     1      -8.237  -1.654  -4.635  1.00  0.00     0.029 A 
ATOM     45  C   UNL     1      -9.566  -1.048  -4.688  1.00  0.00     0.049 A 
ATOM     46  H   UNL     1     -10.027   0.963  -4.972  1.00  0.00     0.167 HD
ATOM     47  C   UNL     1     -10.837   5.234  -5.583  1.00  0.00     0.031 A 
ATOM     48  C   UNL     1     -10.735  -1.706  -4.565  1.00  0.00     0.031 A 
ATOM     49  C   UNL     1     -12.130   4.606  -5.529  1.00  0.00     0.049 A 
ATOM     50  C   UNL     1     -12.025  -0.934  -4.656  1.00  0.00     0.074 A 
ATOM     51  C   UNL     1     -13.377   5.189  -5.673  1.00  0.00     0.029 A 
ATOM     52  N   UNL     1     -12.343   3.254  -5.306  1.00  0.00    -0.354 N 
ATOM     53  N   UNL     1     -12.205   0.349  -4.867  1.00  0.00    -0.248 NA
ATOM     54  C   UNL     1     -13.270  -1.700  -4.503  1.00  0.00     0.031 C 
ATOM     55  C   UNL     1     -14.345   4.199  -5.481  1.00  0.00     0.029 A 
ATOM     56  C   UNL     1     -13.701   2.987  -5.281  1.00  0.00     0.049 A 
ATOM     57  H   UNL     1     -11.633   2.583  -5.184  1.00  0.00     0.167 HD
ATOM     58  C   UNL     1     -13.583   0.538  -4.898  1.00  0.00     0.074 A 
ATOM     59  C   UNL     1     -14.188  -0.763  -4.698  1.00  0.00     0.031 C 
ATOM     60  C   UNL     1     -14.285   1.685  -5.078  1.00  0.00     0.031 A 
BRANCH  47  61
ATOM     61  C   UNL     1     -10.769   6.726  -5.779  1.00  0.00    -0.014 A 
ATOM     62  C   UNL     1     -10.296   7.286  -6.979  1.00  0.00     0.010 A 
ATOM     63  C   UNL     1     -11.215   7.582  -4.755  1.00  0.00     0.010 A 
ATOM     64  C   UNL     1     -10.234   8.674  -7.137  1.00  0.00     0.020 A 
ATOM     65  C   UNL     1     -11.181   8.969  -4.918  1.00  0.00     0.020 A 
ATOM     66  C   UNL     1     -10.674   9.507  -6.103  1.00  0.00     0.054 A 
BRANCH  66  67
ATOM     67  S   UNL     1     -10.599  11.303  -6.341  1.00  0.00     0.124 S 
ATOM     68  O   UNL     1      -9.163  11.559  -6.250  1.00  0.00    -0.237 OA
ATOM     69  O   UNL     1     -11.184  11.476  -7.668  1.00  0.00    -0.237 OA
ATOM     70  O   UNL     1     -11.396  11.834  -5.237  1.00  0.00    -0.744 OA
ENDBRANCH  66  67
ENDBRANCH  47  61
BRANCH  48  71
ATOM     71  C   UNL     1     -10.737  -3.175  -4.321  1.00  0.00    -0.014 A 
ATOM     72  C   UNL     1     -11.193  -4.069  -5.305  1.00  0.00     0.010 A 
ATOM     73  C   UNL     1     -10.275  -3.687  -3.094  1.00  0.00     0.010 A 
ATOM     74  C   UNL     1     -11.199  -5.447  -5.061  1.00  0.00     0.020 A 
ATOM     75  C   UNL     1     -10.253  -5.063  -2.857  1.00  0.00     0.020 A 
ATOM     76  C   UNL     1     -10.726  -5.935  -3.839  1.00  0.00     0.054 A 
BRANCH  76  77
ATOM     77  S   UNL     1     -10.695  -7.728  -3.565  1.00  0.00     0.124 S 
ATOM     78  O   UNL     1     -12.111  -8.031  -3.376  1.00  0.00    -0.237 OA
ATOM     79  O   UNL     1     -10.100  -8.226  -4.802  1.00  0.00    -0.237 OA
ATOM     80  O   UNL     1      -9.859  -7.877  -2.376  1.00  0.00    -0.744 OA
ENDBRANCH  76  77
ENDBRANCH  48  71
BRANCH  60  81
ATOM     81  C   UNL     1     -15.788   1.583  -5.103  1.00  0.00    -0.014 A 
ATOM     82  C   UNL     1     -16.523   1.337  -3.931  1.00  0.00     0.010 A 
ATOM     83  C   UNL     1     -16.476   1.796  -6.312  1.00  0.00     0.010 A 
ATOM     84  C   UNL     1     -17.919   1.275  -3.973  1.00  0.00     0.020 A 
ATOM     85  C   UNL     1     -17.872   1.762  -6.354  1.00  0.00     0.020 A 
ATOM     86  C   UNL     1     -18.584   1.488  -5.185  1.00  0.00     0.054 A 
BRANCH  86  87
ATOM     87  S   UNL     1     -20.397   1.444  -5.205  1.00  0.00     0.124 S 
ATOM     88  O   UNL     1     -20.669   0.016  -5.074  1.00  0.00    -0.237 OA
ATOM     89  O   UNL     1     -20.751   2.260  -4.046  1.00  0.00    -0.237 OA
ATOM     90  O   UNL     1     -20.744   2.028  -6.499  1.00  0.00    -0.744 OA
ENDBRANCH  86  87
ENDBRANCH  60  81
ENDBRANCH  34  35
ENDBRANCH  27  29
ENDBRANCH  26  27
ENDBRANCH  25  26
ENDBRANCH  24  25
ENDBRANCH   1  24
TORSDOF 23
