REMARK SMILES C[C@@H](C(=O)OCCOCCOC(=O)c1ccc(-c2c3nc(c(-c4ccc(S(=O)(=O)[O-])cc4)c4ccc([nH]4)c(-c4ccc(S(=O)(=O)[O-])cc4)c4nc(c(-c5ccc(S(=O)(=O)[O-])cc5)c5ccc2[nH]5)C=C4)C=C3)cc1)N1C(=O)/C(=C\c2ccc(OCc3ccccc3Cl)cc2)SC1=S
REMARK SMILES IDX 7 1 6 2 5 3 3 4 4 5 2 6 1 7 74 8 75 9 95 10 76 11 77 12
REMARK SMILES IDX 94 13 96 14 78 15 79 16 80 17 93 18 81 19 92 20 82 21 83 22
REMARK SMILES IDX 84 23 85 24 86 25 90 26 87 27 89 28 91 29 88 30 8 31 9 32
REMARK SMILES IDX 10 33 11 34 12 35 13 36 14 37 15 38 73 39 16 40 72 41 17 42
REMARK SMILES IDX 18 43 19 44 66 45 20 46 71 47 65 48 67 49 21 50 70 51 64 52
REMARK SMILES IDX 63 53 22 55 52 56 33 57 51 58 34 59 37 60 50 61 68 62 35 63
REMARK SMILES IDX 36 64 49 66 69 67 38 68 23 69 24 70 32 71 25 72 31 73 26 74
REMARK SMILES IDX 27 75 28 76 29 77 30 78 53 79 54 80 62 81 55 82 61 83 56 84
REMARK SMILES IDX 57 85 58 86 59 87 60 88 39 89 40 90 48 91 41 92 47 93 42 94
REMARK SMILES IDX 43 95 44 96 45 97 46 98
REMARK H PARENT 67 54 37 65
REMARK Flexibility Score: inf
ROOT
ATOM      1  C   UNL     1       2.338   4.357   1.233  1.00  0.00     0.202 C 
ENDROOT
BRANCH   1   2
ATOM      2  C   UNL     1       2.162   3.436   2.449  1.00  0.00     0.261 C 
BRANCH   2   3
ATOM      3  O   UNL     1       1.834   2.115   1.990  1.00  0.00    -0.462 OA
BRANCH   3   4
ATOM      4  C   UNL     1       1.018   1.370   2.782  1.00  0.00     0.329 C 
ATOM      5  O   UNL     1       0.790   1.590   3.964  1.00  0.00    -0.250 OA
BRANCH   4   6
ATOM      6  C   UNL     1       0.319   0.272   1.964  1.00  0.00     0.199 C 
ATOM      7  C   UNL     1       0.941  -0.009   0.583  1.00  0.00     0.044 C 
BRANCH   6   8
ATOM      8  N   UNL     1      -1.171   0.336   1.895  1.00  0.00    -0.279 N 
ATOM      9  C   UNL     1      -1.817  -0.867   1.644  1.00  0.00     0.266 C 
ATOM     10  C   UNL     1      -1.981   1.455   1.858  1.00  0.00     0.149 C 
ATOM     11  O   UNL     1      -1.254  -1.946   1.520  1.00  0.00    -0.268 OA
ATOM     12  C   UNL     1      -3.286  -0.662   1.464  1.00  0.00     0.081 C 
ATOM     13  S   UNL     1      -3.621   1.015   1.381  1.00  0.00    -0.054 SA
ATOM     14  S   UNL     1      -1.674   3.045   2.237  1.00  0.00    -0.052 S 
ATOM     15  C   UNL     1      -4.252  -1.589   1.389  1.00  0.00     0.029 C 
BRANCH  15  16
ATOM     16  C   UNL     1      -4.000  -3.019   1.536  1.00  0.00    -0.024 A 
ATOM     17  C   UNL     1      -4.112  -3.864   0.432  1.00  0.00     0.012 A 
ATOM     18  C   UNL     1      -3.551  -3.527   2.761  1.00  0.00     0.012 A 
ATOM     19  C   UNL     1      -3.658  -5.178   0.526  1.00  0.00     0.047 A 
ATOM     20  C   UNL     1      -3.093  -4.841   2.850  1.00  0.00     0.047 A 
ATOM     21  C   UNL     1      -3.081  -5.644   1.711  1.00  0.00     0.119 A 
BRANCH  21  22
ATOM     22  O   UNL     1      -2.443  -6.845   1.588  1.00  0.00    -0.489 OA
BRANCH  22  23
ATOM     23  C   UNL     1      -1.436  -7.200   2.546  1.00  0.00     0.267 C 
BRANCH  23  24
ATOM     24  C   UNL     1      -0.065  -6.551   2.394  1.00  0.00     0.008 A 
ATOM     25  C   UNL     1       0.101  -5.264   1.849  1.00  0.00     0.009 A 
ATOM     26  C   UNL     1       1.089  -7.186   2.893  1.00  0.00     0.047 A 
ATOM     27  C   UNL     1       1.348  -4.632   1.815  1.00  0.00     0.001 A 
ATOM     28  C   UNL     1       2.343  -6.562   2.839  1.00  0.00     0.021 A 
ATOM     29  Cl  UNL     1       1.031  -8.757   3.618  1.00  0.00    -0.084 Cl
ATOM     30  C   UNL     1       2.471  -5.281   2.309  1.00  0.00     0.002 A 
ENDBRANCH  23  24
ENDBRANCH  22  23
ENDBRANCH  21  22
ENDBRANCH  15  16
ENDBRANCH   6   8
ENDBRANCH   4   6
ENDBRANCH   3   4
ENDBRANCH   2   3
ENDBRANCH   1   2
BRANCH   1  31
ATOM     31  O   UNL     1       1.161   4.642   0.468  1.00  0.00    -0.374 OA
BRANCH  31  32
ATOM     32  C   UNL     1       0.651   3.605  -0.368  1.00  0.00     0.202 C 
BRANCH  32  33
ATOM     33  C   UNL     1       1.276   3.445  -1.755  1.00  0.00     0.261 C 
BRANCH  33  34
ATOM     34  O   UNL     1       2.683   3.190  -1.690  1.00  0.00    -0.460 OA
BRANCH  34  35
ATOM     35  C   UNL     1       3.444   4.282  -1.937  1.00  0.00     0.338 C 
ATOM     36  O   UNL     1       3.057   5.391  -2.283  1.00  0.00    -0.246 OA
BRANCH  35  37
ATOM     37  C   UNL     1       4.838   4.010  -1.559  1.00  0.00     0.060 A 
ATOM     38  C   UNL     1       5.478   4.957  -0.750  1.00  0.00     0.016 A 
ATOM     39  C   UNL     1       5.523   2.885  -2.025  1.00  0.00     0.016 A 
ATOM     40  C   UNL     1       6.828   4.816  -0.455  1.00  0.00     0.010 A 
ATOM     41  C   UNL     1       6.882   2.749  -1.732  1.00  0.00     0.010 A 
ATOM     42  C   UNL     1       7.546   3.736  -0.982  1.00  0.00    -0.014 A 
BRANCH  42  43
ATOM     43  C   UNL     1       9.023   3.736  -0.888  1.00  0.00     0.031 A 
ATOM     44  C   UNL     1       9.820   4.194  -2.079  1.00  0.00     0.074 A 
ATOM     45  C   UNL     1       9.636   3.373   0.251  1.00  0.00     0.049 A 
ATOM     46  N   UNL     1      11.116   4.268  -2.226  1.00  0.00    -0.248 NA
ATOM     47  C   UNL     1       9.053   4.625  -3.260  1.00  0.00     0.031 C 
ATOM     48  C   UNL     1       8.961   2.960   1.482  1.00  0.00     0.029 A 
ATOM     49  N   UNL     1      10.971   3.298   0.557  1.00  0.00    -0.354 N 
ATOM     50  C   UNL     1      11.322   4.742  -3.517  1.00  0.00     0.074 A 
ATOM     51  C   UNL     1      10.019   4.912  -4.121  1.00  0.00     0.031 C 
ATOM     52  C   UNL     1       9.889   2.672   2.411  1.00  0.00     0.029 A 
ATOM     53  C   UNL     1      11.219   2.848   1.831  1.00  0.00     0.049 A 
ATOM     54  H   UNL     1      11.684   3.543  -0.077  1.00  0.00     0.167 HD
ATOM     55  C   UNL     1      12.492   5.014  -4.141  1.00  0.00     0.031 A 
ATOM     56  C   UNL     1      12.387   2.591   2.450  1.00  0.00     0.031 A 
ATOM     57  C   UNL     1      13.784   4.834  -3.535  1.00  0.00     0.049 A 
ATOM     58  C   UNL     1      13.677   2.836   1.710  1.00  0.00     0.074 A 
ATOM     59  C   UNL     1      15.030   5.098  -4.073  1.00  0.00     0.029 A 
ATOM     60  N   UNL     1      13.994   4.337  -2.257  1.00  0.00    -0.354 N 
ATOM     61  N   UNL     1      13.855   3.307   0.498  1.00  0.00    -0.248 NA
ATOM     62  C   UNL     1      14.921   2.521   2.424  1.00  0.00     0.031 C 
ATOM     63  C   UNL     1      15.998   4.705  -3.142  1.00  0.00     0.029 A 
ATOM     64  C   UNL     1      15.352   4.258  -2.000  1.00  0.00     0.049 A 
ATOM     65  H   UNL     1      13.284   4.079  -1.627  1.00  0.00     0.167 HD
ATOM     66  C   UNL     1      15.233   3.373   0.317  1.00  0.00     0.074 A 
ATOM     67  C   UNL     1      15.839   2.905   1.547  1.00  0.00     0.031 C 
ATOM     68  C   UNL     1      15.934   3.788  -0.768  1.00  0.00     0.031 A 
BRANCH  55  69
ATOM     69  C   UNL     1      12.428   5.497  -5.566  1.00  0.00    -0.014 A 
ATOM     70  C   UNL     1      11.964   6.787  -5.882  1.00  0.00     0.010 A 
ATOM     71  C   UNL     1      12.875   4.658  -6.602  1.00  0.00     0.010 A 
ATOM     72  C   UNL     1      11.917   7.215  -7.212  1.00  0.00     0.020 A 
ATOM     73  C   UNL     1      12.855   5.092  -7.930  1.00  0.00     0.020 A 
ATOM     74  C   UNL     1      12.361   6.363  -8.228  1.00  0.00     0.054 A 
BRANCH  74  75
ATOM     75  S   UNL     1      12.314   6.954  -9.942  1.00  0.00     0.124 S 
ATOM     76  O   UNL     1      10.882   6.930 -10.230  1.00  0.00    -0.237 OA
ATOM     77  O   UNL     1      12.912   8.283  -9.840  1.00  0.00    -0.237 OA
ATOM     78  O   UNL     1      13.111   5.970 -10.671  1.00  0.00    -0.744 OA
ENDBRANCH  74  75
ENDBRANCH  55  69
BRANCH  56  79
ATOM     79  C   UNL     1      12.393   2.058   3.840  1.00  0.00    -0.014 A 
ATOM     80  C   UNL     1      12.857   2.844   4.909  1.00  0.00     0.010 A 
ATOM     81  C   UNL     1      11.931   0.755   4.099  1.00  0.00     0.010 A 
ATOM     82  C   UNL     1      12.876   2.329   6.209  1.00  0.00     0.020 A 
ATOM     83  C   UNL     1      11.921   0.247   5.401  1.00  0.00     0.020 A 
ATOM     84  C   UNL     1      12.406   1.034   6.447  1.00  0.00     0.054 A 
BRANCH  84  85
ATOM     85  S   UNL     1      12.395   0.404   8.149  1.00  0.00     0.124 S 
ATOM     86  O   UNL     1      13.813   0.155   8.388  1.00  0.00    -0.237 OA
ATOM     87  O   UNL     1      11.812   1.518   8.893  1.00  0.00    -0.237 OA
ATOM     88  O   UNL     1      11.554  -0.788   8.066  1.00  0.00    -0.744 OA
ENDBRANCH  84  85
ENDBRANCH  56  79
BRANCH  68  89
ATOM     89  C   UNL     1      17.436   3.790  -0.663  1.00  0.00    -0.014 A 
ATOM     90  C   UNL     1      18.172   2.592  -0.668  1.00  0.00     0.010 A 
ATOM     91  C   UNL     1      18.124   5.017  -0.617  1.00  0.00     0.010 A 
ATOM     92  C   UNL     1      19.567   2.620  -0.598  1.00  0.00     0.020 A 
ATOM     93  C   UNL     1      19.520   5.050  -0.577  1.00  0.00     0.020 A 
ATOM     94  C   UNL     1      20.232   3.850  -0.552  1.00  0.00     0.054 A 
BRANCH  94  95
ATOM     95  S   UNL     1      22.045   3.861  -0.505  1.00  0.00     0.124 S 
ATOM     96  O   UNL     1      22.316   3.437   0.866  1.00  0.00    -0.237 OA
ATOM     97  O   UNL     1      22.399   2.895  -1.543  1.00  0.00    -0.237 OA
ATOM     98  O   UNL     1      22.392   5.247  -0.809  1.00  0.00    -0.744 OA
ENDBRANCH  94  95
ENDBRANCH  68  89
ENDBRANCH  42  43
ENDBRANCH  35  37
ENDBRANCH  34  35
ENDBRANCH  33  34
ENDBRANCH  32  33
ENDBRANCH  31  32
ENDBRANCH   1  31
TORSDOF 22
