REMARK SMILES O=C(Cn1cnc(-c2ccccc2)c1-c1ccccc1)OCCOCCOC(=O)c1ccc(-c2c3nc(c(-c4ccc(S(=O)(=O)[O-])cc4)c4ccc([nH]4)c(-c4ccc(S(=O)(=O)[O-])cc4)c4nc(c(-c5ccc(S(=O)(=O)[O-])cc5)c5ccc2[nH]5)C=C4)C=C3)cc1
REMARK SMILES IDX 25 1 24 2 23 3 22 4 21 5 2 6 1 7 3 8 4 9 5 10 14 11 6 12
REMARK SMILES IDX 7 13 15 14 16 15 20 16 17 17 19 18 18 19 8 20 9 21 13 22
REMARK SMILES IDX 10 23 12 24 11 25 26 26 27 27 28 28 29 29 30 30 31 31 89 32
REMARK SMILES IDX 32 33 88 34 33 35 34 36 35 37 82 38 36 39 87 40 81 41 83 42
REMARK SMILES IDX 37 43 86 44 80 45 79 46 38 48 68 49 49 50 67 51 50 52 53 53
REMARK SMILES IDX 66 54 84 55 51 56 52 57 65 59 85 60 54 61 39 62 40 63 48 64
REMARK SMILES IDX 41 65 47 66 42 67 43 68 44 69 45 70 46 71 69 72 70 73 78 74
REMARK SMILES IDX 71 75 77 76 72 77 73 78 74 79 75 80 76 81 55 82 56 83 64 84
REMARK SMILES IDX 57 85 63 86 58 87 59 88 60 89 61 90 62 91
REMARK H PARENT 83 47 53 58
REMARK Flexibility Score: inf
ROOT
ATOM      1  C   UNL     1       3.210   1.603   1.942  1.00  0.00     0.202 C 
ENDROOT
BRANCH   1   2
ATOM      2  O   UNL     1       4.492   1.182   1.449  1.00  0.00    -0.374 OA
BRANCH   2   3
ATOM      3  C   UNL     1       4.839   1.325   0.070  1.00  0.00     0.202 C 
BRANCH   3   4
ATOM      4  C   UNL     1       4.179   0.440  -0.986  1.00  0.00     0.261 C 
BRANCH   4   5
ATOM      5  O   UNL     1       2.760   0.329  -0.879  1.00  0.00    -0.462 OA
BRANCH   5   6
ATOM      6  C   UNL     1       2.140  -0.638  -0.165  1.00  0.00     0.326 C 
ATOM      7  O   UNL     1       0.953  -0.868  -0.392  1.00  0.00    -0.250 OA
BRANCH   6   8
ATOM      8  C   UNL     1       2.858  -1.310   0.983  1.00  0.00     0.246 C 
BRANCH   8   9
ATOM      9  N   UNL     1       3.688  -2.425   0.614  1.00  0.00    -0.319 N 
ATOM     10  C   UNL     1       5.048  -2.385   0.464  1.00  0.00     0.201 A 
ATOM     11  C   UNL     1       3.308  -3.740   0.636  1.00  0.00     0.076 A 
ATOM     12  N   UNL     1       5.517  -3.548   0.090  1.00  0.00    -0.236 NA
ATOM     13  C   UNL     1       4.439  -4.394   0.177  1.00  0.00     0.096 A 
BRANCH  11  14
ATOM     14  C   UNL     1       2.071  -4.209   1.252  1.00  0.00     0.000 A 
ATOM     15  C   UNL     1       2.150  -4.921   2.455  1.00  0.00     0.010 A 
ATOM     16  C   UNL     1       0.817  -3.852   0.749  1.00  0.00     0.010 A 
ATOM     17  C   UNL     1       0.992  -5.253   3.156  1.00  0.00     0.001 A 
ATOM     18  C   UNL     1      -0.340  -4.161   1.464  1.00  0.00     0.001 A 
ATOM     19  C   UNL     1      -0.253  -4.863   2.665  1.00  0.00     0.000 A 
ENDBRANCH  11  14
BRANCH  13  20
ATOM     20  C   UNL     1       4.530  -5.811  -0.043  1.00  0.00     0.002 A 
ATOM     21  C   UNL     1       5.630  -6.518   0.443  1.00  0.00     0.010 A 
ATOM     22  C   UNL     1       3.495  -6.480  -0.705  1.00  0.00     0.010 A 
ATOM     23  C   UNL     1       5.667  -7.903   0.313  1.00  0.00     0.001 A 
ATOM     24  C   UNL     1       3.534  -7.862  -0.834  1.00  0.00     0.001 A 
ATOM     25  C   UNL     1       4.615  -8.573  -0.316  1.00  0.00     0.000 A 
ENDBRANCH  13  20
ENDBRANCH   8   9
ENDBRANCH   6   8
ENDBRANCH   5   6
ENDBRANCH   4   5
ENDBRANCH   3   4
ENDBRANCH   2   3
ENDBRANCH   1   2
BRANCH   1  26
ATOM     26  C   UNL     1       3.003   3.055   2.292  1.00  0.00     0.261 C 
BRANCH  26  27
ATOM     27  O   UNL     1       3.126   3.805   1.111  1.00  0.00    -0.460 OA
BRANCH  27  28
ATOM     28  C   UNL     1       4.387   4.212   0.846  1.00  0.00     0.338 C 
ATOM     29  O   UNL     1       5.388   4.005   1.498  1.00  0.00    -0.246 OA
BRANCH  28  30
ATOM     30  C   UNL     1       4.311   5.027  -0.376  1.00  0.00     0.060 A 
ATOM     31  C   UNL     1       5.370   5.920  -0.477  1.00  0.00     0.016 A 
ATOM     32  C   UNL     1       3.030   5.295  -0.877  1.00  0.00     0.016 A 
ATOM     33  C   UNL     1       5.035   7.234  -0.652  1.00  0.00     0.010 A 
ATOM     34  C   UNL     1       2.685   6.609  -0.986  1.00  0.00     0.010 A 
ATOM     35  C   UNL     1       3.678   7.560  -0.768  1.00  0.00    -0.014 A 
BRANCH  35  36
ATOM     36  C   UNL     1       3.326   8.945  -0.899  1.00  0.00     0.031 A 
ATOM     37  C   UNL     1       3.492   9.350  -2.306  1.00  0.00     0.074 A 
ATOM     38  C   UNL     1       2.823   9.697   0.090  1.00  0.00     0.049 A 
ATOM     39  N   UNL     1       4.585   9.786  -2.840  1.00  0.00    -0.248 NA
ATOM     40  C   UNL     1       2.492   8.869  -3.279  1.00  0.00     0.031 C 
ATOM     41  C   UNL     1       2.337   9.307   1.413  1.00  0.00     0.029 A 
ATOM     42  N   UNL     1       2.564  11.024   0.055  1.00  0.00    -0.354 N 
ATOM     43  C   UNL     1       4.279   9.909  -4.183  1.00  0.00     0.074 A 
ATOM     44  C   UNL     1       3.174   9.017  -4.415  1.00  0.00     0.031 C 
ATOM     45  C   UNL     1       1.622  10.334   1.939  1.00  0.00     0.029 A 
ATOM     46  C   UNL     1       1.720  11.485   1.052  1.00  0.00     0.049 A 
ATOM     47  H   UNL     1       2.949  11.619  -0.629  1.00  0.00     0.167 HD
ATOM     48  C   UNL     1       4.656  11.013  -4.881  1.00  0.00     0.031 A 
ATOM     49  C   UNL     1       1.103  12.697   1.058  1.00  0.00     0.031 A 
ATOM     50  C   UNL     1       5.612  11.799  -4.135  1.00  0.00     0.049 A 
ATOM     51  C   UNL     1       1.838  13.560   0.087  1.00  0.00     0.074 A 
ATOM     52  C   UNL     1       6.859  11.557  -3.594  1.00  0.00     0.029 A 
ATOM     53  N   UNL     1       5.108  12.900  -3.476  1.00  0.00    -0.354 N 
ATOM     54  N   UNL     1       3.070  13.950   0.271  1.00  0.00    -0.248 NA
ATOM     55  C   UNL     1       1.394  13.556  -1.301  1.00  0.00     0.031 C 
ATOM     56  C   UNL     1       6.864  12.248  -2.348  1.00  0.00     0.029 A 
ATOM     57  C   UNL     1       5.660  12.947  -2.222  1.00  0.00     0.049 A 
ATOM     58  H   UNL     1       4.461  13.544  -3.844  1.00  0.00     0.167 HD
ATOM     59  C   UNL     1       3.680  13.818  -0.970  1.00  0.00     0.074 A 
ATOM     60  C   UNL     1       2.578  13.650  -1.917  1.00  0.00     0.031 C 
ATOM     61  C   UNL     1       5.017  13.553  -1.073  1.00  0.00     0.031 A 
BRANCH  48  62
ATOM     62  C   UNL     1       3.813  11.614  -5.977  1.00  0.00    -0.014 A 
ATOM     63  C   UNL     1       4.320  12.729  -6.667  1.00  0.00     0.010 A 
ATOM     64  C   UNL     1       2.454  11.296  -6.187  1.00  0.00     0.010 A 
ATOM     65  C   UNL     1       3.492  13.515  -7.476  1.00  0.00     0.020 A 
ATOM     66  C   UNL     1       1.631  12.044  -7.024  1.00  0.00     0.020 A 
ATOM     67  C   UNL     1       2.151  13.168  -7.643  1.00  0.00     0.054 A 
BRANCH  67  68
ATOM     68  S   UNL     1       1.077  14.220  -8.641  1.00  0.00     0.124 S 
ATOM     69  O   UNL     1       1.049  15.449  -7.856  1.00  0.00    -0.237 OA
ATOM     70  O   UNL     1       1.806  14.285  -9.905  1.00  0.00    -0.237 OA
ATOM     71  O   UNL     1      -0.180  13.476  -8.690  1.00  0.00    -0.744 OA
ENDBRANCH  67  68
ENDBRANCH  48  62
BRANCH  49  72
ATOM     72  C   UNL     1      -0.265  13.033   1.538  1.00  0.00    -0.014 A 
ATOM     73  C   UNL     1      -0.695  14.373   1.626  1.00  0.00     0.010 A 
ATOM     74  C   UNL     1      -1.250  12.029   1.629  1.00  0.00     0.010 A 
ATOM     75  C   UNL     1      -2.061  14.694   1.731  1.00  0.00     0.020 A 
ATOM     76  C   UNL     1      -2.611  12.341   1.740  1.00  0.00     0.020 A 
ATOM     77  C   UNL     1      -3.014  13.673   1.764  1.00  0.00     0.054 A 
BRANCH  77  78
ATOM     78  S   UNL     1      -4.784  14.091   1.705  1.00  0.00     0.124 S 
ATOM     79  O   UNL     1      -5.013  14.671   3.025  1.00  0.00    -0.237 OA
ATOM     80  O   UNL     1      -4.855  15.023   0.583  1.00  0.00    -0.237 OA
ATOM     81  O   UNL     1      -5.434  12.801   1.474  1.00  0.00    -0.744 OA
ENDBRANCH  77  78
ENDBRANCH  49  72
BRANCH  61  82
ATOM     82  C   UNL     1       5.881  13.723   0.157  1.00  0.00    -0.014 A 
ATOM     83  C   UNL     1       5.737  12.982   1.347  1.00  0.00     0.010 A 
ATOM     84  C   UNL     1       6.989  14.579   0.032  1.00  0.00     0.010 A 
ATOM     85  C   UNL     1       6.665  13.123   2.393  1.00  0.00     0.020 A 
ATOM     86  C   UNL     1       7.924  14.709   1.058  1.00  0.00     0.020 A 
ATOM     87  C   UNL     1       7.752  13.990   2.240  1.00  0.00     0.054 A 
BRANCH  87  88
ATOM     88  S   UNL     1       8.966  14.158   3.579  1.00  0.00     0.124 S 
ATOM     89  O   UNL     1       8.196  14.827   4.623  1.00  0.00    -0.237 OA
ATOM     90  O   UNL     1       9.336  12.772   3.858  1.00  0.00    -0.237 OA
ATOM     91  O   UNL     1      10.031  14.965   2.984  1.00  0.00    -0.744 OA
ENDBRANCH  87  88
ENDBRANCH  61  82
ENDBRANCH  35  36
ENDBRANCH  28  30
ENDBRANCH  27  28
ENDBRANCH  26  27
ENDBRANCH   1  26
TORSDOF 20
