REMARK SMILES COc1ccc2c(c1)c(CC(=O)OCCOCCOC(=O)c1ccc(-c3c4nc(c(-c5ccc(S(=O)(=O)[O-])cc5)c5ccc([nH]5)c(-c5ccc(S(=O)(=O)[O-])cc5)c5nc(c(-c6ccc(S(=O)(=O)[O-])cc6)c6ccc3[nH]6)C=C5)C=C4)cc1)c(C(F)(F)F)n2C(=O)c1ccc(Cl)cc1
REMARK SMILES IDX 16 1 15 2 14 3 13 4 11 5 12 6 10 7 9 8 3 9 4 10 8 11 5 12
REMARK SMILES IDX 7 13 6 14 87 15 82 16 2 17 1 18 88 19 89 20 90 21 91 22
REMARK SMILES IDX 96 23 92 24 95 25 93 26 94 27 83 28 84 29 85 30 86 31 17 32
REMARK SMILES IDX 18 33 19 34 20 35 21 36 22 37 23 38 81 39 24 40 80 41 25 42
REMARK SMILES IDX 26 43 27 44 74 45 28 46 79 47 73 48 75 49 29 50 78 51 72 52
REMARK SMILES IDX 71 53 30 55 60 56 41 57 59 58 42 59 45 60 58 61 76 62 43 63
REMARK SMILES IDX 44 64 57 66 77 67 46 68 31 69 32 70 40 71 33 72 39 73 34 74
REMARK SMILES IDX 35 75 36 76 37 77 38 78 61 79 62 80 70 81 63 82 69 83 64 84
REMARK SMILES IDX 65 85 66 86 67 87 68 88 47 89 48 90 56 91 49 92 55 93 50 94
REMARK SMILES IDX 51 95 52 96 53 97 54 98
REMARK H PARENT 75 54 45 65
REMARK Flexibility Score: inf
ROOT
ATOM      1  O   UNL     1      -2.772  -4.921   0.369  1.00  0.00    -0.374 OA
ENDROOT
BRANCH   1   2
ATOM      2  C   UNL     1      -2.862  -6.288  -0.010  1.00  0.00     0.202 C 
BRANCH   2   3
ATOM      3  C   UNL     1      -3.051  -6.703  -1.480  1.00  0.00     0.261 C 
BRANCH   3   4
ATOM      4  O   UNL     1      -2.289  -5.954  -2.444  1.00  0.00    -0.463 OA
BRANCH   4   5
ATOM      5  C   UNL     1      -3.021  -5.036  -3.131  1.00  0.00     0.310 C 
ATOM      6  O   UNL     1      -4.215  -4.819  -2.939  1.00  0.00    -0.252 OA
BRANCH   5   7
ATOM      7  C   UNL     1      -2.266  -4.270  -4.194  1.00  0.00     0.161 C 
BRANCH   7   8
ATOM      8  C   UNL     1      -0.757  -4.173  -4.121  1.00  0.00     0.002 A 
ATOM      9  C   UNL     1       0.583  -1.580  -1.645  1.00  0.00     0.119 A 
ATOM     10  C   UNL     1       1.921  -1.795  -1.912  1.00  0.00     0.048 A 
ATOM     11  C   UNL     1      -0.377  -2.266  -2.393  1.00  0.00     0.057 A 
ATOM     12  C   UNL     1       2.310  -2.687  -2.918  1.00  0.00     0.031 A 
ATOM     13  C   UNL     1      -0.007  -3.259  -3.332  1.00  0.00     0.008 A 
ATOM     14  C   UNL     1       1.348  -3.457  -3.609  1.00  0.00     0.057 A 
ATOM     15  N   UNL     1       1.448  -4.407  -4.650  1.00  0.00    -0.271 N 
ATOM     16  C   UNL     1       0.152  -4.869  -4.920  1.00  0.00     0.135 A 
BRANCH   9  17
ATOM     17  O   UNL     1       0.081  -0.819  -0.627  1.00  0.00    -0.497 OA
ATOM     18  C   UNL     1       0.923   0.196  -0.096  1.00  0.00     0.278 C 
ENDBRANCH   9  17
BRANCH  15  19
ATOM     19  C   UNL     1       2.644  -4.726  -5.359  1.00  0.00     0.262 C 
ATOM     20  O   UNL     1       2.545  -5.258  -6.460  1.00  0.00    -0.268 OA
BRANCH  19  21
ATOM     21  C   UNL     1       4.017  -4.340  -4.972  1.00  0.00     0.040 A 
ATOM     22  C   UNL     1       4.618  -4.808  -3.797  1.00  0.00     0.015 A 
ATOM     23  C   UNL     1       4.700  -3.452  -5.814  1.00  0.00     0.015 A 
ATOM     24  C   UNL     1       5.869  -4.302  -3.420  1.00  0.00     0.021 A 
ATOM     25  C   UNL     1       5.951  -2.960  -5.439  1.00  0.00     0.021 A 
ATOM     26  C   UNL     1       6.520  -3.370  -4.233  1.00  0.00     0.041 A 
ATOM     27  Cl  UNL     1       8.024  -2.699  -3.735  1.00  0.00    -0.084 Cl
ENDBRANCH  19  21
ENDBRANCH  15  19
BRANCH  16  28
ATOM     28  C   UNL     1      -0.232  -5.896  -5.945  1.00  0.00     0.432 C 
ATOM     29  F   UNL     1      -1.122  -6.766  -5.394  1.00  0.00    -0.165 F 
ATOM     30  F   UNL     1      -0.882  -5.298  -6.979  1.00  0.00    -0.165 F 
ATOM     31  F   UNL     1       0.743  -6.665  -6.461  1.00  0.00    -0.165 F 
ENDBRANCH  16  28
ENDBRANCH   7   8
ENDBRANCH   5   7
ENDBRANCH   4   5
ENDBRANCH   3   4
ENDBRANCH   2   3
ENDBRANCH   1   2
BRANCH   1  32
ATOM     32  C   UNL     1      -1.669  -4.170  -0.129  1.00  0.00     0.202 C 
BRANCH  32  33
ATOM     33  C   UNL     1      -0.233  -4.563   0.263  1.00  0.00     0.261 C 
BRANCH  33  34
ATOM     34  O   UNL     1       0.086  -5.906  -0.097  1.00  0.00    -0.460 OA
BRANCH  34  35
ATOM     35  C   UNL     1       0.818  -6.573   0.841  1.00  0.00     0.338 C 
ATOM     36  O   UNL     1       1.575  -6.114   1.661  1.00  0.00    -0.246 OA
BRANCH  35  37
ATOM     37  C   UNL     1       0.170  -7.895   0.909  1.00  0.00     0.060 A 
ATOM     38  C   UNL     1      -0.010  -8.645  -0.256  1.00  0.00     0.016 A 
ATOM     39  C   UNL     1      -0.570  -8.148   2.075  1.00  0.00     0.016 A 
ATOM     40  C   UNL     1      -1.014  -9.601  -0.277  1.00  0.00     0.010 A 
ATOM     41  C   UNL     1      -1.594  -9.083   2.037  1.00  0.00     0.010 A 
ATOM     42  C   UNL     1      -1.836  -9.782   0.850  1.00  0.00    -0.014 A 
BRANCH  42  43
ATOM     43  C   UNL     1      -2.758 -10.917   0.839  1.00  0.00     0.031 A 
ATOM     44  C   UNL     1      -2.023 -12.213   0.830  1.00  0.00     0.074 A 
ATOM     45  C   UNL     1      -4.097 -10.863   0.996  1.00  0.00     0.049 A 
ATOM     46  N   UNL     1      -2.066 -13.154  -0.054  1.00  0.00    -0.248 NA
ATOM     47  C   UNL     1      -0.979 -12.395   1.857  1.00  0.00     0.031 C 
ATOM     48  C   UNL     1      -4.931  -9.702   1.310  1.00  0.00     0.029 A 
ATOM     49  N   UNL     1      -4.994 -11.892   1.020  1.00  0.00    -0.354 N 
ATOM     50  C   UNL     1      -1.183 -14.130   0.399  1.00  0.00     0.074 A 
ATOM     51  C   UNL     1      -0.420 -13.536   1.464  1.00  0.00     0.031 C 
ATOM     52  C   UNL     1      -6.147 -10.124   1.732  1.00  0.00     0.029 A 
ATOM     53  C   UNL     1      -6.223 -11.568   1.588  1.00  0.00     0.049 A 
ATOM     54  H   UNL     1      -4.789 -12.788   0.666  1.00  0.00     0.167 HD
ATOM     55  C   UNL     1      -1.282 -15.434   0.025  1.00  0.00     0.031 A 
ATOM     56  C   UNL     1      -7.193 -12.435   1.983  1.00  0.00     0.031 A 
ATOM     57  C   UNL     1      -2.053 -15.592  -1.176  1.00  0.00     0.049 A 
ATOM     58  C   UNL     1      -6.951 -13.716   1.278  1.00  0.00     0.074 A 
ATOM     59  C   UNL     1      -1.906 -15.158  -2.478  1.00  0.00     0.029 A 
ATOM     60  N   UNL     1      -3.369 -15.961  -1.042  1.00  0.00    -0.354 N 
ATOM     61  N   UNL     1      -7.057 -13.866  -0.011  1.00  0.00    -0.248 NA
ATOM     62  C   UNL     1      -6.173 -14.732   1.968  1.00  0.00     0.031 C 
ATOM     63  C   UNL     1      -3.224 -14.841  -2.909  1.00  0.00     0.029 A 
ATOM     64  C   UNL     1      -4.109 -15.162  -1.876  1.00  0.00     0.049 A 
ATOM     65  H   UNL     1      -3.717 -16.670  -0.454  1.00  0.00     0.167 HD
ATOM     66  C   UNL     1      -6.024 -14.727  -0.350  1.00  0.00     0.074 A 
ATOM     67  C   UNL     1      -5.572 -15.295   0.919  1.00  0.00     0.031 C 
ATOM     68  C   UNL     1      -5.452 -14.696  -1.589  1.00  0.00     0.031 A 
BRANCH  55  69
ATOM     69  C   UNL     1      -0.957 -16.571   0.958  1.00  0.00    -0.014 A 
ATOM     70  C   UNL     1      -0.818 -16.398   2.353  1.00  0.00     0.010 A 
ATOM     71  C   UNL     1      -1.022 -17.895   0.486  1.00  0.00     0.010 A 
ATOM     72  C   UNL     1      -0.710 -17.474   3.231  1.00  0.00     0.020 A 
ATOM     73  C   UNL     1      -0.965 -18.987   1.366  1.00  0.00     0.020 A 
ATOM     74  C   UNL     1      -0.796 -18.766   2.732  1.00  0.00     0.054 A 
BRANCH  74  75
ATOM     75  S   UNL     1      -0.757 -20.130   3.918  1.00  0.00     0.124 S 
ATOM     76  O   UNL     1       0.625 -20.077   4.387  1.00  0.00    -0.237 OA
ATOM     77  O   UNL     1      -1.769 -19.727   4.891  1.00  0.00    -0.237 OA
ATOM     78  O   UNL     1      -1.099 -21.296   3.109  1.00  0.00    -0.744 OA
ENDBRANCH  74  75
ENDBRANCH  55  69
BRANCH  56  79
ATOM     79  C   UNL     1      -8.004 -12.386   3.233  1.00  0.00    -0.014 A 
ATOM     80  C   UNL     1      -7.494 -11.730   4.371  1.00  0.00     0.010 A 
ATOM     81  C   UNL     1      -9.101 -13.255   3.417  1.00  0.00     0.010 A 
ATOM     82  C   UNL     1      -7.995 -11.994   5.652  1.00  0.00     0.020 A 
ATOM     83  C   UNL     1      -9.609 -13.526   4.702  1.00  0.00     0.020 A 
ATOM     84  C   UNL     1      -9.024 -12.921   5.815  1.00  0.00     0.054 A 
BRANCH  84  85
ATOM     85  S   UNL     1      -9.503 -13.383   7.506  1.00  0.00     0.124 S 
ATOM     86  O   UNL     1      -8.311 -14.080   7.980  1.00  0.00    -0.237 OA
ATOM     87  O   UNL     1      -9.757 -12.085   8.128  1.00  0.00    -0.237 OA
ATOM     88  O   UNL     1     -10.685 -14.220   7.317  1.00  0.00    -0.744 OA
ENDBRANCH  84  85
ENDBRANCH  56  79
BRANCH  68  89
ATOM     89  C   UNL     1      -6.122 -13.904  -2.694  1.00  0.00    -0.014 A 
ATOM     90  C   UNL     1      -6.329 -14.564  -3.919  1.00  0.00     0.010 A 
ATOM     91  C   UNL     1      -6.343 -12.512  -2.640  1.00  0.00     0.010 A 
ATOM     92  C   UNL     1      -6.685 -13.858  -5.069  1.00  0.00     0.020 A 
ATOM     93  C   UNL     1      -6.730 -11.799  -3.788  1.00  0.00     0.020 A 
ATOM     94  C   UNL     1      -6.867 -12.476  -5.002  1.00  0.00     0.054 A 
BRANCH  94  95
ATOM     95  S   UNL     1      -7.241 -11.594  -6.543  1.00  0.00     0.124 S 
ATOM     96  O   UNL     1      -5.975 -11.686  -7.267  1.00  0.00    -0.237 OA
ATOM     97  O   UNL     1      -8.338 -12.380  -7.106  1.00  0.00    -0.237 OA
ATOM     98  O   UNL     1      -7.608 -10.250  -6.103  1.00  0.00    -0.744 OA
ENDBRANCH  94  95
ENDBRANCH  68  89
ENDBRANCH  42  43
ENDBRANCH  35  37
ENDBRANCH  34  35
ENDBRANCH  33  34
ENDBRANCH  32  33
ENDBRANCH   1  32
TORSDOF 22
