REMARK SMILES O=C(OCCOCCOC(=O)c1ccc([C@@H]2CC(O)=Nc3c2ncn3-c2cccc(Cl)c2)cc1)c1ccc(-c2c3nc(c(-c4ccc(S(=O)(=O)[O-])cc4)c4ccc([nH]4)c(-c4ccc(S(=O)(=O)[O-])cc4)c4nc(c(-c5ccc(S(=O)(=O)[O-])cc5)c5ccc2[nH]5)C=C4)C=C3)cc1
REMARK SMILES IDX 5 1 4 2 3 3 2 4 1 5 35 6 36 7 94 8 37 9 93 10 38 11 39 12
REMARK SMILES IDX 40 13 87 14 41 15 92 16 86 17 88 18 42 19 91 20 85 21 84 22
REMARK SMILES IDX 43 24 73 25 54 26 72 27 55 28 58 29 71 30 89 31 56 32 57 33
REMARK SMILES IDX 70 35 90 36 59 37 44 38 45 39 53 40 46 41 52 42 47 43 48 44
REMARK SMILES IDX 49 45 50 46 51 47 74 48 75 49 83 50 76 51 82 52 77 53 78 54
REMARK SMILES IDX 79 55 80 56 81 57 60 58 61 59 69 60 62 61 68 62 63 63 64 64
REMARK SMILES IDX 65 65 66 66 67 67 6 68 7 69 8 70 9 71 10 72 11 73 12 74
REMARK SMILES IDX 13 75 34 76 14 77 33 78 15 79 16 80 17 81 22 82 18 83 21 84
REMARK SMILES IDX 23 85 20 86 25 87 24 88 19 89 26 91 27 92 32 93 28 94 30 95
REMARK SMILES IDX 29 96 31 97
REMARK H PARENT 88 23 58 34 19 90
REMARK Flexibility Score: inf
ROOT
ATOM      1  C   UNL     1       4.846   0.012  -0.939  1.00  0.00     0.202 C 
ENDROOT
BRANCH   1   2
ATOM      2  C   UNL     1       4.581  -1.272  -0.158  1.00  0.00     0.261 C 
BRANCH   2   3
ATOM      3  O   UNL     1       3.214  -1.711  -0.182  1.00  0.00    -0.460 OA
BRANCH   3   4
ATOM      4  C   UNL     1       2.157  -0.953   0.176  1.00  0.00     0.338 C 
ATOM      5  O   UNL     1       1.145  -0.933  -0.521  1.00  0.00    -0.246 OA
BRANCH   4   6
ATOM      6  C   UNL     1       2.123  -0.357   1.536  1.00  0.00     0.060 A 
ATOM      7  C   UNL     1       3.213  -0.293   2.401  1.00  0.00     0.016 A 
ATOM      8  C   UNL     1       0.847  -0.021   2.015  1.00  0.00     0.016 A 
ATOM      9  C   UNL     1       3.001  -0.248   3.758  1.00  0.00     0.010 A 
ATOM     10  C   UNL     1       0.632   0.099   3.371  1.00  0.00     0.010 A 
ATOM     11  C   UNL     1       1.696  -0.144   4.228  1.00  0.00    -0.014 A 
BRANCH  11  12
ATOM     12  C   UNL     1       1.510  -0.176   5.662  1.00  0.00     0.031 A 
ATOM     13  C   UNL     1       2.172   0.968   6.333  1.00  0.00     0.074 A 
ATOM     14  C   UNL     1       0.762  -1.124   6.256  1.00  0.00     0.049 A 
ATOM     15  N   UNL     1       3.231   0.942   7.073  1.00  0.00    -0.248 NA
ATOM     16  C   UNL     1       1.755   2.324   5.931  1.00  0.00     0.031 C 
ATOM     17  C   UNL     1      -0.091  -2.134   5.623  1.00  0.00     0.029 A 
ATOM     18  N   UNL     1       0.511  -1.314   7.575  1.00  0.00    -0.354 N 
ATOM     19  C   UNL     1       3.443   2.263   7.453  1.00  0.00     0.074 A 
ATOM     20  C   UNL     1       2.674   3.071   6.543  1.00  0.00     0.031 C 
ATOM     21  C   UNL     1      -0.964  -2.614   6.538  1.00  0.00     0.029 A 
ATOM     22  C   UNL     1      -0.636  -2.053   7.839  1.00  0.00     0.049 A 
ATOM     23  H   UNL     1       1.092  -0.958   8.286  1.00  0.00     0.167 HD
ATOM     24  C   UNL     1       3.948   2.558   8.683  1.00  0.00     0.031 A 
ATOM     25  C   UNL     1      -1.305  -2.114   9.021  1.00  0.00     0.031 A 
ATOM     26  C   UNL     1       4.596   1.411   9.270  1.00  0.00     0.049 A 
ATOM     27  C   UNL     1      -0.361  -1.650  10.073  1.00  0.00     0.074 A 
ATOM     28  C   UNL     1       5.648   0.593   8.908  1.00  0.00     0.029 A 
ATOM     29  N   UNL     1       3.880   0.717  10.218  1.00  0.00    -0.354 N 
ATOM     30  N   UNL     1       0.721  -2.305  10.395  1.00  0.00    -0.248 NA
ATOM     31  C   UNL     1      -0.346  -0.230  10.392  1.00  0.00     0.031 C 
ATOM     32  C   UNL     1       5.249  -0.716   9.305  1.00  0.00     0.029 A 
ATOM     33  C   UNL     1       4.021  -0.619   9.963  1.00  0.00     0.049 A 
ATOM     34  H   UNL     1       3.357   1.114  10.953  1.00  0.00     0.167 HD
ATOM     35  C   UNL     1       1.699  -1.329  10.535  1.00  0.00     0.074 A 
ATOM     36  C   UNL     1       0.965  -0.064  10.601  1.00  0.00     0.031 C 
ATOM     37  C   UNL     1       3.014  -1.607  10.285  1.00  0.00     0.031 A 
BRANCH  24  38
ATOM     38  C   UNL     1       3.394   3.681   9.536  1.00  0.00    -0.014 A 
ATOM     39  C   UNL     1       3.895   3.826  10.846  1.00  0.00     0.010 A 
ATOM     40  C   UNL     1       2.202   4.372   9.231  1.00  0.00     0.010 A 
ATOM     41  C   UNL     1       3.171   4.512  11.827  1.00  0.00     0.020 A 
ATOM     42  C   UNL     1       1.494   5.095  10.190  1.00  0.00     0.020 A 
ATOM     43  C   UNL     1       1.962   5.122  11.494  1.00  0.00     0.054 A 
BRANCH  43  44
ATOM     44  S   UNL     1       0.973   5.897  12.793  1.00  0.00     0.124 S 
ATOM     45  O   UNL     1       0.595   4.745  13.605  1.00  0.00    -0.237 OA
ATOM     46  O   UNL     1       1.933   6.816  13.398  1.00  0.00    -0.237 OA
ATOM     47  O   UNL     1      -0.116   6.534  12.057  1.00  0.00    -0.744 OA
ENDBRANCH  43  44
ENDBRANCH  24  38
BRANCH  25  48
ATOM     48  C   UNL     1      -2.781  -2.155   9.225  1.00  0.00    -0.014 A 
ATOM     49  C   UNL     1      -3.343  -2.397  10.494  1.00  0.00     0.010 A 
ATOM     50  C   UNL     1      -3.646  -1.677   8.217  1.00  0.00     0.010 A 
ATOM     51  C   UNL     1      -4.699  -2.117  10.757  1.00  0.00     0.020 A 
ATOM     52  C   UNL     1      -4.996  -1.402   8.469  1.00  0.00     0.020 A 
ATOM     53  C   UNL     1      -5.513  -1.601   9.746  1.00  0.00     0.054 A 
BRANCH  53  54
ATOM     54  S   UNL     1      -7.212  -1.075  10.130  1.00  0.00     0.124 S 
ATOM     55  O   UNL     1      -7.890  -2.348  10.356  1.00  0.00    -0.237 OA
ATOM     56  O   UNL     1      -7.029  -0.238  11.312  1.00  0.00    -0.237 OA
ATOM     57  O   UNL     1      -7.631  -0.357   8.927  1.00  0.00    -0.744 OA
ENDBRANCH  53  54
ENDBRANCH  25  48
BRANCH  37  58
ATOM     58  C   UNL     1       3.434  -3.050  10.139  1.00  0.00    -0.014 A 
ATOM     59  C   UNL     1       2.989  -3.909   9.113  1.00  0.00     0.010 A 
ATOM     60  C   UNL     1       4.457  -3.497  10.992  1.00  0.00     0.010 A 
ATOM     61  C   UNL     1       3.542  -5.193   8.968  1.00  0.00     0.020 A 
ATOM     62  C   UNL     1       5.022  -4.763  10.842  1.00  0.00     0.020 A 
ATOM     63  C   UNL     1       4.556  -5.611   9.837  1.00  0.00     0.054 A 
BRANCH  63  64
ATOM     64  S   UNL     1       5.297  -7.255   9.634  1.00  0.00     0.124 S 
ATOM     65  O   UNL     1       4.199  -8.146   9.999  1.00  0.00    -0.237 OA
ATOM     66  O   UNL     1       5.677  -7.268   8.223  1.00  0.00    -0.237 OA
ATOM     67  O   UNL     1       6.423  -7.248  10.568  1.00  0.00    -0.744 OA
ENDBRANCH  63  64
ENDBRANCH  37  58
ENDBRANCH  11  12
ENDBRANCH   4   6
ENDBRANCH   3   4
ENDBRANCH   2   3
ENDBRANCH   1   2
BRANCH   1  68
ATOM     68  O   UNL     1       4.269   1.233  -0.498  1.00  0.00    -0.374 OA
BRANCH  68  69
ATOM     69  C   UNL     1       3.109   1.709  -1.196  1.00  0.00     0.202 C 
BRANCH  69  70
ATOM     70  C   UNL     1       3.180   2.067  -2.693  1.00  0.00     0.261 C 
BRANCH  70  71
ATOM     71  O   UNL     1       3.531   0.964  -3.547  1.00  0.00    -0.460 OA
BRANCH  71  72
ATOM     72  C   UNL     1       4.813   0.972  -4.003  1.00  0.00     0.338 C 
ATOM     73  O   UNL     1       5.641   1.843  -3.860  1.00  0.00    -0.246 OA
BRANCH  72  74
ATOM     74  C   UNL     1       5.144  -0.378  -4.509  1.00  0.00     0.060 A 
ATOM     75  C   UNL     1       6.191  -1.070  -3.887  1.00  0.00     0.016 A 
ATOM     76  C   UNL     1       4.444  -0.955  -5.564  1.00  0.00     0.016 A 
ATOM     77  C   UNL     1       6.524  -2.355  -4.303  1.00  0.00     0.005 A 
ATOM     78  C   UNL     1       4.821  -2.220  -6.020  1.00  0.00     0.005 A 
ATOM     79  C   UNL     1       5.858  -2.941  -5.389  1.00  0.00    -0.038 A 
BRANCH  79  80
ATOM     80  C   UNL     1       6.349  -4.291  -5.886  1.00  0.00     0.081 C 
ATOM     81  C   UNL     1       7.128  -4.135  -7.208  1.00  0.00     0.111 C 
ATOM     82  C   UNL     1       5.161  -5.158  -6.049  1.00  0.00     0.093 A 
ATOM     83  C   UNL     1       6.402  -4.639  -8.444  1.00  0.00     0.188 C 
ATOM     84  C   UNL     1       4.791  -5.638  -7.283  1.00  0.00     0.164 A 
ATOM     85  N   UNL     1       4.256  -5.493  -5.080  1.00  0.00    -0.238 NA
ATOM     86  N   UNL     1       5.347  -5.387  -8.493  1.00  0.00    -0.198 NA
ATOM     87  N   UNL     1       3.593  -6.289  -7.067  1.00  0.00    -0.283 N 
ATOM     88  C   UNL     1       3.298  -6.123  -5.731  1.00  0.00     0.206 A 
BRANCH  83  89
ATOM     89  O   UNL     1       6.984  -4.282  -9.606  1.00  0.00    -0.496 OA
ATOM     90  H   UNL     1       7.750  -3.741  -9.600  1.00  0.00     0.294 HD
ENDBRANCH  83  89
BRANCH  87  91
ATOM     91  C   UNL     1       2.814  -6.945  -8.041  1.00  0.00     0.050 A 
ATOM     92  C   UNL     1       1.438  -6.710  -8.117  1.00  0.00     0.027 A 
ATOM     93  C   UNL     1       3.451  -7.791  -8.957  1.00  0.00     0.047 A 
ATOM     94  C   UNL     1       0.708  -7.292  -9.155  1.00  0.00     0.004 A 
ATOM     95  C   UNL     1       2.701  -8.406  -9.952  1.00  0.00     0.043 A 
ATOM     96  C   UNL     1       1.336  -8.146 -10.066  1.00  0.00     0.020 A 
ATOM     97  Cl  UNL     1       3.463  -9.497 -11.043  1.00  0.00    -0.084 Cl
ENDBRANCH  87  91
ENDBRANCH  79  80
ENDBRANCH  72  74
ENDBRANCH  71  72
ENDBRANCH  70  71
ENDBRANCH  69  70
ENDBRANCH  68  69
ENDBRANCH   1  68
TORSDOF 20
