REMARK SMILES [NH3+][C@H]1C=C[C@H](C(=O)N2CC[NH+](CC(=O)OCCOCCOC(=O)c3ccc(-c4c5nc(c(-c6ccc(S(=O)(=O)[O-])cc6)c6ccc([nH]6)c(-c6ccc(S(=O)(=O)[O-])cc6)c6nc(c(-c7ccc(S(=O)(=O)[O-])cc7)c7ccc4[nH]7)C=C6)C=C5)cc3)CC2)C1
REMARK SMILES IDX 18 1 17 2 16 3 15 4 13 5 14 6 12 7 11 8 6 9 7 10 8 11 9 12
REMARK SMILES IDX 85 13 10 14 84 15 5 17 2 18 3 19 86 20 4 21 1 22 19 26 20 27
REMARK SMILES IDX 21 28 22 29 23 30 24 31 25 32 83 33 26 34 82 35 27 36 28 37
REMARK SMILES IDX 29 38 76 39 30 40 81 41 75 42 77 43 31 44 80 45 74 46 73 47
REMARK SMILES IDX 32 49 62 50 43 51 61 52 44 53 47 54 60 55 78 56 45 57 46 58
REMARK SMILES IDX 59 60 79 61 48 62 33 63 34 64 42 65 35 66 41 67 36 68 37 69
REMARK SMILES IDX 38 70 39 71 40 72 63 73 64 74 72 75 65 76 71 77 66 78 67 79
REMARK SMILES IDX 68 80 69 81 70 82 49 83 50 84 58 85 51 86 57 87 52 88 53 89
REMARK SMILES IDX 54 90 55 91 56 92
REMARK H PARENT 11 16 1 23 1 24 1 25 77 48 47 59
REMARK Flexibility Score: inf
ROOT
ATOM      1  O   UNL     1      -5.076  -6.388   1.106  1.00  0.00    -0.374 OA
ENDROOT
BRANCH   1   2
ATOM      2  C   UNL     1      -4.254  -6.364   2.268  1.00  0.00     0.202 C 
BRANCH   2   3
ATOM      3  C   UNL     1      -3.380  -7.595   2.537  1.00  0.00     0.261 C 
BRANCH   3   4
ATOM      4  O   UNL     1      -2.376  -7.891   1.541  1.00  0.00    -0.459 OA
BRANCH   4   5
ATOM      5  C   UNL     1      -2.669  -8.950   0.734  1.00  0.00     0.361 C 
ATOM      6  O   UNL     1      -3.779  -9.475   0.668  1.00  0.00    -0.245 OA
BRANCH   5   7
ATOM      7  C   UNL     1      -1.466  -9.556   0.022  1.00  0.00     0.386 C 
BRANCH   7   8
ATOM      8  N   UNL     1      -0.498  -8.674  -0.618  1.00  0.00    -0.323 N 
ATOM      9  C   UNL     1       0.008  -4.456  -1.393  1.00  0.00     0.230 C 
ATOM     10  O   UNL     1      -0.929  -3.919  -1.994  1.00  0.00    -0.274 OA
ATOM     11  N   UNL     1      -0.008  -5.836  -1.142  1.00  0.00    -0.331 N 
ATOM     12  C   UNL     1      -1.025  -6.585  -1.876  1.00  0.00     0.181 C 
ATOM     13  C   UNL     1       0.375  -6.431   0.149  1.00  0.00     0.181 C 
ATOM     14  C   UNL     1      -0.792  -8.096  -1.916  1.00  0.00     0.284 C 
ATOM     15  C   UNL     1       0.505  -7.970   0.162  1.00  0.00     0.284 C 
ATOM     16  H   UNL     1       0.034  -9.509  -0.866  1.00  0.00     0.348 HD
BRANCH   9  17
ATOM     17  C   UNL     1       1.260  -3.639  -1.020  1.00  0.00     0.107 C 
ATOM     18  C   UNL     1       0.806  -1.235  -1.354  1.00  0.00     0.205 C 
ATOM     19  C   UNL     1       1.621  -1.795  -2.464  1.00  0.00     0.033 C 
ATOM     20  C   UNL     1       0.946  -2.321  -0.287  1.00  0.00     0.087 C 
ATOM     21  C   UNL     1       1.871  -3.101  -2.292  1.00  0.00    -0.012 C 
BRANCH  18  22
ATOM     22  N   UNL     1       1.283   0.056  -0.903  1.00  0.00    -0.352 N 
ATOM     23  H   UNL     1       1.167   0.742  -1.649  1.00  0.00     0.345 HD
ATOM     24  H   UNL     1       2.270  -0.013  -0.656  1.00  0.00     0.345 HD
ATOM     25  H   UNL     1       0.748   0.350  -0.085  1.00  0.00     0.345 HD
ENDBRANCH  18  22
ENDBRANCH   9  17
ENDBRANCH   7   8
ENDBRANCH   5   7
ENDBRANCH   4   5
ENDBRANCH   3   4
ENDBRANCH   2   3
ENDBRANCH   1   2
BRANCH   1  26
ATOM     26  C   UNL     1      -4.436  -6.161  -0.148  1.00  0.00     0.202 C 
BRANCH  26  27
ATOM     27  C   UNL     1      -3.907  -4.741  -0.382  1.00  0.00     0.261 C 
BRANCH  27  28
ATOM     28  O   UNL     1      -2.821  -4.428   0.513  1.00  0.00    -0.460 OA
BRANCH  28  29
ATOM     29  C   UNL     1      -2.993  -3.275   1.208  1.00  0.00     0.338 C 
ATOM     30  O   UNL     1      -3.895  -2.469   1.055  1.00  0.00    -0.246 OA
BRANCH  29  31
ATOM     31  C   UNL     1      -1.989  -3.115   2.292  1.00  0.00     0.060 A 
ATOM     32  C   UNL     1      -2.344  -2.313   3.376  1.00  0.00     0.016 A 
ATOM     33  C   UNL     1      -0.691  -3.621   2.216  1.00  0.00     0.016 A 
ATOM     34  C   UNL     1      -1.375  -1.907   4.289  1.00  0.00     0.010 A 
ATOM     35  C   UNL     1       0.296  -3.195   3.107  1.00  0.00     0.010 A 
ATOM     36  C   UNL     1      -0.039  -2.289   4.115  1.00  0.00    -0.014 A 
BRANCH  36  37
ATOM     37  C   UNL     1       0.983  -1.738   5.022  1.00  0.00     0.031 A 
ATOM     38  C   UNL     1       1.638  -0.421   4.728  1.00  0.00     0.074 A 
ATOM     39  C   UNL     1       1.266  -2.421   6.142  1.00  0.00     0.049 A 
ATOM     40  N   UNL     1       2.353   0.333   5.521  1.00  0.00    -0.248 NA
ATOM     41  C   UNL     1       1.477   0.117   3.368  1.00  0.00     0.031 C 
ATOM     42  C   UNL     1       0.718  -3.734   6.483  1.00  0.00     0.029 A 
ATOM     43  N   UNL     1       2.065  -2.096   7.202  1.00  0.00    -0.354 N 
ATOM     44  C   UNL     1       2.701   1.452   4.773  1.00  0.00     0.074 A 
ATOM     45  C   UNL     1       2.162   1.253   3.444  1.00  0.00     0.031 C 
ATOM     46  C   UNL     1       1.185  -4.099   7.686  1.00  0.00     0.029 A 
ATOM     47  C   UNL     1       2.050  -3.040   8.198  1.00  0.00     0.049 A 
ATOM     48  H   UNL     1       2.597  -1.269   7.247  1.00  0.00     0.167 HD
ATOM     49  C   UNL     1       3.395   2.546   5.176  1.00  0.00     0.031 A 
ATOM     50  C   UNL     1       2.644  -3.034   9.404  1.00  0.00     0.031 A 
ATOM     51  C   UNL     1       3.949   2.693   6.502  1.00  0.00     0.049 A 
ATOM     52  C   UNL     1       3.391  -1.806   9.835  1.00  0.00     0.074 A 
ATOM     53  C   UNL     1       4.603   3.784   7.048  1.00  0.00     0.029 A 
ATOM     54  N   UNL     1       3.931   1.710   7.483  1.00  0.00    -0.354 N 
ATOM     55  N   UNL     1       3.596  -0.693   9.171  1.00  0.00    -0.248 NA
ATOM     56  C   UNL     1       3.950  -1.819  11.191  1.00  0.00     0.031 C 
ATOM     57  C   UNL     1       5.041   3.435   8.331  1.00  0.00     0.029 A 
ATOM     58  C   UNL     1       4.598   2.153   8.614  1.00  0.00     0.049 A 
ATOM     59  H   UNL     1       3.507   0.827   7.388  1.00  0.00     0.167 HD
ATOM     60  C   UNL     1       4.294   0.139  10.038  1.00  0.00     0.074 A 
ATOM     61  C   UNL     1       4.446  -0.593  11.281  1.00  0.00     0.031 C 
ATOM     62  C   UNL     1       4.767   1.394   9.829  1.00  0.00     0.031 A 
BRANCH  49  63
ATOM     63  C   UNL     1       3.604   3.671   4.191  1.00  0.00    -0.014 A 
ATOM     64  C   UNL     1       2.530   4.476   3.767  1.00  0.00     0.010 A 
ATOM     65  C   UNL     1       4.904   3.998   3.763  1.00  0.00     0.010 A 
ATOM     66  C   UNL     1       2.750   5.571   2.924  1.00  0.00     0.020 A 
ATOM     67  C   UNL     1       5.133   5.107   2.940  1.00  0.00     0.020 A 
ATOM     68  C   UNL     1       4.051   5.883   2.518  1.00  0.00     0.054 A 
BRANCH  68  69
ATOM     69  S   UNL     1       4.312   7.344   1.474  1.00  0.00     0.124 S 
ATOM     70  O   UNL     1       3.726   6.918   0.205  1.00  0.00    -0.237 OA
ATOM     71  O   UNL     1       3.575   8.383   2.188  1.00  0.00    -0.237 OA
ATOM     72  O   UNL     1       5.764   7.510   1.463  1.00  0.00    -0.744 OA
ENDBRANCH  68  69
ENDBRANCH  49  63
BRANCH  50  73
ATOM     73  C   UNL     1       2.497  -4.218  10.287  1.00  0.00    -0.014 A 
ATOM     74  C   UNL     1       1.700  -4.165  11.443  1.00  0.00     0.010 A 
ATOM     75  C   UNL     1       3.120  -5.431   9.936  1.00  0.00     0.010 A 
ATOM     76  C   UNL     1       1.543  -5.299  12.242  1.00  0.00     0.020 A 
ATOM     77  C   UNL     1       2.940  -6.574  10.716  1.00  0.00     0.020 A 
ATOM     78  C   UNL     1       2.162  -6.497  11.872  1.00  0.00     0.054 A 
BRANCH  78  79
ATOM     79  S   UNL     1       1.898  -7.971  12.894  1.00  0.00     0.124 S 
ATOM     80  O   UNL     1       2.701  -7.668  14.074  1.00  0.00    -0.237 OA
ATOM     81  O   UNL     1       0.451  -7.962  13.090  1.00  0.00    -0.237 OA
ATOM     82  O   UNL     1       2.398  -9.060  12.057  1.00  0.00    -0.744 OA
ENDBRANCH  78  79
ENDBRANCH  50  73
BRANCH  62  83
ATOM     83  C   UNL     1       5.495   2.042  10.977  1.00  0.00    -0.014 A 
ATOM     84  C   UNL     1       6.753   1.572  11.399  1.00  0.00     0.010 A 
ATOM     85  C   UNL     1       4.916   3.138  11.643  1.00  0.00     0.010 A 
ATOM     86  C   UNL     1       7.388   2.146  12.502  1.00  0.00     0.020 A 
ATOM     87  C   UNL     1       5.565   3.737  12.725  1.00  0.00     0.020 A 
ATOM     88  C   UNL     1       6.786   3.221  13.163  1.00  0.00     0.054 A 
BRANCH  88  89
ATOM     89  S   UNL     1       7.632   3.948  14.592  1.00  0.00     0.124 S 
ATOM     90  O   UNL     1       7.430   2.925  15.615  1.00  0.00    -0.237 OA
ATOM     91  O   UNL     1       9.004   4.095  14.112  1.00  0.00    -0.237 OA
ATOM     92  O   UNL     1       6.918   5.203  14.816  1.00  0.00    -0.744 OA
ENDBRANCH  88  89
ENDBRANCH  62  83
ENDBRANCH  36  37
ENDBRANCH  29  31
ENDBRANCH  28  29
ENDBRANCH  27  28
ENDBRANCH  26  27
ENDBRANCH   1  26
TORSDOF 20
