REMARK SMILES CN1C(=O)C(=Cc2ccc(OCc3cccc(C(=O)OCCOCCOC(=O)c4ccc(-c5c6nc(c(-c7ccc(S(=O)(=O)[O-])cc7)c7ccc([nH]7)c(-c7ccc(S(=O)(=O)[O-])cc7)c7nc(c(-c8ccc(S(=O)(=O)[O-])cc8)c8ccc5[nH]8)C=C7)C=C6)cc4)c3)c(Cl)c2)C(=O)N(C)C1=S
REMARK SMILES IDX 22 1 21 2 20 3 18 4 19 5 17 6 13 7 14 8 89 9 15 10 16 11
REMARK SMILES IDX 12 12 11 13 10 14 7 15 8 16 92 17 9 18 90 19 91 20 6 21 1 22
REMARK SMILES IDX 2 23 3 24 97 25 4 26 5 27 95 28 98 29 93 30 96 31 94 32
REMARK SMILES IDX 23 33 24 34 25 35 26 36 27 37 28 38 29 39 30 40 88 41 31 42
REMARK SMILES IDX 87 43 32 44 33 45 34 46 81 47 35 48 86 49 80 50 82 51 36 52
REMARK SMILES IDX 85 53 79 54 78 55 37 57 67 58 48 59 66 60 49 61 52 62 65 63
REMARK SMILES IDX 83 64 50 65 51 66 64 68 84 69 53 70 38 71 39 72 47 73 40 74
REMARK SMILES IDX 46 75 41 76 42 77 43 78 44 79 45 80 68 81 69 82 77 83 70 84
REMARK SMILES IDX 76 85 71 86 72 87 73 88 74 89 75 90 54 91 55 92 63 93 56 94
REMARK SMILES IDX 62 95 57 96 58 97 59 98 60 99 61 100
REMARK H PARENT 82 56 52 67
REMARK Flexibility Score: inf
ROOT
ATOM      1  C   UNL     1       0.107   8.243  -0.922  1.00  0.00     0.202 C 
ENDROOT
BRANCH   1   2
ATOM      2  C   UNL     1       0.393   8.051  -2.411  1.00  0.00     0.261 C 
BRANCH   2   3
ATOM      3  O   UNL     1       1.785   7.745  -2.588  1.00  0.00    -0.460 OA
BRANCH   3   4
ATOM      4  C   UNL     1       2.555   8.739  -3.094  1.00  0.00     0.338 C 
ATOM      5  O   UNL     1       2.178   9.780  -3.602  1.00  0.00    -0.246 OA
BRANCH   4   6
ATOM      6  C   UNL     1       3.974   8.452  -2.773  1.00  0.00     0.060 A 
ATOM      7  C   UNL     1       5.765   6.904  -2.203  1.00  0.00    -0.010 A 
ATOM      8  C   UNL     1       6.602   8.002  -1.950  1.00  0.00     0.007 A 
ATOM      9  C   UNL     1       4.452   7.144  -2.637  1.00  0.00     0.023 A 
ATOM     10  C   UNL     1       6.138   9.307  -2.118  1.00  0.00     0.001 A 
ATOM     11  C   UNL     1       4.825   9.533  -2.527  1.00  0.00     0.016 A 
BRANCH   7  12
ATOM     12  C   UNL     1       6.306   5.505  -1.996  1.00  0.00     0.265 C 
BRANCH  12  13
ATOM     13  O   UNL     1       5.349   4.478  -2.213  1.00  0.00    -0.487 OA
BRANCH  13  14
ATOM     14  C   UNL     1       4.416   4.119  -1.283  1.00  0.00     0.138 A 
ATOM     15  C   UNL     1       2.375   2.959   0.278  1.00  0.00    -0.023 A 
ATOM     16  C   UNL     1       2.523   2.588  -1.055  1.00  0.00     0.012 A 
ATOM     17  C   UNL     1       3.177   3.978   0.797  1.00  0.00     0.032 A 
ATOM     18  C   UNL     1       3.549   3.147  -1.813  1.00  0.00     0.048 A 
ATOM     19  C   UNL     1       4.196   4.561   0.029  1.00  0.00     0.083 A 
ATOM     20  Cl  UNL     1       5.091   5.791   0.849  1.00  0.00    -0.080 Cl
BRANCH  15  21
ATOM     21  C   UNL     1       1.446   2.277   1.179  1.00  0.00     0.027 C 
ATOM     22  C   UNL     1       2.153  -1.708  -0.822  1.00  0.00     0.156 C 
ATOM     23  N   UNL     1       1.680  -1.154   0.440  1.00  0.00    -0.288 N 
ATOM     24  C   UNL     1       2.324   0.014   0.802  1.00  0.00     0.265 C 
ATOM     25  C   UNL     1       0.704  -1.763   1.243  1.00  0.00     0.185 C 
ATOM     26  O   UNL     1       3.504   0.259   0.570  1.00  0.00    -0.268 OA
ATOM     27  C   UNL     1       1.431   0.962   1.464  1.00  0.00     0.106 C 
ATOM     28  N   UNL     1       0.116  -0.920   2.209  1.00  0.00    -0.288 N 
ATOM     29  S   UNL     1       0.316  -3.402   1.077  1.00  0.00    -0.040 S 
ATOM     30  C   UNL     1       0.437   0.425   2.403  1.00  0.00     0.265 C 
ATOM     31  C   UNL     1      -0.985  -1.373   3.053  1.00  0.00     0.156 C 
ATOM     32  O   UNL     1      -0.024   1.139   3.291  1.00  0.00    -0.268 OA
ENDBRANCH  15  21
ENDBRANCH  13  14
ENDBRANCH  12  13
ENDBRANCH   7  12
ENDBRANCH   4   6
ENDBRANCH   3   4
ENDBRANCH   2   3
ENDBRANCH   1   2
BRANCH   1  33
ATOM     33  O   UNL     1       0.742   9.413  -0.395  1.00  0.00    -0.374 OA
BRANCH  33  34
ATOM     34  C   UNL     1       1.968   9.158   0.296  1.00  0.00     0.202 C 
BRANCH  34  35
ATOM     35  C   UNL     1       1.773   8.932   1.800  1.00  0.00     0.261 C 
BRANCH  35  36
ATOM     36  O   UNL     1       1.031   7.727   2.056  1.00  0.00    -0.460 OA
BRANCH  36  37
ATOM     37  C   UNL     1      -0.300   7.886   2.279  1.00  0.00     0.338 C 
ATOM     38  O   UNL     1      -0.916   8.929   2.375  1.00  0.00    -0.246 OA
BRANCH  37  39
ATOM     39  C   UNL     1      -0.941   6.553   2.244  1.00  0.00     0.060 A 
ATOM     40  C   UNL     1      -2.109   6.364   1.492  1.00  0.00     0.016 A 
ATOM     41  C   UNL     1      -0.390   5.487   2.944  1.00  0.00     0.016 A 
ATOM     42  C   UNL     1      -2.709   5.095   1.412  1.00  0.00     0.010 A 
ATOM     43  C   UNL     1      -1.002   4.235   2.869  1.00  0.00     0.010 A 
ATOM     44  C   UNL     1      -2.156   4.002   2.092  1.00  0.00    -0.014 A 
BRANCH  44  45
ATOM     45  C   UNL     1      -2.743   2.619   2.034  1.00  0.00     0.031 A 
ATOM     46  C   UNL     1      -3.159   1.927   3.320  1.00  0.00     0.074 A 
ATOM     47  C   UNL     1      -2.735   1.902   0.884  1.00  0.00     0.049 A 
ATOM     48  N   UNL     1      -3.614   0.709   3.498  1.00  0.00    -0.248 NA
ATOM     49  C   UNL     1      -2.989   2.682   4.571  1.00  0.00     0.031 C 
ATOM     50  C   UNL     1      -2.304   2.386  -0.431  1.00  0.00     0.029 A 
ATOM     51  N   UNL     1      -3.074   0.585   0.643  1.00  0.00    -0.354 N 
ATOM     52  C   UNL     1      -3.623   0.505   4.877  1.00  0.00     0.074 A 
ATOM     53  C   UNL     1      -3.190   1.744   5.484  1.00  0.00     0.031 C 
ATOM     54  C   UNL     1      -2.420   1.393  -1.333  1.00  0.00     0.029 A 
ATOM     55  C   UNL     1      -2.894   0.183  -0.665  1.00  0.00     0.049 A 
ATOM     56  H   UNL     1      -3.416  -0.016   1.344  1.00  0.00     0.167 HD
ATOM     57  C   UNL     1      -3.917  -0.618   5.578  1.00  0.00     0.031 A 
ATOM     58  C   UNL     1      -3.078  -1.014  -1.263  1.00  0.00     0.031 A 
ATOM     59  C   UNL     1      -4.361  -1.856   4.995  1.00  0.00     0.049 A 
ATOM     60  C   UNL     1      -3.518  -2.212  -0.455  1.00  0.00     0.074 A 
ATOM     61  C   UNL     1      -4.905  -2.956   5.637  1.00  0.00     0.029 A 
ATOM     62  N   UNL     1      -4.282  -2.180   3.652  1.00  0.00    -0.354 N 
ATOM     63  N   UNL     1      -3.779  -2.293   0.827  1.00  0.00    -0.248 NA
ATOM     64  C   UNL     1      -3.688  -3.479  -1.185  1.00  0.00     0.031 C 
ATOM     65  C   UNL     1      -5.055  -3.981   4.697  1.00  0.00     0.029 A 
ATOM     66  C   UNL     1      -4.659  -3.499   3.461  1.00  0.00     0.049 A 
ATOM     67  H   UNL     1      -3.999  -1.564   2.938  1.00  0.00     0.167 HD
ATOM     68  C   UNL     1      -4.199  -3.607   1.041  1.00  0.00     0.074 A 
ATOM     69  C   UNL     1      -4.138  -4.286  -0.234  1.00  0.00     0.031 C 
ATOM     70  C   UNL     1      -4.619  -4.185   2.194  1.00  0.00     0.031 A 
BRANCH  57  71
ATOM     71  C   UNL     1      -3.748  -0.576   7.077  1.00  0.00    -0.014 A 
ATOM     72  C   UNL     1      -4.580   0.225   7.879  1.00  0.00     0.010 A 
ATOM     73  C   UNL     1      -2.779  -1.388   7.699  1.00  0.00     0.010 A 
ATOM     74  C   UNL     1      -4.414   0.255   9.265  1.00  0.00     0.020 A 
ATOM     75  C   UNL     1      -2.632  -1.387   9.090  1.00  0.00     0.020 A 
ATOM     76  C   UNL     1      -3.439  -0.549   9.862  1.00  0.00     0.054 A 
BRANCH  76  77
ATOM     77  S   UNL     1      -3.276  -0.514  11.668  1.00  0.00     0.124 S 
ATOM     78  O   UNL     1      -2.575   0.749  11.882  1.00  0.00    -0.237 OA
ATOM     79  O   UNL     1      -4.666  -0.542  12.117  1.00  0.00    -0.237 OA
ATOM     80  O   UNL     1      -2.503  -1.716  11.970  1.00  0.00    -0.744 OA
ENDBRANCH  76  77
ENDBRANCH  57  71
BRANCH  58  81
ATOM     81  C   UNL     1      -2.878  -1.183  -2.733  1.00  0.00    -0.014 A 
ATOM     82  C   UNL     1      -3.997  -1.315  -3.577  1.00  0.00     0.010 A 
ATOM     83  C   UNL     1      -1.591  -1.321  -3.281  1.00  0.00     0.010 A 
ATOM     84  C   UNL     1      -3.837  -1.617  -4.933  1.00  0.00     0.020 A 
ATOM     85  C   UNL     1      -1.426  -1.604  -4.643  1.00  0.00     0.020 A 
ATOM     86  C   UNL     1      -2.550  -1.768  -5.457  1.00  0.00     0.054 A 
BRANCH  86  87
ATOM     87  S   UNL     1      -2.365  -2.164  -7.220  1.00  0.00     0.124 S 
ATOM     88  O   UNL     1      -2.781  -3.562  -7.262  1.00  0.00    -0.237 OA
ATOM     89  O   UNL     1      -3.275  -1.213  -7.853  1.00  0.00    -0.237 OA
ATOM     90  O   UNL     1      -0.947  -1.923  -7.473  1.00  0.00    -0.744 OA
ENDBRANCH  86  87
ENDBRANCH  58  81
BRANCH  70  91
ATOM     91  C   UNL     1      -5.128  -5.605   2.142  1.00  0.00    -0.014 A 
ATOM     92  C   UNL     1      -4.277  -6.705   1.931  1.00  0.00     0.010 A 
ATOM     93  C   UNL     1      -6.494  -5.842   2.385  1.00  0.00     0.010 A 
ATOM     94  C   UNL     1      -4.788  -8.010   1.946  1.00  0.00     0.020 A 
ATOM     95  C   UNL     1      -7.002  -7.143   2.431  1.00  0.00     0.020 A 
ATOM     96  C   UNL     1      -6.147  -8.221   2.200  1.00  0.00     0.054 A 
BRANCH  96  97
ATOM     97  S   UNL     1      -6.782  -9.919   2.289  1.00  0.00     0.124 S 
ATOM     98  O   UNL     1      -6.874 -10.286   0.879  1.00  0.00    -0.237 OA
ATOM     99  O   UNL     1      -5.748 -10.613   3.053  1.00  0.00    -0.237 OA
ATOM    100  O   UNL     1      -8.062  -9.773   2.979  1.00  0.00    -0.744 OA
ENDBRANCH  96  97
ENDBRANCH  70  91
ENDBRANCH  44  45
ENDBRANCH  37  39
ENDBRANCH  36  37
ENDBRANCH  35  36
ENDBRANCH  34  35
ENDBRANCH  33  34
ENDBRANCH   1  33
TORSDOF 21
