REMARK SMILES CCCn1c(N2CCC[C@@H](C)C2)c(/C=C2/SC(=S)N(CC(=O)OCCOCCOC(=O)c3ccc(-c4c5nc(c(-c6ccc(S(=O)(=O)[O-])cc6)c6ccc([nH]6)c(-c6ccc(S(=O)(=O)[O-])cc6)c6nc(c(-c7ccc(S(=O)(=O)[O-])cc7)c7ccc4[nH]7)C=C6)C=C5)cc3)C2=O)c(C)c(C#N)c1=O
REMARK SMILES IDX 25 1 24 2 23 3 21 4 22 5 20 6 19 7 14 8 15 9 16 10 92 11
REMARK SMILES IDX 17 12 93 13 18 14 13 15 4 16 5 17 99 18 96 19 100 20 94 21
REMARK SMILES IDX 95 22 3 23 2 24 1 25 6 26 7 27 12 28 8 29 10 30 9 31 11 32
REMARK SMILES IDX 97 33 98 34 26 35 27 36 28 37 29 38 30 39 31 40 32 41 33 42
REMARK SMILES IDX 91 43 34 44 90 45 35 46 36 47 37 48 84 49 38 50 89 51 83 52
REMARK SMILES IDX 85 53 39 54 88 55 82 56 81 57 40 59 70 60 51 61 69 62 52 63
REMARK SMILES IDX 55 64 68 65 86 66 53 67 54 68 67 70 87 71 56 72 41 73 42 74
REMARK SMILES IDX 50 75 43 76 49 77 44 78 45 79 46 80 47 81 48 82 71 83 72 84
REMARK SMILES IDX 80 85 73 86 79 87 74 88 75 89 76 90 77 91 78 92 57 93 58 94
REMARK SMILES IDX 66 95 59 96 65 97 60 98 61 99 62 100 63 101 64 102
REMARK H PARENT 85 58 55 69
REMARK Flexibility Score: inf
ROOT
ATOM      1  C   UNL     1      -6.036  -1.556   6.664  1.00  0.00     0.202 C 
ENDROOT
BRANCH   1   2
ATOM      2  C   UNL     1      -6.321  -3.047   6.915  1.00  0.00     0.261 C 
BRANCH   2   3
ATOM      3  O   UNL     1      -5.501  -3.953   6.142  1.00  0.00    -0.462 OA
BRANCH   3   4
ATOM      4  C   UNL     1      -6.156  -4.641   5.171  1.00  0.00     0.326 C 
ATOM      5  O   UNL     1      -7.363  -4.570   4.956  1.00  0.00    -0.250 OA
BRANCH   4   6
ATOM      6  C   UNL     1      -5.251  -5.459   4.252  1.00  0.00     0.250 C 
BRANCH   6   7
ATOM      7  N   UNL     1      -3.830  -5.690   4.550  1.00  0.00    -0.282 N 
ATOM      8  C   UNL     1      -0.309  -5.214   3.581  1.00  0.00     0.033 C 
ATOM      9  C   UNL     1      -1.502  -5.606   4.070  1.00  0.00     0.081 C 
ATOM     10  S   UNL     1      -1.667  -6.973   5.110  1.00  0.00    -0.054 SA
ATOM     11  C   UNL     1      -2.854  -4.985   3.860  1.00  0.00     0.266 C 
ATOM     12  C   UNL     1      -3.393  -6.727   5.345  1.00  0.00     0.148 C 
ATOM     13  O   UNL     1      -3.063  -4.042   3.109  1.00  0.00    -0.268 OA
ATOM     14  S   UNL     1      -4.300  -7.692   6.356  1.00  0.00    -0.052 S 
BRANCH   8  15
ATOM     15  C   UNL     1      -0.054  -3.928   2.920  1.00  0.00     0.021 A 
ATOM     16  N   UNL     1       0.103  -2.522   0.991  1.00  0.00    -0.293 N 
ATOM     17  C   UNL     1       0.167  -3.812   1.578  1.00  0.00     0.119 A 
ATOM     18  C   UNL     1      -0.426  -1.438   1.705  1.00  0.00     0.270 A 
ATOM     19  C   UNL     1      -0.315  -1.532   3.178  1.00  0.00     0.121 A 
ATOM     20  O   UNL     1      -0.892  -0.417   1.207  1.00  0.00    -0.268 OA
ATOM     21  C   UNL     1      -0.034  -2.714   3.742  1.00  0.00    -0.017 A 
ATOM     22  C   UNL     1       0.327  -2.887   5.191  1.00  0.00     0.047 C 
BRANCH  16  23
ATOM     23  C   UNL     1       0.375  -2.411  -0.455  1.00  0.00     0.127 C 
BRANCH  23  24
ATOM     24  C   UNL     1       0.423  -1.039  -1.144  1.00  0.00     0.019 C 
ATOM     25  C   UNL     1       1.549  -0.131  -0.668  1.00  0.00     0.006 C 
ENDBRANCH  23  24
ENDBRANCH  16  23
BRANCH  17  26
ATOM     26  N   UNL     1       0.397  -4.930   0.765  1.00  0.00    -0.357 N 
ATOM     27  C   UNL     1       1.767  -5.367   0.465  1.00  0.00     0.118 C 
ATOM     28  C   UNL     1      -0.641  -5.930   0.495  1.00  0.00     0.121 C 
ATOM     29  C   UNL     1       1.871  -5.776  -1.003  1.00  0.00     0.022 C 
ATOM     30  C   UNL     1      -0.588  -6.356  -0.979  1.00  0.00     0.005 C 
ATOM     31  C   UNL     1       0.823  -6.826  -1.363  1.00  0.00     0.007 C 
ATOM     32  C   UNL     1      -1.612  -7.454  -1.258  1.00  0.00     0.009 C 
ENDBRANCH  17  26
BRANCH  19  33
ATOM     33  C   UNL     1      -0.653  -0.299   4.001  1.00  0.00     0.105 C 
ATOM     34  N   UNL     1      -0.933   0.723   4.683  1.00  0.00    -0.192 NA
ENDBRANCH  19  33
ENDBRANCH   8  15
ENDBRANCH   6   7
ENDBRANCH   4   6
ENDBRANCH   3   4
ENDBRANCH   2   3
ENDBRANCH   1   2
BRANCH   1  35
ATOM     35  O   UNL     1      -5.993  -1.144   5.301  1.00  0.00    -0.374 OA
BRANCH  35  36
ATOM     36  C   UNL     1      -4.876  -1.582   4.530  1.00  0.00     0.202 C 
BRANCH  36  37
ATOM     37  C   UNL     1      -3.498  -1.399   5.161  1.00  0.00     0.261 C 
BRANCH  37  38
ATOM     38  O   UNL     1      -3.287  -2.203   6.338  1.00  0.00    -0.460 OA
BRANCH  38  39
ATOM     39  C   UNL     1      -2.248  -1.774   7.080  1.00  0.00     0.338 C 
ATOM     40  O   UNL     1      -1.386  -0.969   6.761  1.00  0.00    -0.246 OA
BRANCH  39  41
ATOM     41  C   UNL     1      -2.217  -2.324   8.424  1.00  0.00     0.060 A 
ATOM     42  C   UNL     1      -2.808  -1.558   9.431  1.00  0.00     0.016 A 
ATOM     43  C   UNL     1      -1.326  -3.360   8.716  1.00  0.00     0.016 A 
ATOM     44  C   UNL     1      -2.475  -1.815  10.754  1.00  0.00     0.010 A 
ATOM     45  C   UNL     1      -1.001  -3.619  10.043  1.00  0.00     0.010 A 
ATOM     46  C   UNL     1      -1.550  -2.825  11.060  1.00  0.00    -0.014 A 
BRANCH  46  47
ATOM     47  C   UNL     1      -1.169  -3.048  12.464  1.00  0.00     0.031 A 
ATOM     48  C   UNL     1       0.054  -2.399  13.037  1.00  0.00     0.074 A 
ATOM     49  C   UNL     1      -1.974  -3.813  13.218  1.00  0.00     0.049 A 
ATOM     50  N   UNL     1       0.488  -2.423  14.270  1.00  0.00    -0.248 NA
ATOM     51  C   UNL     1       0.898  -1.624  12.113  1.00  0.00     0.031 C 
ATOM     52  C   UNL     1      -3.191  -4.472  12.740  1.00  0.00     0.029 A 
ATOM     53  N   UNL     1      -1.901  -4.150  14.541  1.00  0.00    -0.354 N 
ATOM     54  C   UNL     1       1.646  -1.656  14.278  1.00  0.00     0.074 A 
ATOM     55  C   UNL     1       1.865  -1.203  12.921  1.00  0.00     0.031 C 
ATOM     56  C   UNL     1      -3.765  -5.120  13.765  1.00  0.00     0.029 A 
ATOM     57  C   UNL     1      -2.947  -4.932  14.960  1.00  0.00     0.049 A 
ATOM     58  H   UNL     1      -1.170  -3.861  15.134  1.00  0.00     0.167 HD
ATOM     59  C   UNL     1       2.443  -1.355  15.330  1.00  0.00     0.031 A 
ATOM     60  C   UNL     1      -3.221  -5.435  16.177  1.00  0.00     0.031 A 
ATOM     61  C   UNL     1       2.216  -1.827  16.670  1.00  0.00     0.049 A 
ATOM     62  C   UNL     1      -2.304  -5.117  17.317  1.00  0.00     0.074 A 
ATOM     63  C   UNL     1       2.957  -1.571  17.810  1.00  0.00     0.029 A 
ATOM     64  N   UNL     1       1.172  -2.658  17.048  1.00  0.00    -0.354 N 
ATOM     65  N   UNL     1      -1.224  -4.372  17.313  1.00  0.00    -0.248 NA
ATOM     66  C   UNL     1      -2.637  -5.701  18.621  1.00  0.00     0.031 C 
ATOM     67  C   UNL     1       2.377  -2.274  18.872  1.00  0.00     0.029 A 
ATOM     68  C   UNL     1       1.258  -2.941  18.399  1.00  0.00     0.049 A 
ATOM     69  H   UNL     1       0.472  -2.996  16.443  1.00  0.00     0.167 HD
ATOM     70  C   UNL     1      -0.750  -4.390  18.617  1.00  0.00     0.074 A 
ATOM     71  C   UNL     1      -1.665  -5.214  19.384  1.00  0.00     0.031 C 
ATOM     72  C   UNL     1       0.342  -3.777  19.133  1.00  0.00     0.031 A 
BRANCH  59  73
ATOM     73  C   UNL     1       3.638  -0.480  15.076  1.00  0.00    -0.014 A 
ATOM     74  C   UNL     1       3.494   0.912  14.945  1.00  0.00     0.010 A 
ATOM     75  C   UNL     1       4.926  -1.045  15.037  1.00  0.00     0.010 A 
ATOM     76  C   UNL     1       4.618   1.724  14.762  1.00  0.00     0.020 A 
ATOM     77  C   UNL     1       6.053  -0.234  14.867  1.00  0.00     0.020 A 
ATOM     78  C   UNL     1       5.890   1.145  14.725  1.00  0.00     0.054 A 
BRANCH  78  79
ATOM     79  S   UNL     1       7.329   2.230  14.508  1.00  0.00     0.124 S 
ATOM     80  O   UNL     1       7.104   2.770  13.169  1.00  0.00    -0.237 OA
ATOM     81  O   UNL     1       7.177   3.182  15.604  1.00  0.00    -0.237 OA
ATOM     82  O   UNL     1       8.470   1.323  14.624  1.00  0.00    -0.744 OA
ENDBRANCH  78  79
ENDBRANCH  59  73
BRANCH  60  83
ATOM     83  C   UNL     1      -4.437  -6.265  16.348  1.00  0.00    -0.014 A 
ATOM     84  C   UNL     1      -5.606  -5.705  16.886  1.00  0.00     0.010 A 
ATOM     85  C   UNL     1      -4.460  -7.587  15.865  1.00  0.00     0.010 A 
ATOM     86  C   UNL     1      -6.788  -6.449  16.924  1.00  0.00     0.020 A 
ATOM     87  C   UNL     1      -5.644  -8.328  15.889  1.00  0.00     0.020 A 
ATOM     88  C   UNL     1      -6.802  -7.752  16.413  1.00  0.00     0.054 A 
BRANCH  88  89
ATOM     89  S   UNL     1      -8.374  -8.656  16.388  1.00  0.00     0.124 S 
ATOM     90  O   UNL     1      -8.649  -8.832  17.811  1.00  0.00    -0.237 OA
ATOM     91  O   UNL     1      -9.253  -7.728  15.682  1.00  0.00    -0.237 OA
ATOM     92  O   UNL     1      -8.055  -9.881  15.657  1.00  0.00    -0.744 OA
ENDBRANCH  88  89
ENDBRANCH  60  83
BRANCH  72  93
ATOM     93  C   UNL     1       0.617  -3.979  20.594  1.00  0.00    -0.014 A 
ATOM     94  C   UNL     1       1.265  -5.142  21.041  1.00  0.00     0.010 A 
ATOM     95  C   UNL     1       0.309  -2.959  21.511  1.00  0.00     0.010 A 
ATOM     96  C   UNL     1       1.600  -5.284  22.389  1.00  0.00     0.020 A 
ATOM     97  C   UNL     1       0.653  -3.093  22.857  1.00  0.00     0.020 A 
ATOM     98  C   UNL     1       1.297  -4.256  23.287  1.00  0.00     0.054 A 
BRANCH  98  99
ATOM     99  S   UNL     1       1.800  -4.446  25.019  1.00  0.00     0.124 S 
ATOM    100  O   UNL     1       0.962  -5.558  25.461  1.00  0.00    -0.237 OA
ATOM    101  O   UNL     1       3.226  -4.741  24.903  1.00  0.00    -0.237 OA
ATOM    102  O   UNL     1       1.482  -3.152  25.619  1.00  0.00    -0.744 OA
ENDBRANCH  98  99
ENDBRANCH  72  93
ENDBRANCH  46  47
ENDBRANCH  39  41
ENDBRANCH  38  39
ENDBRANCH  37  38
ENDBRANCH  36  37
ENDBRANCH  35  36
ENDBRANCH   1  35
TORSDOF 23
