REMARK SMILES [NH3+][C@H]1CN(C(=O)OCC2c3ccccc3-c3ccccc32)C[C@@H]1C(=O)OCCOCCOC(=O)c1ccc(-c2c3nc(c(-c4ccc(S(=O)(=O)[O-])cc4)c4ccc([nH]4)c(-c4ccc(S(=O)(=O)[O-])cc4)c4nc(c(-c5ccc(S(=O)(=O)[O-])cc5)c5ccc2[nH]5)C=C4)C=C3)cc1
REMARK SMILES IDX 28 1 27 2 26 3 24 4 25 5 23 6 2 7 3 8 4 9 22 10 1 11 5 15
REMARK SMILES IDX 6 16 7 17 8 18 9 19 10 20 21 21 11 22 15 23 16 24 20 25
REMARK SMILES IDX 12 26 14 27 17 28 19 29 13 30 18 31 29 32 30 33 31 34 32 35
REMARK SMILES IDX 33 36 34 37 35 38 36 39 94 40 37 41 93 42 38 43 39 44 40 45
REMARK SMILES IDX 87 46 41 47 92 48 86 49 88 50 42 51 91 52 85 53 84 54 43 56
REMARK SMILES IDX 73 57 54 58 72 59 55 60 58 61 71 62 89 63 56 64 57 65 70 67
REMARK SMILES IDX 90 68 59 69 44 70 45 71 53 72 46 73 52 74 47 75 48 76 49 77
REMARK SMILES IDX 50 78 51 79 74 80 75 81 83 82 76 83 82 84 77 85 78 86 79 87
REMARK SMILES IDX 80 88 81 89 60 90 61 91 69 92 62 93 68 94 63 95 64 96 65 97
REMARK SMILES IDX 66 98 67 99
REMARK H PARENT 1 12 1 13 1 14 88 55 58 66
REMARK Flexibility Score: inf
ROOT
ATOM      1  C   UNL     1       5.139  -2.841  -1.330  1.00  0.00     0.202 C 
ENDROOT
BRANCH   1   2
ATOM      2  C   UNL     1       4.351  -1.607  -0.881  1.00  0.00     0.261 C 
BRANCH   2   3
ATOM      3  O   UNL     1       3.061  -1.936  -0.331  1.00  0.00    -0.463 OA
BRANCH   3   4
ATOM      4  C   UNL     1       1.990  -1.512  -1.049  1.00  0.00     0.316 C 
ATOM      5  O   UNL     1       2.055  -0.866  -2.089  1.00  0.00    -0.252 OA
BRANCH   4   6
ATOM      6  C   UNL     1       0.659  -1.901  -0.445  1.00  0.00     0.178 C 
ATOM      7  C   UNL     1       0.267  -0.951   0.692  1.00  0.00     0.216 C 
ATOM      8  C   UNL     1       0.812  -1.665   1.952  1.00  0.00     0.188 C 
ATOM      9  N   UNL     1       0.830  -3.075   1.599  1.00  0.00    -0.301 N 
ATOM     10  C   UNL     1       0.597  -3.280   0.188  1.00  0.00     0.145 C 
BRANCH   7  11
ATOM     11  N   UNL     1      -1.200  -0.806   0.757  1.00  0.00    -0.353 N 
ATOM     12  H   UNL     1      -1.446  -0.172   1.518  1.00  0.00     0.344 HD
ATOM     13  H   UNL     1      -1.625  -1.719   0.924  1.00  0.00     0.344 HD
ATOM     14  H   UNL     1      -1.544  -0.428  -0.126  1.00  0.00     0.344 HD
ENDBRANCH   7  11
BRANCH   9  15
ATOM     15  C   UNL     1       1.130  -4.128   2.419  1.00  0.00     0.410 C 
ATOM     16  O   UNL     1       1.193  -5.282   2.003  1.00  0.00    -0.224 OA
BRANCH  15  17
ATOM     17  O   UNL     1       1.331  -3.772   3.715  1.00  0.00    -0.448 OA
BRANCH  17  18
ATOM     18  C   UNL     1       1.666  -4.864   4.611  1.00  0.00     0.248 C 
BRANCH  18  19
ATOM     19  C   UNL     1       0.422  -5.695   4.967  1.00  0.00     0.088 C 
ATOM     20  C   UNL     1       0.579  -7.211   4.824  1.00  0.00    -0.029 A 
ATOM     21  C   UNL     1      -0.012  -5.577   6.429  1.00  0.00    -0.029 A 
ATOM     22  C   UNL     1       1.016  -7.948   3.732  1.00  0.00     0.005 A 
ATOM     23  C   UNL     1       0.138  -7.859   5.997  1.00  0.00    -0.014 A 
ATOM     24  C   UNL     1      -0.214  -6.861   6.982  1.00  0.00    -0.014 A 
ATOM     25  C   UNL     1      -0.229  -4.433   7.182  1.00  0.00     0.005 A 
ATOM     26  C   UNL     1       0.999  -9.342   3.814  1.00  0.00     0.000 A 
ATOM     27  C   UNL     1       0.111  -9.244   6.076  1.00  0.00     0.009 A 
ATOM     28  C   UNL     1      -0.651  -7.010   8.288  1.00  0.00     0.009 A 
ATOM     29  C   UNL     1      -0.655  -4.585   8.505  1.00  0.00     0.000 A 
ATOM     30  C   UNL     1       0.541  -9.985   4.973  1.00  0.00     0.001 A 
ATOM     31  C   UNL     1      -0.873  -5.860   9.050  1.00  0.00     0.001 A 
ENDBRANCH  18  19
ENDBRANCH  17  18
ENDBRANCH  15  17
ENDBRANCH   9  15
ENDBRANCH   4   6
ENDBRANCH   3   4
ENDBRANCH   2   3
ENDBRANCH   1   2
BRANCH   1  32
ATOM     32  O   UNL     1       4.585  -3.652  -2.363  1.00  0.00    -0.374 OA
BRANCH  32  33
ATOM     33  C   UNL     1       3.452  -4.456  -2.047  1.00  0.00     0.202 C 
BRANCH  33  34
ATOM     34  C   UNL     1       3.642  -5.652  -1.099  1.00  0.00     0.261 C 
BRANCH  34  35
ATOM     35  O   UNL     1       4.120  -5.286   0.206  1.00  0.00    -0.460 OA
BRANCH  35  36
ATOM     36  C   UNL     1       5.387  -5.692   0.473  1.00  0.00     0.338 C 
ATOM     37  O   UNL     1       6.123  -6.334  -0.258  1.00  0.00    -0.246 OA
BRANCH  36  38
ATOM     38  C   UNL     1       5.867  -5.080   1.725  1.00  0.00     0.060 A 
ATOM     39  C   UNL     1       7.017  -4.283   1.657  1.00  0.00     0.016 A 
ATOM     40  C   UNL     1       5.277  -5.370   2.955  1.00  0.00     0.016 A 
ATOM     41  C   UNL     1       7.610  -3.812   2.826  1.00  0.00     0.010 A 
ATOM     42  C   UNL     1       5.873  -4.894   4.129  1.00  0.00     0.010 A 
ATOM     43  C   UNL     1       7.066  -4.148   4.073  1.00  0.00    -0.014 A 
BRANCH  43  44
ATOM     44  C   UNL     1       7.830  -3.841   5.309  1.00  0.00     0.031 A 
ATOM     45  C   UNL     1       8.561  -4.952   6.017  1.00  0.00     0.074 A 
ATOM     46  C   UNL     1       7.915  -2.579   5.771  1.00  0.00     0.049 A 
ATOM     47  N   UNL     1       9.269  -4.910   7.116  1.00  0.00    -0.248 NA
ATOM     48  C   UNL     1       8.482  -6.289   5.404  1.00  0.00     0.031 C 
ATOM     49  C   UNL     1       7.298  -1.408   5.147  1.00  0.00     0.029 A 
ATOM     50  N   UNL     1       8.556  -2.074   6.874  1.00  0.00    -0.354 N 
ATOM     51  C   UNL     1       9.709  -6.211   7.334  1.00  0.00     0.074 A 
ATOM     52  C   UNL     1       9.161  -7.025   6.271  1.00  0.00     0.031 C 
ATOM     53  C   UNL     1       7.590  -0.320   5.880  1.00  0.00     0.029 A 
ATOM     54  C   UNL     1       8.377  -0.722   7.045  1.00  0.00     0.049 A 
ATOM     55  H   UNL     1       9.093  -2.627   7.486  1.00  0.00     0.167 HD
ATOM     56  C   UNL     1      10.502  -6.685   8.325  1.00  0.00     0.031 A 
ATOM     57  C   UNL     1       8.779   0.097   8.038  1.00  0.00     0.031 A 
ATOM     58  C   UNL     1      11.036  -5.872   9.388  1.00  0.00     0.049 A 
ATOM     59  C   UNL     1       9.592  -0.468   9.174  1.00  0.00     0.074 A 
ATOM     60  C   UNL     1      11.861  -6.256  10.432  1.00  0.00     0.029 A 
ATOM     61  N   UNL     1      10.794  -4.516   9.549  1.00  0.00    -0.354 N 
ATOM     62  N   UNL     1      10.016  -1.696   9.355  1.00  0.00    -0.248 NA
ATOM     63  C   UNL     1       9.988   0.468  10.236  1.00  0.00     0.031 C 
ATOM     64  C   UNL     1      12.061  -5.147  11.260  1.00  0.00     0.029 A 
ATOM     65  C   UNL     1      11.426  -4.055  10.691  1.00  0.00     0.049 A 
ATOM     66  H   UNL     1      10.252  -3.963   8.940  1.00  0.00     0.167 HD
ATOM     67  C   UNL     1      10.754  -1.674  10.535  1.00  0.00     0.074 A 
ATOM     68  C   UNL     1      10.731  -0.307  11.014  1.00  0.00     0.031 C 
ATOM     69  C   UNL     1      11.396  -2.692  11.161  1.00  0.00     0.031 A 
BRANCH  56  70
ATOM     70  C   UNL     1      10.810  -8.161   8.331  1.00  0.00    -0.014 A 
ATOM     71  C   UNL     1      11.642  -8.741   7.355  1.00  0.00     0.010 A 
ATOM     72  C   UNL     1      10.293  -8.975   9.356  1.00  0.00     0.010 A 
ATOM     73  C   UNL     1      11.919 -10.111   7.384  1.00  0.00     0.020 A 
ATOM     74  C   UNL     1      10.593 -10.339   9.406  1.00  0.00     0.020 A 
ATOM     75  C   UNL     1      11.392 -10.902   8.409  1.00  0.00     0.054 A 
BRANCH  75  76
ATOM     76  S   UNL     1      11.789 -12.671   8.435  1.00  0.00     0.124 S 
ATOM     77  O   UNL     1      11.029 -13.168   7.290  1.00  0.00    -0.237 OA
ATOM     78  O   UNL     1      13.240 -12.675   8.273  1.00  0.00    -0.237 OA
ATOM     79  O   UNL     1      11.308 -13.118   9.740  1.00  0.00    -0.744 OA
ENDBRANCH  75  76
ENDBRANCH  56  70
BRANCH  57  80
ATOM     80  C   UNL     1       8.398   1.536   8.015  1.00  0.00    -0.014 A 
ATOM     81  C   UNL     1       9.368   2.539   7.842  1.00  0.00     0.010 A 
ATOM     82  C   UNL     1       7.049   1.912   8.169  1.00  0.00     0.010 A 
ATOM     83  C   UNL     1       9.000   3.888   7.840  1.00  0.00     0.020 A 
ATOM     84  C   UNL     1       6.674   3.257   8.134  1.00  0.00     0.020 A 
ATOM     85  C   UNL     1       7.654   4.238   7.981  1.00  0.00     0.054 A 
BRANCH  85  86
ATOM     86  S   UNL     1       7.195   5.992   7.921  1.00  0.00     0.124 S 
ATOM     87  O   UNL     1       7.716   6.487   9.191  1.00  0.00    -0.237 OA
ATOM     88  O   UNL     1       7.892   6.457   6.724  1.00  0.00    -0.237 OA
ATOM     89  O   UNL     1       5.738   5.961   7.811  1.00  0.00    -0.744 OA
ENDBRANCH  85  86
ENDBRANCH  57  80
BRANCH  69  90
ATOM     90  C   UNL     1      12.165  -2.365  12.416  1.00  0.00    -0.014 A 
ATOM     91  C   UNL     1      11.511  -2.027  13.614  1.00  0.00     0.010 A 
ATOM     92  C   UNL     1      13.570  -2.454  12.408  1.00  0.00     0.010 A 
ATOM     93  C   UNL     1      12.248  -1.750  14.769  1.00  0.00     0.020 A 
ATOM     94  C   UNL     1      14.309  -2.212  13.569  1.00  0.00     0.020 A 
ATOM     95  C   UNL     1      13.643  -1.846  14.739  1.00  0.00     0.054 A 
BRANCH  95  96
ATOM     96  S   UNL     1      14.572  -1.524  16.263  1.00  0.00     0.124 S 
ATOM     97  O   UNL     1      14.425  -0.079  16.410  1.00  0.00    -0.237 OA
ATOM     98  O   UNL     1      13.859  -2.332  17.249  1.00  0.00    -0.237 OA
ATOM     99  O   UNL     1      15.924  -1.983  15.950  1.00  0.00    -0.744 OA
ENDBRANCH  95  96
ENDBRANCH  69  90
ENDBRANCH  43  44
ENDBRANCH  36  38
ENDBRANCH  35  36
ENDBRANCH  34  35
ENDBRANCH  33  34
ENDBRANCH  32  33
ENDBRANCH   1  32
TORSDOF 22
