REMARK SMILES CC[NH2+][C@@]1(C(=O)OCCOCCOC(=O)c2ccc(-c3c4nc(c(-c5ccc(S(=O)(=O)[O-])cc5)c5ccc([nH]5)c(-c5ccc(S(=O)(=O)[O-])cc5)c5nc(c(-c6ccc(S(=O)(=O)[O-])cc6)c6ccc3[nH]6)C=C5)C=C4)cc2)CC[C@H](Oc2ccc3c(c2)OCO3)C1
REMARK SMILES IDX 11 1 10 2 9 3 8 4 7 5 5 6 6 7 4 8 76 9 89 10 77 11 78 12
REMARK SMILES IDX 3 13 2 16 1 17 79 18 80 19 81 20 85 21 82 22 84 23 83 24
REMARK SMILES IDX 86 25 88 26 87 27 12 28 13 29 14 30 15 31 16 32 17 33 75 34
REMARK SMILES IDX 18 35 74 36 19 37 20 38 21 39 68 40 22 41 73 42 67 43 69 44
REMARK SMILES IDX 23 45 72 46 66 47 65 48 24 50 54 51 35 52 53 53 36 54 39 55
REMARK SMILES IDX 52 56 70 57 37 58 38 59 51 61 71 62 40 63 25 64 26 65 34 66
REMARK SMILES IDX 27 67 33 68 28 69 29 70 30 71 31 72 32 73 55 74 56 75 64 76
REMARK SMILES IDX 57 77 63 78 58 79 59 80 60 81 61 82 62 83 41 84 42 85 50 86
REMARK SMILES IDX 43 87 49 88 44 89 45 90 46 91 47 92 48 93
REMARK H PARENT 3 14 3 15 69 49 39 60
REMARK Flexibility Score: inf
ROOT
ATOM      1  C   UNL     1       2.812  -1.023   4.067  1.00  0.00     0.202 C 
ENDROOT
BRANCH   1   2
ATOM      2  O   UNL     1       3.930  -0.397   4.690  1.00  0.00    -0.374 OA
BRANCH   2   3
ATOM      3  C   UNL     1       3.654   0.437   5.817  1.00  0.00     0.202 C 
BRANCH   3   4
ATOM      4  C   UNL     1       3.086   1.829   5.515  1.00  0.00     0.261 C 
BRANCH   4   5
ATOM      5  O   UNL     1       1.797   1.768   4.879  1.00  0.00    -0.459 OA
BRANCH   5   6
ATOM      6  C   UNL     1       1.735   2.205   3.598  1.00  0.00     0.368 C 
ATOM      7  O   UNL     1       2.686   2.670   2.972  1.00  0.00    -0.245 OA
BRANCH   6   8
ATOM      8  C   UNL     1       0.320   2.064   2.953  1.00  0.00     0.198 C 
ATOM      9  C   UNL     1      -0.405   3.410   3.089  1.00  0.00     0.085 C 
ATOM     10  C   UNL     1      -0.657   1.101   3.646  1.00  0.00     0.126 C 
ATOM     11  C   UNL     1      -1.016   3.374   4.485  1.00  0.00     0.052 C 
ATOM     12  C   UNL     1      -1.352   1.906   4.755  1.00  0.00     0.180 C 
BRANCH   8  13
ATOM     13  N   UNL     1       0.526   1.798   1.496  1.00  0.00    -0.332 N 
ATOM     14  H   UNL     1      -0.238   2.237   0.983  1.00  0.00     0.347 HD
ATOM     15  H   UNL     1       1.443   2.179   1.264  1.00  0.00     0.347 HD
BRANCH  13  16
ATOM     16  C   UNL     1       0.568   0.386   1.124  1.00  0.00     0.257 C 
ATOM     17  C   UNL     1       1.247   0.204  -0.226  1.00  0.00     0.071 C 
ENDBRANCH  13  16
ENDBRANCH   8  13
BRANCH  12  18
ATOM     18  O   UNL     1      -0.820   1.488   6.007  1.00  0.00    -0.490 OA
BRANCH  18  19
ATOM     19  C   UNL     1      -1.559   1.679   7.140  1.00  0.00     0.123 A 
ATOM     20  C   UNL     1      -2.806   2.322   7.226  1.00  0.00     0.050 A 
ATOM     21  C   UNL     1      -0.969   1.153   8.292  1.00  0.00     0.097 A 
ATOM     22  C   UNL     1      -3.481   2.413   8.452  1.00  0.00     0.054 A 
ATOM     23  C   UNL     1      -1.664   1.242   9.478  1.00  0.00     0.169 A 
ATOM     24  C   UNL     1      -2.889   1.850   9.559  1.00  0.00     0.166 A 
ATOM     25  O   UNL     1      -1.261   0.741  10.671  1.00  0.00    -0.453 OA
ATOM     26  O   UNL     1      -3.408   1.810  10.815  1.00  0.00    -0.454 OA
ATOM     27  C   UNL     1      -2.388   1.058  11.510  1.00  0.00     0.468 C 
ENDBRANCH  18  19
ENDBRANCH  12  18
ENDBRANCH   6   8
ENDBRANCH   5   6
ENDBRANCH   4   5
ENDBRANCH   3   4
ENDBRANCH   2   3
ENDBRANCH   1   2
BRANCH   1  28
ATOM     28  C   UNL     1       2.244  -2.274   4.748  1.00  0.00     0.261 C 
BRANCH  28  29
ATOM     29  O   UNL     1       1.756  -2.010   6.074  1.00  0.00    -0.460 OA
BRANCH  29  30
ATOM     30  C   UNL     1       2.503  -2.549   7.067  1.00  0.00     0.338 C 
ATOM     31  O   UNL     1       3.479  -3.278   6.942  1.00  0.00    -0.246 OA
BRANCH  30  32
ATOM     32  C   UNL     1       2.080  -2.018   8.374  1.00  0.00     0.060 A 
ATOM     33  C   UNL     1       3.061  -1.454   9.201  1.00  0.00     0.016 A 
ATOM     34  C   UNL     1       0.765  -2.138   8.820  1.00  0.00     0.016 A 
ATOM     35  C   UNL     1       2.739  -1.043  10.496  1.00  0.00     0.010 A 
ATOM     36  C   UNL     1       0.450  -1.731  10.121  1.00  0.00     0.010 A 
ATOM     37  C   UNL     1       1.435  -1.204  10.980  1.00  0.00    -0.014 A 
BRANCH  37  38
ATOM     38  C   UNL     1       1.121  -0.953  12.414  1.00  0.00     0.031 A 
ATOM     39  C   UNL     1       0.824  -2.128  13.309  1.00  0.00     0.074 A 
ATOM     40  C   UNL     1       1.072   0.295  12.922  1.00  0.00     0.049 A 
ATOM     41  N   UNL     1       0.450  -2.144  14.563  1.00  0.00    -0.248 NA
ATOM     42  C   UNL     1       0.957  -3.465  12.705  1.00  0.00     0.031 C 
ATOM     43  C   UNL     1       1.339   1.528  12.181  1.00  0.00     0.029 A 
ATOM     44  N   UNL     1       0.737   0.731  14.183  1.00  0.00    -0.354 N 
ATOM     45  C   UNL     1       0.304  -3.486  14.896  1.00  0.00     0.074 A 
ATOM     46  C   UNL     1       0.569  -4.250  13.697  1.00  0.00     0.031 C 
ATOM     47  C   UNL     1       1.119   2.582  12.988  1.00  0.00     0.029 A 
ATOM     48  C   UNL     1       0.688   2.101  14.299  1.00  0.00     0.049 A 
ATOM     49  H   UNL     1       0.550   0.120  14.932  1.00  0.00     0.167 HD
ATOM     50  C   UNL     1       0.008  -4.040  16.096  1.00  0.00     0.031 A 
ATOM     51  C   UNL     1       0.317   2.882  15.333  1.00  0.00     0.031 A 
ATOM     52  C   UNL     1      -0.242  -3.291  17.297  1.00  0.00     0.049 A 
ATOM     53  C   UNL     1      -0.073   2.249  16.643  1.00  0.00     0.074 A 
ATOM     54  C   UNL     1      -0.493  -3.767  18.572  1.00  0.00     0.029 A 
ATOM     55  N   UNL     1      -0.273  -1.908  17.372  1.00  0.00    -0.354 N 
ATOM     56  N   UNL     1      -0.152   0.977  16.953  1.00  0.00    -0.248 NA
ATOM     57  C   UNL     1      -0.400   3.160  17.751  1.00  0.00     0.031 C 
ATOM     58  C   UNL     1      -0.718  -2.670  19.411  1.00  0.00     0.029 A 
ATOM     59  C   UNL     1      -0.559  -1.512  18.667  1.00  0.00     0.049 A 
ATOM     60  H   UNL     1      -0.115  -1.297  16.616  1.00  0.00     0.167 HD
ATOM     61  C   UNL     1      -0.488   0.936  18.303  1.00  0.00     0.074 A 
ATOM     62  C   UNL     1      -0.607   2.309  18.747  1.00  0.00     0.031 C 
ATOM     63  C   UNL     1      -0.665  -0.143  19.104  1.00  0.00     0.031 A 
BRANCH  50  64
ATOM     64  C   UNL     1      -0.055  -5.543  16.162  1.00  0.00    -0.014 A 
ATOM     65  C   UNL     1       1.115  -6.319  16.064  1.00  0.00     0.010 A 
ATOM     66  C   UNL     1      -1.292  -6.187  16.339  1.00  0.00     0.010 A 
ATOM     67  C   UNL     1       1.043  -7.713  16.090  1.00  0.00     0.020 A 
ATOM     68  C   UNL     1      -1.365  -7.582  16.394  1.00  0.00     0.020 A 
ATOM     69  C   UNL     1      -0.198  -8.336  16.248  1.00  0.00     0.054 A 
BRANCH  69  70
ATOM     70  S   UNL     1      -0.265 -10.148  16.285  1.00  0.00     0.124 S 
ATOM     71  O   UNL     1      -0.086 -10.483  14.874  1.00  0.00    -0.237 OA
ATOM     72  O   UNL     1       0.854 -10.494  17.158  1.00  0.00    -0.237 OA
ATOM     73  O   UNL     1      -1.589 -10.435  16.830  1.00  0.00    -0.744 OA
ENDBRANCH  69  70
ENDBRANCH  50  64
BRANCH  51  74
ATOM     74  C   UNL     1       0.298   4.362  15.178  1.00  0.00    -0.014 A 
ATOM     75  C   UNL     1       1.278   5.160  15.793  1.00  0.00     0.010 A 
ATOM     76  C   UNL     1      -0.713   4.981  14.421  1.00  0.00     0.010 A 
ATOM     77  C   UNL     1       1.237   6.552  15.671  1.00  0.00     0.020 A 
ATOM     78  C   UNL     1      -0.745   6.372  14.278  1.00  0.00     0.020 A 
ATOM     79  C   UNL     1       0.225   7.149  14.914  1.00  0.00     0.054 A 
BRANCH  79  80
ATOM     80  S   UNL     1       0.217   8.955  14.736  1.00  0.00     0.124 S 
ATOM     81  O   UNL     1      -0.231   9.389  16.055  1.00  0.00    -0.237 OA
ATOM     82  O   UNL     1       1.612   9.246  14.414  1.00  0.00    -0.237 OA
ATOM     83  O   UNL     1      -0.728   9.187  13.645  1.00  0.00    -0.744 OA
ENDBRANCH  79  80
ENDBRANCH  51  74
BRANCH  63  84
ATOM     84  C   UNL     1      -0.948   0.108  20.561  1.00  0.00    -0.014 A 
ATOM     85  C   UNL     1      -2.203   0.564  20.998  1.00  0.00     0.010 A 
ATOM     86  C   UNL     1       0.049  -0.175  21.514  1.00  0.00     0.010 A 
ATOM     87  C   UNL     1      -2.448   0.759  22.360  1.00  0.00     0.020 A 
ATOM     88  C   UNL     1      -0.200  -0.005  22.878  1.00  0.00     0.020 A 
ATOM     89  C   UNL     1      -1.444   0.475  23.292  1.00  0.00     0.054 A 
BRANCH  89  90
ATOM     90  S   UNL     1      -1.799   0.690  25.058  1.00  0.00     0.124 S 
ATOM     91  O   UNL     1      -1.727   2.141  25.207  1.00  0.00    -0.237 OA
ATOM     92  O   UNL     1      -3.133   0.110  25.192  1.00  0.00    -0.237 OA
ATOM     93  O   UNL     1      -0.732  -0.058  25.719  1.00  0.00    -0.744 OA
ENDBRANCH  89  90
ENDBRANCH  63  84
ENDBRANCH  37  38
ENDBRANCH  30  32
ENDBRANCH  29  30
ENDBRANCH  28  29
ENDBRANCH   1  28
TORSDOF 21
