REMARK SMILES COCC[N@H+](C)[C@H](C(=O)OCCOCCOC(=O)c1ccc(-c2c3nc(c(-c4ccc(S(=O)(=O)[O-])cc4)c4ccc([nH]4)c(-c4ccc(S(=O)(=O)[O-])cc4)c4nc(c(-c5ccc(S(=O)(=O)[O-])cc5)c5ccc2[nH]5)C=C4)C=C3)cc1)c1ccc(OC)nc1
REMARK SMILES IDX 12 1 11 2 10 3 8 4 9 5 7 6 5 7 6 8 4 10 3 11 2 12 1 13 79 14
REMARK SMILES IDX 80 15 86 16 81 17 85 18 82 19 83 20 84 21 13 22 14 23 15 24
REMARK SMILES IDX 16 25 17 26 18 27 19 28 20 29 78 30 21 31 77 32 22 33 23 34
REMARK SMILES IDX 24 35 71 36 25 37 76 38 70 39 72 40 26 41 75 42 69 43 68 44
REMARK SMILES IDX 27 46 57 47 38 48 56 49 39 50 42 51 55 52 73 53 40 54 41 55
REMARK SMILES IDX 54 57 74 58 43 59 28 60 29 61 37 62 30 63 36 64 31 65 32 66
REMARK SMILES IDX 33 67 34 68 35 69 58 70 59 71 67 72 60 73 66 74 61 75 62 76
REMARK SMILES IDX 63 77 64 78 65 79 44 80 45 81 53 82 46 83 52 84 47 85 48 86
REMARK SMILES IDX 49 87 50 88 51 89
REMARK H PARENT 5 9 72 45 42 56
REMARK Flexibility Score: inf
ROOT
ATOM      1  C   UNL     1       1.151  -0.728   5.106  1.00  0.00     0.202 C 
ENDROOT
BRANCH   1   2
ATOM      2  C   UNL     1       1.791   0.329   4.201  1.00  0.00     0.261 C 
BRANCH   2   3
ATOM      3  O   UNL     1       1.096   0.404   2.944  1.00  0.00    -0.459 OA
BRANCH   3   4
ATOM      4  C   UNL     1       1.601  -0.353   1.937  1.00  0.00     0.370 C 
ATOM      5  O   UNL     1       2.697  -0.908   1.975  1.00  0.00    -0.245 OA
BRANCH   4   6
ATOM      6  C   UNL     1       0.686  -0.424   0.698  1.00  0.00     0.327 C 
BRANCH   6   7
ATOM      7  N   UNL     1      -0.774  -0.737   0.903  1.00  0.00    -0.320 N 
ATOM      8  C   UNL     1      -1.480   0.009   1.945  1.00  0.00     0.333 C 
ATOM      9  H   UNL     1      -0.704  -1.696   1.243  1.00  0.00     0.348 HD
BRANCH   7  10
ATOM     10  C   UNL     1      -1.580  -0.691  -0.347  1.00  0.00     0.291 C 
BRANCH  10  11
ATOM     11  C   UNL     1      -1.166  -1.637  -1.494  1.00  0.00     0.221 C 
BRANCH  11  12
ATOM     12  O   UNL     1      -1.711  -2.953  -1.379  1.00  0.00    -0.379 OA
ATOM     13  C   UNL     1      -1.167  -3.699  -0.301  1.00  0.00     0.195 C 
ENDBRANCH  11  12
ENDBRANCH  10  11
ENDBRANCH   7  10
ENDBRANCH   6   7
BRANCH   6  14
ATOM     14  C   UNL     1       1.033   0.705  -0.241  1.00  0.00     0.039 A 
ATOM     15  C   UNL     1       0.673   2.029  -0.008  1.00  0.00     0.018 A 
ATOM     16  C   UNL     1       1.802   0.448  -1.372  1.00  0.00     0.125 A 
ATOM     17  C   UNL     1       1.038   3.012  -0.923  1.00  0.00     0.069 A 
ATOM     18  N   UNL     1       2.158   1.381  -2.277  1.00  0.00    -0.222 NA
ATOM     19  C   UNL     1       1.768   2.651  -2.048  1.00  0.00     0.212 A 
BRANCH  19  20
ATOM     20  O   UNL     1       2.174   3.503  -3.031  1.00  0.00    -0.481 OA
ATOM     21  C   UNL     1       1.792   4.861  -2.887  1.00  0.00     0.280 C 
ENDBRANCH  19  20
ENDBRANCH   6  14
ENDBRANCH   4   6
ENDBRANCH   3   4
ENDBRANCH   2   3
ENDBRANCH   1   2
BRANCH   1  22
ATOM     22  O   UNL     1       1.462  -2.085   4.786  1.00  0.00    -0.374 OA
BRANCH  22  23
ATOM     23  C   UNL     1       0.627  -2.741   3.831  1.00  0.00     0.202 C 
BRANCH  23  24
ATOM     24  C   UNL     1      -0.683  -3.331   4.361  1.00  0.00     0.261 C 
BRANCH  24  25
ATOM     25  O   UNL     1      -1.600  -2.301   4.768  1.00  0.00    -0.460 OA
BRANCH  25  26
ATOM     26  C   UNL     1      -1.637  -2.091   6.103  1.00  0.00     0.338 C 
ATOM     27  O   UNL     1      -1.057  -2.742   6.963  1.00  0.00    -0.246 OA
BRANCH  26  28
ATOM     28  C   UNL     1      -2.336  -0.827   6.410  1.00  0.00     0.060 A 
ATOM     29  C   UNL     1      -1.766  -0.017   7.400  1.00  0.00     0.016 A 
ATOM     30  C   UNL     1      -3.551  -0.473   5.818  1.00  0.00     0.016 A 
ATOM     31  C   UNL     1      -2.461   1.084   7.885  1.00  0.00     0.010 A 
ATOM     32  C   UNL     1      -4.248   0.640   6.304  1.00  0.00     0.010 A 
ATOM     33  C   UNL     1      -3.737   1.378   7.388  1.00  0.00    -0.014 A 
BRANCH  33  34
ATOM     34  C   UNL     1      -4.601   2.297   8.171  1.00  0.00     0.031 A 
ATOM     35  C   UNL     1      -5.657   1.701   9.070  1.00  0.00     0.074 A 
ATOM     36  C   UNL     1      -4.388   3.625   8.169  1.00  0.00     0.049 A 
ATOM     37  N   UNL     1      -6.465   2.298   9.908  1.00  0.00    -0.248 NA
ATOM     38  C   UNL     1      -5.820   0.238   9.020  1.00  0.00     0.031 C 
ATOM     39  C   UNL     1      -3.367   4.318   7.384  1.00  0.00     0.029 A 
ATOM     40  N   UNL     1      -5.011   4.627   8.870  1.00  0.00    -0.354 N 
ATOM     41  C   UNL     1      -7.237   1.288  10.474  1.00  0.00     0.074 A 
ATOM     42  C   UNL     1      -6.828   0.046   9.856  1.00  0.00     0.031 C 
ATOM     43  C   UNL     1      -3.423   5.633   7.660  1.00  0.00     0.029 A 
ATOM     44  C   UNL     1      -4.499   5.877   8.619  1.00  0.00     0.049 A 
ATOM     45  H   UNL     1      -5.754   4.465   9.495  1.00  0.00     0.167 HD
ATOM     46  C   UNL     1      -8.191   1.379  11.430  1.00  0.00     0.031 A 
ATOM     47  C   UNL     1      -4.858   7.082   9.107  1.00  0.00     0.031 A 
ATOM     48  C   UNL     1      -8.597   2.614  12.046  1.00  0.00     0.049 A 
ATOM     49  C   UNL     1      -5.962   7.165  10.130  1.00  0.00     0.074 A 
ATOM     50  C   UNL     1      -9.541   2.810  13.039  1.00  0.00     0.029 A 
ATOM     51  N   UNL     1      -8.089   3.863  11.725  1.00  0.00    -0.354 N 
ATOM     52  N   UNL     1      -6.663   6.197  10.671  1.00  0.00    -0.248 NA
ATOM     53  C   UNL     1      -6.307   8.506  10.622  1.00  0.00     0.031 C 
ATOM     54  C   UNL     1      -9.648   4.184  13.274  1.00  0.00     0.029 A 
ATOM     55  C   UNL     1      -8.717   4.838  12.482  1.00  0.00     0.049 A 
ATOM     56  H   UNL     1      -7.385   4.032  11.058  1.00  0.00     0.167 HD
ATOM     57  C   UNL     1      -7.502   6.809  11.598  1.00  0.00     0.074 A 
ATOM     58  C   UNL     1      -7.213   8.228  11.549  1.00  0.00     0.031 C 
ATOM     59  C   UNL     1      -8.421   6.247  12.424  1.00  0.00     0.031 A 
BRANCH  46  60
ATOM     60  C   UNL     1      -8.892   0.109  11.839  1.00  0.00    -0.014 A 
ATOM     61  C   UNL     1      -8.230  -0.896  12.567  1.00  0.00     0.010 A 
ATOM     62  C   UNL     1     -10.249  -0.066  11.512  1.00  0.00     0.010 A 
ATOM     63  C   UNL     1      -8.901  -2.070  12.923  1.00  0.00     0.020 A 
ATOM     64  C   UNL     1     -10.932  -1.224  11.893  1.00  0.00     0.020 A 
ATOM     65  C   UNL     1     -10.248  -2.227  12.582  1.00  0.00     0.054 A 
BRANCH  65  66
ATOM     66  S   UNL     1     -11.100  -3.751  13.073  1.00  0.00     0.124 S 
ATOM     67  O   UNL     1     -10.503  -4.733  12.172  1.00  0.00    -0.237 OA
ATOM     68  O   UNL     1     -10.732  -3.884  14.480  1.00  0.00    -0.237 OA
ATOM     69  O   UNL     1     -12.509  -3.456  12.826  1.00  0.00    -0.744 OA
ENDBRANCH  65  66
ENDBRANCH  46  60
BRANCH  47  70
ATOM     70  C   UNL     1      -4.161   8.312   8.638  1.00  0.00    -0.014 A 
ATOM     71  C   UNL     1      -3.338   9.050   9.507  1.00  0.00     0.010 A 
ATOM     72  C   UNL     1      -4.329   8.757   7.314  1.00  0.00     0.010 A 
ATOM     73  C   UNL     1      -2.711  10.220   9.066  1.00  0.00     0.020 A 
ATOM     74  C   UNL     1      -3.680   9.909   6.861  1.00  0.00     0.020 A 
ATOM     75  C   UNL     1      -2.884  10.640   7.744  1.00  0.00     0.054 A 
BRANCH  75  76
ATOM     76  S   UNL     1      -2.021  12.132   7.178  1.00  0.00     0.124 S 
ATOM     77  O   UNL     1      -2.767  13.189   7.853  1.00  0.00    -0.237 OA
ATOM     78  O   UNL     1      -0.660  11.909   7.660  1.00  0.00    -0.237 OA
ATOM     79  O   UNL     1      -2.174  12.085   5.726  1.00  0.00    -0.744 OA
ENDBRANCH  75  76
ENDBRANCH  47  70
BRANCH  59  80
ATOM     80  C   UNL     1      -9.142   7.157  13.386  1.00  0.00    -0.014 A 
ATOM     81  C   UNL     1     -10.083   8.104  12.945  1.00  0.00     0.010 A 
ATOM     82  C   UNL     1      -8.891   7.034  14.766  1.00  0.00     0.010 A 
ATOM     83  C   UNL     1     -10.719   8.947  13.862  1.00  0.00     0.020 A 
ATOM     84  C   UNL     1      -9.550   7.851  15.688  1.00  0.00     0.020 A 
ATOM     85  C   UNL     1     -10.444   8.818  15.227  1.00  0.00     0.054 A 
BRANCH  85  86
ATOM     86  S   UNL     1     -11.289   9.916  16.398  1.00  0.00     0.124 S 
ATOM     87  O   UNL     1     -10.610  11.187  16.165  1.00  0.00    -0.237 OA
ATOM     88  O   UNL     1     -12.678   9.853  15.950  1.00  0.00    -0.237 OA
ATOM     89  O   UNL     1     -11.032   9.301  17.698  1.00  0.00    -0.744 OA
ENDBRANCH  85  86
ENDBRANCH  59  80
ENDBRANCH  33  34
ENDBRANCH  26  28
ENDBRANCH  25  26
ENDBRANCH  24  25
ENDBRANCH  23  24
ENDBRANCH  22  23
ENDBRANCH   1  22
TORSDOF 23
