REMARK SMILES C/C(=N\NC(N)=S)c1nnn(-c2ccc(C(=O)OCCOCCOC(=O)c3ccc(-c4c5nc(c(-c6ccc(S(=O)(=O)[O-])cc6)c6ccc([nH]6)c(-c6ccc(S(=O)(=O)[O-])cc6)c6nc(c(-c7ccc(S(=O)(=O)[O-])cc7)c7ccc4[nH]7)C=C6)C=C5)cc3)cc2)c1C
REMARK SMILES IDX 20 1 19 2 18 3 16 4 17 5 15 6 12 7 13 8 88 9 14 10 87 11
REMARK SMILES IDX 11 12 8 13 9 14 89 15 10 16 90 17 2 18 1 19 3 20 4 21 5 23
REMARK SMILES IDX 7 24 6 25 21 28 22 29 23 30 24 31 25 32 26 33 27 34 28 35
REMARK SMILES IDX 86 36 29 37 85 38 30 39 31 40 32 41 79 42 33 43 84 44 78 45
REMARK SMILES IDX 80 46 34 47 83 48 77 49 76 50 35 52 65 53 46 54 64 55 47 56
REMARK SMILES IDX 50 57 63 58 81 59 48 60 49 61 62 63 82 64 51 65 36 66 37 67
REMARK SMILES IDX 45 68 38 69 44 70 39 71 40 72 41 73 42 74 43 75 66 76 67 77
REMARK SMILES IDX 75 78 68 79 74 80 69 81 70 82 71 83 72 84 73 85 52 86 53 87
REMARK SMILES IDX 61 88 54 89 60 90 55 91 56 92 57 93 58 94 59 95
REMARK H PARENT 4 22 6 26 6 27 80 51 50 62
REMARK Flexibility Score: inf
ROOT
ATOM      1  C   UNL     1       9.100   4.657   7.726  1.00  0.00     0.202 C 
ENDROOT
BRANCH   1   2
ATOM      2  C   UNL     1       9.074   3.791   6.467  1.00  0.00     0.261 C 
BRANCH   2   3
ATOM      3  O   UNL     1       7.849   3.929   5.732  1.00  0.00    -0.460 OA
BRANCH   3   4
ATOM      4  C   UNL     1       7.026   2.856   5.801  1.00  0.00     0.338 C 
ATOM      5  O   UNL     1       7.240   1.797   6.365  1.00  0.00    -0.246 OA
BRANCH   4   6
ATOM      6  C   UNL     1       5.720   3.176   5.187  1.00  0.00     0.060 A 
ATOM      7  C   UNL     1       3.305   3.332   3.846  1.00  0.00     0.067 A 
ATOM      8  C   UNL     1       3.344   2.696   5.091  1.00  0.00     0.029 A 
ATOM      9  C   UNL     1       4.419   4.021   3.350  1.00  0.00     0.029 A 
ATOM     10  C   UNL     1       4.570   2.596   5.747  1.00  0.00     0.018 A 
ATOM     11  C   UNL     1       5.632   3.953   4.029  1.00  0.00     0.018 A 
BRANCH   7  12
ATOM     12  N   UNL     1       2.222   3.058   2.983  1.00  0.00    -0.217 N 
ATOM     13  C   UNL     1       1.010   2.107   1.441  1.00  0.00     0.132 A 
ATOM     14  N   UNL     1       0.187   2.517   2.456  1.00  0.00    -0.128 NA
ATOM     15  C   UNL     1       2.318   2.422   1.752  1.00  0.00     0.071 A 
ATOM     16  N   UNL     1       0.943   3.029   3.419  1.00  0.00    -0.061 NA
ATOM     17  C   UNL     1       3.582   1.979   1.116  1.00  0.00     0.069 C 
BRANCH  13  18
ATOM     18  C   UNL     1       0.560   1.202   0.398  1.00  0.00     0.087 C 
ATOM     19  C   UNL     1       0.641  -0.258   0.748  1.00  0.00     0.071 C 
ATOM     20  N   UNL     1       0.127   1.764  -0.690  1.00  0.00    -0.176 NA
BRANCH  20  21
ATOM     21  N   UNL     1      -0.410   1.083  -1.742  1.00  0.00    -0.254 N 
ATOM     22  H   UNL     1      -1.320   1.366  -1.990  1.00  0.00     0.193 HD
BRANCH  21  23
ATOM     23  C   UNL     1       0.105   0.065  -2.519  1.00  0.00     0.184 C 
ATOM     24  S   UNL     1       1.549  -0.750  -2.417  1.00  0.00    -0.040 S 
BRANCH  23  25
ATOM     25  N   UNL     1      -0.753  -0.285  -3.530  1.00  0.00    -0.375 N 
ATOM     26  H   UNL     1      -1.618   0.176  -3.623  1.00  0.00     0.159 HD
ATOM     27  H   UNL     1      -0.503  -0.996  -4.163  1.00  0.00     0.159 HD
ENDBRANCH  23  25
ENDBRANCH  21  23
ENDBRANCH  20  21
ENDBRANCH  13  18
ENDBRANCH   7  12
ENDBRANCH   4   6
ENDBRANCH   3   4
ENDBRANCH   2   3
ENDBRANCH   1   2
BRANCH   1  28
ATOM     28  O   UNL     1       8.150   4.381   8.753  1.00  0.00    -0.374 OA
BRANCH  28  29
ATOM     29  C   UNL     1       6.770   4.652   8.539  1.00  0.00     0.202 C 
BRANCH  29  30
ATOM     30  C   UNL     1       6.312   6.096   8.407  1.00  0.00     0.261 C 
BRANCH  30  31
ATOM     31  O   UNL     1       6.963   6.792   7.355  1.00  0.00    -0.460 OA
BRANCH  31  32
ATOM     32  C   UNL     1       7.921   7.643   7.796  1.00  0.00     0.338 C 
ATOM     33  O   UNL     1       8.526   7.583   8.850  1.00  0.00    -0.246 OA
BRANCH  32  34
ATOM     34  C   UNL     1       7.981   8.788   6.883  1.00  0.00     0.060 A 
ATOM     35  C   UNL     1       8.808   9.840   7.276  1.00  0.00     0.016 A 
ATOM     36  C   UNL     1       7.005   8.937   5.885  1.00  0.00     0.016 A 
ATOM     37  C   UNL     1       8.491  11.105   6.839  1.00  0.00     0.010 A 
ATOM     38  C   UNL     1       6.683  10.204   5.462  1.00  0.00     0.010 A 
ATOM     39  C   UNL     1       7.370  11.277   6.017  1.00  0.00    -0.014 A 
BRANCH  39  40
ATOM     40  C   UNL     1       7.033  12.618   5.604  1.00  0.00     0.031 A 
ATOM     41  C   UNL     1       7.982  13.115   4.591  1.00  0.00     0.074 A 
ATOM     42  C   UNL     1       5.965  13.308   6.041  1.00  0.00     0.049 A 
ATOM     43  N   UNL     1       9.023  13.841   4.822  1.00  0.00    -0.248 NA
ATOM     44  C   UNL     1       7.931  12.536   3.241  1.00  0.00     0.031 C 
ATOM     45  C   UNL     1       4.830  12.849   6.841  1.00  0.00     0.029 A 
ATOM     46  N   UNL     1       5.642  14.600   5.773  1.00  0.00    -0.354 N 
ATOM     47  C   UNL     1       9.606  14.037   3.582  1.00  0.00     0.074 A 
ATOM     48  C   UNL     1       9.059  13.021   2.718  1.00  0.00     0.031 C 
ATOM     49  C   UNL     1       3.843  13.779   6.789  1.00  0.00     0.029 A 
ATOM     50  C   UNL     1       4.334  14.951   6.080  1.00  0.00     0.049 A 
ATOM     51  H   UNL     1       6.286  15.238   5.389  1.00  0.00     0.167 HD
ATOM     52  C   UNL     1      10.231  15.209   3.290  1.00  0.00     0.031 A 
ATOM     53  C   UNL     1       3.711  16.108   5.727  1.00  0.00     0.031 A 
ATOM     54  C   UNL     1      10.459  15.997   4.477  1.00  0.00     0.049 A 
ATOM     55  C   UNL     1       4.777  17.106   5.450  1.00  0.00     0.074 A 
ATOM     56  C   UNL     1      11.140  15.800   5.663  1.00  0.00     0.029 A 
ATOM     57  N   UNL     1       9.573  17.025   4.708  1.00  0.00    -0.354 N 
ATOM     58  N   UNL     1       5.564  17.577   6.377  1.00  0.00    -0.248 NA
ATOM     59  C   UNL     1       5.287  17.209   4.091  1.00  0.00     0.031 C 
ATOM     60  C   UNL     1      10.321  16.401   6.663  1.00  0.00     0.029 A 
ATOM     61  C   UNL     1       9.229  17.004   6.034  1.00  0.00     0.049 A 
ATOM     62  H   UNL     1       9.244  17.666   4.036  1.00  0.00     0.167 HD
ATOM     63  C   UNL     1       6.822  17.605   5.791  1.00  0.00     0.074 A 
ATOM     64  C   UNL     1       6.573  17.457   4.357  1.00  0.00     0.031 C 
ATOM     65  C   UNL     1       7.952  17.456   6.545  1.00  0.00     0.031 A 
BRANCH  52  66
ATOM     66  C   UNL     1      10.199  15.829   1.919  1.00  0.00    -0.014 A 
ATOM     67  C   UNL     1      10.926  17.014   1.703  1.00  0.00     0.010 A 
ATOM     68  C   UNL     1       9.271  15.453   0.925  1.00  0.00     0.010 A 
ATOM     69  C   UNL     1      10.692  17.810   0.577  1.00  0.00     0.020 A 
ATOM     70  C   UNL     1       9.063  16.215  -0.223  1.00  0.00     0.020 A 
ATOM     71  C   UNL     1       9.756  17.405  -0.376  1.00  0.00     0.054 A 
BRANCH  71  72
ATOM     72  S   UNL     1       9.418  18.471  -1.794  1.00  0.00     0.124 S 
ATOM     73  O   UNL     1       8.817  19.638  -1.156  1.00  0.00    -0.237 OA
ATOM     74  O   UNL     1      10.753  18.667  -2.353  1.00  0.00    -0.237 OA
ATOM     75  O   UNL     1       8.515  17.669  -2.616  1.00  0.00    -0.744 OA
ENDBRANCH  71  72
ENDBRANCH  52  66
BRANCH  53  76
ATOM     76  C   UNL     1       2.307  16.307   5.276  1.00  0.00    -0.014 A 
ATOM     77  C   UNL     1       1.776  17.602   5.103  1.00  0.00     0.010 A 
ATOM     78  C   UNL     1       1.589  15.231   4.718  1.00  0.00     0.010 A 
ATOM     79  C   UNL     1       0.615  17.817   4.337  1.00  0.00     0.020 A 
ATOM     80  C   UNL     1       0.429  15.437   3.958  1.00  0.00     0.020 A 
ATOM     81  C   UNL     1      -0.038  16.732   3.748  1.00  0.00     0.054 A 
BRANCH  81  82
ATOM     82  S   UNL     1      -1.419  17.029   2.599  1.00  0.00     0.124 S 
ATOM     83  O   UNL     1      -2.480  17.479   3.495  1.00  0.00    -0.237 OA
ATOM     84  O   UNL     1      -0.876  18.045   1.702  1.00  0.00    -0.237 OA
ATOM     85  O   UNL     1      -1.641  15.721   1.984  1.00  0.00    -0.744 OA
ENDBRANCH  81  82
ENDBRANCH  53  76
BRANCH  65  86
ATOM     86  C   UNL     1       7.836  17.592   8.047  1.00  0.00    -0.014 A 
ATOM     87  C   UNL     1       7.028  16.778   8.867  1.00  0.00     0.010 A 
ATOM     88  C   UNL     1       8.688  18.524   8.665  1.00  0.00     0.010 A 
ATOM     89  C   UNL     1       7.044  16.929  10.263  1.00  0.00     0.020 A 
ATOM     90  C   UNL     1       8.725  18.664  10.053  1.00  0.00     0.020 A 
ATOM     91  C   UNL     1       7.890  17.878  10.846  1.00  0.00     0.054 A 
BRANCH  91  92
ATOM     92  S   UNL     1       7.913  18.078  12.650  1.00  0.00     0.124 S 
ATOM     93  O   UNL     1       6.587  18.623  12.925  1.00  0.00    -0.237 OA
ATOM     94  O   UNL     1       8.146  16.716  13.124  1.00  0.00    -0.237 OA
ATOM     95  O   UNL     1       9.021  19.004  12.884  1.00  0.00    -0.744 OA
ENDBRANCH  91  92
ENDBRANCH  65  86
ENDBRANCH  39  40
ENDBRANCH  32  34
ENDBRANCH  31  32
ENDBRANCH  30  31
ENDBRANCH  29  30
ENDBRANCH  28  29
ENDBRANCH   1  28
TORSDOF 22
