REMARK SMILES CC(C)C[C@H](NC(=O)[C@@H](NC(=O)[C@H](C)NC(=O)CNC(=O)OCc1ccccc1)C(C)C)C(=O)OCCOCCOC(=O)c1ccc(-c2c3nc(c(-c4ccc(S(=O)(=O)[O-])cc4)c4ccc([nH]4)c(-c4ccc(S(=O)(=O)[O-])cc4)c4nc(c(-c5ccc(S(=O)(=O)[O-])cc5)c5ccc2[nH]5)C=C4)C=C3)cc1
REMARK SMILES IDX 33 1 34 2 5 3 4 4 2 5 1 6 3 7 6 8 7 9 8 11 9 12 10 13 11 14
REMARK SMILES IDX 12 16 13 17 14 18 15 19 16 20 17 22 18 23 19 24 20 25 21 27
REMARK SMILES IDX 22 28 23 29 24 30 25 31 29 32 26 33 28 34 27 35 30 36 31 37
REMARK SMILES IDX 32 38 35 39 36 40 37 41 38 42 39 43 40 44 41 45 42 46 43 47
REMARK SMILES IDX 44 48 45 49 103 50 46 51 102 52 47 53 48 54 49 55 96 56
REMARK SMILES IDX 50 57 101 58 95 59 97 60 51 61 100 62 94 63 93 64 52 66
REMARK SMILES IDX 82 67 63 68 81 69 64 70 67 71 80 72 98 73 65 74 66 75 79 77
REMARK SMILES IDX 99 78 68 79 53 80 54 81 62 82 55 83 61 84 56 85 57 86 58 87
REMARK SMILES IDX 59 88 60 89 83 90 84 91 92 92 85 93 91 94 86 95 87 96 88 97
REMARK SMILES IDX 89 98 90 99 69 100 70 101 78 102 71 103 77 104 72 105 73 106
REMARK SMILES IDX 74 107 75 108 76 109
REMARK H PARENT 6 10 10 15 15 21 19 26 97 65 67 76
REMARK Flexibility Score: inf
ROOT
ATOM      1  C   UNL     1      -4.572  -4.455   0.404  1.00  0.00     0.328 C 
ATOM      2  O   UNL     1      -3.492  -4.532   0.966  1.00  0.00    -0.250 OA
ENDROOT
BRANCH   1   3
ATOM      3  C   UNL     1      -5.044  -3.102  -0.069  1.00  0.00     0.192 C 
BRANCH   3   4
ATOM      4  C   UNL     1      -6.147  -2.588   0.858  1.00  0.00     0.040 C 
BRANCH   4   5
ATOM      5  C   UNL     1      -5.579  -2.284   2.273  1.00  0.00    -0.015 C 
ATOM      6  C   UNL     1      -4.462  -1.236   2.236  1.00  0.00     0.007 C 
ATOM      7  C   UNL     1      -6.673  -1.842   3.235  1.00  0.00     0.007 C 
ENDBRANCH   4   5
ENDBRANCH   3   4
BRANCH   3   8
ATOM      8  N   UNL     1      -5.325  -3.082  -1.484  1.00  0.00    -0.341 N 
ATOM      9  C   UNL     1      -4.487  -2.752  -2.510  1.00  0.00     0.243 C 
ATOM     10  H   UNL     1      -6.239  -3.339  -1.743  1.00  0.00     0.164 HD
ATOM     11  O   UNL     1      -4.886  -3.109  -3.626  1.00  0.00    -0.273 OA
BRANCH   9  12
ATOM     12  C   UNL     1      -3.142  -1.909  -2.380  1.00  0.00     0.174 C 
BRANCH  12  13
ATOM     13  N   UNL     1      -2.728  -1.268  -1.105  1.00  0.00    -0.342 N 
ATOM     14  C   UNL     1      -1.780  -1.399  -0.137  1.00  0.00     0.242 C 
ATOM     15  H   UNL     1      -3.326  -0.514  -0.895  1.00  0.00     0.164 HD
ATOM     16  O   UNL     1      -1.717  -0.403   0.603  1.00  0.00    -0.273 OA
BRANCH  14  17
ATOM     17  C   UNL     1      -0.956  -2.680   0.228  1.00  0.00     0.168 C 
ATOM     18  C   UNL     1       0.006  -2.338   1.377  1.00  0.00     0.041 C 
BRANCH  17  19
ATOM     19  N   UNL     1      -0.178  -3.345  -0.805  1.00  0.00    -0.343 N 
ATOM     20  C   UNL     1       0.093  -4.682  -0.945  1.00  0.00     0.240 C 
ATOM     21  H   UNL     1       0.205  -2.757  -1.496  1.00  0.00     0.164 HD
ATOM     22  O   UNL     1       0.924  -5.005  -1.797  1.00  0.00    -0.273 OA
BRANCH  20  23
ATOM     23  C   UNL     1      -0.580  -5.729  -0.040  1.00  0.00     0.219 C 
BRANCH  23  24
ATOM     24  N   UNL     1       0.064  -5.798   1.261  1.00  0.00    -0.312 N 
ATOM     25  C   UNL     1      -0.520  -5.700   2.495  1.00  0.00     0.407 C 
ATOM     26  H   UNL     1       1.039  -5.930   1.254  1.00  0.00     0.167 HD
ATOM     27  O   UNL     1       0.160  -5.543   3.495  1.00  0.00    -0.225 OA
BRANCH  25  28
ATOM     28  O   UNL     1      -1.869  -5.749   2.471  1.00  0.00    -0.445 OA
BRANCH  28  29
ATOM     29  C   UNL     1      -2.568  -5.334   3.662  1.00  0.00     0.270 C 
BRANCH  29  30
ATOM     30  C   UNL     1      -3.004  -6.520   4.480  1.00  0.00    -0.011 A 
ATOM     31  C   UNL     1      -2.127  -7.053   5.428  1.00  0.00     0.007 A 
ATOM     32  C   UNL     1      -4.250  -7.138   4.292  1.00  0.00     0.007 A 
ATOM     33  C   UNL     1      -2.459  -8.213   6.125  1.00  0.00     0.000 A 
ATOM     34  C   UNL     1      -4.568  -8.320   4.960  1.00  0.00     0.000 A 
ATOM     35  C   UNL     1      -3.666  -8.863   5.869  1.00  0.00     0.000 A 
ENDBRANCH  29  30
ENDBRANCH  28  29
ENDBRANCH  25  28
ENDBRANCH  23  24
ENDBRANCH  20  23
ENDBRANCH  17  19
ENDBRANCH  14  17
ENDBRANCH  12  13
BRANCH  12  36
ATOM     36  C   UNL     1      -1.927  -2.438  -3.185  1.00  0.00     0.015 C 
ATOM     37  C   UNL     1      -2.209  -2.988  -4.582  1.00  0.00     0.010 C 
ATOM     38  C   UNL     1      -0.848  -1.345  -3.344  1.00  0.00     0.010 C 
ENDBRANCH  12  36
ENDBRANCH   9  12
ENDBRANCH   3   8
ENDBRANCH   1   3
BRANCH   1  39
ATOM     39  O   UNL     1      -5.429  -5.490   0.228  1.00  0.00    -0.462 OA
BRANCH  39  40
ATOM     40  C   UNL     1      -4.953  -6.718   0.819  1.00  0.00     0.261 C 
BRANCH  40  41
ATOM     41  C   UNL     1      -4.228  -7.661  -0.140  1.00  0.00     0.202 C 
BRANCH  41  42
ATOM     42  O   UNL     1      -3.264  -7.051  -0.997  1.00  0.00    -0.374 OA
BRANCH  42  43
ATOM     43  C   UNL     1      -3.810  -6.252  -2.047  1.00  0.00     0.202 C 
BRANCH  43  44
ATOM     44  C   UNL     1      -3.430  -6.769  -3.429  1.00  0.00     0.261 C 
BRANCH  44  45
ATOM     45  O   UNL     1      -4.317  -7.848  -3.743  1.00  0.00    -0.460 OA
BRANCH  45  46
ATOM     46  C   UNL     1      -3.911  -9.048  -3.270  1.00  0.00     0.338 C 
ATOM     47  O   UNL     1      -2.764  -9.394  -3.050  1.00  0.00    -0.246 OA
BRANCH  46  48
ATOM     48  C   UNL     1      -5.107  -9.809  -2.839  1.00  0.00     0.060 A 
ATOM     49  C   UNL     1      -4.909 -10.818  -1.889  1.00  0.00     0.016 A 
ATOM     50  C   UNL     1      -6.403  -9.493  -3.274  1.00  0.00     0.016 A 
ATOM     51  C   UNL     1      -5.987 -11.568  -1.440  1.00  0.00     0.010 A 
ATOM     52  C   UNL     1      -7.488 -10.239  -2.815  1.00  0.00     0.010 A 
ATOM     53  C   UNL     1      -7.270 -11.314  -1.941  1.00  0.00    -0.014 A 
BRANCH  53  54
ATOM     54  C   UNL     1      -8.324 -12.324  -1.719  1.00  0.00     0.031 A 
ATOM     55  C   UNL     1      -8.573 -13.327  -2.812  1.00  0.00     0.074 A 
ATOM     56  C   UNL     1      -8.968 -12.395  -0.542  1.00  0.00     0.049 A 
ATOM     57  N   UNL     1      -9.389 -14.347  -2.827  1.00  0.00    -0.248 NA
ATOM     58  C   UNL     1      -7.793 -13.162  -4.053  1.00  0.00     0.031 C 
ATOM     59  C   UNL     1      -8.767 -11.489   0.590  1.00  0.00     0.029 A 
ATOM     60  N   UNL     1      -9.912 -13.283  -0.100  1.00  0.00    -0.354 N 
ATOM     61  C   UNL     1      -9.210 -14.950  -4.067  1.00  0.00     0.074 A 
ATOM     62  C   UNL     1      -8.248 -14.158  -4.797  1.00  0.00     0.031 C 
ATOM     63  C   UNL     1      -9.566 -11.872   1.601  1.00  0.00     0.029 A 
ATOM     64  C   UNL     1     -10.347 -13.032   1.179  1.00  0.00     0.049 A 
ATOM     65  H   UNL     1     -10.247 -14.030  -0.646  1.00  0.00     0.167 HD
ATOM     66  C   UNL     1      -9.784 -16.077  -4.546  1.00  0.00     0.031 A 
ATOM     67  C   UNL     1     -11.281 -13.666   1.915  1.00  0.00     0.031 A 
ATOM     68  C   UNL     1     -10.757 -16.843  -3.816  1.00  0.00     0.049 A 
ATOM     69  C   UNL     1     -11.958 -14.878   1.329  1.00  0.00     0.074 A 
ATOM     70  C   UNL     1     -11.418 -17.993  -4.206  1.00  0.00     0.029 A 
ATOM     71  N   UNL     1     -11.207 -16.532  -2.541  1.00  0.00    -0.354 N 
ATOM     72  N   UNL     1     -11.766 -15.447   0.161  1.00  0.00    -0.248 NA
ATOM     73  C   UNL     1     -12.964 -15.543   2.166  1.00  0.00     0.031 C 
ATOM     74  C   UNL     1     -12.311 -18.345  -3.189  1.00  0.00     0.029 A 
ATOM     75  C   UNL     1     -12.156 -17.454  -2.138  1.00  0.00     0.049 A 
ATOM     76  H   UNL     1     -10.898 -15.768  -2.003  1.00  0.00     0.167 HD
ATOM     77  C   UNL     1     -12.615 -16.549   0.132  1.00  0.00     0.074 A 
ATOM     78  C   UNL     1     -13.293 -16.582   1.413  1.00  0.00     0.031 C 
ATOM     79  C   UNL     1     -12.825 -17.450  -0.861  1.00  0.00     0.031 A 
BRANCH  66  80
ATOM     80  C   UNL     1      -9.390 -16.529  -5.927  1.00  0.00    -0.014 A 
ATOM     81  C   UNL     1      -8.112 -17.060  -6.182  1.00  0.00     0.010 A 
ATOM     82  C   UNL     1     -10.325 -16.466  -6.976  1.00  0.00     0.010 A 
ATOM     83  C   UNL     1      -7.770 -17.500  -7.463  1.00  0.00     0.020 A 
ATOM     84  C   UNL     1      -9.996 -16.931  -8.253  1.00  0.00     0.020 A 
ATOM     85  C   UNL     1      -8.717 -17.438  -8.490  1.00  0.00     0.054 A 
BRANCH  85  86
ATOM     86  S   UNL     1      -8.263 -18.070 -10.129  1.00  0.00     0.124 S 
ATOM     87  O   UNL     1      -7.299 -17.070 -10.582  1.00  0.00    -0.237 OA
ATOM     88  O   UNL     1      -7.707 -19.385  -9.820  1.00  0.00    -0.237 OA
ATOM     89  O   UNL     1      -9.529 -18.087 -10.858  1.00  0.00    -0.744 OA
ENDBRANCH  85  86
ENDBRANCH  66  80
BRANCH  67  90
ATOM     90  C   UNL     1     -11.651 -13.151   3.263  1.00  0.00    -0.014 A 
ATOM     91  C   UNL     1     -11.395 -13.897   4.427  1.00  0.00     0.010 A 
ATOM     92  C   UNL     1     -12.291 -11.903   3.382  1.00  0.00     0.010 A 
ATOM     93  C   UNL     1     -11.800 -13.419   5.678  1.00  0.00     0.020 A 
ATOM     94  C   UNL     1     -12.666 -11.406   4.632  1.00  0.00     0.020 A 
ATOM     95  C   UNL     1     -12.434 -12.176   5.772  1.00  0.00     0.054 A 
BRANCH  95  96
ATOM     96  S   UNL     1     -12.927 -11.561   7.406  1.00  0.00     0.124 S 
ATOM     97  O   UNL     1     -14.068 -12.414   7.721  1.00  0.00    -0.237 OA
ATOM     98  O   UNL     1     -11.724 -11.788   8.203  1.00  0.00    -0.237 OA
ATOM     99  O   UNL     1     -13.244 -10.156   7.159  1.00  0.00    -0.744 OA
ENDBRANCH  95  96
ENDBRANCH  67  90
BRANCH  79 100
ATOM    100  C   UNL     1     -13.811 -18.553  -0.582  1.00  0.00    -0.014 A 
ATOM    101  C   UNL     1     -15.188 -18.288  -0.469  1.00  0.00     0.010 A 
ATOM    102  C   UNL     1     -13.354 -19.877  -0.448  1.00  0.00     0.010 A 
ATOM    103  C   UNL     1     -16.081 -19.317  -0.164  1.00  0.00     0.020 A 
ATOM    104  C   UNL     1     -14.249 -20.914  -0.180  1.00  0.00     0.020 A 
ATOM    105  C   UNL     1     -15.604 -20.623  -0.014  1.00  0.00     0.054 A 
BRANCH 105 106
ATOM    106  S   UNL     1     -16.784 -21.940   0.384  1.00  0.00     0.124 S 
ATOM    107  O   UNL     1     -17.088 -21.660   1.784  1.00  0.00    -0.237 OA
ATOM    108  O   UNL     1     -17.872 -21.691  -0.558  1.00  0.00    -0.237 OA
ATOM    109  O   UNL     1     -16.028 -23.167   0.143  1.00  0.00    -0.744 OA
ENDBRANCH 105 106
ENDBRANCH  79 100
ENDBRANCH  53  54
ENDBRANCH  46  48
ENDBRANCH  45  46
ENDBRANCH  44  45
ENDBRANCH  43  44
ENDBRANCH  42  43
ENDBRANCH  41  42
ENDBRANCH  40  41
ENDBRANCH  39  40
ENDBRANCH   1  39
TORSDOF 30
