REMARK SMILES CCOc1ccccc1NC(=O)[C@H]1[C@@H]2C=C[C@@H]([C@@H]3C[C@H]23)[C@@H]1C(=O)OCCOCCOC(=O)c1ccc(-c2c3nc(c(-c4ccc(S(=O)(=O)[O-])cc4)c4ccc([nH]4)c(-c4ccc(S(=O)(=O)[O-])cc4)c4nc(c(-c5ccc(S(=O)(=O)[O-])cc5)c5ccc2[nH]5)C=C4)C=C3)cc1
REMARK SMILES IDX 26 1 25 2 24 3 22 4 23 5 21 6 13 7 14 8 15 9 20 10 17 11
REMARK SMILES IDX 16 12 18 13 19 14 11 15 10 16 12 18 9 19 4 20 5 21 6 22 8 23
REMARK SMILES IDX 7 24 3 25 2 26 1 27 27 28 28 29 29 30 30 31 31 32 32 33
REMARK SMILES IDX 33 34 34 35 92 36 35 37 91 38 36 39 37 40 38 41 85 42 39 43
REMARK SMILES IDX 90 44 84 45 86 46 40 47 89 48 83 49 82 50 41 52 71 53 52 54
REMARK SMILES IDX 70 55 53 56 56 57 69 58 87 59 54 60 55 61 68 63 88 64 57 65
REMARK SMILES IDX 42 66 43 67 51 68 44 69 50 70 45 71 46 72 47 73 48 74 49 75
REMARK SMILES IDX 72 76 73 77 81 78 74 79 80 80 75 81 76 82 77 83 78 84 79 85
REMARK SMILES IDX 58 86 59 87 67 88 60 89 66 90 61 91 62 92 63 93 64 94 65 95
REMARK H PARENT 10 17 86 51 56 62
REMARK Flexibility Score: inf
ROOT
ATOM      1  C   UNL     1       8.871  -1.030   1.997  1.00  0.00     0.202 C 
ENDROOT
BRANCH   1   2
ATOM      2  C   UNL     1       7.502  -0.569   2.493  1.00  0.00     0.261 C 
BRANCH   2   3
ATOM      3  O   UNL     1       6.793   0.264   1.550  1.00  0.00    -0.463 OA
BRANCH   3   4
ATOM      4  C   UNL     1       6.222   1.395   2.051  1.00  0.00     0.310 C 
ATOM      5  O   UNL     1       6.430   1.819   3.185  1.00  0.00    -0.252 OA
BRANCH   4   6
ATOM      6  C   UNL     1       5.257   2.097   1.096  1.00  0.00     0.119 C 
ATOM      7  C   UNL     1       5.030   1.425  -0.308  1.00  0.00     0.101 C 
ATOM      8  C   UNL     1       5.356   2.521  -1.399  1.00  0.00     0.028 C 
ATOM      9  C   UNL     1       6.801   2.955  -1.167  1.00  0.00    -0.026 C 
ATOM     10  C   UNL     1       4.477   3.782  -1.207  1.00  0.00     0.001 C 
ATOM     11  C   UNL     1       5.771   3.567   0.921  1.00  0.00     0.030 C 
ATOM     12  C   UNL     1       7.020   3.504   0.041  1.00  0.00    -0.026 C 
ATOM     13  C   UNL     1       4.739   4.406   0.156  1.00  0.00     0.001 C 
ATOM     14  C   UNL     1       3.345   3.986  -0.221  1.00  0.00     0.009 C 
BRANCH   7  15
ATOM     15  C   UNL     1       3.625   0.900  -0.638  1.00  0.00     0.229 C 
ATOM     16  N   UNL     1       2.753   0.389   0.261  1.00  0.00    -0.323 N 
ATOM     17  H   UNL     1       1.830   0.389  -0.082  1.00  0.00     0.170 HD
ATOM     18  O   UNL     1       3.192   0.977  -1.798  1.00  0.00    -0.274 OA
BRANCH  16  19
ATOM     19  C   UNL     1       2.829  -0.137   1.552  1.00  0.00     0.083 A 
ATOM     20  C   UNL     1       1.661  -0.133   2.325  1.00  0.00     0.142 A 
ATOM     21  C   UNL     1       1.693  -0.440   3.685  1.00  0.00     0.048 A 
ATOM     22  C   UNL     1       2.886  -0.876   4.254  1.00  0.00     0.004 A 
ATOM     23  C   UNL     1       3.965  -0.713   2.089  1.00  0.00     0.030 A 
ATOM     24  C   UNL     1       4.006  -1.060   3.444  1.00  0.00     0.002 A 
BRANCH  20  25
ATOM     25  O   UNL     1       0.463   0.196   1.740  1.00  0.00    -0.492 OA
BRANCH  25  26
ATOM     26  C   UNL     1      -0.166  -0.993   1.218  1.00  0.00     0.226 C 
ATOM     27  C   UNL     1      -0.294  -0.887  -0.294  1.00  0.00     0.049 C 
ENDBRANCH  25  26
ENDBRANCH  20  25
ENDBRANCH  16  19
ENDBRANCH   7  15
ENDBRANCH   4   6
ENDBRANCH   3   4
ENDBRANCH   2   3
ENDBRANCH   1   2
BRANCH   1  28
ATOM     28  O   UNL     1       9.869  -0.030   1.816  1.00  0.00    -0.374 OA
BRANCH  28  29
ATOM     29  C   UNL     1       9.595   0.998   0.873  1.00  0.00     0.202 C 
BRANCH  29  30
ATOM     30  C   UNL     1       9.649   0.635  -0.619  1.00  0.00     0.261 C 
BRANCH  30  31
ATOM     31  O   UNL     1       8.959  -0.568  -0.986  1.00  0.00    -0.460 OA
BRANCH  31  32
ATOM     32  C   UNL     1       9.789  -1.616  -1.224  1.00  0.00     0.338 C 
ATOM     33  O   UNL     1      11.006  -1.624  -1.144  1.00  0.00    -0.246 OA
BRANCH  32  34
ATOM     34  C   UNL     1       9.022  -2.843  -1.497  1.00  0.00     0.060 A 
ATOM     35  C   UNL     1       9.243  -3.943  -0.661  1.00  0.00     0.016 A 
ATOM     36  C   UNL     1       8.226  -2.962  -2.638  1.00  0.00     0.016 A 
ATOM     37  C   UNL     1       8.708  -5.186  -0.992  1.00  0.00     0.010 A 
ATOM     38  C   UNL     1       7.696  -4.214  -2.972  1.00  0.00     0.010 A 
ATOM     39  C   UNL     1       7.967  -5.338  -2.172  1.00  0.00    -0.014 A 
BRANCH  39  40
ATOM     40  C   UNL     1       7.587  -6.699  -2.622  1.00  0.00     0.031 A 
ATOM     41  C   UNL     1       8.408  -7.379  -3.685  1.00  0.00     0.074 A 
ATOM     42  C   UNL     1       6.539  -7.330  -2.062  1.00  0.00     0.049 A 
ATOM     43  N   UNL     1       8.248  -8.562  -4.221  1.00  0.00    -0.248 NA
ATOM     44  C   UNL     1       9.560  -6.630  -4.215  1.00  0.00     0.031 C 
ATOM     45  C   UNL     1       5.689  -6.778  -1.006  1.00  0.00     0.029 A 
ATOM     46  N   UNL     1       6.006  -8.569  -2.310  1.00  0.00    -0.354 N 
ATOM     47  C   UNL     1       9.266  -8.694  -5.159  1.00  0.00     0.074 A 
ATOM     48  C   UNL     1      10.029  -7.466  -5.132  1.00  0.00     0.031 C 
ATOM     49  C   UNL     1       4.731  -7.672  -0.707  1.00  0.00     0.029 A 
ATOM     50  C   UNL     1       4.881  -8.842  -1.568  1.00  0.00     0.049 A 
ATOM     51  H   UNL     1       6.392  -9.203  -2.957  1.00  0.00     0.167 HD
ATOM     52  C   UNL     1       9.539  -9.745  -5.968  1.00  0.00     0.031 A 
ATOM     53  C   UNL     1       4.051  -9.904  -1.600  1.00  0.00     0.031 A 
ATOM     54  C   UNL     1       8.773 -10.964  -5.988  1.00  0.00     0.049 A 
ATOM     55  C   UNL     1       4.350 -11.040  -2.543  1.00  0.00     0.074 A 
ATOM     56  C   UNL     1       8.997 -12.107  -6.737  1.00  0.00     0.029 A 
ATOM     57  N   UNL     1       7.631 -11.195  -5.237  1.00  0.00    -0.354 N 
ATOM     58  N   UNL     1       5.352 -11.173  -3.380  1.00  0.00    -0.248 NA
ATOM     59  C   UNL     1       3.412 -12.171  -2.541  1.00  0.00     0.031 C 
ATOM     60  C   UNL     1       7.953 -13.002  -6.487  1.00  0.00     0.029 A 
ATOM     61  C   UNL     1       7.114 -12.444  -5.535  1.00  0.00     0.049 A 
ATOM     62  H   UNL     1       7.244 -10.563  -4.588  1.00  0.00     0.167 HD
ATOM     63  C   UNL     1       5.172 -12.409  -3.992  1.00  0.00     0.074 A 
ATOM     64  C   UNL     1       3.981 -12.993  -3.412  1.00  0.00     0.031 C 
ATOM     65  C   UNL     1       5.923 -13.006  -4.951  1.00  0.00     0.031 A 
BRANCH  52  66
ATOM     66  C   UNL     1      10.692  -9.620  -6.929  1.00  0.00    -0.014 A 
ATOM     67  C   UNL     1      12.025  -9.672  -6.485  1.00  0.00     0.010 A 
ATOM     68  C   UNL     1      10.433  -9.523  -8.309  1.00  0.00     0.010 A 
ATOM     69  C   UNL     1      13.078  -9.611  -7.403  1.00  0.00     0.020 A 
ATOM     70  C   UNL     1      11.483  -9.485  -9.231  1.00  0.00     0.020 A 
ATOM     71  C   UNL     1      12.800  -9.520  -8.771  1.00  0.00     0.054 A 
BRANCH  71  72
ATOM     72  S   UNL     1      14.185  -9.495  -9.943  1.00  0.00     0.124 S 
ATOM     73  O   UNL     1      14.742  -8.162  -9.724  1.00  0.00    -0.237 OA
ATOM     74  O   UNL     1      15.015 -10.605  -9.480  1.00  0.00    -0.237 OA
ATOM     75  O   UNL     1      13.547  -9.698 -11.241  1.00  0.00    -0.744 OA
ENDBRANCH  71  72
ENDBRANCH  52  66
BRANCH  53  76
ATOM     76  C   UNL     1       2.832  -9.921  -0.745  1.00  0.00    -0.014 A 
ATOM     77  C   UNL     1       2.705 -10.825   0.323  1.00  0.00     0.010 A 
ATOM     78  C   UNL     1       1.779  -9.025  -1.009  1.00  0.00     0.010 A 
ATOM     79  C   UNL     1       1.540 -10.848   1.098  1.00  0.00     0.020 A 
ATOM     80  C   UNL     1       0.626  -9.024  -0.220  1.00  0.00     0.020 A 
ATOM     81  C   UNL     1       0.509  -9.945   0.821  1.00  0.00     0.054 A 
BRANCH  81  82
ATOM     82  S   UNL     1      -0.976  -9.959   1.864  1.00  0.00     0.124 S 
ATOM     83  O   UNL     1      -1.664 -11.159   1.397  1.00  0.00    -0.237 OA
ATOM     84  O   UNL     1      -0.416 -10.033   3.211  1.00  0.00    -0.237 OA
ATOM     85  O   UNL     1      -1.631  -8.694   1.541  1.00  0.00    -0.744 OA
ENDBRANCH  81  82
ENDBRANCH  53  76
BRANCH  65  86
ATOM     86  C   UNL     1       5.488 -14.368  -5.423  1.00  0.00    -0.014 A 
ATOM     87  C   UNL     1       4.351 -14.525  -6.235  1.00  0.00     0.010 A 
ATOM     88  C   UNL     1       6.260 -15.497  -5.096  1.00  0.00     0.010 A 
ATOM     89  C   UNL     1       3.976 -15.794  -6.686  1.00  0.00     0.020 A 
ATOM     90  C   UNL     1       5.905 -16.763  -5.569  1.00  0.00     0.020 A 
ATOM     91  C   UNL     1       4.756 -16.905  -6.349  1.00  0.00     0.054 A 
BRANCH  91  92
ATOM     92  S   UNL     1       4.272 -18.534  -6.981  1.00  0.00     0.124 S 
ATOM     93  O   UNL     1       3.111 -18.849  -6.153  1.00  0.00    -0.237 OA
ATOM     94  O   UNL     1       3.985 -18.261  -8.387  1.00  0.00    -0.237 OA
ATOM     95  O   UNL     1       5.451 -19.363  -6.742  1.00  0.00    -0.744 OA
ENDBRANCH  91  92
ENDBRANCH  65  86
ENDBRANCH  39  40
ENDBRANCH  32  34
ENDBRANCH  31  32
ENDBRANCH  30  31
ENDBRANCH  29  30
ENDBRANCH  28  29
ENDBRANCH   1  28
TORSDOF 21
