REMARK SMILES O=C(OCCOCCOC(=O)[C@]1(NC(=O)C2CCN(C(=O)C3CC3)CC2)CCCc2ccccc21)c1ccc(-c2c3nc(c(-c4ccc(S(=O)(=O)[O-])cc4)c4ccc([nH]4)c(-c4ccc(S(=O)(=O)[O-])cc4)c4nc(c(-c5ccc(S(=O)(=O)[O-])cc5)c5ccc2[nH]5)C=C4)C=C3)cc1
REMARK SMILES IDX 6 1 5 2 4 3 3 4 2 5 1 6 36 7 37 8 95 9 38 10 94 11 39 12
REMARK SMILES IDX 40 13 41 14 88 15 42 16 93 17 87 18 89 19 43 20 92 21 86 22
REMARK SMILES IDX 85 23 44 25 74 26 55 27 73 28 56 29 59 30 72 31 90 32 57 33
REMARK SMILES IDX 58 34 71 36 91 37 60 38 45 39 46 40 54 41 47 42 53 43 48 44
REMARK SMILES IDX 49 45 50 46 51 47 52 48 75 49 76 50 84 51 77 52 83 53 78 54
REMARK SMILES IDX 79 55 80 56 81 57 82 58 61 59 62 60 70 61 63 62 69 63 64 64
REMARK SMILES IDX 65 65 66 66 67 67 68 68 7 69 8 70 9 71 10 72 11 73 12 74
REMARK SMILES IDX 27 75 35 76 28 77 30 78 34 79 29 80 31 81 33 82 32 83 13 84
REMARK SMILES IDX 14 85 15 87 16 88 17 89 26 90 18 91 25 92 19 93 20 94 21 95
REMARK SMILES IDX 22 96 23 97 24 98
REMARK H PARENT 89 24 59 35 13 86
REMARK Flexibility Score: inf
ROOT
ATOM      1  O   UNL     1       4.193   1.689   2.124  1.00  0.00    -0.374 OA
ENDROOT
BRANCH   1   2
ATOM      2  C   UNL     1       4.818   1.207   0.937  1.00  0.00     0.202 C 
BRANCH   2   3
ATOM      3  C   UNL     1       4.298  -0.013   0.144  1.00  0.00     0.261 C 
BRANCH   3   4
ATOM      4  O   UNL     1       2.851  -0.106   0.041  1.00  0.00    -0.460 OA
BRANCH   4   5
ATOM      5  C   UNL     1       2.043  -1.053   0.617  1.00  0.00     0.338 C 
ATOM      6  O   UNL     1       0.855  -1.142   0.345  1.00  0.00    -0.246 OA
BRANCH   5   7
ATOM      7  C   UNL     1       2.650  -1.916   1.649  1.00  0.00     0.060 A 
ATOM      8  C   UNL     1       3.599  -1.343   2.465  1.00  0.00     0.016 A 
ATOM      9  C   UNL     1       2.354  -3.265   1.817  1.00  0.00     0.016 A 
ATOM     10  C   UNL     1       4.539  -2.108   3.071  1.00  0.00     0.010 A 
ATOM     11  C   UNL     1       3.104  -4.008   2.744  1.00  0.00     0.010 A 
ATOM     12  C   UNL     1       4.230  -3.426   3.349  1.00  0.00    -0.014 A 
BRANCH  12  13
ATOM     13  C   UNL     1       5.180  -4.058   4.282  1.00  0.00     0.031 A 
ATOM     14  C   UNL     1       6.039  -5.171   3.784  1.00  0.00     0.074 A 
ATOM     15  C   UNL     1       5.448  -3.391   5.431  1.00  0.00     0.049 A 
ATOM     16  N   UNL     1       6.989  -5.800   4.415  1.00  0.00    -0.248 NA
ATOM     17  C   UNL     1       5.816  -5.637   2.404  1.00  0.00     0.031 C 
ATOM     18  C   UNL     1       4.734  -2.182   5.893  1.00  0.00     0.029 A 
ATOM     19  N   UNL     1       6.467  -3.513   6.335  1.00  0.00    -0.354 N 
ATOM     20  C   UNL     1       7.428  -6.781   3.539  1.00  0.00     0.074 A 
ATOM     21  C   UNL     1       6.667  -6.649   2.319  1.00  0.00     0.031 C 
ATOM     22  C   UNL     1       5.441  -1.589   6.863  1.00  0.00     0.029 A 
ATOM     23  C   UNL     1       6.533  -2.469   7.235  1.00  0.00     0.049 A 
ATOM     24  H   UNL     1       7.093  -4.272   6.342  1.00  0.00     0.167 HD
ATOM     25  C   UNL     1       8.367  -7.724   3.771  1.00  0.00     0.031 A 
ATOM     26  C   UNL     1       7.354  -2.275   8.284  1.00  0.00     0.031 A 
ATOM     27  C   UNL     1       9.088  -7.799   5.011  1.00  0.00     0.049 A 
ATOM     28  C   UNL     1       8.339  -3.373   8.551  1.00  0.00     0.074 A 
ATOM     29  C   UNL     1       9.942  -8.783   5.467  1.00  0.00     0.029 A 
ATOM     30  N   UNL     1       9.042  -6.816   5.995  1.00  0.00    -0.354 N 
ATOM     31  N   UNL     1       8.616  -4.419   7.805  1.00  0.00    -0.248 NA
ATOM     32  C   UNL     1       9.076  -3.310   9.815  1.00  0.00     0.031 C 
ATOM     33  C   UNL     1      10.386  -8.409   6.741  1.00  0.00     0.029 A 
ATOM     34  C   UNL     1       9.851  -7.166   7.056  1.00  0.00     0.049 A 
ATOM     35  H   UNL     1       8.509  -5.989   5.941  1.00  0.00     0.167 HD
ATOM     36  C   UNL     1       9.536  -5.162   8.525  1.00  0.00     0.074 A 
ATOM     37  C   UNL     1       9.814  -4.409   9.736  1.00  0.00     0.031 C 
ATOM     38  C   UNL     1      10.080  -6.370   8.237  1.00  0.00     0.031 A 
BRANCH  25  39
ATOM     39  C   UNL     1       8.545  -8.777   2.716  1.00  0.00    -0.014 A 
ATOM     40  C   UNL     1       9.205  -8.509   1.504  1.00  0.00     0.010 A 
ATOM     41  C   UNL     1       7.978 -10.049   2.920  1.00  0.00     0.010 A 
ATOM     42  C   UNL     1       9.261  -9.482   0.500  1.00  0.00     0.020 A 
ATOM     43  C   UNL     1       8.050 -11.030   1.929  1.00  0.00     0.020 A 
ATOM     44  C   UNL     1       8.676 -10.734   0.717  1.00  0.00     0.054 A 
BRANCH  44  45
ATOM     45  S   UNL     1       8.755 -11.977  -0.603  1.00  0.00     0.124 S 
ATOM     46  O   UNL     1       7.787 -11.457  -1.565  1.00  0.00    -0.237 OA
ATOM     47  O   UNL     1      10.153 -11.913  -1.020  1.00  0.00    -0.237 OA
ATOM     48  O   UNL     1       8.364 -13.217   0.065  1.00  0.00    -0.744 OA
ENDBRANCH  44  45
ENDBRANCH  25  39
BRANCH  26  49
ATOM     49  C   UNL     1       7.160  -1.122   9.214  1.00  0.00    -0.014 A 
ATOM     50  C   UNL     1       8.182  -0.191   9.471  1.00  0.00     0.010 A 
ATOM     51  C   UNL     1       5.924  -0.956   9.873  1.00  0.00     0.010 A 
ATOM     52  C   UNL     1       7.976   0.863  10.375  1.00  0.00     0.020 A 
ATOM     53  C   UNL     1       5.699   0.115  10.741  1.00  0.00     0.020 A 
ATOM     54  C   UNL     1       6.736   1.007  11.005  1.00  0.00     0.054 A 
BRANCH  54  55
ATOM     55  S   UNL     1       6.473   2.383  12.160  1.00  0.00     0.124 S 
ATOM     56  O   UNL     1       7.163   1.909  13.355  1.00  0.00    -0.237 OA
ATOM     57  O   UNL     1       7.100   3.506  11.469  1.00  0.00    -0.237 OA
ATOM     58  O   UNL     1       5.017   2.463  12.267  1.00  0.00    -0.744 OA
ENDBRANCH  54  55
ENDBRANCH  26  49
BRANCH  38  59
ATOM     59  C   UNL     1      11.035  -6.915   9.253  1.00  0.00    -0.014 A 
ATOM     60  C   UNL     1      10.567  -7.450  10.465  1.00  0.00     0.010 A 
ATOM     61  C   UNL     1      12.411  -6.912   8.972  1.00  0.00     0.010 A 
ATOM     62  C   UNL     1      11.472  -7.943  11.403  1.00  0.00     0.020 A 
ATOM     63  C   UNL     1      13.315  -7.428   9.898  1.00  0.00     0.020 A 
ATOM     64  C   UNL     1      12.840  -7.925  11.114  1.00  0.00     0.054 A 
BRANCH  64  65
ATOM     65  S   UNL     1      13.997  -8.599  12.333  1.00  0.00     0.124 S 
ATOM     66  O   UNL     1      14.064  -7.520  13.314  1.00  0.00    -0.237 OA
ATOM     67  O   UNL     1      13.322  -9.816  12.779  1.00  0.00    -0.237 OA
ATOM     68  O   UNL     1      15.219  -8.819  11.561  1.00  0.00    -0.744 OA
ENDBRANCH  64  65
ENDBRANCH  38  59
ENDBRANCH  12  13
ENDBRANCH   5   7
ENDBRANCH   4   5
ENDBRANCH   3   4
ENDBRANCH   2   3
ENDBRANCH   1   2
BRANCH   1  69
ATOM     69  C   UNL     1       2.799   1.978   2.185  1.00  0.00     0.202 C 
BRANCH  69  70
ATOM     70  C   UNL     1       2.287   3.287   1.593  1.00  0.00     0.261 C 
BRANCH  70  71
ATOM     71  O   UNL     1       2.711   3.510   0.244  1.00  0.00    -0.461 OA
BRANCH  71  72
ATOM     72  C   UNL     1       3.929   4.102   0.196  1.00  0.00     0.336 C 
ATOM     73  O   UNL     1       4.588   4.354   1.205  1.00  0.00    -0.249 OA
BRANCH  72  74
ATOM     74  C   UNL     1       4.404   4.501  -1.251  1.00  0.00     0.164 C 
ATOM     75  C   UNL     1       5.808   3.912  -1.555  1.00  0.00     0.046 C 
ATOM     76  C   UNL     1       4.511   6.035  -1.063  1.00  0.00    -0.008 A 
ATOM     77  C   UNL     1       6.899   4.342  -0.577  1.00  0.00     0.008 C 
ATOM     78  C   UNL     1       5.686   6.612  -0.535  1.00  0.00    -0.042 A 
ATOM     79  C   UNL     1       3.320   6.794  -1.089  1.00  0.00     0.007 A 
ATOM     80  C   UNL     1       6.993   5.860  -0.436  1.00  0.00     0.036 C 
ATOM     81  C   UNL     1       5.632   7.922  -0.032  1.00  0.00     0.004 A 
ATOM     82  C   UNL     1       3.285   8.085  -0.575  1.00  0.00     0.000 A 
ATOM     83  C   UNL     1       4.438   8.643  -0.035  1.00  0.00     0.000 A 
BRANCH  74  84
ATOM     84  N   UNL     1       3.546   4.246  -2.463  1.00  0.00    -0.336 N 
ATOM     85  C   UNL     1       3.077   3.136  -3.105  1.00  0.00     0.224 C 
ATOM     86  H   UNL     1       3.254   5.080  -2.896  1.00  0.00     0.164 HD
ATOM     87  O   UNL     1       2.857   3.235  -4.316  1.00  0.00    -0.275 OA
BRANCH  85  88
ATOM     88  C   UNL     1       2.690   1.873  -2.356  1.00  0.00     0.082 C 
ATOM     89  C   UNL     1       3.100   0.581  -3.109  1.00  0.00     0.035 C 
ATOM     90  C   UNL     1       1.183   1.942  -2.011  1.00  0.00     0.035 C 
ATOM     91  C   UNL     1       2.036  -0.063  -3.994  1.00  0.00     0.120 C 
ATOM     92  C   UNL     1       0.294   1.325  -3.092  1.00  0.00     0.120 C 
ATOM     93  N   UNL     1       0.733  -0.032  -3.345  1.00  0.00    -0.342 N 
ATOM     94  C   UNL     1       0.200  -1.229  -2.853  1.00  0.00     0.225 C 
ATOM     95  O   UNL     1       0.850  -2.275  -2.922  1.00  0.00    -0.275 OA
BRANCH  94  96
ATOM     96  C   UNL     1      -1.193  -1.383  -2.320  1.00  0.00     0.079 C 
ATOM     97  C   UNL     1      -2.139  -0.408  -1.683  1.00  0.00     0.014 C 
ATOM     98  C   UNL     1      -2.362  -0.834  -3.108  1.00  0.00     0.014 C 
ENDBRANCH  94  96
ENDBRANCH  85  88
ENDBRANCH  74  84
ENDBRANCH  72  74
ENDBRANCH  71  72
ENDBRANCH  70  71
ENDBRANCH  69  70
ENDBRANCH   1  69
TORSDOF 20
