REMARK SMILES Cc1noc(C)c1CNc1cnc(C(=O)OCCOCCOC(=O)c2ccc(-c3c4nc(c(-c5ccc(S(=O)(=O)[O-])cc5)c5ccc([nH]5)c(-c5ccc(S(=O)(=O)[O-])cc5)c5nc(c(-c6ccc(S(=O)(=O)[O-])cc6)c6ccc3[nH]6)C=C5)C=C4)cc2)cn1
REMARK SMILES IDX 19 1 18 2 17 3 16 4 14 5 15 6 13 7 10 8 11 9 86 10 12 11
REMARK SMILES IDX 85 12 9 13 8 15 7 16 1 17 2 18 3 19 4 20 5 21 6 22 20 23
REMARK SMILES IDX 21 24 22 25 23 26 24 27 25 28 26 29 84 30 27 31 83 32 28 33
REMARK SMILES IDX 29 34 30 35 77 36 31 37 82 38 76 39 78 40 32 41 81 42 75 43
REMARK SMILES IDX 74 44 33 46 63 47 44 48 62 49 45 50 48 51 61 52 79 53 46 54
REMARK SMILES IDX 47 55 60 57 80 58 49 59 34 60 35 61 43 62 36 63 42 64 37 65
REMARK SMILES IDX 38 66 39 67 40 68 41 69 64 70 65 71 73 72 66 73 72 74 67 75
REMARK SMILES IDX 68 76 69 77 70 78 71 79 50 80 51 81 59 82 52 83 58 84 53 85
REMARK SMILES IDX 54 86 55 87 56 88 57 89
REMARK H PARENT 9 14 78 45 48 56
REMARK Flexibility Score: inf
ROOT
ATOM      1  O   UNL     1      -6.884   7.809  -1.798  1.00  0.00    -0.374 OA
ENDROOT
BRANCH   1   2
ATOM      2  C   UNL     1      -6.934   8.333  -0.468  1.00  0.00     0.202 C 
BRANCH   2   3
ATOM      3  C   UNL     1      -6.895   7.282   0.645  1.00  0.00     0.261 C 
BRANCH   3   4
ATOM      4  O   UNL     1      -5.630   6.601   0.657  1.00  0.00    -0.458 OA
BRANCH   4   5
ATOM      5  C   UNL     1      -5.648   5.330   0.193  1.00  0.00     0.358 C 
ATOM      6  O   UNL     1      -6.635   4.665  -0.090  1.00  0.00    -0.244 OA
BRANCH   5   7
ATOM      7  C   UNL     1      -4.276   4.870  -0.108  1.00  0.00     0.166 A 
ATOM      8  C   UNL     1      -1.852   3.886  -0.785  1.00  0.00     0.144 A 
ATOM      9  C   UNL     1      -2.019   4.822   0.240  1.00  0.00     0.158 A 
ATOM     10  N   UNL     1      -2.904   3.494  -1.529  1.00  0.00    -0.235 NA
ATOM     11  N   UNL     1      -3.221   5.341   0.603  1.00  0.00    -0.244 NA
ATOM     12  C   UNL     1      -4.115   3.984  -1.161  1.00  0.00     0.149 A 
BRANCH   8  13
ATOM     13  N   UNL     1      -0.662   3.253  -1.074  1.00  0.00    -0.365 N 
ATOM     14  H   UNL     1      -0.310   3.245  -1.994  1.00  0.00     0.162 HD
BRANCH  13  15
ATOM     15  C   UNL     1       0.063   2.599   0.003  1.00  0.00     0.156 C 
BRANCH  15  16
ATOM     16  C   UNL     1       0.068   1.106  -0.034  1.00  0.00     0.037 A 
ATOM     17  C   UNL     1      -2.489   0.504  -0.007  1.00  0.00     0.071 C 
ATOM     18  C   UNL     1      -1.037   0.205  -0.031  1.00  0.00     0.086 A 
ATOM     19  N   UNL     1      -0.629  -1.069  -0.063  1.00  0.00    -0.085 NA
ATOM     20  O   UNL     1       0.749  -1.025  -0.075  1.00  0.00    -0.361 OA
ATOM     21  C   UNL     1       1.162   0.267  -0.054  1.00  0.00     0.138 A 
ATOM     22  C   UNL     1       2.621   0.483  -0.050  1.00  0.00     0.091 C 
ENDBRANCH  15  16
ENDBRANCH  13  15
ENDBRANCH   8  13
ENDBRANCH   5   7
ENDBRANCH   4   5
ENDBRANCH   3   4
ENDBRANCH   2   3
ENDBRANCH   1   2
BRANCH   1  23
ATOM     23  C   UNL     1      -5.583   7.564  -2.336  1.00  0.00     0.202 C 
BRANCH  23  24
ATOM     24  C   UNL     1      -4.864   8.777  -2.934  1.00  0.00     0.261 C 
BRANCH  24  25
ATOM     25  O   UNL     1      -4.503   9.728  -1.917  1.00  0.00    -0.460 OA
BRANCH  25  26
ATOM     26  C   UNL     1      -5.236  10.865  -1.927  1.00  0.00     0.338 C 
ATOM     27  O   UNL     1      -6.071  11.193  -2.761  1.00  0.00    -0.246 OA
BRANCH  26  28
ATOM     28  C   UNL     1      -5.029  11.626  -0.679  1.00  0.00     0.060 A 
ATOM     29  C   UNL     1      -6.174  12.123  -0.045  1.00  0.00     0.016 A 
ATOM     30  C   UNL     1      -3.758  11.916  -0.176  1.00  0.00     0.016 A 
ATOM     31  C   UNL     1      -6.050  12.978   1.047  1.00  0.00     0.010 A 
ATOM     32  C   UNL     1      -3.636  12.778   0.922  1.00  0.00     0.010 A 
ATOM     33  C   UNL     1      -4.780  13.351   1.506  1.00  0.00    -0.014 A 
BRANCH  33  34
ATOM     34  C   UNL     1      -4.675  14.466   2.480  1.00  0.00     0.031 A 
ATOM     35  C   UNL     1      -4.343  15.847   1.974  1.00  0.00     0.074 A 
ATOM     36  C   UNL     1      -4.946  14.271   3.784  1.00  0.00     0.049 A 
ATOM     37  N   UNL     1      -4.272  16.974   2.634  1.00  0.00    -0.248 NA
ATOM     38  C   UNL     1      -4.057  15.977   0.534  1.00  0.00     0.031 C 
ATOM     39  C   UNL     1      -5.306  12.990   4.393  1.00  0.00     0.029 A 
ATOM     40  N   UNL     1      -4.969  15.158   4.832  1.00  0.00    -0.354 N 
ATOM     41  C   UNL     1      -3.926  17.941   1.697  1.00  0.00     0.074 A 
ATOM     42  C   UNL     1      -3.776  17.268   0.427  1.00  0.00     0.031 C 
ATOM     43  C   UNL     1      -5.515  13.175   5.709  1.00  0.00     0.029 A 
ATOM     44  C   UNL     1      -5.286  14.581   6.039  1.00  0.00     0.049 A 
ATOM     45  H   UNL     1      -4.776  16.118   4.729  1.00  0.00     0.167 HD
ATOM     46  C   UNL     1      -3.758  19.272   1.876  1.00  0.00     0.031 A 
ATOM     47  C   UNL     1      -5.372  15.122   7.270  1.00  0.00     0.031 A 
ATOM     48  C   UNL     1      -3.922  19.947   3.135  1.00  0.00     0.049 A 
ATOM     49  C   UNL     1      -5.138  16.602   7.445  1.00  0.00     0.074 A 
ATOM     50  C   UNL     1      -3.820  21.301   3.402  1.00  0.00     0.029 A 
ATOM     51  N   UNL     1      -4.213  19.322   4.337  1.00  0.00    -0.354 N 
ATOM     52  N   UNL     1      -4.875  17.509   6.535  1.00  0.00    -0.248 NA
ATOM     53  C   UNL     1      -5.223  17.131   8.815  1.00  0.00     0.031 C 
ATOM     54  C   UNL     1      -3.994  21.489   4.777  1.00  0.00     0.029 A 
ATOM     55  C   UNL     1      -4.261  20.258   5.355  1.00  0.00     0.049 A 
ATOM     56  H   UNL     1      -4.364  18.355   4.450  1.00  0.00     0.167 HD
ATOM     57  C   UNL     1      -4.793  18.718   7.220  1.00  0.00     0.074 A 
ATOM     58  C   UNL     1      -5.051  18.430   8.614  1.00  0.00     0.031 C 
ATOM     59  C   UNL     1      -4.527  19.957   6.737  1.00  0.00     0.031 A 
BRANCH  46  60
ATOM     60  C   UNL     1      -3.354  20.100   0.686  1.00  0.00    -0.014 A 
ATOM     61  C   UNL     1      -4.277  20.424  -0.323  1.00  0.00     0.010 A 
ATOM     62  C   UNL     1      -2.054  20.634   0.626  1.00  0.00     0.010 A 
ATOM     63  C   UNL     1      -3.903  21.259  -1.379  1.00  0.00     0.020 A 
ATOM     64  C   UNL     1      -1.683  21.487  -0.417  1.00  0.00     0.020 A 
ATOM     65  C   UNL     1      -2.609  21.789  -1.417  1.00  0.00     0.054 A 
BRANCH  65  66
ATOM     66  S   UNL     1      -2.170  22.924  -2.763  1.00  0.00     0.124 S 
ATOM     67  O   UNL     1      -2.064  22.014  -3.901  1.00  0.00    -0.237 OA
ATOM     68  O   UNL     1      -3.308  23.838  -2.795  1.00  0.00    -0.237 OA
ATOM     69  O   UNL     1      -0.910  23.517  -2.321  1.00  0.00    -0.744 OA
ENDBRANCH  65  66
ENDBRANCH  46  60
BRANCH  47  70
ATOM     70  C   UNL     1      -5.668  14.265   8.452  1.00  0.00    -0.014 A 
ATOM     71  C   UNL     1      -6.874  14.402   9.162  1.00  0.00     0.010 A 
ATOM     72  C   UNL     1      -4.711  13.338   8.903  1.00  0.00     0.010 A 
ATOM     73  C   UNL     1      -7.099  13.658  10.325  1.00  0.00     0.020 A 
ATOM     74  C   UNL     1      -4.945  12.571  10.047  1.00  0.00     0.020 A 
ATOM     75  C   UNL     1      -6.129  12.752  10.764  1.00  0.00     0.054 A 
BRANCH  75  76
ATOM     76  S   UNL     1      -6.439  11.792  12.272  1.00  0.00     0.124 S 
ATOM     77  O   UNL     1      -6.195  12.782  13.316  1.00  0.00    -0.237 OA
ATOM     78  O   UNL     1      -7.829  11.376  12.104  1.00  0.00    -0.237 OA
ATOM     79  O   UNL     1      -5.460  10.710  12.192  1.00  0.00    -0.744 OA
ENDBRANCH  75  76
ENDBRANCH  47  70
BRANCH  59  80
ATOM     80  C   UNL     1      -4.535  21.102   7.715  1.00  0.00    -0.014 A 
ATOM     81  C   UNL     1      -3.498  21.268   8.650  1.00  0.00     0.010 A 
ATOM     82  C   UNL     1      -5.567  22.056   7.658  1.00  0.00     0.010 A 
ATOM     83  C   UNL     1      -3.513  22.349   9.535  1.00  0.00     0.020 A 
ATOM     84  C   UNL     1      -5.570  23.154   8.523  1.00  0.00     0.020 A 
ATOM     85  C   UNL     1      -4.550  23.285   9.467  1.00  0.00     0.054 A 
BRANCH  85  86
ATOM     86  S   UNL     1      -4.527  24.701  10.600  1.00  0.00     0.124 S 
ATOM     87  O   UNL     1      -4.940  24.089  11.860  1.00  0.00    -0.237 OA
ATOM     88  O   UNL     1      -3.134  25.138  10.541  1.00  0.00    -0.237 OA
ATOM     89  O   UNL     1      -5.490  25.630  10.013  1.00  0.00    -0.744 OA
ENDBRANCH  85  86
ENDBRANCH  59  80
ENDBRANCH  33  34
ENDBRANCH  26  28
ENDBRANCH  25  26
ENDBRANCH  24  25
ENDBRANCH  23  24
ENDBRANCH   1  23
TORSDOF 20
