REMARK SMILES NC(=O)c1cccc(NC2(CC(=O)OCCOCCOC(=O)c3ccc(-c4c5nc(c(-c6ccc(S(=O)(=O)[O-])cc6)c6ccc([nH]6)c(-c6ccc(S(=O)(=O)[O-])cc6)c6nc(c(-c7ccc(S(=O)(=O)[O-])cc7)c7ccc4[nH]7)C=C6)C=C5)cc3)CCC2)n1
REMARK SMILES IDX 16 1 15 2 14 3 12 4 13 5 11 6 10 7 83 8 85 9 84 10 9 11 8 13
REMARK SMILES IDX 4 14 5 15 86 16 6 17 7 18 2 19 1 20 3 23 17 24 18 25 19 26
REMARK SMILES IDX 20 27 21 28 22 29 23 30 24 31 82 32 25 33 81 34 26 35 27 36
REMARK SMILES IDX 28 37 75 38 29 39 80 40 74 41 76 42 30 43 79 44 73 45 72 46
REMARK SMILES IDX 31 48 61 49 42 50 60 51 43 52 46 53 59 54 77 55 44 56 45 57
REMARK SMILES IDX 58 59 78 60 47 61 32 62 33 63 41 64 34 65 40 66 35 67 36 68
REMARK SMILES IDX 37 69 38 70 39 71 62 72 63 73 71 74 64 75 70 76 65 77 66 78
REMARK SMILES IDX 67 79 68 80 69 81 48 82 49 83 57 84 50 85 56 86 51 87 52 88
REMARK SMILES IDX 53 89 54 90 55 91
REMARK H PARENT 9 12 1 21 1 22 76 47 46 58
REMARK Flexibility Score: inf
ROOT
ATOM      1  C   UNL     1       3.449   8.861   1.859  1.00  0.00     0.202 C 
ENDROOT
BRANCH   1   2
ATOM      2  C   UNL     1       2.021   9.314   2.175  1.00  0.00     0.261 C 
BRANCH   2   3
ATOM      3  O   UNL     1       1.027   8.353   1.767  1.00  0.00    -0.463 OA
BRANCH   3   4
ATOM      4  C   UNL     1       0.302   8.667   0.664  1.00  0.00     0.308 C 
ATOM      5  O   UNL     1       0.458   9.675  -0.017  1.00  0.00    -0.252 OA
BRANCH   4   6
ATOM      6  C   UNL     1      -0.806   7.688   0.395  1.00  0.00     0.151 C 
BRANCH   6   7
ATOM      7  C   UNL     1      -0.494   6.184   0.346  1.00  0.00     0.049 C 
ATOM      8  C   UNL     1      -1.827   5.374   0.334  1.00  0.00     0.029 C 
ATOM      9  C   UNL     1      -0.150   5.477   1.690  1.00  0.00     0.029 C 
ATOM     10  C   UNL     1      -1.645   5.136   1.844  1.00  0.00     0.005 C 
BRANCH   7  11
ATOM     11  N   UNL     1       0.374   5.838  -0.765  1.00  0.00    -0.364 N 
ATOM     12  H   UNL     1       0.682   6.593  -1.317  1.00  0.00     0.162 HD
BRANCH  11  13
ATOM     13  C   UNL     1       0.838   4.561  -1.161  1.00  0.00     0.127 A 
ATOM     14  C   UNL     1       0.855   2.245  -0.957  1.00  0.00     0.130 A 
ATOM     15  C   UNL     1       1.879   2.094  -1.878  1.00  0.00     0.034 A 
ATOM     16  N   UNL     1       0.350   3.449  -0.588  1.00  0.00    -0.226 NA
ATOM     17  C   UNL     1       2.388   3.243  -2.466  1.00  0.00     0.006 A 
ATOM     18  C   UNL     1       1.856   4.484  -2.112  1.00  0.00     0.047 A 
BRANCH  14  19
ATOM     19  C   UNL     1       0.201   1.048  -0.341  1.00  0.00     0.267 C 
ATOM     20  N   UNL     1       1.019   0.011   0.034  1.00  0.00    -0.364 N 
ATOM     21  H   UNL     1       0.633  -0.797   0.443  1.00  0.00     0.160 HD
ATOM     22  H   UNL     1       1.992   0.075  -0.106  1.00  0.00     0.160 HD
ATOM     23  O   UNL     1      -1.010   0.972  -0.174  1.00  0.00    -0.268 OA
ENDBRANCH  14  19
ENDBRANCH  11  13
ENDBRANCH   7  11
ENDBRANCH   6   7
ENDBRANCH   4   6
ENDBRANCH   3   4
ENDBRANCH   2   3
ENDBRANCH   1   2
BRANCH   1  24
ATOM     24  O   UNL     1       3.771   8.800   0.469  1.00  0.00    -0.374 OA
BRANCH  24  25
ATOM     25  C   UNL     1       3.358   7.619  -0.220  1.00  0.00     0.202 C 
BRANCH  25  26
ATOM     26  C   UNL     1       4.274   6.413  -0.016  1.00  0.00     0.261 C 
BRANCH  26  27
ATOM     27  O   UNL     1       4.119   5.883   1.310  1.00  0.00    -0.460 OA
BRANCH  27  28
ATOM     28  C   UNL     1       5.277   5.748   1.990  1.00  0.00     0.338 C 
ATOM     29  O   UNL     1       6.410   5.877   1.544  1.00  0.00    -0.246 OA
BRANCH  28  30
ATOM     30  C   UNL     1       5.014   5.573   3.427  1.00  0.00     0.060 A 
ATOM     31  C   UNL     1       5.725   6.403   4.300  1.00  0.00     0.016 A 
ATOM     32  C   UNL     1       4.184   4.562   3.921  1.00  0.00     0.016 A 
ATOM     33  C   UNL     1       5.685   6.165   5.668  1.00  0.00     0.010 A 
ATOM     34  C   UNL     1       4.145   4.324   5.301  1.00  0.00     0.010 A 
ATOM     35  C   UNL     1       4.939   5.090   6.172  1.00  0.00    -0.014 A 
BRANCH  35  36
ATOM     36  C   UNL     1       5.152   4.697   7.586  1.00  0.00     0.031 A 
ATOM     37  C   UNL     1       6.118   3.584   7.895  1.00  0.00     0.074 A 
ATOM     38  C   UNL     1       4.588   5.406   8.580  1.00  0.00     0.049 A 
ATOM     39  N   UNL     1       6.565   3.174   9.054  1.00  0.00    -0.248 NA
ATOM     40  C   UNL     1       6.662   2.841   6.746  1.00  0.00     0.031 C 
ATOM     41  C   UNL     1       3.669   6.530   8.400  1.00  0.00     0.029 A 
ATOM     42  N   UNL     1       4.730   5.302   9.940  1.00  0.00    -0.354 N 
ATOM     43  C   UNL     1       7.450   2.139   8.775  1.00  0.00     0.074 A 
ATOM     44  C   UNL     1       7.445   1.953   7.340  1.00  0.00     0.031 C 
ATOM     45  C   UNL     1       3.346   7.026   9.606  1.00  0.00     0.029 A 
ATOM     46  C   UNL     1       4.022   6.247  10.642  1.00  0.00     0.049 A 
ATOM     47  H   UNL     1       5.287   4.615  10.373  1.00  0.00     0.167 HD
ATOM     48  C   UNL     1       8.211   1.417   9.632  1.00  0.00     0.031 A 
ATOM     49  C   UNL     1       3.935   6.464  11.969  1.00  0.00     0.031 A 
ATOM     50  C   UNL     1       8.199   1.590  11.060  1.00  0.00     0.049 A 
ATOM     51  C   UNL     1       4.744   5.607  12.906  1.00  0.00     0.074 A 
ATOM     52  C   UNL     1       8.923   0.904  12.019  1.00  0.00     0.029 A 
ATOM     53  N   UNL     1       7.419   2.518  11.735  1.00  0.00    -0.354 N 
ATOM     54  N   UNL     1       5.590   4.645  12.622  1.00  0.00    -0.248 NA
ATOM     55  C   UNL     1       4.597   5.878  14.343  1.00  0.00     0.031 C 
ATOM     56  C   UNL     1       8.548   1.387  13.278  1.00  0.00     0.029 A 
ATOM     57  C   UNL     1       7.630   2.410  13.098  1.00  0.00     0.049 A 
ATOM     58  H   UNL     1       6.806   3.158  11.307  1.00  0.00     0.167 HD
ATOM     59  C   UNL     1       6.094   4.212  13.843  1.00  0.00     0.074 A 
ATOM     60  C   UNL     1       5.471   5.028  14.866  1.00  0.00     0.031 C 
ATOM     61  C   UNL     1       6.993   3.229  14.099  1.00  0.00     0.031 A 
BRANCH  48  62
ATOM     62  C   UNL     1       9.104   0.357   9.042  1.00  0.00    -0.014 A 
ATOM     63  C   UNL     1      10.265   0.704   8.327  1.00  0.00     0.010 A 
ATOM     64  C   UNL     1       8.793  -1.002   9.224  1.00  0.00     0.010 A 
ATOM     65  C   UNL     1      11.078  -0.289   7.772  1.00  0.00     0.020 A 
ATOM     66  C   UNL     1       9.616  -1.999   8.691  1.00  0.00     0.020 A 
ATOM     67  C   UNL     1      10.744  -1.635   7.953  1.00  0.00     0.054 A 
BRANCH  67  68
ATOM     68  S   UNL     1      11.821  -2.905   7.232  1.00  0.00     0.124 S 
ATOM     69  O   UNL     1      11.486  -2.813   5.813  1.00  0.00    -0.237 OA
ATOM     70  O   UNL     1      13.157  -2.438   7.593  1.00  0.00    -0.237 OA
ATOM     71  O   UNL     1      11.395  -4.136   7.893  1.00  0.00    -0.744 OA
ENDBRANCH  67  68
ENDBRANCH  48  62
BRANCH  49  72
ATOM     72  C   UNL     1       3.054   7.544  12.490  1.00  0.00    -0.014 A 
ATOM     73  C   UNL     1       3.599   8.701  13.074  1.00  0.00     0.010 A 
ATOM     74  C   UNL     1       1.655   7.414  12.406  1.00  0.00     0.010 A 
ATOM     75  C   UNL     1       2.761   9.699  13.582  1.00  0.00     0.020 A 
ATOM     76  C   UNL     1       0.816   8.421  12.889  1.00  0.00     0.020 A 
ATOM     77  C   UNL     1       1.374   9.553  13.486  1.00  0.00     0.054 A 
BRANCH  77  78
ATOM     78  S   UNL     1       0.304  10.879  14.108  1.00  0.00     0.124 S 
ATOM     79  O   UNL     1       0.370  10.670  15.551  1.00  0.00    -0.237 OA
ATOM     80  O   UNL     1       0.968  12.082  13.611  1.00  0.00    -0.237 OA
ATOM     81  O   UNL     1      -0.988  10.591  13.491  1.00  0.00    -0.744 OA
ENDBRANCH  77  78
ENDBRANCH  49  72
BRANCH  61  82
ATOM     82  C   UNL     1       7.373   3.003  15.537  1.00  0.00    -0.014 A 
ATOM     83  C   UNL     1       6.482   2.394  16.438  1.00  0.00     0.010 A 
ATOM     84  C   UNL     1       8.653   3.379  15.984  1.00  0.00     0.010 A 
ATOM     85  C   UNL     1       6.849   2.204  17.773  1.00  0.00     0.020 A 
ATOM     86  C   UNL     1       9.033   3.167  17.311  1.00  0.00     0.020 A 
ATOM     87  C   UNL     1       8.121   2.598  18.202  1.00  0.00     0.054 A 
BRANCH  87  88
ATOM     88  S   UNL     1       8.584   2.322  19.934  1.00  0.00     0.124 S 
ATOM     89  O   UNL     1       7.873   3.402  20.613  1.00  0.00    -0.237 OA
ATOM     90  O   UNL     1       8.079   0.976  20.194  1.00  0.00    -0.237 OA
ATOM     91  O   UNL     1      10.040   2.443  19.925  1.00  0.00    -0.744 OA
ENDBRANCH  87  88
ENDBRANCH  61  82
ENDBRANCH  35  36
ENDBRANCH  28  30
ENDBRANCH  27  28
ENDBRANCH  26  27
ENDBRANCH  25  26
ENDBRANCH  24  25
ENDBRANCH   1  24
TORSDOF 21
