REMARK SMILES Cc1ccc(Cl)c(Nc2ccccc2C(=O)OCCOCCOC(=O)c2ccc(-c3c4nc(c(-c5ccc(S(=O)(=O)[O-])cc5)c5ccc([nH]5)c(-c5ccc(S(=O)(=O)[O-])cc5)c5nc(c(-c6ccc(S(=O)(=O)[O-])cc6)c6ccc3[nH]6)C=C5)C=C4)cc2)c1Cl
REMARK SMILES IDX 21 1 20 2 19 3 18 4 17 5 15 6 16 7 14 8 9 9 10 10 11 11
REMARK SMILES IDX 13 12 12 13 8 14 7 16 1 17 2 18 3 19 86 20 4 21 87 22 5 23
REMARK SMILES IDX 6 24 22 25 23 26 24 27 25 28 26 29 27 30 85 31 28 32 84 33
REMARK SMILES IDX 29 34 30 35 31 36 78 37 32 38 83 39 77 40 79 41 33 42 82 43
REMARK SMILES IDX 76 44 75 45 34 47 64 48 45 49 63 50 46 51 49 52 62 53 80 54
REMARK SMILES IDX 47 55 48 56 61 58 81 59 50 60 35 61 36 62 44 63 37 64 43 65
REMARK SMILES IDX 38 66 39 67 40 68 41 69 42 70 65 71 66 72 74 73 67 74 73 75
REMARK SMILES IDX 68 76 69 77 70 78 71 79 72 80 51 81 52 82 60 83 53 84 59 85
REMARK SMILES IDX 54 86 55 87 56 88 57 89 58 90
REMARK H PARENT 8 15 79 46 49 57
REMARK Flexibility Score: inf
ROOT
ATOM      1  C   UNL     1       0.839  -2.995   4.356  1.00  0.00     0.202 C 
ENDROOT
BRANCH   1   2
ATOM      2  O   UNL     1       1.208  -1.747   4.941  1.00  0.00    -0.374 OA
BRANCH   2   3
ATOM      3  C   UNL     1       0.726  -0.557   4.320  1.00  0.00     0.202 C 
BRANCH   3   4
ATOM      4  C   UNL     1       1.337  -0.185   2.967  1.00  0.00     0.261 C 
BRANCH   4   5
ATOM      5  O   UNL     1       1.092  -1.192   1.972  1.00  0.00    -0.460 OA
BRANCH   5   6
ATOM      6  C   UNL     1       2.202  -1.696   1.377  1.00  0.00     0.340 C 
ATOM      7  O   UNL     1       3.357  -1.362   1.607  1.00  0.00    -0.246 OA
BRANCH   6   8
ATOM      8  C   UNL     1       1.878  -2.866   0.523  1.00  0.00     0.083 A 
ATOM      9  C   UNL     1       0.820  -2.949  -0.405  1.00  0.00     0.053 A 
ATOM     10  C   UNL     1       0.663  -4.170  -1.097  1.00  0.00     0.027 A 
ATOM     11  C   UNL     1       1.521  -5.255  -0.897  1.00  0.00     0.002 A 
ATOM     12  C   UNL     1       2.742  -3.965   0.714  1.00  0.00     0.018 A 
ATOM     13  C   UNL     1       2.567  -5.151   0.007  1.00  0.00     0.001 A 
BRANCH   9  14
ATOM     14  N   UNL     1      -0.046  -1.909  -0.801  1.00  0.00    -0.352 N 
ATOM     15  H   UNL     1      -0.887  -2.232  -1.198  1.00  0.00     0.167 HD
BRANCH  14  16
ATOM     16  C   UNL     1       0.045  -0.497  -0.746  1.00  0.00     0.077 A 
ATOM     17  C   UNL     1       2.636   2.325  -0.520  1.00  0.00     0.046 C 
ATOM     18  C   UNL     1       1.322   1.595  -0.570  1.00  0.00    -0.030 A 
ATOM     19  C   UNL     1       0.154   2.275  -0.205  1.00  0.00     0.006 A 
ATOM     20  C   UNL     1       1.245   0.229  -0.912  1.00  0.00     0.069 A 
ATOM     21  C   UNL     1      -1.064   1.605  -0.162  1.00  0.00     0.023 A 
ATOM     22  Cl  UNL     1       2.630  -0.518  -1.663  1.00  0.00    -0.082 Cl
ATOM     23  C   UNL     1      -1.112   0.233  -0.398  1.00  0.00     0.066 A 
ATOM     24  Cl  UNL     1      -2.644  -0.562  -0.234  1.00  0.00    -0.082 Cl
ENDBRANCH  14  16
ENDBRANCH   9  14
ENDBRANCH   6   8
ENDBRANCH   5   6
ENDBRANCH   4   5
ENDBRANCH   3   4
ENDBRANCH   2   3
ENDBRANCH   1   2
BRANCH   1  25
ATOM     25  C   UNL     1      -0.612  -3.462   4.536  1.00  0.00     0.261 C 
BRANCH  25  26
ATOM     26  O   UNL     1      -1.586  -2.574   3.960  1.00  0.00    -0.460 OA
BRANCH  26  27
ATOM     27  C   UNL     1      -2.347  -1.912   4.864  1.00  0.00     0.338 C 
ATOM     28  O   UNL     1      -2.293  -2.007   6.085  1.00  0.00    -0.246 OA
BRANCH  27  29
ATOM     29  C   UNL     1      -3.195  -0.907   4.199  1.00  0.00     0.060 A 
ATOM     30  C   UNL     1      -3.094   0.422   4.630  1.00  0.00     0.016 A 
ATOM     31  C   UNL     1      -4.157  -1.276   3.257  1.00  0.00     0.016 A 
ATOM     32  C   UNL     1      -3.987   1.380   4.154  1.00  0.00     0.010 A 
ATOM     33  C   UNL     1      -5.057  -0.313   2.786  1.00  0.00     0.010 A 
ATOM     34  C   UNL     1      -4.999   1.011   3.258  1.00  0.00    -0.014 A 
BRANCH  34  35
ATOM     35  C   UNL     1      -6.061   1.985   2.903  1.00  0.00     0.031 A 
ATOM     36  C   UNL     1      -7.395   1.908   3.590  1.00  0.00     0.074 A 
ATOM     37  C   UNL     1      -5.836   2.938   1.981  1.00  0.00     0.049 A 
ATOM     38  N   UNL     1      -8.456   2.652   3.415  1.00  0.00    -0.248 NA
ATOM     39  C   UNL     1      -7.551   0.859   4.609  1.00  0.00     0.031 C 
ATOM     40  C   UNL     1      -4.574   3.136   1.276  1.00  0.00     0.029 A 
ATOM     41  N   UNL     1      -6.662   3.908   1.473  1.00  0.00    -0.354 N 
ATOM     42  C   UNL     1      -9.411   2.158   4.295  1.00  0.00     0.074 A 
ATOM     43  C   UNL     1      -8.810   1.035   4.983  1.00  0.00     0.031 C 
ATOM     44  C   UNL     1      -4.713   4.148   0.404  1.00  0.00     0.029 A 
ATOM     45  C   UNL     1      -6.081   4.657   0.479  1.00  0.00     0.049 A 
ATOM     46  H   UNL     1      -7.582   4.054   1.791  1.00  0.00     0.167 HD
ATOM     47  C   UNL     1     -10.672   2.603   4.514  1.00  0.00     0.031 A 
ATOM     48  C   UNL     1      -6.596   5.631  -0.297  1.00  0.00     0.031 A 
ATOM     49  C   UNL     1     -11.273   3.708   3.815  1.00  0.00     0.049 A 
ATOM     50  C   UNL     1      -8.019   6.068  -0.084  1.00  0.00     0.074 A 
ATOM     51  C   UNL     1     -12.532   4.254   3.989  1.00  0.00     0.029 A 
ATOM     52  N   UNL     1     -10.664   4.425   2.796  1.00  0.00    -0.354 N 
ATOM     53  N   UNL     1      -8.894   5.622   0.787  1.00  0.00    -0.248 NA
ATOM     54  C   UNL     1      -8.521   7.146  -0.946  1.00  0.00     0.031 C 
ATOM     55  C   UNL     1     -12.706   5.265   3.037  1.00  0.00     0.029 A 
ATOM     56  C   UNL     1     -11.534   5.386   2.307  1.00  0.00     0.049 A 
ATOM     57  H   UNL     1      -9.748   4.273   2.467  1.00  0.00     0.167 HD
ATOM     58  C   UNL     1     -10.043   6.379   0.591  1.00  0.00     0.074 A 
ATOM     59  C   UNL     1      -9.748   7.319  -0.473  1.00  0.00     0.031 C 
ATOM     60  C   UNL     1     -11.233   6.306   1.238  1.00  0.00     0.031 A 
BRANCH  47  61
ATOM     61  C   UNL     1     -11.497   1.856   5.527  1.00  0.00    -0.014 A 
ATOM     62  C   UNL     1     -11.225   1.952   6.904  1.00  0.00     0.010 A 
ATOM     63  C   UNL     1     -12.565   1.050   5.094  1.00  0.00     0.010 A 
ATOM     64  C   UNL     1     -11.974   1.214   7.825  1.00  0.00     0.020 A 
ATOM     65  C   UNL     1     -13.333   0.331   6.014  1.00  0.00     0.020 A 
ATOM     66  C   UNL     1     -13.018   0.401   7.372  1.00  0.00     0.054 A 
BRANCH  66  67
ATOM     67  S   UNL     1     -13.971  -0.553   8.586  1.00  0.00     0.124 S 
ATOM     68  O   UNL     1     -13.039  -1.627   8.922  1.00  0.00    -0.237 OA
ATOM     69  O   UNL     1     -14.212   0.423   9.645  1.00  0.00    -0.237 OA
ATOM     70  O   UNL     1     -15.158  -0.969   7.844  1.00  0.00    -0.744 OA
ENDBRANCH  66  67
ENDBRANCH  47  61
BRANCH  48  71
ATOM     71  C   UNL     1      -5.752   6.246  -1.355  1.00  0.00    -0.014 A 
ATOM     72  C   UNL     1      -5.246   7.548  -1.205  1.00  0.00     0.010 A 
ATOM     73  C   UNL     1      -5.415   5.508  -2.505  1.00  0.00     0.010 A 
ATOM     74  C   UNL     1      -4.414   8.100  -2.183  1.00  0.00     0.020 A 
ATOM     75  C   UNL     1      -4.566   6.048  -3.474  1.00  0.00     0.020 A 
ATOM     76  C   UNL     1      -4.073   7.343  -3.308  1.00  0.00     0.054 A 
BRANCH  76  77
ATOM     77  S   UNL     1      -2.918   8.045  -4.519  1.00  0.00     0.124 S 
ATOM     78  O   UNL     1      -3.755   9.020  -5.209  1.00  0.00    -0.237 OA
ATOM     79  O   UNL     1      -1.869   8.601  -3.666  1.00  0.00    -0.237 OA
ATOM     80  O   UNL     1      -2.513   6.888  -5.314  1.00  0.00    -0.744 OA
ENDBRANCH  76  77
ENDBRANCH  48  71
BRANCH  60  81
ATOM     81  C   UNL     1     -12.306   7.278   0.827  1.00  0.00    -0.014 A 
ATOM     82  C   UNL     1     -12.998   7.126  -0.388  1.00  0.00     0.010 A 
ATOM     83  C   UNL     1     -12.663   8.328   1.693  1.00  0.00     0.010 A 
ATOM     84  C   UNL     1     -14.011   8.023  -0.740  1.00  0.00     0.020 A 
ATOM     85  C   UNL     1     -13.692   9.211   1.356  1.00  0.00     0.020 A 
ATOM     86  C   UNL     1     -14.350   9.061   0.134  1.00  0.00     0.054 A 
BRANCH  86  87
ATOM     87  S   UNL     1     -15.698  10.186  -0.325  1.00  0.00     0.124 S 
ATOM     88  O   UNL     1     -15.060  11.028  -1.334  1.00  0.00    -0.237 OA
ATOM     89  O   UNL     1     -16.724   9.274  -0.825  1.00  0.00    -0.237 OA
ATOM     90  O   UNL     1     -16.029  10.859   0.929  1.00  0.00    -0.744 OA
ENDBRANCH  86  87
ENDBRANCH  60  81
ENDBRANCH  34  35
ENDBRANCH  27  29
ENDBRANCH  26  27
ENDBRANCH  25  26
ENDBRANCH   1  25
TORSDOF 19
