REMARK SMILES O=C(OCCOCCOC(=O)[C@@H]1CCCC[C@H]1C(=O)Nc1cccc(-c2nnc(-c3ccccc3)o2)c1)c1ccc(-c2c3nc(c(-c4ccc(S(=O)(=O)[O-])cc4)c4ccc([nH]4)c(-c4ccc(S(=O)(=O)[O-])cc4)c4nc(c(-c5ccc(S(=O)(=O)[O-])cc5)c5ccc2[nH]5)C=C4)C=C3)cc1
REMARK SMILES IDX 7 1 6 2 5 3 4 4 3 5 2 6 1 7 38 8 39 9 97 10 40 11 96 12
REMARK SMILES IDX 41 13 42 14 43 15 90 16 44 17 95 18 89 19 91 20 45 21 94 22
REMARK SMILES IDX 88 23 87 24 46 26 76 27 57 28 75 29 58 30 61 31 74 32 92 33
REMARK SMILES IDX 59 34 60 35 73 37 93 38 62 39 47 40 48 41 56 42 49 43 55 44
REMARK SMILES IDX 50 45 51 46 52 47 53 48 54 49 77 50 78 51 86 52 79 53 85 54
REMARK SMILES IDX 80 55 81 56 82 57 83 58 84 59 63 60 64 61 72 62 65 63 71 64
REMARK SMILES IDX 66 65 67 66 68 67 69 68 70 69 8 70 9 71 10 72 11 73 12 74
REMARK SMILES IDX 13 75 17 76 14 77 16 78 15 79 18 80 19 81 20 82 21 84 22 85
REMARK SMILES IDX 37 86 23 87 25 88 24 89 26 90 27 91 36 92 28 93 29 94 30 95
REMARK SMILES IDX 31 96 35 97 32 98 34 99 33 100
REMARK H PARENT 91 25 61 36 20 83
REMARK Flexibility Score: inf
ROOT
ATOM      1  C   UNL     1       2.701   2.133   0.345  1.00  0.00     0.202 C 
ENDROOT
BRANCH   1   2
ATOM      2  O   UNL     1       4.045   1.659   0.236  1.00  0.00    -0.374 OA
BRANCH   2   3
ATOM      3  C   UNL     1       4.387   0.867  -0.894  1.00  0.00     0.202 C 
BRANCH   3   4
ATOM      4  C   UNL     1       3.911  -0.581  -0.908  1.00  0.00     0.261 C 
BRANCH   4   5
ATOM      5  O   UNL     1       2.499  -0.672  -0.680  1.00  0.00    -0.460 OA
BRANCH   5   6
ATOM      6  C   UNL     1       1.910  -1.157   0.441  1.00  0.00     0.338 C 
ATOM      7  O   UNL     1       0.699  -1.359   0.451  1.00  0.00    -0.246 OA
BRANCH   6   8
ATOM      8  C   UNL     1       2.700  -1.432   1.674  1.00  0.00     0.060 A 
ATOM      9  C   UNL     1       3.863  -0.740   1.992  1.00  0.00     0.016 A 
ATOM     10  C   UNL     1       2.231  -2.379   2.589  1.00  0.00     0.016 A 
ATOM     11  C   UNL     1       4.618  -1.028   3.096  1.00  0.00     0.010 A 
ATOM     12  C   UNL     1       2.937  -2.617   3.774  1.00  0.00     0.010 A 
ATOM     13  C   UNL     1       4.138  -1.938   4.016  1.00  0.00    -0.014 A 
BRANCH  13  14
ATOM     14  C   UNL     1       5.026  -2.184   5.154  1.00  0.00     0.031 A 
ATOM     15  C   UNL     1       5.804  -3.456   5.161  1.00  0.00     0.074 A 
ATOM     16  C   UNL     1       5.291  -1.162   5.992  1.00  0.00     0.049 A 
ATOM     17  N   UNL     1       6.639  -3.897   6.055  1.00  0.00    -0.248 NA
ATOM     18  C   UNL     1       5.637  -4.343   3.993  1.00  0.00     0.031 C 
ATOM     19  C   UNL     1       4.707   0.186   5.898  1.00  0.00     0.029 A 
ATOM     20  N   UNL     1       6.161  -1.068   7.040  1.00  0.00    -0.354 N 
ATOM     21  C   UNL     1       7.069  -5.128   5.581  1.00  0.00     0.074 A 
ATOM     22  C   UNL     1       6.404  -5.370   4.323  1.00  0.00     0.031 C 
ATOM     23  C   UNL     1       5.262   0.974   6.831  1.00  0.00     0.029 A 
ATOM     24  C   UNL     1       6.155   0.166   7.646  1.00  0.00     0.049 A 
ATOM     25  H   UNL     1       6.736  -1.811   7.332  1.00  0.00     0.167 HD
ATOM     26  C   UNL     1       7.942  -5.975   6.167  1.00  0.00     0.031 A 
ATOM     27  C   UNL     1       6.766   0.569   8.775  1.00  0.00     0.031 A 
ATOM     28  C   UNL     1       8.567  -5.686   7.427  1.00  0.00     0.049 A 
ATOM     29  C   UNL     1       7.612  -0.452   9.486  1.00  0.00     0.074 A 
ATOM     30  C   UNL     1       9.378  -6.493   8.199  1.00  0.00     0.029 A 
ATOM     31  N   UNL     1       8.448  -4.471   8.094  1.00  0.00    -0.354 N 
ATOM     32  N   UNL     1       7.916  -1.673   9.107  1.00  0.00    -0.248 NA
ATOM     33  C   UNL     1       8.181  -0.056  10.776  1.00  0.00     0.031 C 
ATOM     34  C   UNL     1       9.707  -5.782   9.358  1.00  0.00     0.029 A 
ATOM     35  C   UNL     1       9.159  -4.509   9.276  1.00  0.00     0.049 A 
ATOM     36  H   UNL     1       7.932  -3.698   7.770  1.00  0.00     0.167 HD
ATOM     37  C   UNL     1       8.729  -2.188  10.105  1.00  0.00     0.074 A 
ATOM     38  C   UNL     1       8.890  -1.132  11.088  1.00  0.00     0.031 C 
ATOM     39  C   UNL     1       9.288  -3.420  10.213  1.00  0.00     0.031 A 
BRANCH  26  40
ATOM     40  C   UNL     1       8.173  -7.295   5.490  1.00  0.00    -0.014 A 
ATOM     41  C   UNL     1       8.900  -7.390   4.289  1.00  0.00     0.010 A 
ATOM     42  C   UNL     1       7.616  -8.460   6.047  1.00  0.00     0.010 A 
ATOM     43  C   UNL     1       9.035  -8.621   3.641  1.00  0.00     0.020 A 
ATOM     44  C   UNL     1       7.772  -9.697   5.417  1.00  0.00     0.020 A 
ATOM     45  C   UNL     1       8.469  -9.766   4.209  1.00  0.00     0.054 A 
BRANCH  45  46
ATOM     46  S   UNL     1       8.674 -11.353   3.355  1.00  0.00     0.124 S 
ATOM     47  O   UNL     1       7.812 -11.179   2.187  1.00  0.00    -0.237 OA
ATOM     48  O   UNL     1      10.107 -11.382   3.078  1.00  0.00    -0.237 OA
ATOM     49  O   UNL     1       8.209 -12.336   4.330  1.00  0.00    -0.744 OA
ENDBRANCH  45  46
ENDBRANCH  26  40
BRANCH  27  50
ATOM     50  C   UNL     1       6.510   1.923   9.343  1.00  0.00    -0.014 A 
ATOM     51  C   UNL     1       7.549   2.849   9.536  1.00  0.00     0.010 A 
ATOM     52  C   UNL     1       5.204   2.284   9.734  1.00  0.00     0.010 A 
ATOM     53  C   UNL     1       7.297   4.085  10.144  1.00  0.00     0.020 A 
ATOM     54  C   UNL     1       4.940   3.530  10.307  1.00  0.00     0.020 A 
ATOM     55  C   UNL     1       5.994   4.414  10.532  1.00  0.00     0.054 A 
BRANCH  55  56
ATOM     56  S   UNL     1       5.689   6.014  11.332  1.00  0.00     0.124 S 
ATOM     57  O   UNL     1       6.292   5.814  12.646  1.00  0.00    -0.237 OA
ATOM     58  O   UNL     1       6.386   6.947  10.451  1.00  0.00    -0.237 OA
ATOM     59  O   UNL     1       4.233   6.129  11.324  1.00  0.00    -0.744 OA
ENDBRANCH  55  56
ENDBRANCH  27  50
BRANCH  39  60
ATOM     60  C   UNL     1      10.159  -3.656  11.413  1.00  0.00    -0.014 A 
ATOM     61  C   UNL     1       9.608  -3.789  12.698  1.00  0.00     0.010 A 
ATOM     62  C   UNL     1      11.546  -3.797  11.232  1.00  0.00     0.010 A 
ATOM     63  C   UNL     1      10.439  -4.024  13.793  1.00  0.00     0.020 A 
ATOM     64  C   UNL     1      12.375  -4.069  12.318  1.00  0.00     0.020 A 
ATOM     65  C   UNL     1      11.817  -4.164  13.595  1.00  0.00     0.054 A 
BRANCH  65  66
ATOM     66  S   UNL     1      12.869  -4.516  15.026  1.00  0.00     0.124 S 
ATOM     67  O   UNL     1      12.883  -3.228  15.714  1.00  0.00    -0.237 OA
ATOM     68  O   UNL     1      12.139  -5.584  15.704  1.00  0.00    -0.237 OA
ATOM     69  O   UNL     1      14.141  -4.919  14.431  1.00  0.00    -0.744 OA
ENDBRANCH  65  66
ENDBRANCH  39  60
ENDBRANCH  13  14
ENDBRANCH   6   8
ENDBRANCH   5   6
ENDBRANCH   4   5
ENDBRANCH   3   4
ENDBRANCH   2   3
ENDBRANCH   1   2
BRANCH   1  70
ATOM     70  C   UNL     1       2.762   3.612   0.726  1.00  0.00     0.261 C 
BRANCH  70  71
ATOM     71  O   UNL     1       3.373   4.295  -0.375  1.00  0.00    -0.463 OA
BRANCH  71  72
ATOM     72  C   UNL     1       4.738   4.252  -0.424  1.00  0.00     0.309 C 
ATOM     73  O   UNL     1       5.491   4.190   0.537  1.00  0.00    -0.252 OA
BRANCH  72  74
ATOM     74  C   UNL     1       5.149   4.141  -1.883  1.00  0.00     0.111 C 
ATOM     75  C   UNL     1       6.556   3.558  -2.053  1.00  0.00     0.016 C 
ATOM     76  C   UNL     1       4.894   5.464  -2.603  1.00  0.00     0.093 C 
ATOM     77  C   UNL     1       6.994   3.588  -3.510  1.00  0.00     0.001 C 
ATOM     78  C   UNL     1       5.569   5.597  -3.972  1.00  0.00     0.014 C 
ATOM     79  C   UNL     1       6.982   5.023  -4.009  1.00  0.00     0.001 C 
BRANCH  76  80
ATOM     80  C   UNL     1       3.394   5.810  -2.657  1.00  0.00     0.228 C 
ATOM     81  O   UNL     1       3.007   6.862  -2.131  1.00  0.00    -0.274 OA
ATOM     82  N   UNL     1       2.424   5.039  -3.253  1.00  0.00    -0.326 N 
ATOM     83  H   UNL     1       1.517   5.131  -2.881  1.00  0.00     0.169 HD
BRANCH  82  84
ATOM     84  C   UNL     1       2.556   4.139  -4.321  1.00  0.00     0.041 A 
ATOM     85  C   UNL     1       2.231   4.602  -5.594  1.00  0.00     0.026 A 
ATOM     86  C   UNL     1       2.965   2.812  -4.157  1.00  0.00     0.040 A 
ATOM     87  C   UNL     1       2.451   3.791  -6.705  1.00  0.00     0.003 A 
ATOM     88  C   UNL     1       3.278   2.013  -5.266  1.00  0.00     0.041 A 
ATOM     89  C   UNL     1       3.012   2.522  -6.543  1.00  0.00     0.014 A 
BRANCH  88  90
ATOM     90  C   UNL     1       4.075   0.798  -5.142  1.00  0.00     0.248 A 
ATOM     91  N   UNL     1       5.291   0.600  -5.609  1.00  0.00    -0.107 NA
ATOM     92  O   UNL     1       3.581  -0.291  -4.465  1.00  0.00    -0.416 OA
ATOM     93  N   UNL     1       5.669  -0.658  -5.210  1.00  0.00    -0.107 NA
ATOM     94  C   UNL     1       4.640  -1.177  -4.572  1.00  0.00     0.248 A 
BRANCH  94  95
ATOM     95  C   UNL     1       4.551  -2.466  -3.895  1.00  0.00     0.039 A 
ATOM     96  C   UNL     1       5.670  -2.956  -3.196  1.00  0.00     0.014 A 
ATOM     97  C   UNL     1       3.383  -3.238  -3.912  1.00  0.00     0.014 A 
ATOM     98  C   UNL     1       5.620  -4.180  -2.524  1.00  0.00     0.001 A 
ATOM     99  C   UNL     1       3.343  -4.477  -3.259  1.00  0.00     0.001 A 
ATOM    100  C   UNL     1       4.458  -4.944  -2.564  1.00  0.00     0.000 A 
ENDBRANCH  94  95
ENDBRANCH  88  90
ENDBRANCH  82  84
ENDBRANCH  76  80
ENDBRANCH  72  74
ENDBRANCH  71  72
ENDBRANCH  70  71
ENDBRANCH   1  70
TORSDOF 21
