REMARK SMILES CC(C)[NH2+][C@@]1(C(=O)OCCOCCOC(=O)c2ccc(-c3c4nc(c(-c5ccc(S(=O)(=O)[O-])cc5)c5ccc([nH]5)c(-c5ccc(S(=O)(=O)[O-])cc5)c5nc(c(-c6ccc(S(=O)(=O)[O-])cc6)c6ccc3[nH]6)C=C5)C=C4)cc2)CC[C@@H](Sc2ccncc2)C1
REMARK SMILES IDX 12 1 11 2 10 3 9 4 8 5 6 6 7 7 5 8 77 9 87 10 78 11 79 12
REMARK SMILES IDX 4 13 2 16 1 17 3 18 80 19 81 20 82 21 86 22 83 23 85 24
REMARK SMILES IDX 84 25 13 26 14 27 15 28 16 29 17 30 18 31 76 32 19 33 75 34
REMARK SMILES IDX 20 35 21 36 22 37 69 38 23 39 74 40 68 41 70 42 24 43 73 44
REMARK SMILES IDX 67 45 66 46 25 48 55 49 36 50 54 51 37 52 40 53 53 54 71 55
REMARK SMILES IDX 38 56 39 57 52 59 72 60 41 61 26 62 27 63 35 64 28 65 34 66
REMARK SMILES IDX 29 67 30 68 31 69 32 70 33 71 56 72 57 73 65 74 58 75 64 76
REMARK SMILES IDX 59 77 60 78 61 79 62 80 63 81 42 82 43 83 51 84 44 85 50 86
REMARK SMILES IDX 45 87 46 88 47 89 48 90 49 91
REMARK H PARENT 4 14 4 15 70 47 40 58
REMARK Flexibility Score: inf
ROOT
ATOM      1  C   UNL     1      -4.157  -2.019  -1.246  1.00  0.00     0.202 C 
ENDROOT
BRANCH   1   2
ATOM      2  O   UNL     1      -5.308  -1.181  -1.331  1.00  0.00    -0.374 OA
BRANCH   2   3
ATOM      3  C   UNL     1      -5.690  -0.710  -2.625  1.00  0.00     0.202 C 
BRANCH   3   4
ATOM      4  C   UNL     1      -4.807   0.381  -3.240  1.00  0.00     0.261 C 
BRANCH   4   5
ATOM      5  O   UNL     1      -3.481  -0.121  -3.486  1.00  0.00    -0.459 OA
BRANCH   5   6
ATOM      6  C   UNL     1      -2.464   0.658  -3.027  1.00  0.00     0.368 C 
ATOM      7  O   UNL     1      -2.610   1.811  -2.630  1.00  0.00    -0.245 OA
BRANCH   6   8
ATOM      8  C   UNL     1      -1.084  -0.104  -2.990  1.00  0.00     0.195 C 
ATOM      9  C   UNL     1      -0.152   0.676  -3.933  1.00  0.00     0.082 C 
ATOM     10  C   UNL     1      -1.112  -1.513  -3.639  1.00  0.00     0.096 C 
ATOM     11  C   UNL     1      -0.571   0.189  -5.320  1.00  0.00     0.022 C 
ATOM     12  C   UNL     1      -0.849  -1.302  -5.142  1.00  0.00     0.059 C 
BRANCH   8  13
ATOM     13  N   UNL     1      -0.739  -0.153  -1.552  1.00  0.00    -0.330 N 
ATOM     14  H   UNL     1      -1.216   0.636  -1.115  1.00  0.00     0.347 HD
ATOM     15  H   UNL     1      -1.018  -1.099  -1.293  1.00  0.00     0.347 HD
BRANCH  13  16
ATOM     16  C   UNL     1       0.642  -0.101  -1.097  1.00  0.00     0.176 C 
ATOM     17  C   UNL     1       0.637   0.346   0.369  1.00  0.00     0.075 C 
ATOM     18  C   UNL     1       1.324  -1.460  -1.173  1.00  0.00     0.075 C 
ENDBRANCH  13  16
ENDBRANCH   8  13
BRANCH  12  19
ATOM     19  S   UNL     1       0.400  -2.478  -5.845  1.00  0.00    -0.122 SA
BRANCH  19  20
ATOM     20  C   UNL     1       1.982  -1.810  -5.361  1.00  0.00     0.011 A 
ATOM     21  C   UNL     1       2.695  -2.383  -4.311  1.00  0.00     0.035 A 
ATOM     22  C   UNL     1       2.580  -0.783  -6.086  1.00  0.00     0.035 A 
ATOM     23  C   UNL     1       3.919  -1.833  -3.962  1.00  0.00     0.112 A 
ATOM     24  C   UNL     1       3.813  -0.307  -5.670  1.00  0.00     0.112 A 
ATOM     25  N   UNL     1       4.488  -0.796  -4.609  1.00  0.00    -0.265 NA
ENDBRANCH  19  20
ENDBRANCH  12  19
ENDBRANCH   6   8
ENDBRANCH   5   6
ENDBRANCH   4   5
ENDBRANCH   3   4
ENDBRANCH   2   3
ENDBRANCH   1   2
BRANCH   1  26
ATOM     26  C   UNL     1      -4.313  -3.470  -1.722  1.00  0.00     0.261 C 
BRANCH  26  27
ATOM     27  O   UNL     1      -4.610  -3.569  -3.126  1.00  0.00    -0.460 OA
BRANCH  27  28
ATOM     28  C   UNL     1      -5.849  -4.041  -3.407  1.00  0.00     0.338 C 
ATOM     29  O   UNL     1      -6.681  -4.446  -2.604  1.00  0.00    -0.246 OA
BRANCH  28  30
ATOM     30  C   UNL     1      -6.169  -3.836  -4.831  1.00  0.00     0.060 A 
ATOM     31  C   UNL     1      -7.340  -3.127  -5.131  1.00  0.00     0.016 A 
ATOM     32  C   UNL     1      -5.396  -4.394  -5.851  1.00  0.00     0.016 A 
ATOM     33  C   UNL     1      -7.770  -3.015  -6.451  1.00  0.00     0.010 A 
ATOM     34  C   UNL     1      -5.836  -4.289  -7.176  1.00  0.00     0.010 A 
ATOM     35  C   UNL     1      -7.043  -3.632  -7.478  1.00  0.00    -0.014 A 
BRANCH  35  36
ATOM     36  C   UNL     1      -7.630  -3.711  -8.838  1.00  0.00     0.031 A 
ATOM     37  C   UNL     1      -8.317  -4.980  -9.265  1.00  0.00     0.074 A 
ATOM     38  C   UNL     1      -7.584  -2.656  -9.672  1.00  0.00     0.049 A 
ATOM     39  N   UNL     1      -8.886  -5.270 -10.407  1.00  0.00    -0.248 NA
ATOM     40  C   UNL     1      -8.369  -6.067  -8.273  1.00  0.00     0.031 C 
ATOM     41  C   UNL     1      -6.985  -1.359  -9.362  1.00  0.00     0.029 A 
ATOM     42  N   UNL     1      -8.049  -2.516 -10.956  1.00  0.00    -0.354 N 
ATOM     43  C   UNL     1      -9.353  -6.573 -10.277  1.00  0.00     0.074 A 
ATOM     44  C   UNL     1      -8.980  -7.026  -8.954  1.00  0.00     0.031 C 
ATOM     45  C   UNL     1      -7.107  -0.557 -10.434  1.00  0.00     0.029 A 
ATOM     46  C   UNL     1      -7.764  -1.293 -11.513  1.00  0.00     0.049 A 
ATOM     47  H   UNL     1      -8.539  -3.224 -11.432  1.00  0.00     0.167 HD
ATOM     48  C   UNL     1     -10.033  -7.324 -11.175  1.00  0.00     0.031 A 
ATOM     49  C   UNL     1      -7.986  -0.826 -12.758  1.00  0.00     0.031 A 
ATOM     50  C   UNL     1     -10.394  -6.878 -12.495  1.00  0.00     0.049 A 
ATOM     51  C   UNL     1      -8.688  -1.700 -13.763  1.00  0.00     0.074 A 
ATOM     52  C   UNL     1     -11.104  -7.557 -13.469  1.00  0.00     0.029 A 
ATOM     53  N   UNL     1     -10.061  -5.643 -13.031  1.00  0.00    -0.354 N 
ATOM     54  N   UNL     1      -9.154  -2.918 -13.613  1.00  0.00    -0.248 NA
ATOM     55  C   UNL     1      -8.902  -1.135 -15.103  1.00  0.00     0.031 C 
ATOM     56  C   UNL     1     -11.151  -6.755 -14.614  1.00  0.00     0.029 A 
ATOM     57  C   UNL     1     -10.523  -5.552 -14.333  1.00  0.00     0.049 A 
ATOM     58  H   UNL     1      -9.569  -4.935 -12.556  1.00  0.00     0.167 HD
ATOM     59  C   UNL     1      -9.736  -3.255 -14.831  1.00  0.00     0.074 A 
ATOM     60  C   UNL     1      -9.575  -2.109 -15.702  1.00  0.00     0.031 C 
ATOM     61  C   UNL     1     -10.352  -4.408 -15.193  1.00  0.00     0.031 A 
BRANCH  48  62
ATOM     62  C   UNL     1     -10.394  -8.729 -10.772  1.00  0.00    -0.014 A 
ATOM     63  C   UNL     1     -11.391  -8.983  -9.813  1.00  0.00     0.010 A 
ATOM     64  C   UNL     1      -9.739  -9.815 -11.382  1.00  0.00     0.010 A 
ATOM     65  C   UNL     1     -11.695 -10.296  -9.440  1.00  0.00     0.020 A 
ATOM     66  C   UNL     1     -10.059 -11.129 -11.031  1.00  0.00     0.020 A 
ATOM     67  C   UNL     1     -11.022 -11.360 -10.047  1.00  0.00     0.054 A 
BRANCH  67  68
ATOM     68  S   UNL     1     -11.439 -13.054  -9.550  1.00  0.00     0.124 S 
ATOM     69  O   UNL     1     -10.817 -13.142  -8.231  1.00  0.00    -0.237 OA
ATOM     70  O   UNL     1     -12.900 -13.040  -9.556  1.00  0.00    -0.237 OA
ATOM     71  O   UNL     1     -10.823 -13.882 -10.585  1.00  0.00    -0.744 OA
ENDBRANCH  67  68
ENDBRANCH  48  62
BRANCH  49  72
ATOM     72  C   UNL     1      -7.510   0.534 -13.130  1.00  0.00    -0.014 A 
ATOM     73  C   UNL     1      -8.419   1.584 -13.348  1.00  0.00     0.010 A 
ATOM     74  C   UNL     1      -6.131   0.787 -13.252  1.00  0.00     0.010 A 
ATOM     75  C   UNL     1      -7.957   2.859 -13.688  1.00  0.00     0.020 A 
ATOM     76  C   UNL     1      -5.665   2.066 -13.565  1.00  0.00     0.020 A 
ATOM     77  C   UNL     1      -6.582   3.093 -13.790  1.00  0.00     0.054 A 
BRANCH  77  78
ATOM     78  S   UNL     1      -6.002   4.771 -14.163  1.00  0.00     0.124 S 
ATOM     79  O   UNL     1      -6.309   4.889 -15.585  1.00  0.00    -0.237 OA
ATOM     80  O   UNL     1      -6.814   5.592 -13.269  1.00  0.00    -0.237 OA
ATOM     81  O   UNL     1      -4.580   4.722 -13.830  1.00  0.00    -0.744 OA
ENDBRANCH  77  78
ENDBRANCH  49  72
BRANCH  61  82
ATOM     82  C   UNL     1     -10.926  -4.486 -16.583  1.00  0.00    -0.014 A 
ATOM     83  C   UNL     1     -10.095  -4.616 -17.709  1.00  0.00     0.010 A 
ATOM     84  C   UNL     1     -12.322  -4.495 -16.757  1.00  0.00     0.010 A 
ATOM     85  C   UNL     1     -10.650  -4.727 -18.988  1.00  0.00     0.020 A 
ATOM     86  C   UNL     1     -12.881  -4.633 -18.030  1.00  0.00     0.020 A 
ATOM     87  C   UNL     1     -12.040  -4.736 -19.140  1.00  0.00     0.054 A 
BRANCH  87  88
ATOM     88  S   UNL     1     -12.737  -4.931 -20.804  1.00  0.00     0.124 S 
ATOM     89  O   UNL     1     -12.493  -3.617 -21.392  1.00  0.00    -0.237 OA
ATOM     90  O   UNL     1     -11.943  -6.025 -21.358  1.00  0.00    -0.237 OA
ATOM     91  O   UNL     1     -14.141  -5.252 -20.556  1.00  0.00    -0.744 OA
ENDBRANCH  87  88
ENDBRANCH  61  82
ENDBRANCH  35  36
ENDBRANCH  28  30
ENDBRANCH  27  28
ENDBRANCH  26  27
ENDBRANCH   1  26
TORSDOF 21
