REMARK SMILES Cc1nc(CCNc2nccc(-c3cc(C(=O)OCCOCCOC(=O)c4ccc(-c5c6nc(c(-c7ccc(S(=O)(=O)[O-])cc7)c7ccc([nH]7)c(-c7ccc(S(=O)(=O)[O-])cc7)c7nc(c(-c8ccc(S(=O)(=O)[O-])cc8)c8ccc5[nH]8)C=C7)C=C6)cc4)ccn3)n2)cc(=O)[nH]1
REMARK SMILES IDX 20 1 19 2 18 3 16 4 17 5 15 6 13 7 14 8 89 9 88 10 87 11
REMARK SMILES IDX 12 12 8 13 9 14 90 15 10 16 11 17 7 18 6 20 5 21 4 22 1 23
REMARK SMILES IDX 2 24 3 25 94 26 92 27 91 29 93 30 21 31 22 32 23 33 24 34
REMARK SMILES IDX 25 35 26 36 27 37 28 38 86 39 29 40 85 41 30 42 31 43 32 44
REMARK SMILES IDX 79 45 33 46 84 47 78 48 80 49 34 50 83 51 77 52 76 53 35 55
REMARK SMILES IDX 65 56 46 57 64 58 47 59 50 60 63 61 81 62 48 63 49 64 62 66
REMARK SMILES IDX 82 67 51 68 36 69 37 70 45 71 38 72 44 73 39 74 40 75 41 76
REMARK SMILES IDX 42 77 43 78 66 79 67 80 75 81 68 82 74 83 69 84 70 85 71 86
REMARK SMILES IDX 72 87 73 88 52 89 53 90 61 91 54 92 60 93 55 94 56 95 57 96
REMARK SMILES IDX 58 97 59 98
REMARK H PARENT 7 19 94 28 80 54 50 65
REMARK Flexibility Score: inf
ROOT
ATOM      1  C   UNL     1       2.057  13.742   1.881  1.00  0.00     0.202 C 
ENDROOT
BRANCH   1   2
ATOM      2  C   UNL     1       3.494  13.217   1.969  1.00  0.00     0.261 C 
BRANCH   2   3
ATOM      3  O   UNL     1       3.528  11.802   2.212  1.00  0.00    -0.460 OA
BRANCH   3   4
ATOM      4  C   UNL     1       3.926  11.443   3.455  1.00  0.00     0.338 C 
ATOM      5  O   UNL     1       4.379  12.170   4.326  1.00  0.00    -0.246 OA
BRANCH   4   6
ATOM      6  C   UNL     1       3.551  10.035   3.708  1.00  0.00     0.063 A 
ATOM      7  C   UNL     1       3.182   7.767   3.043  1.00  0.00     0.090 A 
ATOM      8  C   UNL     1       3.564   9.062   2.706  1.00  0.00     0.046 A 
ATOM      9  N   UNL     1       2.768   7.454   4.303  1.00  0.00    -0.255 NA
ATOM     10  C   UNL     1       2.747   8.418   5.242  1.00  0.00     0.112 A 
ATOM     11  C   UNL     1       3.140   9.713   5.000  1.00  0.00     0.036 A 
BRANCH   7  12
ATOM     12  C   UNL     1       3.306   6.624   2.114  1.00  0.00     0.094 A 
ATOM     13  C   UNL     1       2.512   4.553   1.509  1.00  0.00     0.223 A 
ATOM     14  N   UNL     1       3.600   4.276   0.781  1.00  0.00    -0.222 NA
ATOM     15  N   UNL     1       2.310   5.706   2.149  1.00  0.00    -0.211 NA
ATOM     16  C   UNL     1       4.530   5.241   0.687  1.00  0.00     0.117 A 
ATOM     17  C   UNL     1       4.441   6.439   1.347  1.00  0.00     0.051 A 
BRANCH  13  18
ATOM     18  N   UNL     1       1.627   3.518   1.658  1.00  0.00    -0.354 N 
ATOM     19  H   UNL     1       1.953   2.634   1.943  1.00  0.00     0.163 HD
BRANCH  18  20
ATOM     20  C   UNL     1       0.214   3.716   1.400  1.00  0.00     0.122 C 
BRANCH  20  21
ATOM     21  C   UNL     1      -0.192   3.142   0.028  1.00  0.00     0.077 C 
BRANCH  21  22
ATOM     22  C   UNL     1      -0.085   1.627  -0.056  1.00  0.00     0.050 A 
ATOM     23  C   UNL     1      -2.437  -1.209   0.140  1.00  0.00     0.087 C 
ATOM     24  C   UNL     1      -1.202  -0.363   0.030  1.00  0.00     0.105 A 
ATOM     25  N   UNL     1      -1.260   0.927   0.118  1.00  0.00    -0.240 NA
ATOM     26  N   UNL     1      -0.042  -1.056  -0.166  1.00  0.00    -0.311 N 
ATOM     27  C   UNL     1       1.154  -0.428  -0.323  1.00  0.00     0.251 A 
ATOM     28  H   UNL     1      -0.072  -2.040  -0.194  1.00  0.00     0.171 HD
ATOM     29  C   UNL     1       1.089   1.038  -0.333  1.00  0.00     0.095 A 
ATOM     30  O   UNL     1       2.214  -1.032  -0.430  1.00  0.00    -0.270 OA
ENDBRANCH  21  22
ENDBRANCH  20  21
ENDBRANCH  18  20
ENDBRANCH  13  18
ENDBRANCH   7  12
ENDBRANCH   4   6
ENDBRANCH   3   4
ENDBRANCH   2   3
ENDBRANCH   1   2
BRANCH   1  31
ATOM     31  O   UNL     1       1.234  13.591   3.038  1.00  0.00    -0.374 OA
BRANCH  31  32
ATOM     32  C   UNL     1       0.650  12.310   3.273  1.00  0.00     0.202 C 
BRANCH  32  33
ATOM     33  C   UNL     1      -0.549  11.896   2.411  1.00  0.00     0.261 C 
BRANCH  33  34
ATOM     34  O   UNL     1      -0.217  11.765   1.019  1.00  0.00    -0.460 OA
BRANCH  34  35
ATOM     35  C   UNL     1      -0.697  12.760   0.232  1.00  0.00     0.338 C 
ATOM     36  O   UNL     1      -1.396  13.699   0.576  1.00  0.00    -0.246 OA
BRANCH  35  37
ATOM     37  C   UNL     1      -0.095  12.668  -1.111  1.00  0.00     0.060 A 
ATOM     38  C   UNL     1       0.560  13.803  -1.606  1.00  0.00     0.016 A 
ATOM     39  C   UNL     1      -0.230  11.524  -1.898  1.00  0.00     0.016 A 
ATOM     40  C   UNL     1       1.042  13.814  -2.913  1.00  0.00     0.010 A 
ATOM     41  C   UNL     1       0.249  11.540  -3.212  1.00  0.00     0.010 A 
ATOM     42  C   UNL     1       0.856  12.697  -3.736  1.00  0.00    -0.014 A 
BRANCH  42  43
ATOM     43  C   UNL     1       1.179  12.785  -5.181  1.00  0.00     0.031 A 
ATOM     44  C   UNL     1       0.059  12.953  -6.173  1.00  0.00     0.074 A 
ATOM     45  C   UNL     1       2.455  12.736  -5.603  1.00  0.00     0.049 A 
ATOM     46  N   UNL     1       0.112  13.010  -7.479  1.00  0.00    -0.248 NA
ATOM     47  C   UNL     1      -1.300  13.068  -5.620  1.00  0.00     0.031 C 
ATOM     48  C   UNL     1       3.628  12.621  -4.737  1.00  0.00     0.029 A 
ATOM     49  N   UNL     1       2.976  12.774  -6.872  1.00  0.00    -0.354 N 
ATOM     50  C   UNL     1      -1.203  13.155  -7.905  1.00  0.00     0.074 A 
ATOM     51  C   UNL     1      -2.035  13.146  -6.721  1.00  0.00     0.031 C 
ATOM     52  C   UNL     1       4.733  12.592  -5.502  1.00  0.00     0.029 A 
ATOM     53  C   UNL     1       4.344  12.646  -6.910  1.00  0.00     0.049 A 
ATOM     54  H   UNL     1       2.423  12.882  -7.679  1.00  0.00     0.167 HD
ATOM     55  C   UNL     1      -1.676  13.289  -9.167  1.00  0.00     0.031 A 
ATOM     56  C   UNL     1       5.186  12.558  -7.959  1.00  0.00     0.031 A 
ATOM     57  C   UNL     1      -0.845  13.285 -10.343  1.00  0.00     0.049 A 
ATOM     58  C   UNL     1       4.629  12.633  -9.357  1.00  0.00     0.074 A 
ATOM     59  C   UNL     1      -1.226  13.433 -11.665  1.00  0.00     0.029 A 
ATOM     60  N   UNL     1       0.532  13.117 -10.341  1.00  0.00    -0.354 N 
ATOM     61  N   UNL     1       3.386  12.795  -9.743  1.00  0.00    -0.248 NA
ATOM     62  C   UNL     1       5.592  12.520 -10.462  1.00  0.00     0.031 C 
ATOM     63  C   UNL     1      -0.089  13.288 -12.466  1.00  0.00     0.029 A 
ATOM     64  C   UNL     1       1.012  13.125 -11.640  1.00  0.00     0.049 A 
ATOM     65  H   UNL     1       1.086  13.008  -9.534  1.00  0.00     0.167 HD
ATOM     66  C   UNL     1       3.422  12.837 -11.133  1.00  0.00     0.074 A 
ATOM     67  C   UNL     1       4.811  12.696 -11.519  1.00  0.00     0.031 C 
ATOM     68  C   UNL     1       2.398  12.982 -12.011  1.00  0.00     0.031 A 
BRANCH  55  69
ATOM     69  C   UNL     1      -3.167  13.412  -9.347  1.00  0.00    -0.014 A 
ATOM     70  C   UNL     1      -3.862  14.566  -8.942  1.00  0.00     0.010 A 
ATOM     71  C   UNL     1      -3.880  12.371  -9.971  1.00  0.00     0.010 A 
ATOM     72  C   UNL     1      -5.245  14.660  -9.123  1.00  0.00     0.020 A 
ATOM     73  C   UNL     1      -5.257  12.474 -10.182  1.00  0.00     0.020 A 
ATOM     74  C   UNL     1      -5.934  13.613  -9.742  1.00  0.00     0.054 A 
BRANCH  74  75
ATOM     75  S   UNL     1      -7.724  13.774  -9.986  1.00  0.00     0.124 S 
ATOM     76  O   UNL     1      -8.226  13.651  -8.620  1.00  0.00    -0.237 OA
ATOM     77  O   UNL     1      -7.847  15.101 -10.583  1.00  0.00    -0.237 OA
ATOM     78  O   UNL     1      -8.056  12.661 -10.873  1.00  0.00    -0.744 OA
ENDBRANCH  74  75
ENDBRANCH  55  69
BRANCH  56  79
ATOM     79  C   UNL     1       6.644  12.370  -7.728  1.00  0.00    -0.014 A 
ATOM     80  C   UNL     1       7.562  13.385  -8.049  1.00  0.00     0.010 A 
ATOM     81  C   UNL     1       7.124  11.165  -7.180  1.00  0.00     0.010 A 
ATOM     82  C   UNL     1       8.931  13.194  -7.841  1.00  0.00     0.020 A 
ATOM     83  C   UNL     1       8.488  10.983  -6.941  1.00  0.00     0.020 A 
ATOM     84  C   UNL     1       9.385  11.996  -7.283  1.00  0.00     0.054 A 
BRANCH  84  85
ATOM     85  S   UNL     1      11.160  11.793  -6.970  1.00  0.00     0.124 S 
ATOM     86  O   UNL     1      11.693  11.645  -8.320  1.00  0.00    -0.237 OA
ATOM     87  O   UNL     1      11.502  13.038  -6.286  1.00  0.00    -0.237 OA
ATOM     88  O   UNL     1      11.225  10.595  -6.135  1.00  0.00    -0.744 OA
ENDBRANCH  84  85
ENDBRANCH  56  79
BRANCH  68  89
ATOM     89  C   UNL     1       2.739  13.040 -13.479  1.00  0.00    -0.014 A 
ATOM     90  C   UNL     1       3.180  11.901 -14.176  1.00  0.00     0.010 A 
ATOM     91  C   UNL     1       2.559  14.245 -14.183  1.00  0.00     0.010 A 
ATOM     92  C   UNL     1       3.466  11.976 -15.542  1.00  0.00     0.020 A 
ATOM     93  C   UNL     1       2.812  14.316 -15.555  1.00  0.00     0.020 A 
ATOM     94  C   UNL     1       3.278  13.182 -16.224  1.00  0.00     0.054 A 
BRANCH  94  95
ATOM     95  S   UNL     1       3.615  13.240 -18.005  1.00  0.00     0.124 S 
ATOM     96  O   UNL     1       5.073  13.168 -18.042  1.00  0.00    -0.237 OA
ATOM     97  O   UNL     1       2.914  12.059 -18.501  1.00  0.00    -0.237 OA
ATOM     98  O   UNL     1       3.045  14.518 -18.425  1.00  0.00    -0.744 OA
ENDBRANCH  94  95
ENDBRANCH  68  89
ENDBRANCH  42  43
ENDBRANCH  35  37
ENDBRANCH  34  35
ENDBRANCH  33  34
ENDBRANCH  32  33
ENDBRANCH  31  32
ENDBRANCH   1  31
TORSDOF 22
