REMARK SMILES CC[C@H]1CCC[C@](Cc2ccc(OC)cc2)(C(=O)OCCOCCOC(=O)c2ccc(-c3c4nc(c(-c5ccc(S(=O)(=O)[O-])cc5)c5ccc([nH]5)c(-c5ccc(S(=O)(=O)[O-])cc5)c5nc(c(-c6ccc(S(=O)(=O)[O-])cc6)c6ccc3[nH]6)C=C5)C=C4)cc2)C1
REMARK SMILES IDX 22 1 21 2 20 3 19 4 17 5 18 6 7 7 3 8 4 9 88 10 5 11 6 12
REMARK SMILES IDX 2 13 1 14 8 15 9 16 10 17 16 18 11 19 15 20 12 21 13 22
REMARK SMILES IDX 14 23 23 24 24 25 25 26 26 27 27 28 28 29 29 30 87 31 30 32
REMARK SMILES IDX 86 33 31 34 32 35 33 36 80 37 34 38 85 39 79 40 81 41 35 42
REMARK SMILES IDX 84 43 78 44 77 45 36 47 66 48 47 49 65 50 48 51 51 52 64 53
REMARK SMILES IDX 82 54 49 55 50 56 63 58 83 59 52 60 37 61 38 62 46 63 39 64
REMARK SMILES IDX 45 65 40 66 41 67 42 68 43 69 44 70 67 71 68 72 76 73 69 74
REMARK SMILES IDX 75 75 70 76 71 77 72 78 73 79 74 80 53 81 54 82 62 83 55 84
REMARK SMILES IDX 61 85 56 86 57 87 58 88 59 89 60 90
REMARK H PARENT 81 46 51 57
REMARK Flexibility Score: inf
ROOT
ATOM      1  O   UNL     1      -0.520   3.669   4.805  1.00  0.00    -0.374 OA
ENDROOT
BRANCH   1   2
ATOM      2  C   UNL     1      -0.190   3.447   6.175  1.00  0.00     0.202 C 
BRANCH   2   3
ATOM      3  C   UNL     1      -0.366   2.023   6.712  1.00  0.00     0.261 C 
BRANCH   3   4
ATOM      4  O   UNL     1       0.487   1.075   6.045  1.00  0.00    -0.463 OA
BRANCH   4   5
ATOM      5  C   UNL     1      -0.154   0.105   5.341  1.00  0.00     0.312 C 
ATOM      6  O   UNL     1      -1.376  -0.011   5.293  1.00  0.00    -0.252 OA
BRANCH   5   7
ATOM      7  C   UNL     1       0.792  -0.820   4.531  1.00  0.00     0.072 C 
ATOM      8  C   UNL     1       0.032  -1.722   2.106  1.00  0.00    -0.010 C 
ATOM      9  C   UNL     1      -0.495  -2.936   2.864  1.00  0.00     0.003 C 
ATOM     10  C   UNL     1       0.418  -0.548   3.032  1.00  0.00     0.022 C 
ATOM     11  C   UNL     1       0.391  -3.338   4.027  1.00  0.00     0.001 C 
ATOM     12  C   UNL     1       0.457  -2.237   5.068  1.00  0.00     0.019 C 
BRANCH   8  13
ATOM     13  C   UNL     1       1.069  -1.987   0.982  1.00  0.00     0.000 C 
ATOM     14  C   UNL     1       1.785  -3.326   0.964  1.00  0.00     0.004 C 
ENDBRANCH   8  13
BRANCH   7  15
ATOM     15  C   UNL     1       2.294  -0.455   4.798  1.00  0.00     0.054 C 
BRANCH  15  16
ATOM     16  C   UNL     1       3.346  -1.276   4.074  1.00  0.00    -0.047 A 
ATOM     17  C   UNL     1       3.823  -2.476   4.622  1.00  0.00     0.007 A 
ATOM     18  C   UNL     1       3.884  -0.842   2.853  1.00  0.00     0.007 A 
ATOM     19  C   UNL     1       4.744  -3.265   3.926  1.00  0.00     0.046 A 
ATOM     20  C   UNL     1       4.803  -1.630   2.154  1.00  0.00     0.046 A 
ATOM     21  C   UNL     1       5.196  -2.859   2.675  1.00  0.00     0.118 A 
BRANCH  21  22
ATOM     22  O   UNL     1       6.069  -3.672   2.004  1.00  0.00    -0.497 OA
ATOM     23  C   UNL     1       5.436  -4.255   0.864  1.00  0.00     0.278 C 
ENDBRANCH  21  22
ENDBRANCH  15  16
ENDBRANCH   7  15
ENDBRANCH   5   7
ENDBRANCH   4   5
ENDBRANCH   3   4
ENDBRANCH   2   3
ENDBRANCH   1   2
BRANCH   1  24
ATOM     24  C   UNL     1       0.369   3.157   3.814  1.00  0.00     0.202 C 
BRANCH  24  25
ATOM     25  C   UNL     1       1.714   3.870   3.638  1.00  0.00     0.261 C 
BRANCH  25  26
ATOM     26  O   UNL     1       2.559   3.745   4.796  1.00  0.00    -0.460 OA
BRANCH  26  27
ATOM     27  C   UNL     1       2.825   4.915   5.426  1.00  0.00     0.338 C 
ATOM     28  O   UNL     1       2.485   6.036   5.070  1.00  0.00    -0.246 OA
BRANCH  27  29
ATOM     29  C   UNL     1       3.442   4.665   6.741  1.00  0.00     0.060 A 
ATOM     30  C   UNL     1       2.837   5.254   7.858  1.00  0.00     0.016 A 
ATOM     31  C   UNL     1       4.635   3.951   6.873  1.00  0.00     0.016 A 
ATOM     32  C   UNL     1       3.451   5.180   9.105  1.00  0.00     0.010 A 
ATOM     33  C   UNL     1       5.258   3.889   8.125  1.00  0.00     0.010 A 
ATOM     34  C   UNL     1       4.688   4.536   9.237  1.00  0.00    -0.014 A 
BRANCH  34  35
ATOM     35  C   UNL     1       5.448   4.683  10.502  1.00  0.00     0.031 A 
ATOM     36  C   UNL     1       6.515   5.741  10.593  1.00  0.00     0.074 A 
ATOM     37  C   UNL     1       5.160   3.919  11.571  1.00  0.00     0.049 A 
ATOM     38  N   UNL     1       7.287   6.052  11.601  1.00  0.00    -0.248 NA
ATOM     39  C   UNL     1       6.735   6.559   9.388  1.00  0.00     0.031 C 
ATOM     40  C   UNL     1       4.120   2.892  11.622  1.00  0.00     0.029 A 
ATOM     41  N   UNL     1       5.721   3.894  12.823  1.00  0.00    -0.354 N 
ATOM     42  C   UNL     1       8.087   7.098  11.154  1.00  0.00     0.074 A 
ATOM     43  C   UNL     1       7.725   7.350   9.776  1.00  0.00     0.031 C 
ATOM     44  C   UNL     1       4.120   2.333  12.845  1.00  0.00     0.029 A 
ATOM     45  C   UNL     1       5.176   2.943  13.652  1.00  0.00     0.049 A 
ATOM     46  H   UNL     1       6.444   4.500  13.102  1.00  0.00     0.167 HD
ATOM     47  C   UNL     1       9.035   7.790  11.831  1.00  0.00     0.031 A 
ATOM     48  C   UNL     1       5.501   2.595  14.912  1.00  0.00     0.031 A 
ATOM     49  C   UNL     1       9.407   7.529  13.195  1.00  0.00     0.049 A 
ATOM     50  C   UNL     1       6.606   3.331  15.621  1.00  0.00     0.074 A 
ATOM     51  C   UNL     1      10.350   8.181  13.971  1.00  0.00     0.029 A 
ATOM     52  N   UNL     1       8.860   6.529  13.986  1.00  0.00    -0.354 N 
ATOM     53  N   UNL     1       7.338   4.332  15.192  1.00  0.00    -0.248 NA
ATOM     54  C   UNL     1       6.924   2.896  16.989  1.00  0.00     0.031 C 
ATOM     55  C   UNL     1      10.407   7.543  15.215  1.00  0.00     0.029 A 
ATOM     56  C   UNL     1       9.463   6.530  15.232  1.00  0.00     0.049 A 
ATOM     57  H   UNL     1       8.149   5.911  13.702  1.00  0.00     0.167 HD
ATOM     58  C   UNL     1       8.185   4.661  16.245  1.00  0.00     0.074 A 
ATOM     59  C   UNL     1       7.867   3.761  17.335  1.00  0.00     0.031 C 
ATOM     60  C   UNL     1       9.138   5.625  16.305  1.00  0.00     0.031 A 
BRANCH  47  61
ATOM     61  C   UNL     1       9.760   8.879  11.086  1.00  0.00    -0.014 A 
ATOM     62  C   UNL     1       9.126  10.096  10.778  1.00  0.00     0.010 A 
ATOM     63  C   UNL     1      11.103   8.691  10.713  1.00  0.00     0.010 A 
ATOM     64  C   UNL     1       9.811  11.091  10.076  1.00  0.00     0.020 A 
ATOM     65  C   UNL     1      11.799   9.694  10.032  1.00  0.00     0.020 A 
ATOM     66  C   UNL     1      11.142  10.881   9.702  1.00  0.00     0.054 A 
BRANCH  66  67
ATOM     67  S   UNL     1      12.014  12.194   8.803  1.00  0.00     0.124 S 
ATOM     68  O   UNL     1      11.427  12.086   7.470  1.00  0.00    -0.237 OA
ATOM     69  O   UNL     1      11.652  13.393   9.553  1.00  0.00    -0.237 OA
ATOM     70  O   UNL     1      13.419  11.805   8.898  1.00  0.00    -0.744 OA
ENDBRANCH  66  67
ENDBRANCH  47  61
BRANCH  48  71
ATOM     71  C   UNL     1       4.779   1.479  15.581  1.00  0.00    -0.014 A 
ATOM     72  C   UNL     1       3.888   1.730  16.638  1.00  0.00     0.010 A 
ATOM     73  C   UNL     1       4.979   0.153  15.154  1.00  0.00     0.010 A 
ATOM     74  C   UNL     1       3.219   0.673  17.265  1.00  0.00     0.020 A 
ATOM     75  C   UNL     1       4.294  -0.902  15.762  1.00  0.00     0.020 A 
ATOM     76  C   UNL     1       3.425  -0.636  16.821  1.00  0.00     0.054 A 
BRANCH  76  77
ATOM     77  S   UNL     1       2.503  -1.986  17.608  1.00  0.00     0.124 S 
ATOM     78  O   UNL     1       3.214  -2.143  18.872  1.00  0.00    -0.237 OA
ATOM     79  O   UNL     1       1.153  -1.435  17.703  1.00  0.00    -0.237 OA
ATOM     80  O   UNL     1       2.649  -3.093  16.664  1.00  0.00    -0.744 OA
ENDBRANCH  76  77
ENDBRANCH  48  71
BRANCH  60  81
ATOM     81  C   UNL     1       9.888   5.778  17.601  1.00  0.00    -0.014 A 
ATOM     82  C   UNL     1      10.866   4.846  17.991  1.00  0.00     0.010 A 
ATOM     83  C   UNL     1       9.648   6.902  18.413  1.00  0.00     0.010 A 
ATOM     84  C   UNL     1      11.570   5.021  19.187  1.00  0.00     0.020 A 
ATOM     85  C   UNL     1      10.367   7.093  19.596  1.00  0.00     0.020 A 
ATOM     86  C   UNL     1      11.314   6.142  19.983  1.00  0.00     0.054 A 
BRANCH  86  87
ATOM     87  S   UNL     1      12.269   6.370  21.508  1.00  0.00     0.124 S 
ATOM     88  O   UNL     1      11.643   5.402  22.405  1.00  0.00    -0.237 OA
ATOM     89  O   UNL     1      13.631   6.048  21.088  1.00  0.00    -0.237 OA
ATOM     90  O   UNL     1      12.045   7.772  21.850  1.00  0.00    -0.744 OA
ENDBRANCH  86  87
ENDBRANCH  60  81
ENDBRANCH  34  35
ENDBRANCH  27  29
ENDBRANCH  26  27
ENDBRANCH  25  26
ENDBRANCH  24  25
ENDBRANCH   1  24
TORSDOF 21
