REMARK SMILES O=C(Cc1c(C(=O)c2cc3c(cn2)CCCC3)[nH]c2cc(Cl)ccc12)OCCOCCOC(=O)c1ccc(-c2c3nc(c(-c4ccc(S(=O)(=O)[O-])cc4)c4ccc([nH]4)c(-c4ccc(S(=O)(=O)[O-])cc4)c4nc(c(-c5ccc(S(=O)(=O)[O-])cc5)c5ccc2[nH]5)C=C4)C=C3)cc1
REMARK SMILES IDX 29 1 28 2 27 3 26 4 2 5 1 6 3 7 4 8 5 9 25 10 18 11 19 12
REMARK SMILES IDX 24 13 20 15 23 16 21 17 22 18 6 19 7 20 8 21 9 22 13 23
REMARK SMILES IDX 10 24 12 25 11 26 17 27 14 28 16 29 15 30 30 31 31 32 32 33
REMARK SMILES IDX 33 34 34 35 35 36 36 37 94 38 37 39 93 40 38 41 39 42 40 43
REMARK SMILES IDX 87 44 41 45 92 46 86 47 88 48 42 49 91 50 85 51 84 52 43 54
REMARK SMILES IDX 73 55 54 56 72 57 55 58 58 59 71 60 89 61 56 62 57 63 70 65
REMARK SMILES IDX 90 66 59 67 44 68 45 69 53 70 46 71 52 72 47 73 48 74 49 75
REMARK SMILES IDX 50 76 51 77 74 78 75 79 83 80 76 81 82 82 77 83 78 84 79 85
REMARK SMILES IDX 80 86 81 87 60 88 61 89 69 90 62 91 68 92 63 93 64 94 65 95
REMARK SMILES IDX 66 96 67 97
REMARK H PARENT 18 14 88 53 58 64
REMARK Flexibility Score: inf
ROOT
ATOM      1  O   UNL     1       4.267  -1.491   2.053  1.00  0.00    -0.374 OA
ENDROOT
BRANCH   1   2
ATOM      2  C   UNL     1       5.002  -0.390   1.545  1.00  0.00     0.202 C 
BRANCH   2   3
ATOM      3  C   UNL     1       4.350   0.540   0.517  1.00  0.00     0.261 C 
BRANCH   3   4
ATOM      4  O   UNL     1       2.920   0.610   0.525  1.00  0.00    -0.463 OA
BRANCH   4   5
ATOM      5  C   UNL     1       2.071  -0.200  -0.153  1.00  0.00     0.310 C 
ATOM      6  O   UNL     1       0.855  -0.026  -0.031  1.00  0.00    -0.252 OA
BRANCH   5   7
ATOM      7  C   UNL     1       2.579  -1.443  -0.841  1.00  0.00     0.161 C 
BRANCH   7   8
ATOM      8  C   UNL     1       3.599  -1.370  -1.940  1.00  0.00     0.000 A 
ATOM      9  C   UNL     1       3.995  -0.295  -2.732  1.00  0.00     0.093 A 
ATOM     10  C   UNL     1       4.316  -2.522  -2.411  1.00  0.00     0.004 A 
ATOM     11  N   UNL     1       5.040  -0.738  -3.516  1.00  0.00    -0.351 N 
ATOM     12  C   UNL     1       5.183  -2.100  -3.413  1.00  0.00     0.048 A 
ATOM     13  C   UNL     1       4.277  -3.895  -2.085  1.00  0.00     0.012 A 
ATOM     14  H   UNL     1       5.606  -0.157  -4.074  1.00  0.00     0.167 HD
ATOM     15  C   UNL     1       6.003  -2.983  -4.128  1.00  0.00     0.047 A 
ATOM     16  C   UNL     1       5.072  -4.798  -2.800  1.00  0.00     0.021 A 
ATOM     17  C   UNL     1       5.914  -4.342  -3.809  1.00  0.00     0.043 A 
ATOM     18  Cl  UNL     1       6.857  -5.479  -4.697  1.00  0.00    -0.084 Cl
BRANCH   9  19
ATOM     19  C   UNL     1       3.456   1.056  -2.764  1.00  0.00     0.227 C 
ATOM     20  O   UNL     1       2.337   1.351  -2.358  1.00  0.00    -0.285 OA
BRANCH  19  21
ATOM     21  C   UNL     1       4.242   2.114  -3.420  1.00  0.00     0.113 A 
ATOM     22  C   UNL     1       3.953   2.356  -4.749  1.00  0.00     0.036 A 
ATOM     23  N   UNL     1       5.200   2.743  -2.695  1.00  0.00    -0.252 NA
ATOM     24  C   UNL     1       4.678   3.344  -5.401  1.00  0.00    -0.041 A 
ATOM     25  C   UNL     1       5.851   3.738  -3.342  1.00  0.00     0.115 A 
ATOM     26  C   UNL     1       5.646   4.064  -4.684  1.00  0.00    -0.026 A 
ATOM     27  C   UNL     1       4.431   3.566  -6.868  1.00  0.00     0.036 C 
ATOM     28  C   UNL     1       6.386   5.215  -5.318  1.00  0.00     0.037 C 
ATOM     29  C   UNL     1       4.969   4.899  -7.367  1.00  0.00     0.005 C 
ATOM     30  C   UNL     1       6.383   5.133  -6.845  1.00  0.00     0.005 C 
ENDBRANCH  19  21
ENDBRANCH   9  19
ENDBRANCH   7   8
ENDBRANCH   5   7
ENDBRANCH   4   5
ENDBRANCH   3   4
ENDBRANCH   2   3
ENDBRANCH   1   2
BRANCH   1  31
ATOM     31  C   UNL     1       3.068  -1.255   2.789  1.00  0.00     0.202 C 
BRANCH  31  32
ATOM     32  C   UNL     1       3.046  -0.254   3.948  1.00  0.00     0.261 C 
BRANCH  32  33
ATOM     33  O   UNL     1       3.376   1.090   3.571  1.00  0.00    -0.460 OA
BRANCH  33  34
ATOM     34  C   UNL     1       4.513   1.580   4.115  1.00  0.00     0.338 C 
ATOM     35  O   UNL     1       5.311   0.983   4.828  1.00  0.00    -0.246 OA
BRANCH  34  36
ATOM     36  C   UNL     1       4.762   2.931   3.597  1.00  0.00     0.060 A 
ATOM     37  C   UNL     1       3.861   3.961   3.868  1.00  0.00     0.016 A 
ATOM     38  C   UNL     1       5.956   3.183   2.910  1.00  0.00     0.016 A 
ATOM     39  C   UNL     1       4.175   5.261   3.473  1.00  0.00     0.010 A 
ATOM     40  C   UNL     1       6.266   4.483   2.514  1.00  0.00     0.010 A 
ATOM     41  C   UNL     1       5.389   5.534   2.816  1.00  0.00    -0.014 A 
BRANCH  41  42
ATOM     42  C   UNL     1       5.799   6.939   2.586  1.00  0.00     0.031 A 
ATOM     43  C   UNL     1       5.740   7.556   1.223  1.00  0.00     0.074 A 
ATOM     44  C   UNL     1       6.224   7.656   3.645  1.00  0.00     0.049 A 
ATOM     45  N   UNL     1       5.978   8.795   0.881  1.00  0.00    -0.248 NA
ATOM     46  C   UNL     1       5.375   6.677   0.101  1.00  0.00     0.031 C 
ATOM     47  C   UNL     1       6.339   7.137   5.010  1.00  0.00     0.029 A 
ATOM     48  N   UNL     1       6.617   8.966   3.753  1.00  0.00    -0.354 N 
ATOM     49  C   UNL     1       5.766   8.858  -0.489  1.00  0.00     0.074 A 
ATOM     50  C   UNL     1       5.436   7.517  -0.926  1.00  0.00     0.031 C 
ATOM     51  C   UNL     1       6.727   8.128   5.825  1.00  0.00     0.029 A 
ATOM     52  C   UNL     1       6.928   9.343   5.040  1.00  0.00     0.049 A 
ATOM     53  H   UNL     1       6.671   9.579   2.984  1.00  0.00     0.167 HD
ATOM     54  C   UNL     1       5.819   9.945  -1.295  1.00  0.00     0.031 A 
ATOM     55  C   UNL     1       7.320  10.533   5.539  1.00  0.00     0.031 A 
ATOM     56  C   UNL     1       6.159  11.270  -0.837  1.00  0.00     0.049 A 
ATOM     57  C   UNL     1       7.414  11.713   4.613  1.00  0.00     0.074 A 
ATOM     58  C   UNL     1       6.205  12.441  -1.574  1.00  0.00     0.029 A 
ATOM     59  N   UNL     1       6.512  11.605   0.463  1.00  0.00    -0.354 N 
ATOM     60  N   UNL     1       7.138  11.772   3.332  1.00  0.00    -0.248 NA
ATOM     61  C   UNL     1       7.854  12.988   5.194  1.00  0.00     0.031 C 
ATOM     62  C   UNL     1       6.665  13.463  -0.743  1.00  0.00     0.029 A 
ATOM     63  C   UNL     1       6.817  12.955   0.538  1.00  0.00     0.049 A 
ATOM     64  H   UNL     1       6.541  10.976   1.220  1.00  0.00     0.167 HD
ATOM     65  C   UNL     1       7.350  13.094   2.957  1.00  0.00     0.074 A 
ATOM     66  C   UNL     1       7.758  13.805   4.152  1.00  0.00     0.031 C 
ATOM     67  C   UNL     1       7.221  13.660   1.732  1.00  0.00     0.031 A 
BRANCH  54  68
ATOM     68  C   UNL     1       5.489   9.774  -2.756  1.00  0.00    -0.014 A 
ATOM     69  C   UNL     1       6.469  10.032  -3.733  1.00  0.00     0.010 A 
ATOM     70  C   UNL     1       4.171   9.504  -3.169  1.00  0.00     0.010 A 
ATOM     71  C   UNL     1       6.133  10.061  -5.089  1.00  0.00     0.020 A 
ATOM     72  C   UNL     1       3.837   9.499  -4.527  1.00  0.00     0.020 A 
ATOM     73  C   UNL     1       4.816   9.802  -5.476  1.00  0.00     0.054 A 
BRANCH  73  74
ATOM     74  S   UNL     1       4.397   9.874  -7.239  1.00  0.00     0.124 S 
ATOM     75  O   UNL     1       4.486  11.303  -7.521  1.00  0.00    -0.237 OA
ATOM     76  O   UNL     1       5.438   9.041  -7.840  1.00  0.00    -0.237 OA
ATOM     77  O   UNL     1       3.052   9.305  -7.297  1.00  0.00    -0.744 OA
ENDBRANCH  73  74
ENDBRANCH  54  68
BRANCH  55  78
ATOM     78  C   UNL     1       7.590  10.652   7.000  1.00  0.00    -0.014 A 
ATOM     79  C   UNL     1       8.652   9.939   7.589  1.00  0.00     0.010 A 
ATOM     80  C   UNL     1       6.732  11.398   7.827  1.00  0.00     0.010 A 
ATOM     81  C   UNL     1       8.812   9.916   8.976  1.00  0.00     0.020 A 
ATOM     82  C   UNL     1       6.910  11.407   9.215  1.00  0.00     0.020 A 
ATOM     83  C   UNL     1       7.929  10.639   9.782  1.00  0.00     0.054 A 
BRANCH  83  84
ATOM     84  S   UNL     1       8.119  10.539  11.583  1.00  0.00     0.124 S 
ATOM     85  O   UNL     1       7.638   9.188  11.861  1.00  0.00    -0.237 OA
ATOM     86  O   UNL     1       9.553  10.745  11.764  1.00  0.00    -0.237 OA
ATOM     87  O   UNL     1       7.269  11.618  12.079  1.00  0.00    -0.744 OA
ENDBRANCH  83  84
ENDBRANCH  55  78
BRANCH  67  88
ATOM     88  C   UNL     1       7.525  15.132   1.587  1.00  0.00    -0.014 A 
ATOM     89  C   UNL     1       6.501  16.022   1.209  1.00  0.00     0.010 A 
ATOM     90  C   UNL     1       8.846  15.607   1.668  1.00  0.00     0.010 A 
ATOM     91  C   UNL     1       6.799  17.341   0.859  1.00  0.00     0.020 A 
ATOM     92  C   UNL     1       9.143  16.936   1.354  1.00  0.00     0.020 A 
ATOM     93  C   UNL     1       8.122  17.785   0.919  1.00  0.00     0.054 A 
BRANCH  93  94
ATOM     94  S   UNL     1       8.498  19.480   0.392  1.00  0.00     0.124 S 
ATOM     95  O   UNL     1       8.348  19.390  -1.058  1.00  0.00    -0.237 OA
ATOM     96  O   UNL     1       7.478  20.264   1.084  1.00  0.00    -0.237 OA
ATOM     97  O   UNL     1       9.864  19.692   0.865  1.00  0.00    -0.744 OA
ENDBRANCH  93  94
ENDBRANCH  67  88
ENDBRANCH  41  42
ENDBRANCH  34  36
ENDBRANCH  33  34
ENDBRANCH  32  33
ENDBRANCH  31  32
ENDBRANCH   1  31
TORSDOF 20
