REMARK SMILES CC1(C)[C@@H](CBr)CC[C@]1(C)C(=O)OCCOCCOC(=O)c1ccc(-c2c3nc(c(-c4ccc(S(=O)(=O)[O-])cc4)c4ccc([nH]4)c(-c4ccc(S(=O)(=O)[O-])cc4)c4nc(c(-c5ccc(S(=O)(=O)[O-])cc5)c5ccc2[nH]5)C=C4)C=C3)cc1
REMARK SMILES IDX 17 1 16 2 15 3 14 4 13 5 11 6 12 7 9 8 1 9 2 10 3 11 4 12
REMARK SMILES IDX 7 13 8 14 10 15 5 16 6 17 18 18 19 19 20 20 21 21 22 22
REMARK SMILES IDX 23 23 81 24 24 25 80 26 25 27 26 28 27 29 74 30 28 31 79 32
REMARK SMILES IDX 73 33 75 34 29 35 78 36 72 37 71 38 30 40 60 41 41 42 59 43
REMARK SMILES IDX 42 44 45 45 58 46 76 47 43 48 44 49 57 51 77 52 46 53 31 54
REMARK SMILES IDX 32 55 40 56 33 57 39 58 34 59 35 60 36 61 37 62 38 63 61 64
REMARK SMILES IDX 62 65 70 66 63 67 69 68 64 69 65 70 66 71 67 72 68 73 47 74
REMARK SMILES IDX 48 75 56 76 49 77 55 78 50 79 51 80 52 81 53 82 54 83
REMARK H PARENT 75 39 45 50
REMARK Flexibility Score: inf
ROOT
ATOM      1  C   UNL     1      -1.673  -1.656   4.202  1.00  0.00     0.202 C 
ENDROOT
BRANCH   1   2
ATOM      2  O   UNL     1      -1.214  -1.035   5.401  1.00  0.00    -0.374 OA
BRANCH   2   3
ATOM      3  C   UNL     1      -0.773   0.317   5.317  1.00  0.00     0.202 C 
BRANCH   3   4
ATOM      4  C   UNL     1       0.608   0.596   4.708  1.00  0.00     0.261 C 
BRANCH   4   5
ATOM      5  O   UNL     1       0.800   0.095   3.370  1.00  0.00    -0.463 OA
BRANCH   5   6
ATOM      6  C   UNL     1       1.500  -1.062   3.303  1.00  0.00     0.312 C 
ATOM      7  O   UNL     1       1.900  -1.670   4.295  1.00  0.00    -0.252 OA
BRANCH   6   8
ATOM      8  C   UNL     1       1.860  -1.530   1.879  1.00  0.00     0.071 C 
ATOM      9  C   UNL     1       1.550   0.123  -0.147  1.00  0.00     0.012 C 
ATOM     10  C   UNL     1       1.009  -1.109   0.605  1.00  0.00    -0.016 C 
ATOM     11  C   UNL     1      -0.479  -0.784   0.889  1.00  0.00     0.012 C 
ATOM     12  C   UNL     1       1.007  -2.407  -0.292  1.00  0.00     0.006 C 
ATOM     13  C   UNL     1       0.868  -3.519   0.750  1.00  0.00     0.006 C 
ATOM     14  C   UNL     1       1.763  -3.090   1.902  1.00  0.00     0.019 C 
ATOM     15  C   UNL     1       3.349  -1.117   1.762  1.00  0.00     0.024 C 
BRANCH  12  16
ATOM     16  C   UNL     1       2.237  -2.624  -1.179  1.00  0.00     0.084 C 
ATOM     17  Br  UNL     1       1.917  -4.082  -2.451  1.00  0.00    -0.092 Br
ENDBRANCH  12  16
ENDBRANCH   6   8
ENDBRANCH   5   6
ENDBRANCH   4   5
ENDBRANCH   3   4
ENDBRANCH   2   3
ENDBRANCH   1   2
BRANCH   1  18
ATOM     18  C   UNL     1      -2.969  -1.110   3.584  1.00  0.00     0.261 C 
BRANCH  18  19
ATOM     19  O   UNL     1      -2.802   0.225   3.066  1.00  0.00    -0.460 OA
BRANCH  19  20
ATOM     20  C   UNL     1      -3.695   1.130   3.541  1.00  0.00     0.338 C 
ATOM     21  O   UNL     1      -4.673   0.901   4.231  1.00  0.00    -0.246 OA
BRANCH  20  22
ATOM     22  C   UNL     1      -3.220   2.505   3.284  1.00  0.00     0.060 A 
ATOM     23  C   UNL     1      -3.042   3.337   4.396  1.00  0.00     0.016 A 
ATOM     24  C   UNL     1      -3.050   3.006   1.992  1.00  0.00     0.016 A 
ATOM     25  C   UNL     1      -2.757   4.690   4.221  1.00  0.00     0.010 A 
ATOM     26  C   UNL     1      -2.771   4.370   1.818  1.00  0.00     0.010 A 
ATOM     27  C   UNL     1      -2.666   5.227   2.930  1.00  0.00    -0.014 A 
BRANCH  27  28
ATOM     28  C   UNL     1      -2.622   6.703   2.764  1.00  0.00     0.031 A 
ATOM     29  C   UNL     1      -3.891   7.442   2.425  1.00  0.00     0.074 A 
ATOM     30  C   UNL     1      -1.487   7.393   2.983  1.00  0.00     0.049 A 
ATOM     31  N   UNL     1      -4.085   8.727   2.271  1.00  0.00    -0.248 NA
ATOM     32  C   UNL     1      -5.101   6.625   2.241  1.00  0.00     0.031 C 
ATOM     33  C   UNL     1      -0.203   6.810   3.369  1.00  0.00     0.029 A 
ATOM     34  N   UNL     1      -1.238   8.742   2.919  1.00  0.00    -0.354 N 
ATOM     35  C   UNL     1      -5.435   8.873   1.970  1.00  0.00     0.074 A 
ATOM     36  C   UNL     1      -6.005   7.544   1.933  1.00  0.00     0.031 C 
ATOM     37  C   UNL     1       0.699   7.796   3.509  1.00  0.00     0.029 A 
ATOM     38  C   UNL     1       0.067   9.077   3.194  1.00  0.00     0.049 A 
ATOM     39  H   UNL     1      -1.929   9.408   2.697  1.00  0.00     0.167 HD
ATOM     40  C   UNL     1      -6.140  10.009   1.752  1.00  0.00     0.031 A 
ATOM     41  C   UNL     1       0.687  10.274   3.180  1.00  0.00     0.031 A 
ATOM     42  C   UNL     1      -5.577  11.333   1.777  1.00  0.00     0.049 A 
ATOM     43  C   UNL     1      -0.101  11.517   2.854  1.00  0.00     0.074 A 
ATOM     44  C   UNL     1      -6.219  12.544   1.580  1.00  0.00     0.029 A 
ATOM     45  N   UNL     1      -4.240  11.622   2.003  1.00  0.00    -0.354 N 
ATOM     46  N   UNL     1      -1.381  11.638   2.595  1.00  0.00    -0.248 NA
ATOM     47  C   UNL     1       0.640  12.787   2.829  1.00  0.00     0.031 C 
ATOM     48  C   UNL     1      -5.260  13.561   1.630  1.00  0.00     0.029 A 
ATOM     49  C   UNL     1      -4.031  12.989   1.920  1.00  0.00     0.049 A 
ATOM     50  H   UNL     1      -3.543  10.955   2.195  1.00  0.00     0.167 HD
ATOM     51  C   UNL     1      -1.602  12.999   2.401  1.00  0.00     0.074 A 
ATOM     52  C   UNL     1      -0.328  13.661   2.587  1.00  0.00     0.031 C 
ATOM     53  C   UNL     1      -2.759  13.641   2.102  1.00  0.00     0.031 A 
BRANCH  40  54
ATOM     54  C   UNL     1      -7.604   9.866   1.430  1.00  0.00    -0.014 A 
ATOM     55  C   UNL     1      -8.537   9.495   2.416  1.00  0.00     0.010 A 
ATOM     56  C   UNL     1      -8.059  10.148   0.129  1.00  0.00     0.010 A 
ATOM     57  C   UNL     1      -9.892   9.372   2.096  1.00  0.00     0.020 A 
ATOM     58  C   UNL     1      -9.417  10.052  -0.188  1.00  0.00     0.020 A 
ATOM     59  C   UNL     1     -10.323   9.648   0.794  1.00  0.00     0.054 A 
BRANCH  59  60
ATOM     60  S   UNL     1     -12.089   9.498   0.411  1.00  0.00     0.124 S 
ATOM     61  O   UNL     1     -12.273   8.049   0.401  1.00  0.00    -0.237 OA
ATOM     62  O   UNL     1     -12.720  10.203   1.524  1.00  0.00    -0.237 OA
ATOM     63  O   UNL     1     -12.219  10.151  -0.890  1.00  0.00    -0.744 OA
ENDBRANCH  59  60
ENDBRANCH  40  54
BRANCH  41  64
ATOM     64  C   UNL     1       2.146  10.356   3.462  1.00  0.00    -0.014 A 
ATOM     65  C   UNL     1       2.621  10.957   4.641  1.00  0.00     0.010 A 
ATOM     66  C   UNL     1       3.072   9.832   2.541  1.00  0.00     0.010 A 
ATOM     67  C   UNL     1       3.995  11.043   4.888  1.00  0.00     0.020 A 
ATOM     68  C   UNL     1       4.444   9.892   2.796  1.00  0.00     0.020 A 
ATOM     69  C   UNL     1       4.897  10.507   3.964  1.00  0.00     0.054 A 
BRANCH  69  70
ATOM     70  S   UNL     1       6.673  10.578   4.330  1.00  0.00     0.124 S 
ATOM     71  O   UNL     1       6.977  11.985   4.090  1.00  0.00    -0.237 OA
ATOM     72  O   UNL     1       6.726  10.147   5.724  1.00  0.00    -0.237 OA
ATOM     73  O   UNL     1       7.256   9.638   3.374  1.00  0.00    -0.744 OA
ENDBRANCH  69  70
ENDBRANCH  41  64
BRANCH  53  74
ATOM     74  C   UNL     1      -2.715  15.143   1.984  1.00  0.00    -0.014 A 
ATOM     75  C   UNL     1      -2.105  15.772   0.884  1.00  0.00     0.010 A 
ATOM     76  C   UNL     1      -3.345  15.934   2.962  1.00  0.00     0.010 A 
ATOM     77  C   UNL     1      -2.099  17.167   0.782  1.00  0.00     0.020 A 
ATOM     78  C   UNL     1      -3.365  17.327   2.849  1.00  0.00     0.020 A 
ATOM     79  C   UNL     1      -2.729  17.936   1.766  1.00  0.00     0.054 A 
BRANCH  79  80
ATOM     80  S   UNL     1      -2.744  19.741   1.588  1.00  0.00     0.124 S 
ATOM     81  O   UNL     1      -1.367  20.091   1.923  1.00  0.00    -0.237 OA
ATOM     82  O   UNL     1      -3.116  19.923   0.187  1.00  0.00    -0.237 OA
ATOM     83  O   UNL     1      -3.750  20.176   2.554  1.00  0.00    -0.744 OA
ENDBRANCH  79  80
ENDBRANCH  53  74
ENDBRANCH  27  28
ENDBRANCH  20  22
ENDBRANCH  19  20
ENDBRANCH  18  19
ENDBRANCH   1  18
TORSDOF 18
