REMARK SMILES O=C(OCCOCCOC(=O)c1ccc(-c2c3nc(c(-c4ccc(S(=O)(=O)[O-])cc4)c4ccc([nH]4)c(-c4ccc(S(=O)(=O)[O-])cc4)c4nc(c(-c5ccc(S(=O)(=O)[O-])cc5)c5ccc2[nH]5)C=C4)C=C3)cc1)C1=Cc2ccc(Cl)c(Cl)c2O[C@@H]1C(F)(F)F
REMARK SMILES IDX 7 1 6 2 5 3 4 4 3 5 2 6 1 7 72 8 73 9 83 10 74 11 82 12
REMARK SMILES IDX 75 13 81 14 76 15 79 16 77 17 80 18 78 19 84 20 85 21 86 22
REMARK SMILES IDX 87 23 8 24 9 25 10 26 11 27 12 28 13 29 71 30 14 31 70 32
REMARK SMILES IDX 15 33 16 34 17 35 64 36 18 37 69 38 63 39 65 40 19 41 68 42
REMARK SMILES IDX 62 43 61 44 20 46 50 47 31 48 49 49 32 50 35 51 48 52 66 53
REMARK SMILES IDX 33 54 34 55 47 57 67 58 36 59 21 60 22 61 30 62 23 63 29 64
REMARK SMILES IDX 24 65 25 66 26 67 27 68 28 69 51 70 52 71 60 72 53 73 59 74
REMARK SMILES IDX 54 75 55 76 56 77 57 78 58 79 37 80 38 81 46 82 39 83 45 84
REMARK SMILES IDX 40 85 41 86 42 87 43 88 44 89
REMARK H PARENT 65 45 35 56
REMARK Flexibility Score: inf
ROOT
ATOM      1  C   UNL     1       2.833   1.688  -2.522  1.00  0.00     0.202 C 
ENDROOT
BRANCH   1   2
ATOM      2  O   UNL     1       3.972   1.832  -1.657  1.00  0.00    -0.374 OA
BRANCH   2   3
ATOM      3  C   UNL     1       4.415   1.164  -0.265  1.00  0.00     0.202 C 
BRANCH   3   4
ATOM      4  C   UNL     1       3.548  -0.413   0.952  1.00  0.00     0.261 C 
BRANCH   4   5
ATOM      5  O   UNL     1       2.572  -0.243   2.126  1.00  0.00    -0.460 OA
BRANCH   5   6
ATOM      6  C   UNL     1       2.723   0.925   2.755  1.00  0.00     0.338 C 
ATOM      7  O   UNL     1       2.070   1.407   3.644  1.00  0.00    -0.246 OA
BRANCH   6   8
ATOM      8  C   UNL     1       3.616   1.507   1.776  1.00  0.00     0.087 C 
ATOM      9  C   UNL     1       5.001   1.009   1.933  1.00  0.00     0.027 C 
ATOM     10  C   UNL     1       2.486   1.165   0.245  1.00  0.00     0.316 C 
ATOM     11  C   UNL     1       5.768  -0.186   0.809  1.00  0.00     0.019 A 
ATOM     12  O   UNL     1       3.253  -0.165  -0.927  1.00  0.00    -0.474 OA
ATOM     13  C   UNL     1       6.962  -0.740   1.177  1.00  0.00     0.013 A 
ATOM     14  C   UNL     1       4.896  -0.871  -0.532  1.00  0.00     0.148 A 
ATOM     15  C   UNL     1       7.317  -1.889   0.461  1.00  0.00     0.023 A 
ATOM     16  C   UNL     1       5.244  -2.092  -1.046  1.00  0.00     0.102 A 
ATOM     17  C   UNL     1       6.490  -2.560  -0.538  1.00  0.00     0.063 A 
ATOM     18  Cl  UNL     1       4.097  -3.050  -1.867  1.00  0.00    -0.079 Cl
ATOM     19  Cl  UNL     1       7.154  -4.097  -0.984  1.00  0.00    -0.083 Cl
BRANCH  10  20
ATOM     20  C   UNL     1       2.040   2.671  -0.005  1.00  0.00     0.430 C 
ATOM     21  F   UNL     1       1.169   2.873  -1.008  1.00  0.00    -0.167 F 
ATOM     22  F   UNL     1       1.367   3.076   1.118  1.00  0.00    -0.167 F 
ATOM     23  F   UNL     1       3.057   3.557  -0.118  1.00  0.00    -0.167 F 
ENDBRANCH  10  20
ENDBRANCH   6   8
ENDBRANCH   5   6
ENDBRANCH   4   5
ENDBRANCH   3   4
ENDBRANCH   2   3
ENDBRANCH   1   2
BRANCH   1  24
ATOM     24  C   UNL     1       3.038   1.217  -3.954  1.00  0.00     0.261 C 
BRANCH  24  25
ATOM     25  O   UNL     1       3.610  -0.074  -4.040  1.00  0.00    -0.460 OA
BRANCH  25  26
ATOM     26  C   UNL     1       4.944  -0.070  -4.252  1.00  0.00     0.338 C 
ATOM     27  O   UNL     1       5.705   0.879  -4.195  1.00  0.00    -0.246 OA
BRANCH  26  28
ATOM     28  C   UNL     1       5.355  -1.454  -4.538  1.00  0.00     0.060 A 
ATOM     29  C   UNL     1       6.620  -1.862  -4.112  1.00  0.00     0.016 A 
ATOM     30  C   UNL     1       4.477  -2.356  -5.159  1.00  0.00     0.016 A 
ATOM     31  C   UNL     1       6.985  -3.197  -4.251  1.00  0.00     0.010 A 
ATOM     32  C   UNL     1       4.843  -3.690  -5.290  1.00  0.00     0.010 A 
ATOM     33  C   UNL     1       6.091  -4.118  -4.820  1.00  0.00    -0.014 A 
BRANCH  33  34
ATOM     34  C   UNL     1       6.525  -5.504  -5.078  1.00  0.00     0.031 A 
ATOM     35  C   UNL     1       7.165  -5.784  -6.397  1.00  0.00     0.074 A 
ATOM     36  C   UNL     1       6.341  -6.484  -4.174  1.00  0.00     0.049 A 
ATOM     37  N   UNL     1       7.620  -6.914  -6.860  1.00  0.00    -0.248 NA
ATOM     38  C   UNL     1       7.294  -4.645  -7.324  1.00  0.00     0.031 C 
ATOM     39  C   UNL     1       5.711  -6.314  -2.873  1.00  0.00     0.029 A 
ATOM     40  N   UNL     1       6.669  -7.815  -4.204  1.00  0.00    -0.354 N 
ATOM     41  C   UNL     1       8.084  -6.627  -8.133  1.00  0.00     0.074 A 
ATOM     42  C   UNL     1       7.838  -5.225  -8.382  1.00  0.00     0.031 C 
ATOM     43  C   UNL     1       5.748  -7.473  -2.197  1.00  0.00     0.029 A 
ATOM     44  C   UNL     1       6.316  -8.498  -3.061  1.00  0.00     0.049 A 
ATOM     45  H   UNL     1       7.116  -8.243  -4.970  1.00  0.00     0.167 HD
ATOM     46  C   UNL     1       8.660  -7.471  -9.015  1.00  0.00     0.031 A 
ATOM     47  C   UNL     1       6.403  -9.809  -2.761  1.00  0.00     0.031 A 
ATOM     48  C   UNL     1       8.857  -8.871  -8.765  1.00  0.00     0.049 A 
ATOM     49  C   UNL     1       6.981 -10.733  -3.800  1.00  0.00     0.074 A 
ATOM     50  C   UNL     1       9.446  -9.810  -9.591  1.00  0.00     0.029 A 
ATOM     51  N   UNL     1       8.452  -9.538  -7.619  1.00  0.00    -0.354 N 
ATOM     52  N   UNL     1       7.483 -10.437  -4.976  1.00  0.00    -0.248 NA
ATOM     53  C   UNL     1       7.003 -12.165  -3.478  1.00  0.00     0.031 C 
ATOM     54  C   UNL     1       9.325 -11.059  -8.979  1.00  0.00     0.029 A 
ATOM     55  C   UNL     1       8.739 -10.887  -7.734  1.00  0.00     0.049 A 
ATOM     56  H   UNL     1       8.024  -9.116  -6.840  1.00  0.00     0.167 HD
ATOM     57  C   UNL     1       7.901 -11.643  -5.522  1.00  0.00     0.074 A 
ATOM     58  C   UNL     1       7.624 -12.667  -4.535  1.00  0.00     0.031 C 
ATOM     59  C   UNL     1       8.457 -11.886  -6.735  1.00  0.00     0.031 A 
BRANCH  46  60
ATOM     60  C   UNL     1       9.071  -6.908 -10.344  1.00  0.00    -0.014 A 
ATOM     61  C   UNL     1      10.159  -6.025 -10.456  1.00  0.00     0.010 A 
ATOM     62  C   UNL     1       8.391  -7.318 -11.504  1.00  0.00     0.010 A 
ATOM     63  C   UNL     1      10.557  -5.557 -11.709  1.00  0.00     0.020 A 
ATOM     64  C   UNL     1       8.806  -6.877 -12.761  1.00  0.00     0.020 A 
ATOM     65  C   UNL     1       9.885  -5.997 -12.854  1.00  0.00     0.054 A 
BRANCH  65  66
ATOM     66  S   UNL     1      10.480  -5.438 -14.472  1.00  0.00     0.124 S 
ATOM     67  O   UNL     1      10.149  -4.016 -14.442  1.00  0.00    -0.237 OA
ATOM     68  O   UNL     1      11.905  -5.753 -14.409  1.00  0.00    -0.237 OA
ATOM     69  O   UNL     1       9.709  -6.237 -15.421  1.00  0.00    -0.744 OA
ENDBRANCH  65  66
ENDBRANCH  46  60
BRANCH  47  70
ATOM     70  C   UNL     1       5.885 -10.341  -1.466  1.00  0.00    -0.014 A 
ATOM     71  C   UNL     1       6.740 -10.982  -0.551  1.00  0.00     0.010 A 
ATOM     72  C   UNL     1       4.512 -10.257  -1.161  1.00  0.00     0.010 A 
ATOM     73  C   UNL     1       6.229 -11.566   0.614  1.00  0.00     0.020 A 
ATOM     74  C   UNL     1       4.003 -10.802   0.021  1.00  0.00     0.020 A 
ATOM     75  C   UNL     1       4.862 -11.473   0.891  1.00  0.00     0.054 A 
BRANCH  75  76
ATOM     76  S   UNL     1       4.223 -12.234   2.409  1.00  0.00     0.124 S 
ATOM     77  O   UNL     1       4.370 -13.657   2.122  1.00  0.00    -0.237 OA
ATOM     78  O   UNL     1       5.120 -11.697   3.430  1.00  0.00    -0.237 OA
ATOM     79  O   UNL     1       2.846 -11.750   2.483  1.00  0.00    -0.744 OA
ENDBRANCH  75  76
ENDBRANCH  47  70
BRANCH  59  80
ATOM     80  C   UNL     1       8.835 -13.309  -7.048  1.00  0.00    -0.014 A 
ATOM     81  C   UNL     1       7.856 -14.297  -7.256  1.00  0.00     0.010 A 
ATOM     82  C   UNL     1      10.193 -13.645  -7.197  1.00  0.00     0.010 A 
ATOM     83  C   UNL     1       8.232 -15.604  -7.574  1.00  0.00     0.020 A 
ATOM     84  C   UNL     1      10.570 -14.940  -7.555  1.00  0.00     0.020 A 
ATOM     85  C   UNL     1       9.586 -15.915  -7.728  1.00  0.00     0.054 A 
BRANCH  85  86
ATOM     86  S   UNL     1      10.041 -17.606  -8.196  1.00  0.00     0.124 S 
ATOM     87  O   UNL     1       9.706 -18.356  -6.989  1.00  0.00    -0.237 OA
ATOM     88  O   UNL     1       9.182 -17.857  -9.351  1.00  0.00    -0.237 OA
ATOM     89  O   UNL     1      11.468 -17.513  -8.495  1.00  0.00    -0.744 OA
ENDBRANCH  85  86
ENDBRANCH  59  80
ENDBRANCH  33  34
ENDBRANCH  26  28
ENDBRANCH  25  26
ENDBRANCH  24  25
ENDBRANCH   1  24
TORSDOF 18
