REMARK SMILES Cc1c(C(=O)OCCOCCOC(=O)c2ccc(-c3c4nc(c(-c5ccc(S(=O)(=O)[O-])cc5)c5ccc([nH]5)c(-c5ccc(S(=O)(=O)[O-])cc5)c5nc(c(-c6ccc(S(=O)(=O)[O-])cc6)c6ccc3[nH]6)C=C5)C=C4)cc2)sc2ncnc(NCc3cn4c(n3)SCC4)c12
REMARK SMILES IDX 9 1 8 2 7 3 6 4 4 5 5 6 3 7 1 8 2 9 91 10 75 11 76 12 80 13
REMARK SMILES IDX 77 14 79 15 78 16 81 17 82 19 83 20 84 21 87 22 85 23 86 24
REMARK SMILES IDX 90 25 88 26 89 27 10 28 11 29 12 30 13 31 14 32 15 33 16 34
REMARK SMILES IDX 74 35 17 36 73 37 18 38 19 39 20 40 67 41 21 42 72 43 66 44
REMARK SMILES IDX 68 45 22 46 71 47 65 48 64 49 23 51 53 52 34 53 52 54 35 55
REMARK SMILES IDX 38 56 51 57 69 58 36 59 37 60 50 62 70 63 39 64 24 65 25 66
REMARK SMILES IDX 33 67 26 68 32 69 27 70 28 71 29 72 30 73 31 74 54 75 55 76
REMARK SMILES IDX 63 77 56 78 62 79 57 80 58 81 59 82 60 83 61 84 40 85 41 86
REMARK SMILES IDX 49 87 42 88 48 89 43 90 44 91 45 92 46 93 47 94
REMARK H PARENT 81 18 68 50 38 61
REMARK Flexibility Score: inf
ROOT
ATOM      1  O   UNL     1       4.345   2.192  -2.692  1.00  0.00    -0.374 OA
ENDROOT
BRANCH   1   2
ATOM      2  C   UNL     1       4.015   3.575  -2.857  1.00  0.00     0.202 C 
BRANCH   2   3
ATOM      3  C   UNL     1       2.532   3.957  -2.941  1.00  0.00     0.261 C 
BRANCH   3   4
ATOM      4  O   UNL     1       1.851   3.830  -1.675  1.00  0.00    -0.459 OA
BRANCH   4   5
ATOM      5  C   UNL     1       0.860   2.898  -1.630  1.00  0.00     0.348 C 
ATOM      6  O   UNL     1       0.499   2.218  -2.598  1.00  0.00    -0.245 OA
BRANCH   5   7
ATOM      7  C   UNL     1       0.395   2.659  -0.279  1.00  0.00     0.118 A 
ATOM      8  C   UNL     1       0.755   0.170  -0.254  1.00  0.00     0.047 C 
ATOM      9  C   UNL     1       0.211   1.422   0.335  1.00  0.00    -0.012 A 
ATOM     10  C   UNL     1      -0.561   1.528   1.567  1.00  0.00     0.058 A 
ATOM     11  S   UNL     1      -0.033   3.945   0.739  1.00  0.00    -0.108 S 
ATOM     12  C   UNL     1      -0.681   2.878   1.899  1.00  0.00     0.129 A 
ATOM     13  C   UNL     1      -1.176   0.630   2.484  1.00  0.00     0.138 A 
ATOM     14  N   UNL     1      -1.255   3.403   2.992  1.00  0.00    -0.225 NA
ATOM     15  N   UNL     1      -1.754   1.156   3.594  1.00  0.00    -0.219 NA
ATOM     16  C   UNL     1      -1.754   2.476   3.796  1.00  0.00     0.225 A 
BRANCH  13  17
ATOM     17  N   UNL     1      -1.349  -0.720   2.467  1.00  0.00    -0.364 N 
ATOM     18  H   UNL     1      -1.752  -1.046   3.305  1.00  0.00     0.162 HD
BRANCH  17  19
ATOM     19  C   UNL     1      -1.099  -1.794   1.547  1.00  0.00     0.172 C 
BRANCH  19  20
ATOM     20  C   UNL     1      -0.085  -2.809   1.999  1.00  0.00     0.079 A 
ATOM     21  C   UNL     1       1.307  -2.774   1.946  1.00  0.00     0.113 A 
ATOM     22  N   UNL     1      -0.522  -4.026   2.520  1.00  0.00    -0.226 NA
ATOM     23  N   UNL     1       1.686  -3.993   2.394  1.00  0.00    -0.325 N 
ATOM     24  C   UNL     1       0.575  -4.693   2.732  1.00  0.00     0.168 A 
ATOM     25  C   UNL     1       2.930  -4.730   2.326  1.00  0.00     0.135 C 
ATOM     26  S   UNL     1       0.900  -6.363   2.991  1.00  0.00    -0.086 SA
ATOM     27  C   UNL     1       2.510  -6.187   2.115  1.00  0.00     0.100 C 
ENDBRANCH  19  20
ENDBRANCH  17  19
ENDBRANCH  13  17
ENDBRANCH   5   7
ENDBRANCH   4   5
ENDBRANCH   3   4
ENDBRANCH   2   3
ENDBRANCH   1   2
BRANCH   1  28
ATOM     28  C   UNL     1       3.937   1.528  -1.506  1.00  0.00     0.202 C 
BRANCH  28  29
ATOM     29  C   UNL     1       4.692   1.766  -0.208  1.00  0.00     0.261 C 
BRANCH  29  30
ATOM     30  O   UNL     1       4.806   3.143   0.085  1.00  0.00    -0.460 OA
BRANCH  30  31
ATOM     31  C   UNL     1       5.947   3.681  -0.384  1.00  0.00     0.338 C 
ATOM     32  O   UNL     1       6.733   3.175  -1.185  1.00  0.00    -0.246 OA
BRANCH  31  33
ATOM     33  C   UNL     1       6.199   4.934   0.313  1.00  0.00     0.060 A 
ATOM     34  C   UNL     1       7.348   5.630  -0.068  1.00  0.00     0.016 A 
ATOM     35  C   UNL     1       5.510   5.200   1.505  1.00  0.00     0.016 A 
ATOM     36  C   UNL     1       7.951   6.432   0.866  1.00  0.00     0.010 A 
ATOM     37  C   UNL     1       6.128   5.978   2.446  1.00  0.00     0.010 A 
ATOM     38  C   UNL     1       7.379   6.506   2.139  1.00  0.00    -0.014 A 
BRANCH  38  39
ATOM     39  C   UNL     1       8.088   7.241   3.156  1.00  0.00     0.031 A 
ATOM     40  C   UNL     1       7.927   8.699   2.995  1.00  0.00     0.074 A 
ATOM     41  C   UNL     1       8.695   6.612   4.178  1.00  0.00     0.049 A 
ATOM     42  N   UNL     1       8.820   9.560   2.643  1.00  0.00    -0.248 NA
ATOM     43  C   UNL     1       6.549   9.226   3.019  1.00  0.00     0.031 C 
ATOM     44  C   UNL     1       8.621   5.188   4.527  1.00  0.00     0.029 A 
ATOM     45  N   UNL     1       9.402   7.144   5.205  1.00  0.00    -0.354 N 
ATOM     46  C   UNL     1       8.153  10.777   2.631  1.00  0.00     0.074 A 
ATOM     47  C   UNL     1       6.745  10.481   2.622  1.00  0.00     0.031 C 
ATOM     48  C   UNL     1       9.045   5.023   5.801  1.00  0.00     0.029 A 
ATOM     49  C   UNL     1       9.541   6.296   6.297  1.00  0.00     0.049 A 
ATOM     50  H   UNL     1       9.784   8.051   5.179  1.00  0.00     0.167 HD
ATOM     51  C   UNL     1       8.782  11.934   2.968  1.00  0.00     0.031 A 
ATOM     52  C   UNL     1       9.957   6.659   7.536  1.00  0.00     0.031 A 
ATOM     53  C   UNL     1      10.211  11.788   2.963  1.00  0.00     0.049 A 
ATOM     54  C   UNL     1      10.656   7.960   7.393  1.00  0.00     0.074 A 
ATOM     55  C   UNL     1      11.165  11.569   1.994  1.00  0.00     0.029 A 
ATOM     56  N   UNL     1      10.768  11.440   4.170  1.00  0.00    -0.354 N 
ATOM     57  N   UNL     1      11.771   8.109   6.735  1.00  0.00    -0.248 NA
ATOM     58  C   UNL     1       9.917   9.189   7.645  1.00  0.00     0.031 C 
ATOM     59  C   UNL     1      12.172  10.780   2.622  1.00  0.00     0.029 A 
ATOM     60  C   UNL     1      11.823  10.588   3.961  1.00  0.00     0.049 A 
ATOM     61  H   UNL     1      10.458  11.754   5.050  1.00  0.00     0.167 HD
ATOM     62  C   UNL     1      11.664   9.352   6.131  1.00  0.00     0.074 A 
ATOM     63  C   UNL     1      10.586  10.026   6.846  1.00  0.00     0.031 C 
ATOM     64  C   UNL     1      12.264   9.600   4.930  1.00  0.00     0.031 A 
BRANCH  51  65
ATOM     65  C   UNL     1       8.079  13.021   3.738  1.00  0.00    -0.014 A 
ATOM     66  C   UNL     1       8.684  14.280   3.877  1.00  0.00     0.010 A 
ATOM     67  C   UNL     1       6.942  12.761   4.538  1.00  0.00     0.010 A 
ATOM     68  C   UNL     1       8.167  15.233   4.768  1.00  0.00     0.020 A 
ATOM     69  C   UNL     1       6.392  13.715   5.389  1.00  0.00     0.020 A 
ATOM     70  C   UNL     1       7.021  14.943   5.514  1.00  0.00     0.054 A 
BRANCH  70  71
ATOM     71  S   UNL     1       6.382  16.161   6.687  1.00  0.00     0.124 S 
ATOM     72  O   UNL     1       7.456  16.224   7.673  1.00  0.00    -0.237 OA
ATOM     73  O   UNL     1       6.219  17.343   5.846  1.00  0.00    -0.237 OA
ATOM     74  O   UNL     1       5.134  15.563   7.158  1.00  0.00    -0.744 OA
ENDBRANCH  70  71
ENDBRANCH  51  65
BRANCH  52  75
ATOM     75  C   UNL     1       9.507   6.145   8.854  1.00  0.00    -0.014 A 
ATOM     76  C   UNL     1      10.210   6.481  10.027  1.00  0.00     0.010 A 
ATOM     77  C   UNL     1       8.223   5.582   8.998  1.00  0.00     0.010 A 
ATOM     78  C   UNL     1       9.616   6.341  11.292  1.00  0.00     0.020 A 
ATOM     79  C   UNL     1       7.627   5.431  10.257  1.00  0.00     0.020 A 
ATOM     80  C   UNL     1       8.316   5.843  11.396  1.00  0.00     0.054 A 
BRANCH  80  81
ATOM     81  S   UNL     1       7.485   5.859  13.013  1.00  0.00     0.124 S 
ATOM     82  O   UNL     1       8.247   4.867  13.765  1.00  0.00    -0.237 OA
ATOM     83  O   UNL     1       7.656   7.245  13.440  1.00  0.00    -0.237 OA
ATOM     84  O   UNL     1       6.110   5.476  12.698  1.00  0.00    -0.744 OA
ENDBRANCH  80  81
ENDBRANCH  52  75
BRANCH  64  85
ATOM     85  C   UNL     1      13.361   8.657   4.489  1.00  0.00    -0.014 A 
ATOM     86  C   UNL     1      13.162   7.298   4.174  1.00  0.00     0.010 A 
ATOM     87  C   UNL     1      14.632   9.216   4.275  1.00  0.00     0.010 A 
ATOM     88  C   UNL     1      14.218   6.519   3.674  1.00  0.00     0.020 A 
ATOM     89  C   UNL     1      15.681   8.452   3.760  1.00  0.00     0.020 A 
ATOM     90  C   UNL     1      15.472   7.104   3.469  1.00  0.00     0.054 A 
BRANCH  90  91
ATOM     91  S   UNL     1      16.825   6.108   2.780  1.00  0.00     0.124 S 
ATOM     92  O   UNL     1      17.090   5.148   3.849  1.00  0.00    -0.237 OA
ATOM     93  O   UNL     1      16.232   5.551   1.567  1.00  0.00    -0.237 OA
ATOM     94  O   UNL     1      17.891   7.081   2.547  1.00  0.00    -0.744 OA
ENDBRANCH  90  91
ENDBRANCH  64  85
ENDBRANCH  38  39
ENDBRANCH  31  33
ENDBRANCH  30  31
ENDBRANCH  29  30
ENDBRANCH  28  29
ENDBRANCH   1  28
TORSDOF 20
