REMARK SMILES O=C(OCCOCCOC(=O)[C@H]1C[C@@H](O)CN1C(=O)C[C@@H]1CSCC[NH2+]1)c1ccc(-c2c3nc(c(-c4ccc(S(=O)(=O)[O-])cc4)c4ccc([nH]4)c(-c4ccc(S(=O)(=O)[O-])cc4)c4nc(c(-c5ccc(S(=O)(=O)[O-])cc5)c5ccc2[nH]5)C=C4)C=C3)cc1
REMARK SMILES IDX 6 1 5 2 4 3 3 4 2 5 1 6 27 7 28 8 86 9 29 10 85 11 30 12
REMARK SMILES IDX 31 13 32 14 79 15 33 16 84 17 78 18 80 19 34 20 83 21 77 22
REMARK SMILES IDX 76 23 35 25 65 26 46 27 64 28 47 29 50 30 63 31 81 32 48 33
REMARK SMILES IDX 49 34 62 36 82 37 51 38 36 39 37 40 45 41 38 42 44 43 39 44
REMARK SMILES IDX 40 45 41 46 42 47 43 48 66 49 67 50 75 51 68 52 74 53 69 54
REMARK SMILES IDX 70 55 71 56 72 57 73 58 52 59 53 60 61 61 54 62 60 63 55 64
REMARK SMILES IDX 56 65 57 66 58 67 59 68 7 69 8 70 9 71 10 72 11 73 12 74
REMARK SMILES IDX 13 75 17 76 14 77 16 78 18 79 19 80 20 81 21 82 22 83 26 84
REMARK SMILES IDX 23 85 25 86 24 89 15 90
REMARK H PARENT 80 24 50 35 26 87 26 88 15 91
REMARK Flexibility Score: inf
ROOT
ATOM      1  O   UNL     1       4.175   1.468   1.203  1.00  0.00    -0.374 OA
ENDROOT
BRANCH   1   2
ATOM      2  C   UNL     1       4.700   0.857   0.030  1.00  0.00     0.202 C 
BRANCH   2   3
ATOM      3  C   UNL     1       4.184  -0.548  -0.322  1.00  0.00     0.261 C 
BRANCH   3   4
ATOM      4  O   UNL     1       2.730  -0.594  -0.402  1.00  0.00    -0.460 OA
BRANCH   4   5
ATOM      5  C   UNL     1       1.906  -1.305   0.436  1.00  0.00     0.338 C 
ATOM      6  O   UNL     1       0.732  -1.480   0.185  1.00  0.00    -0.246 OA
BRANCH   5   7
ATOM      7  C   UNL     1       2.514  -1.851   1.670  1.00  0.00     0.060 A 
ATOM      8  C   UNL     1       3.304  -1.005   2.411  1.00  0.00     0.016 A 
ATOM      9  C   UNL     1       2.418  -3.182   2.054  1.00  0.00     0.016 A 
ATOM     10  C   UNL     1       4.328  -1.507   3.162  1.00  0.00     0.010 A 
ATOM     11  C   UNL     1       3.246  -3.644   3.092  1.00  0.00     0.010 A 
ATOM     12  C   UNL     1       4.268  -2.819   3.599  1.00  0.00    -0.014 A 
BRANCH  12  13
ATOM     13  C   UNL     1       5.333  -3.247   4.535  1.00  0.00     0.031 A 
ATOM     14  C   UNL     1       6.169  -4.443   4.191  1.00  0.00     0.074 A 
ATOM     15  C   UNL     1       5.646  -2.454   5.587  1.00  0.00     0.049 A 
ATOM     16  N   UNL     1       7.049  -5.062   4.927  1.00  0.00    -0.248 NA
ATOM     17  C   UNL     1       5.986  -5.035   2.853  1.00  0.00     0.031 C 
ATOM     18  C   UNL     1       4.970  -1.192   5.939  1.00  0.00     0.029 A 
ATOM     19  N   UNL     1       6.653  -2.533   6.512  1.00  0.00    -0.354 N 
ATOM     20  C   UNL     1       7.465  -6.155   4.177  1.00  0.00     0.074 A 
ATOM     21  C   UNL     1       6.749  -6.115   2.924  1.00  0.00     0.031 C 
ATOM     22  C   UNL     1       5.659  -0.562   6.897  1.00  0.00     0.029 A 
ATOM     23  C   UNL     1       6.695  -1.458   7.373  1.00  0.00     0.049 A 
ATOM     24  H   UNL     1       7.286  -3.285   6.557  1.00  0.00     0.167 HD
ATOM     25  C   UNL     1       8.356  -7.109   4.528  1.00  0.00     0.031 A 
ATOM     26  C   UNL     1       7.431  -1.250   8.480  1.00  0.00     0.031 A 
ATOM     27  C   UNL     1       9.062  -7.085   5.780  1.00  0.00     0.049 A 
ATOM     28  C   UNL     1       8.353  -2.360   8.886  1.00  0.00     0.074 A 
ATOM     29  C   UNL     1       9.911  -8.031   6.320  1.00  0.00     0.029 A 
ATOM     30  N   UNL     1       9.012  -6.026   6.681  1.00  0.00    -0.354 N 
ATOM     31  N   UNL     1       8.614  -3.480   8.251  1.00  0.00    -0.248 NA
ATOM     32  C   UNL     1       9.045  -2.208  10.168  1.00  0.00     0.031 C 
ATOM     33  C   UNL     1      10.345  -7.559   7.564  1.00  0.00     0.029 A 
ATOM     34  C   UNL     1       9.813  -6.294   7.773  1.00  0.00     0.049 A 
ATOM     35  H   UNL     1       8.482  -5.205   6.557  1.00  0.00     0.167 HD
ATOM     36  C   UNL     1       9.499  -4.174   9.060  1.00  0.00     0.074 A 
ATOM     37  C   UNL     1       9.759  -3.324  10.209  1.00  0.00     0.031 C 
ATOM     38  C   UNL     1      10.035  -5.407   8.888  1.00  0.00     0.031 A 
BRANCH  25  39
ATOM     39  C   UNL     1       8.532  -8.269   3.586  1.00  0.00    -0.014 A 
ATOM     40  C   UNL     1       9.201  -8.130   2.357  1.00  0.00     0.010 A 
ATOM     41  C   UNL     1       7.984  -9.520   3.927  1.00  0.00     0.010 A 
ATOM     42  C   UNL     1       9.283  -9.209   1.470  1.00  0.00     0.020 A 
ATOM     43  C   UNL     1       8.086 -10.608   3.055  1.00  0.00     0.020 A 
ATOM     44  C   UNL     1       8.720 -10.440   1.823  1.00  0.00     0.054 A 
BRANCH  44  45
ATOM     45  S   UNL     1       8.844 -11.824   0.655  1.00  0.00     0.124 S 
ATOM     46  O   UNL     1       7.901 -11.424  -0.387  1.00  0.00    -0.237 OA
ATOM     47  O   UNL     1      10.253 -11.793   0.271  1.00  0.00    -0.237 OA
ATOM     48  O   UNL     1       8.441 -12.983   1.447  1.00  0.00    -0.744 OA
ENDBRANCH  44  45
ENDBRANCH  25  39
BRANCH  26  49
ATOM     49  C   UNL     1       7.210  -0.043   9.331  1.00  0.00    -0.014 A 
ATOM     50  C   UNL     1       8.236   0.886   9.570  1.00  0.00     0.010 A 
ATOM     51  C   UNL     1       5.947   0.185   9.916  1.00  0.00     0.010 A 
ATOM     52  C   UNL     1       8.012   1.998  10.394  1.00  0.00     0.020 A 
ATOM     53  C   UNL     1       5.705   1.313  10.702  1.00  0.00     0.020 A 
ATOM     54  C   UNL     1       6.747   2.202  10.956  1.00  0.00     0.054 A 
BRANCH  54  55
ATOM     55  S   UNL     1       6.468   3.653  12.011  1.00  0.00     0.124 S 
ATOM     56  O   UNL     1       7.148   3.264  13.243  1.00  0.00    -0.237 OA
ATOM     57  O   UNL     1       7.101   4.727  11.250  1.00  0.00    -0.237 OA
ATOM     58  O   UNL     1       5.012   3.736  12.098  1.00  0.00    -0.744 OA
ENDBRANCH  54  55
ENDBRANCH  26  49
BRANCH  38  59
ATOM     59  C   UNL     1      10.979  -5.869   9.956  1.00  0.00    -0.014 A 
ATOM     60  C   UNL     1      10.507  -6.264  11.219  1.00  0.00     0.010 A 
ATOM     61  C   UNL     1      12.355  -5.929   9.674  1.00  0.00     0.010 A 
ATOM     62  C   UNL     1      11.406  -6.676  12.201  1.00  0.00     0.020 A 
ATOM     63  C   UNL     1      13.252  -6.369  10.644  1.00  0.00     0.020 A 
ATOM     64  C   UNL     1      12.773  -6.723  11.907  1.00  0.00     0.054 A 
BRANCH  64  65
ATOM     65  S   UNL     1      13.919  -7.292  13.188  1.00  0.00     0.124 S 
ATOM     66  O   UNL     1      13.981  -6.133  14.075  1.00  0.00    -0.237 OA
ATOM     67  O   UNL     1      13.238  -8.465  13.731  1.00  0.00    -0.237 OA
ATOM     68  O   UNL     1      15.147  -7.579  12.450  1.00  0.00    -0.744 OA
ENDBRANCH  64  65
ENDBRANCH  38  59
ENDBRANCH  12  13
ENDBRANCH   5   7
ENDBRANCH   4   5
ENDBRANCH   3   4
ENDBRANCH   2   3
ENDBRANCH   1   2
BRANCH   1  69
ATOM     69  C   UNL     1       2.909   2.124   1.046  1.00  0.00     0.202 C 
BRANCH  69  70
ATOM     70  C   UNL     1       3.075   3.606   1.344  1.00  0.00     0.261 C 
BRANCH  70  71
ATOM     71  O   UNL     1       3.549   4.236   0.151  1.00  0.00    -0.462 OA
BRANCH  71  72
ATOM     72  C   UNL     1       4.887   4.178  -0.112  1.00  0.00     0.329 C 
ATOM     73  O   UNL     1       5.760   3.898   0.697  1.00  0.00    -0.250 OA
BRANCH  72  74
ATOM     74  C   UNL     1       5.151   4.442  -1.607  1.00  0.00     0.197 C 
ATOM     75  C   UNL     1       5.784   3.241  -2.323  1.00  0.00     0.070 C 
ATOM     76  N   UNL     1       3.901   4.664  -2.325  1.00  0.00    -0.326 N 
ATOM     77  C   UNL     1       4.683   2.629  -3.212  1.00  0.00     0.136 C 
ATOM     78  C   UNL     1       3.417   3.421  -2.897  1.00  0.00     0.152 C 
BRANCH  76  79
ATOM     79  C   UNL     1       3.281   5.888  -2.258  1.00  0.00     0.229 C 
ATOM     80  O   UNL     1       3.786   6.841  -1.664  1.00  0.00    -0.275 OA
BRANCH  79  81
ATOM     81  C   UNL     1       1.992   6.059  -3.012  1.00  0.00     0.166 C 
BRANCH  81  82
ATOM     82  C   UNL     1       2.171   6.897  -4.299  1.00  0.00     0.201 C 
ATOM     83  C   UNL     1       1.100   6.540  -5.344  1.00  0.00     0.135 C 
ATOM     84  N   UNL     1       3.508   6.973  -4.925  1.00  0.00    -0.342 N 
ATOM     85  S   UNL     1       1.328   4.869  -6.036  1.00  0.00    -0.150 SA
ATOM     86  C   UNL     1       3.990   5.741  -5.545  1.00  0.00     0.271 C 
ATOM     87  H   UNL     1       4.176   7.243  -4.203  1.00  0.00     0.346 HD
ATOM     88  H   UNL     1       3.420   7.649  -5.683  1.00  0.00     0.346 HD
ATOM     89  C   UNL     1       3.067   5.041  -6.550  1.00  0.00     0.131 C 
ENDBRANCH  81  82
ENDBRANCH  79  81
ENDBRANCH  76  79
BRANCH  77  90
ATOM     90  O   UNL     1       4.553   1.233  -2.995  1.00  0.00    -0.391 OA
ATOM     91  H   UNL     1       4.342   1.069  -2.062  1.00  0.00     0.211 HD
ENDBRANCH  77  90
ENDBRANCH  72  74
ENDBRANCH  71  72
ENDBRANCH  70  71
ENDBRANCH  69  70
ENDBRANCH   1  69
TORSDOF 21
