REMARK SMILES O=C(OCCOCCOC(=O)C1CCN(C2=[NH+]C(Cl)=[NH+]C3=[NH+]C=N[C@@H]32)CC1)c1ccc(-c2c3nc(c(-c4ccc(S(=O)(=O)[O-])cc4)c4ccc([nH]4)c(-c4ccc(S(=O)(=O)[O-])cc4)c4nc(c(-c5ccc(S(=O)(=O)[O-])cc5)c5ccc2[nH]5)C=C4)C=C3)cc1
REMARK SMILES IDX 4 1 3 2 2 3 1 4 28 5 29 6 87 7 30 8 86 9 31 10 32 11 33 12
REMARK SMILES IDX 80 13 34 14 85 15 79 16 81 17 35 18 84 19 78 20 77 21 36 23
REMARK SMILES IDX 66 24 47 25 65 26 48 27 51 28 64 29 82 30 49 31 50 32 63 34
REMARK SMILES IDX 83 35 52 36 37 37 38 38 46 39 39 40 45 41 40 42 41 43 42 44
REMARK SMILES IDX 43 45 44 46 67 47 68 48 76 49 69 50 75 51 70 52 71 53 72 54
REMARK SMILES IDX 73 55 74 56 53 57 54 58 62 59 55 60 61 61 56 62 57 63 58 64
REMARK SMILES IDX 59 65 60 66 5 67 6 68 7 69 8 70 9 71 10 72 11 73 12 74 13 75
REMARK SMILES IDX 27 76 14 77 26 78 15 79 16 80 17 81 25 82 18 83 21 85 24 86
REMARK SMILES IDX 19 87 20 88 22 89 23 90
REMARK H PARENT 81 22 51 33 17 84 20 91 22 92
REMARK Flexibility Score: inf
ROOT
ATOM      1  C   UNL     1       4.608   0.105  -1.407  1.00  0.00     0.261 C 
ENDROOT
BRANCH   1   2
ATOM      2  O   UNL     1       3.246   0.112  -1.876  1.00  0.00    -0.460 OA
BRANCH   2   3
ATOM      3  C   UNL     1       2.184  -0.163  -1.090  1.00  0.00     0.338 C 
ATOM      4  O   UNL     1       1.210   0.587  -1.063  1.00  0.00    -0.246 OA
BRANCH   3   5
ATOM      5  C   UNL     1       2.123  -1.501  -0.443  1.00  0.00     0.060 A 
ATOM      6  C   UNL     1       3.232  -2.318  -0.232  1.00  0.00     0.016 A 
ATOM      7  C   UNL     1       0.848  -1.980  -0.108  1.00  0.00     0.016 A 
ATOM      8  C   UNL     1       3.067  -3.660   0.002  1.00  0.00     0.010 A 
ATOM      9  C   UNL     1       0.679  -3.314   0.216  1.00  0.00     0.010 A 
ATOM     10  C   UNL     1       1.781  -4.161   0.141  1.00  0.00    -0.014 A 
BRANCH  10  11
ATOM     11  C   UNL     1       1.665  -5.604   0.211  1.00  0.00     0.031 A 
ATOM     12  C   UNL     1       2.398  -6.229   1.343  1.00  0.00     0.074 A 
ATOM     13  C   UNL     1       0.923  -6.274  -0.688  1.00  0.00     0.049 A 
ATOM     14  N   UNL     1       3.351  -7.102   1.305  1.00  0.00    -0.248 NA
ATOM     15  C   UNL     1       2.135  -5.683   2.686  1.00  0.00     0.031 C 
ATOM     16  C   UNL     1       0.002  -5.719  -1.687  1.00  0.00     0.029 A 
ATOM     17  N   UNL     1       0.725  -7.611  -0.799  1.00  0.00    -0.354 N 
ATOM     18  C   UNL     1       3.665  -7.373   2.635  1.00  0.00     0.074 A 
ATOM     19  C   UNL     1       3.015  -6.357   3.422  1.00  0.00     0.031 C 
ATOM     20  C   UNL     1      -0.855  -6.687  -2.076  1.00  0.00     0.029 A 
ATOM     21  C   UNL     1      -0.445  -7.941  -1.469  1.00  0.00     0.049 A 
ATOM     22  H   UNL     1       1.350  -8.282  -0.440  1.00  0.00     0.167 HD
ATOM     23  C   UNL     1       4.223  -8.555   3.019  1.00  0.00     0.031 A 
ATOM     24  C   UNL     1      -1.090  -9.132  -1.417  1.00  0.00     0.031 A 
ATOM     25  C   UNL     1       4.863  -9.230   1.924  1.00  0.00     0.049 A 
ATOM     26  C   UNL     1      -0.113 -10.141  -0.934  1.00  0.00     0.074 A 
ATOM     27  C   UNL     1       5.913  -8.931   1.080  1.00  0.00     0.029 A 
ATOM     28  N   UNL     1       4.176 -10.260   1.325  1.00  0.00    -0.354 N 
ATOM     29  N   UNL     1       0.944 -10.497  -1.611  1.00  0.00    -0.248 NA
ATOM     30  C   UNL     1      -0.053 -10.412   0.495  1.00  0.00     0.031 C 
ATOM     31  C   UNL     1       5.529  -9.459  -0.187  1.00  0.00     0.029 A 
ATOM     32  C   UNL     1       4.298 -10.099  -0.031  1.00  0.00     0.049 A 
ATOM     33  H   UNL     1       3.687 -10.980   1.784  1.00  0.00     0.167 HD
ATOM     34  C   UNL     1       1.949 -10.639  -0.663  1.00  0.00     0.074 A 
ATOM     35  C   UNL     1       1.252 -10.672   0.622  1.00  0.00     0.031 C 
ATOM     36  C   UNL     1       3.262 -10.438  -0.985  1.00  0.00     0.031 A 
BRANCH  23  37
ATOM     37  C   UNL     1       3.789  -9.279   4.275  1.00  0.00    -0.014 A 
ATOM     38  C   UNL     1       4.369 -10.528   4.575  1.00  0.00     0.010 A 
ATOM     39  C   UNL     1       2.626  -8.928   4.993  1.00  0.00     0.010 A 
ATOM     40  C   UNL     1       3.749 -11.421   5.459  1.00  0.00     0.020 A 
ATOM     41  C   UNL     1       2.025  -9.791   5.908  1.00  0.00     0.020 A 
ATOM     42  C   UNL     1       2.564 -11.053   6.098  1.00  0.00     0.054 A 
BRANCH  42  43
ATOM     43  S   UNL     1       1.678 -12.267   7.104  1.00  0.00     0.124 S 
ATOM     44  O   UNL     1       1.268 -13.242   6.098  1.00  0.00    -0.237 OA
ATOM     45  O   UNL     1       2.712 -12.710   8.035  1.00  0.00    -0.237 OA
ATOM     46  O   UNL     1       0.597 -11.489   7.704  1.00  0.00    -0.744 OA
ENDBRANCH  42  43
ENDBRANCH  23  37
BRANCH  24  47
ATOM     47  C   UNL     1      -2.561  -9.327  -1.372  1.00  0.00    -0.014 A 
ATOM     48  C   UNL     1      -3.135 -10.593  -1.574  1.00  0.00     0.010 A 
ATOM     49  C   UNL     1      -3.396  -8.301  -0.876  1.00  0.00     0.010 A 
ATOM     50  C   UNL     1      -4.481 -10.835  -1.246  1.00  0.00     0.020 A 
ATOM     51  C   UNL     1      -4.737  -8.530  -0.558  1.00  0.00     0.020 A 
ATOM     52  C   UNL     1      -5.270  -9.804  -0.724  1.00  0.00     0.054 A 
BRANCH  52  53
ATOM     53  S   UNL     1      -6.956 -10.163  -0.151  1.00  0.00     0.124 S 
ATOM     54  O   UNL     1      -7.666 -10.399  -1.405  1.00  0.00    -0.237 OA
ATOM     55  O   UNL     1      -6.761 -11.336   0.696  1.00  0.00    -0.237 OA
ATOM     56  O   UNL     1      -7.345  -8.946   0.560  1.00  0.00    -0.744 OA
ENDBRANCH  52  53
ENDBRANCH  24  47
BRANCH  36  57
ATOM     57  C   UNL     1       3.634 -10.308  -2.444  1.00  0.00    -0.014 A 
ATOM     58  C   UNL     1       3.167  -9.270  -3.275  1.00  0.00     0.010 A 
ATOM     59  C   UNL     1       4.626 -11.170  -2.944  1.00  0.00     0.010 A 
ATOM     60  C   UNL     1       3.664  -9.115  -4.579  1.00  0.00     0.020 A 
ATOM     61  C   UNL     1       5.137 -11.011  -4.234  1.00  0.00     0.020 A 
ATOM     62  C   UNL     1       4.649  -9.989  -5.049  1.00  0.00     0.054 A 
BRANCH  62  63
ATOM     63  S   UNL     1       5.329  -9.754  -6.716  1.00  0.00     0.124 S 
ATOM     64  O   UNL     1       4.205 -10.117  -7.573  1.00  0.00    -0.237 OA
ATOM     65  O   UNL     1       5.694  -8.338  -6.721  1.00  0.00    -0.237 OA
ATOM     66  O   UNL     1       6.465 -10.675  -6.762  1.00  0.00    -0.744 OA
ENDBRANCH  62  63
ENDBRANCH  36  57
ENDBRANCH  10  11
ENDBRANCH   3   5
ENDBRANCH   2   3
ENDBRANCH   1   2
BRANCH   1  67
ATOM     67  C   UNL     1       4.826   0.885  -0.110  1.00  0.00     0.202 C 
BRANCH  67  68
ATOM     68  O   UNL     1       4.350   0.362   1.125  1.00  0.00    -0.374 OA
BRANCH  68  69
ATOM     69  C   UNL     1       3.162   0.917   1.710  1.00  0.00     0.202 C 
BRANCH  69  70
ATOM     70  C   UNL     1       3.084   2.410   2.071  1.00  0.00     0.261 C 
BRANCH  70  71
ATOM     71  O   UNL     1       3.354   3.265   0.954  1.00  0.00    -0.463 OA
BRANCH  71  72
ATOM     72  C   UNL     1       4.603   3.790   0.920  1.00  0.00     0.309 C 
ATOM     73  O   UNL     1       5.409   3.736   1.850  1.00  0.00    -0.252 OA
BRANCH  72  74
ATOM     74  C   UNL     1       4.965   4.345  -0.454  1.00  0.00     0.108 C 
ATOM     75  C   UNL     1       5.896   5.535  -0.250  1.00  0.00     0.070 C 
ATOM     76  C   UNL     1       3.765   4.756  -1.319  1.00  0.00     0.070 C 
ATOM     77  C   UNL     1       5.119   6.655   0.419  1.00  0.00     0.277 C 
ATOM     78  C   UNL     1       3.018   5.953  -0.727  1.00  0.00     0.277 C 
ATOM     79  N   UNL     1       3.974   7.013  -0.411  1.00  0.00    -0.230 N 
ATOM     80  C   UNL     1       3.776   8.316  -0.820  1.00  0.00     0.383 C 
ATOM     81  N   UNL     1       2.605   8.885  -0.760  1.00  0.00    -0.155 N 
ATOM     82  C   UNL     1       4.965   9.115  -1.315  1.00  0.00     0.523 C 
ATOM     83  C   UNL     1       2.506  10.211  -1.103  1.00  0.00     0.414 C 
ATOM     84  H   UNL     1       1.811   8.376  -0.476  1.00  0.00     0.367 HD
ATOM     85  C   UNL     1       4.396  10.135  -2.219  1.00  0.00     0.389 C 
ATOM     86  N   UNL     1       5.839   8.369  -2.249  1.00  0.00     0.003 NA
ATOM     87  Cl  UNL     1       1.138  11.033  -0.484  1.00  0.00     0.028 Cl
ATOM     88  N   UNL     1       3.348  10.886  -1.817  1.00  0.00    -0.155 N 
ATOM     89  N   UNL     1       4.910  10.130  -3.396  1.00  0.00    -0.169 N 
ATOM     90  C   UNL     1       5.752   9.045  -3.358  1.00  0.00     0.532 C 
ATOM     91  H   UNL     1       3.238  11.838  -2.041  1.00  0.00     0.367 HD
ATOM     92  H   UNL     1       4.742  10.750  -4.141  1.00  0.00     0.365 HD
ENDBRANCH  72  74
ENDBRANCH  71  72
ENDBRANCH  70  71
ENDBRANCH  69  70
ENDBRANCH  68  69
ENDBRANCH  67  68
ENDBRANCH   1  67
TORSDOF 17
