REMARK SMILES CC(C)C[C@H](NC(=O)[C@H](Cc1ccccc1)NC(=O)CNC(=O)C[NH3+])C(=O)OCCOCCOC(=O)c1ccc(-c2c3nc(c(-c4ccc(S(=O)(=O)[O-])cc4)c4ccc([nH]4)c(-c4ccc(S(=O)(=O)[O-])cc4)c4nc(c(-c5ccc(S(=O)(=O)[O-])cc5)c5ccc2[nH]5)C=C4)C=C3)cc1
REMARK SMILES IDX 29 1 28 2 26 3 27 4 5 5 4 6 2 7 1 8 3 9 6 10 7 11 8 13 9 14
REMARK SMILES IDX 17 15 18 16 19 18 20 19 21 20 22 21 23 23 24 24 25 25 10 29
REMARK SMILES IDX 11 30 12 31 16 32 13 33 15 34 14 35 30 36 31 37 32 38 33 39
REMARK SMILES IDX 34 40 35 41 36 42 37 43 38 44 96 45 39 46 95 47 40 48 41 49
REMARK SMILES IDX 42 50 89 51 43 52 94 53 88 54 90 55 44 56 93 57 87 58 86 59
REMARK SMILES IDX 45 61 75 62 56 63 74 64 57 65 60 66 73 67 91 68 58 69 59 70
REMARK SMILES IDX 72 72 92 73 61 74 46 75 47 76 55 77 48 78 54 79 49 80 50 81
REMARK SMILES IDX 51 82 52 83 53 84 76 85 77 86 85 87 78 88 84 89 79 90 80 91
REMARK SMILES IDX 81 92 82 93 83 94 62 95 63 96 71 97 64 98 70 99 65 100
REMARK SMILES IDX 66 101 67 102 68 103 69 104
REMARK H PARENT 6 12 17 17 21 22 25 26 25 27 25 28 90 60 60 71
REMARK Flexibility Score: inf
ROOT
ATOM      1  C   UNL     1       1.977   8.416   3.715  1.00  0.00     0.261 C 
ENDROOT
BRANCH   1   2
ATOM      2  O   UNL     1       1.659   7.080   3.306  1.00  0.00    -0.462 OA
BRANCH   2   3
ATOM      3  C   UNL     1       2.225   6.077   4.041  1.00  0.00     0.328 C 
ATOM      4  O   UNL     1       2.828   6.215   5.096  1.00  0.00    -0.250 OA
BRANCH   3   5
ATOM      5  C   UNL     1       2.126   4.753   3.287  1.00  0.00     0.192 C 
BRANCH   5   6
ATOM      6  C   UNL     1       3.355   4.573   2.368  1.00  0.00     0.040 C 
BRANCH   6   7
ATOM      7  C   UNL     1       4.340   5.730   2.010  1.00  0.00    -0.015 C 
ATOM      8  C   UNL     1       5.167   6.285   3.174  1.00  0.00     0.007 C 
ATOM      9  C   UNL     1       5.391   5.254   0.985  1.00  0.00     0.007 C 
ENDBRANCH   6   7
ENDBRANCH   5   6
BRANCH   5  10
ATOM     10  N   UNL     1       0.777   4.680   2.640  1.00  0.00    -0.341 N 
ATOM     11  C   UNL     1       0.062   3.611   2.155  1.00  0.00     0.243 C 
ATOM     12  H   UNL     1       0.324   5.549   2.545  1.00  0.00     0.164 HD
ATOM     13  O   UNL     1      -1.119   3.514   2.494  1.00  0.00    -0.273 OA
BRANCH  11  14
ATOM     14  C   UNL     1       0.695   2.680   1.104  1.00  0.00     0.175 C 
BRANCH  14  15
ATOM     15  N   UNL     1       1.606   1.698   1.649  1.00  0.00    -0.342 N 
ATOM     16  C   UNL     1       2.850   1.365   1.202  1.00  0.00     0.240 C 
ATOM     17  H   UNL     1       1.288   1.208   2.442  1.00  0.00     0.164 HD
ATOM     18  O   UNL     1       3.510   0.597   1.908  1.00  0.00    -0.273 OA
BRANCH  16  19
ATOM     19  C   UNL     1       3.512   2.069  -0.017  1.00  0.00     0.216 C 
BRANCH  19  20
ATOM     20  N   UNL     1       2.712   2.350  -1.207  1.00  0.00    -0.342 N 
ATOM     21  C   UNL     1       2.235   3.460  -1.836  1.00  0.00     0.275 C 
ATOM     22  H   UNL     1       2.449   1.524  -1.674  1.00  0.00     0.164 HD
ATOM     23  O   UNL     1       1.567   3.243  -2.853  1.00  0.00    -0.268 OA
BRANCH  21  24
ATOM     24  C   UNL     1       2.396   4.900  -1.328  1.00  0.00     0.360 C 
BRANCH  24  25
ATOM     25  N   UNL     1       1.146   5.462  -0.793  1.00  0.00    -0.350 N 
ATOM     26  H   UNL     1       0.444   5.494  -1.532  1.00  0.00     0.344 HD
ATOM     27  H   UNL     1       1.318   6.405  -0.446  1.00  0.00     0.344 HD
ATOM     28  H   UNL     1       0.809   4.875  -0.029  1.00  0.00     0.344 HD
ENDBRANCH  24  25
ENDBRANCH  21  24
ENDBRANCH  19  20
ENDBRANCH  16  19
ENDBRANCH  14  15
BRANCH  14  29
ATOM     29  C   UNL     1      -0.346   2.132   0.095  1.00  0.00     0.070 C 
BRANCH  29  30
ATOM     30  C   UNL     1      -0.741   0.683   0.221  1.00  0.00    -0.045 A 
ATOM     31  C   UNL     1      -1.768   0.296   1.087  1.00  0.00     0.004 A 
ATOM     32  C   UNL     1      -0.113  -0.292  -0.571  1.00  0.00     0.004 A 
ATOM     33  C   UNL     1      -2.159  -1.042   1.158  1.00  0.00     0.000 A 
ATOM     34  C   UNL     1      -0.501  -1.629  -0.494  1.00  0.00     0.000 A 
ATOM     35  C   UNL     1      -1.526  -2.003   0.371  1.00  0.00     0.000 A 
ENDBRANCH  29  30
ENDBRANCH  14  29
ENDBRANCH  11  14
ENDBRANCH   5  10
ENDBRANCH   3   5
ENDBRANCH   2   3
ENDBRANCH   1   2
BRANCH   1  36
ATOM     36  C   UNL     1       0.855   9.082   4.505  1.00  0.00     0.202 C 
BRANCH  36  37
ATOM     37  O   UNL     1       0.505   8.479   5.746  1.00  0.00    -0.374 OA
BRANCH  37  38
ATOM     38  C   UNL     1      -0.300   7.303   5.718  1.00  0.00     0.202 C 
BRANCH  38  39
ATOM     39  C   UNL     1      -1.787   7.476   5.394  1.00  0.00     0.261 C 
BRANCH  39  40
ATOM     40  O   UNL     1      -2.009   7.921   4.044  1.00  0.00    -0.460 OA
BRANCH  40  41
ATOM     41  C   UNL     1      -2.452   9.201   3.949  1.00  0.00     0.338 C 
ATOM     42  O   UNL     1      -2.688   9.963   4.869  1.00  0.00    -0.246 OA
BRANCH  41  43
ATOM     43  C   UNL     1      -2.449   9.648   2.544  1.00  0.00     0.060 A 
ATOM     44  C   UNL     1      -1.789  10.850   2.255  1.00  0.00     0.016 A 
ATOM     45  C   UNL     1      -3.176   8.980   1.557  1.00  0.00     0.016 A 
ATOM     46  C   UNL     1      -1.913  11.427   0.996  1.00  0.00     0.010 A 
ATOM     47  C   UNL     1      -3.307   9.567   0.294  1.00  0.00     0.010 A 
ATOM     48  C   UNL     1      -2.715  10.815   0.025  1.00  0.00    -0.014 A 
BRANCH  48  49
ATOM     49  C   UNL     1      -3.063  11.567  -1.204  1.00  0.00     0.031 A 
ATOM     50  C   UNL     1      -4.389  12.277  -1.271  1.00  0.00     0.074 A 
ATOM     51  C   UNL     1      -2.191  11.656  -2.224  1.00  0.00     0.049 A 
ATOM     52  N   UNL     1      -4.904  12.979  -2.247  1.00  0.00    -0.248 NA
ATOM     53  C   UNL     1      -5.249  12.187  -0.077  1.00  0.00     0.031 C 
ATOM     54  C   UNL     1      -0.859  11.054  -2.252  1.00  0.00     0.029 A 
ATOM     55  N   UNL     1      -2.301  12.289  -3.436  1.00  0.00    -0.354 N 
ATOM     56  C   UNL     1      -6.147  13.405  -1.792  1.00  0.00     0.074 A 
ATOM     57  C   UNL     1      -6.320  12.866  -0.462  1.00  0.00     0.031 C 
ATOM     58  C   UNL     1      -0.276  11.341  -3.429  1.00  0.00     0.029 A 
ATOM     59  C   UNL     1      -1.206  12.115  -4.248  1.00  0.00     0.049 A 
ATOM     60  H   UNL     1      -3.089  12.817  -3.699  1.00  0.00     0.167 HD
ATOM     61  C   UNL     1      -7.060  14.179  -2.426  1.00  0.00     0.031 A 
ATOM     62  C   UNL     1      -0.990  12.515  -5.517  1.00  0.00     0.031 A 
ATOM     63  C   UNL     1      -6.886  14.706  -3.753  1.00  0.00     0.049 A 
ATOM     64  C   UNL     1      -2.053  13.313  -6.227  1.00  0.00     0.074 A 
ATOM     65  C   UNL     1      -7.746  15.512  -4.479  1.00  0.00     0.029 A 
ATOM     66  N   UNL     1      -5.780  14.476  -4.557  1.00  0.00    -0.354 N 
ATOM     67  N   UNL     1      -3.214  13.726  -5.776  1.00  0.00    -0.248 NA
ATOM     68  C   UNL     1      -1.772  13.706  -7.615  1.00  0.00     0.031 C 
ATOM     69  C   UNL     1      -7.185  15.723  -5.742  1.00  0.00     0.029 A 
ATOM     70  C   UNL     1      -5.947  15.100  -5.781  1.00  0.00     0.049 A 
ATOM     71  H   UNL     1      -4.992  13.947  -4.296  1.00  0.00     0.167 HD
ATOM     72  C   UNL     1      -3.790  14.448  -6.816  1.00  0.00     0.074 A 
ATOM     73  C   UNL     1      -2.843  14.429  -7.912  1.00  0.00     0.031 C 
ATOM     74  C   UNL     1      -4.993  15.072  -6.860  1.00  0.00     0.031 A 
BRANCH  61  75
ATOM     75  C   UNL     1      -8.349  14.475  -1.706  1.00  0.00    -0.014 A 
ATOM     76  C   UNL     1      -8.391  15.371  -0.623  1.00  0.00     0.010 A 
ATOM     77  C   UNL     1      -9.546  13.890  -2.159  1.00  0.00     0.010 A 
ATOM     78  C   UNL     1      -9.604  15.657   0.011  1.00  0.00     0.020 A 
ATOM     79  C   UNL     1     -10.764  14.193  -1.543  1.00  0.00     0.020 A 
ATOM     80  C   UNL     1     -10.783  15.066  -0.454  1.00  0.00     0.054 A 
BRANCH  80  81
ATOM     81  S   UNL     1     -12.349  15.486   0.361  1.00  0.00     0.124 S 
ATOM     82  O   UNL     1     -12.226  14.777   1.632  1.00  0.00    -0.237 OA
ATOM     83  O   UNL     1     -12.284  16.943   0.446  1.00  0.00    -0.237 OA
ATOM     84  O   UNL     1     -13.366  14.963  -0.548  1.00  0.00    -0.744 OA
ENDBRANCH  80  81
ENDBRANCH  61  75
BRANCH  62  85
ATOM     85  C   UNL     1       0.273  12.143  -6.210  1.00  0.00    -0.014 A 
ATOM     86  C   UNL     1       1.230  13.118  -6.539  1.00  0.00     0.010 A 
ATOM     87  C   UNL     1       0.520  10.801  -6.554  1.00  0.00     0.010 A 
ATOM     88  C   UNL     1       2.400  12.762  -7.218  1.00  0.00     0.020 A 
ATOM     89  C   UNL     1       1.700  10.436  -7.207  1.00  0.00     0.020 A 
ATOM     90  C   UNL     1       2.628  11.422  -7.547  1.00  0.00     0.054 A 
BRANCH  90  91
ATOM     91  S   UNL     1       4.172  10.976  -8.389  1.00  0.00     0.124 S 
ATOM     92  O   UNL     1       3.927  11.454  -9.745  1.00  0.00    -0.237 OA
ATOM     93  O   UNL     1       5.173  11.718  -7.626  1.00  0.00    -0.237 OA
ATOM     94  O   UNL     1       4.236   9.524  -8.237  1.00  0.00    -0.744 OA
ENDBRANCH  90  91
ENDBRANCH  62  85
BRANCH  74  95
ATOM     95  C   UNL     1      -5.341  15.819  -8.120  1.00  0.00    -0.014 A 
ATOM     96  C   UNL     1      -5.679  15.139  -9.303  1.00  0.00     0.010 A 
ATOM     97  C   UNL     1      -5.384  17.226  -8.102  1.00  0.00     0.010 A 
ATOM     98  C   UNL     1      -6.022  15.852 -10.455  1.00  0.00     0.020 A 
ATOM     99  C   UNL     1      -5.754  17.942  -9.243  1.00  0.00     0.020 A 
ATOM    100  C   UNL     1      -6.056  17.250 -10.417  1.00  0.00     0.054 A 
BRANCH 100 101
ATOM    101  S   UNL     1      -6.543  18.153 -11.913  1.00  0.00     0.124 S 
ATOM    102  O   UNL     1      -5.354  18.020 -12.749  1.00  0.00    -0.237 OA
ATOM    103  O   UNL     1      -7.718  17.412 -12.368  1.00  0.00    -0.237 OA
ATOM    104  O   UNL     1      -6.817  19.504 -11.429  1.00  0.00    -0.744 OA
ENDBRANCH 100 101
ENDBRANCH  74  95
ENDBRANCH  48  49
ENDBRANCH  41  43
ENDBRANCH  40  41
ENDBRANCH  39  40
ENDBRANCH  38  39
ENDBRANCH  37  38
ENDBRANCH  36  37
ENDBRANCH   1  36
TORSDOF 28
