REMARK SMILES C[C@H](C(=O)OCCOCCOC(=O)c1ccc(-c2c3nc(c(-c4ccc(S(=O)(=O)[O-])cc4)c4ccc([nH]4)c(-c4ccc(S(=O)(=O)[O-])cc4)c4nc(c(-c5ccc(S(=O)(=O)[O-])cc5)c5ccc2[nH]5)C=C4)C=C3)cc1)[C@@H](C)Sc1ccc2c(c1)OCCCO2
REMARK SMILES IDX 6 1 5 2 3 3 4 4 2 5 1 6 74 7 75 8 76 9 77 10 78 11 82 12
REMARK SMILES IDX 79 13 81 14 80 15 83 16 84 17 85 18 87 20 86 21 7 23 8 24
REMARK SMILES IDX 9 25 10 26 11 27 12 28 13 29 14 30 15 31 73 32 16 33 72 34
REMARK SMILES IDX 17 35 18 36 19 37 66 38 20 39 71 40 65 41 67 42 21 43 70 44
REMARK SMILES IDX 64 45 63 46 22 48 52 49 33 50 51 51 34 52 37 53 50 54 68 55
REMARK SMILES IDX 35 56 36 57 49 59 69 60 38 61 23 62 24 63 32 64 25 65 31 66
REMARK SMILES IDX 26 67 27 68 28 69 29 70 30 71 53 72 54 73 62 74 55 75 61 76
REMARK SMILES IDX 56 77 57 78 58 79 59 80 60 81 39 82 40 83 48 84 41 85 47 86
REMARK SMILES IDX 42 87 43 88 44 89 45 90 46 91
REMARK H PARENT 67 47 37 58
REMARK Flexibility Score: 80.00
ROOT
ATOM      1  C   UNL     1       1.307  -1.107   1.596  1.00  0.00     0.261 C 
ENDROOT
BRANCH   1   2
ATOM      2  O   UNL     1       0.598  -0.512   0.493  1.00  0.00    -0.463 OA
BRANCH   2   3
ATOM      3  C   UNL     1       0.829   0.812   0.290  1.00  0.00     0.309 C 
ATOM      4  O   UNL     1       1.611   1.504   0.930  1.00  0.00    -0.252 OA
BRANCH   3   5
ATOM      5  C   UNL     1      -0.028   1.377  -0.823  1.00  0.00     0.109 C 
ATOM      6  C   UNL     1       0.329   0.769  -2.179  1.00  0.00     0.021 C 
BRANCH   5   7
ATOM      7  C   UNL     1      -1.528   1.303  -0.457  1.00  0.00     0.062 C 
ATOM      8  C   UNL     1      -1.888   1.406   1.026  1.00  0.00     0.020 C 
BRANCH   7   9
ATOM      9  S   UNL     1      -2.654   2.472  -1.345  1.00  0.00    -0.122 SA
BRANCH   9  10
ATOM     10  C   UNL     1      -2.057   4.142  -1.072  1.00  0.00     0.011 A 
ATOM     11  C   UNL     1      -0.856   4.505  -0.453  1.00  0.00     0.019 A 
ATOM     12  C   UNL     1      -2.774   5.127  -1.763  1.00  0.00     0.065 A 
ATOM     13  C   UNL     1      -0.197   5.673  -0.837  1.00  0.00     0.051 A 
ATOM     14  C   UNL     1      -2.149   6.318  -2.094  1.00  0.00     0.162 A 
ATOM     15  C   UNL     1      -0.812   6.501  -1.763  1.00  0.00     0.161 A 
BRANCH  14  16
ATOM     16  O   UNL     1      -2.786   7.253  -2.858  1.00  0.00    -0.490 OA
BRANCH  16  17
ATOM     17  C   UNL     1      -2.582   6.982  -4.242  1.00  0.00     0.233 C 
BRANCH  17  18
ATOM     18  C   UNL     1      -1.168   7.300  -4.737  1.00  0.00     0.083 CG0
ATOM     19  G   UNL     1      -0.031   6.753  -3.874  1.00  0.00     0.000 G0
ENDBRANCH  17  18
ENDBRANCH  16  17
ENDBRANCH  14  16
BRANCH  15  20
ATOM     20  O   UNL     1      -0.029   7.318  -2.542  1.00  0.00    -0.490 OA
BRANCH  20  21
ATOM     21  C   UNL     1      -0.031   6.753  -3.874  1.00  0.00     0.233 CG0
ATOM     22  G   UNL     1      -1.168   7.300  -4.737  1.00  0.00     0.000 G0
ENDBRANCH  20  21
ENDBRANCH  15  20
ENDBRANCH   9  10
ENDBRANCH   7   9
ENDBRANCH   5   7
ENDBRANCH   3   5
ENDBRANCH   2   3
ENDBRANCH   1   2
BRANCH   1  23
ATOM     23  C   UNL     1       2.223  -2.245   1.142  1.00  0.00     0.202 C 
BRANCH  23  24
ATOM     24  O   UNL     1       3.341  -1.891   0.328  1.00  0.00    -0.374 OA
BRANCH  24  25
ATOM     25  C   UNL     1       3.079  -1.470  -1.007  1.00  0.00     0.202 C 
BRANCH  25  26
ATOM     26  C   UNL     1       2.701  -2.549  -2.030  1.00  0.00     0.261 C 
BRANCH  26  27
ATOM     27  O   UNL     1       1.510  -3.275  -1.680  1.00  0.00    -0.460 OA
BRANCH  27  28
ATOM     28  C   UNL     1       1.730  -4.556  -1.302  1.00  0.00     0.338 C 
ATOM     29  O   UNL     1       2.809  -5.145  -1.287  1.00  0.00    -0.246 OA
BRANCH  28  30
ATOM     30  C   UNL     1       0.514  -5.151  -0.726  1.00  0.00     0.060 A 
ATOM     31  C   UNL     1       0.615  -5.704   0.558  1.00  0.00     0.016 A 
ATOM     32  C   UNL     1      -0.670  -5.266  -1.457  1.00  0.00     0.016 A 
ATOM     33  C   UNL     1      -0.449  -6.424   1.093  1.00  0.00     0.010 A 
ATOM     34  C   UNL     1      -1.735  -6.000  -0.920  1.00  0.00     0.010 A 
ATOM     35  C   UNL     1      -1.613  -6.616   0.339  1.00  0.00    -0.014 A 
BRANCH  35  36
ATOM     36  C   UNL     1      -2.630  -7.585   0.814  1.00  0.00     0.031 A 
ATOM     37  C   UNL     1      -2.644  -8.974   0.235  1.00  0.00     0.074 A 
ATOM     38  C   UNL     1      -3.496  -7.249   1.787  1.00  0.00     0.049 A 
ATOM     39  N   UNL     1      -3.446  -9.972   0.502  1.00  0.00    -0.248 NA
ATOM     40  C   UNL     1      -1.616  -9.281  -0.774  1.00  0.00     0.031 C 
ATOM     41  C   UNL     1      -3.550  -5.951   2.459  1.00  0.00     0.029 A 
ATOM     42  N   UNL     1      -4.497  -7.978   2.380  1.00  0.00    -0.354 N 
ATOM     43  C   UNL     1      -3.027 -11.021  -0.309  1.00  0.00     0.074 A 
ATOM     44  C   UNL     1      -1.915 -10.532  -1.095  1.00  0.00     0.031 C 
ATOM     45  C   UNL     1      -4.540  -5.973   3.368  1.00  0.00     0.029 A 
ATOM     46  C   UNL     1      -5.207  -7.273   3.321  1.00  0.00     0.049 A 
ATOM     47  H   UNL     1      -4.688  -8.916   2.152  1.00  0.00     0.167 HD
ATOM     48  C   UNL     1      -3.521 -12.279  -0.388  1.00  0.00     0.031 A 
ATOM     49  C   UNL     1      -6.285  -7.626   4.050  1.00  0.00     0.031 A 
ATOM     50  C   UNL     1      -4.630 -12.762   0.391  1.00  0.00     0.049 A 
ATOM     51  C   UNL     1      -6.851  -9.013   3.907  1.00  0.00     0.074 A 
ATOM     52  C   UNL     1      -5.197 -14.025   0.387  1.00  0.00     0.029 A 
ATOM     53  N   UNL     1      -5.341 -12.007   1.311  1.00  0.00    -0.354 N 
ATOM     54  N   UNL     1      -6.440  -9.994   3.138  1.00  0.00    -0.248 NA
ATOM     55  C   UNL     1      -8.017  -9.346   4.737  1.00  0.00     0.031 C 
ATOM     56  C   UNL     1      -6.285 -14.018   1.266  1.00  0.00     0.029 A 
ATOM     57  C   UNL     1      -6.356 -12.770   1.863  1.00  0.00     0.049 A 
ATOM     58  H   UNL     1      -5.153 -11.068   1.537  1.00  0.00     0.167 HD
ATOM     59  C   UNL     1      -7.285 -11.066   3.406  1.00  0.00     0.074 A 
ATOM     60  C   UNL     1      -8.220 -10.618   4.419  1.00  0.00     0.031 C 
ATOM     61  C   UNL     1      -7.285 -12.309   2.865  1.00  0.00     0.031 A 
BRANCH  48  62
ATOM     62  C   UNL     1      -2.883 -13.223  -1.372  1.00  0.00    -0.014 A 
ATOM     63  C   UNL     1      -1.615 -13.781  -1.130  1.00  0.00     0.010 A 
ATOM     64  C   UNL     1      -3.593 -13.609  -2.524  1.00  0.00     0.010 A 
ATOM     65  C   UNL     1      -1.061 -14.694  -2.032  1.00  0.00     0.020 A 
ATOM     66  C   UNL     1      -3.053 -14.539  -3.415  1.00  0.00     0.020 A 
ATOM     67  C   UNL     1      -1.785 -15.069  -3.168  1.00  0.00     0.054 A 
BRANCH  67  68
ATOM     68  S   UNL     1      -1.064 -16.296  -4.294  1.00  0.00     0.124 S 
ATOM     69  O   UNL     1      -0.005 -15.525  -4.941  1.00  0.00    -0.237 OA
ATOM     70  O   UNL     1      -0.612 -17.341  -3.381  1.00  0.00    -0.237 OA
ATOM     71  O   UNL     1      -2.179 -16.669  -5.161  1.00  0.00    -0.744 OA
ENDBRANCH  67  68
ENDBRANCH  48  62
BRANCH  49  72
ATOM     72  C   UNL     1      -6.908  -6.632   4.965  1.00  0.00    -0.014 A 
ATOM     73  C   UNL     1      -6.792  -6.761   6.359  1.00  0.00     0.010 A 
ATOM     74  C   UNL     1      -7.595  -5.524   4.434  1.00  0.00     0.010 A 
ATOM     75  C   UNL     1      -7.351  -5.798   7.206  1.00  0.00     0.020 A 
ATOM     76  C   UNL     1      -8.132  -4.548   5.276  1.00  0.00     0.020 A 
ATOM     77  C   UNL     1      -8.010  -4.694   6.658  1.00  0.00     0.054 A 
BRANCH  77  78
ATOM     78  S   UNL     1      -8.651  -3.413   7.773  1.00  0.00     0.124 S 
ATOM     79  O   UNL     1      -9.823  -4.067   8.346  1.00  0.00    -0.237 OA
ATOM     80  O   UNL     1      -7.531  -3.204   8.688  1.00  0.00    -0.237 OA
ATOM     81  O   UNL     1      -8.932  -2.292   6.879  1.00  0.00    -0.744 OA
ENDBRANCH  77  78
ENDBRANCH  49  72
BRANCH  61  82
ATOM     82  C   UNL     1      -8.310 -13.290   3.369  1.00  0.00    -0.014 A 
ATOM     83  C   UNL     1      -9.666 -13.172   3.018  1.00  0.00     0.010 A 
ATOM     84  C   UNL     1      -7.897 -14.384   4.151  1.00  0.00     0.010 A 
ATOM     85  C   UNL     1     -10.595 -14.115   3.465  1.00  0.00     0.020 A 
ATOM     86  C   UNL     1      -8.818 -15.344   4.578  1.00  0.00     0.020 A 
ATOM     87  C   UNL     1     -10.165 -15.195   4.243  1.00  0.00     0.054 A 
BRANCH  87  88
ATOM     88  S   UNL     1     -11.384 -16.429   4.775  1.00  0.00     0.124 S 
ATOM     89  O   UNL     1     -12.105 -15.711   5.823  1.00  0.00    -0.237 OA
ATOM     90  O   UNL     1     -12.142 -16.681   3.552  1.00  0.00    -0.237 OA
ATOM     91  O   UNL     1     -10.566 -17.548   5.236  1.00  0.00    -0.744 OA
ENDBRANCH  87  88
ENDBRANCH  61  82
ENDBRANCH  35  36
ENDBRANCH  28  30
ENDBRANCH  27  28
ENDBRANCH  26  27
ENDBRANCH  25  26
ENDBRANCH  24  25
ENDBRANCH  23  24
ENDBRANCH   1  23
TORSDOF 20
