REMARK SMILES CC(C)(C)OC(=O)N1CC[N@H+](Cc2ccc(Cl)nc2)[C@H](C(=O)OCCOCCOC(=O)c2ccc(-c3c4nc(c(-c5ccc(S(=O)(=O)[O-])cc5)c5ccc([nH]5)c(-c5ccc(S(=O)(=O)[O-])cc5)c5nc(c(-c6ccc(S(=O)(=O)[O-])cc6)c6ccc3[nH]6)C=C5)C=C4)cc2)C1
REMARK SMILES IDX 26 1 25 2 24 3 23 4 21 5 22 6 20 7 8 8 9 9 92 10 10 11 11 12
REMARK SMILES IDX 6 14 7 15 5 16 2 17 1 18 3 19 4 20 12 21 13 22 14 23 19 24
REMARK SMILES IDX 15 25 18 26 16 27 17 28 27 29 28 30 29 31 30 32 31 33 32 34
REMARK SMILES IDX 33 35 91 36 34 37 90 38 35 39 36 40 37 41 84 42 38 43 89 44
REMARK SMILES IDX 83 45 85 46 39 47 88 48 82 49 81 50 40 52 70 53 51 54 69 55
REMARK SMILES IDX 52 56 55 57 68 58 86 59 53 60 54 61 67 63 87 64 56 65 41 66
REMARK SMILES IDX 42 67 50 68 43 69 49 70 44 71 45 72 46 73 47 74 48 75 71 76
REMARK SMILES IDX 72 77 80 78 73 79 79 80 74 81 75 82 76 83 77 84 78 85 57 86
REMARK SMILES IDX 58 87 66 88 59 89 65 90 60 91 61 92 62 93 63 94 64 95
REMARK H PARENT 11 13 85 51 55 62
REMARK Flexibility Score: inf
ROOT
ATOM      1  O   UNL     1       6.863  -6.680  -3.511  1.00  0.00    -0.374 OA
ENDROOT
BRANCH   1   2
ATOM      2  C   UNL     1       6.825  -5.261  -3.478  1.00  0.00     0.202 C 
BRANCH   2   3
ATOM      3  C   UNL     1       5.528  -4.547  -3.861  1.00  0.00     0.261 C 
BRANCH   3   4
ATOM      4  O   UNL     1       4.422  -4.750  -2.951  1.00  0.00    -0.459 OA
BRANCH   4   5
ATOM      5  C   UNL     1       3.350  -5.405  -3.476  1.00  0.00     0.366 C 
ATOM      6  O   UNL     1       3.377  -6.007  -4.548  1.00  0.00    -0.245 OA
BRANCH   5   7
ATOM      7  C   UNL     1       2.058  -5.226  -2.672  1.00  0.00     0.315 C 
ATOM      8  N   UNL     1       0.730  -4.248  -0.813  1.00  0.00    -0.296 N 
ATOM      9  C   UNL     1      -0.357  -5.164  -1.134  1.00  0.00     0.184 C 
ATOM     10  C   UNL     1       2.098  -4.521  -1.310  1.00  0.00     0.200 C 
ATOM     11  C   UNL     1      -0.176  -6.056  -2.375  1.00  0.00     0.285 C 
ATOM     12  N   UNL     1       1.196  -6.446  -2.682  1.00  0.00    -0.316 N 
ATOM     13  H   UNL     1       1.260  -6.794  -3.638  1.00  0.00     0.349 HD
BRANCH   8  14
ATOM     14  C   UNL     1       0.462  -3.369   0.219  1.00  0.00     0.410 C 
ATOM     15  O   UNL     1      -0.410  -3.590   1.053  1.00  0.00    -0.224 OA
BRANCH  14  16
ATOM     16  O   UNL     1       1.127  -2.196   0.087  1.00  0.00    -0.444 OA
BRANCH  16  17
ATOM     17  C   UNL     1       0.639  -1.036   0.820  1.00  0.00     0.106 C 
ATOM     18  C   UNL     1       1.297   0.174   0.143  1.00  0.00     0.056 C 
ATOM     19  C   UNL     1       1.088  -1.111   2.281  1.00  0.00     0.056 C 
ATOM     20  C   UNL     1      -0.888  -0.847   0.708  1.00  0.00     0.056 C 
ENDBRANCH  16  17
ENDBRANCH  14  16
ENDBRANCH   8  14
BRANCH  12  21
ATOM     21  C   UNL     1       1.673  -7.722  -2.124  1.00  0.00     0.301 C 
BRANCH  21  22
ATOM     22  C   UNL     1       1.698  -7.944  -0.626  1.00  0.00     0.025 A 
ATOM     23  C   UNL     1       0.576  -7.887   0.198  1.00  0.00     0.014 A 
ATOM     24  C   UNL     1       2.866  -8.337   0.017  1.00  0.00     0.122 A 
ATOM     25  C   UNL     1       0.709  -7.922   1.587  1.00  0.00     0.041 A 
ATOM     26  N   UNL     1       3.044  -8.406   1.356  1.00  0.00    -0.244 NA
ATOM     27  C   UNL     1       1.966  -8.136   2.110  1.00  0.00     0.129 A 
ATOM     28  Cl  UNL     1       2.246  -8.106   3.798  1.00  0.00    -0.062 Cl
ENDBRANCH  21  22
ENDBRANCH  12  21
ENDBRANCH   5   7
ENDBRANCH   4   5
ENDBRANCH   3   4
ENDBRANCH   2   3
ENDBRANCH   1   2
BRANCH   1  29
ATOM     29  C   UNL     1       5.923  -7.428  -2.764  1.00  0.00     0.202 C 
BRANCH  29  30
ATOM     30  C   UNL     1       5.679  -7.106  -1.284  1.00  0.00     0.261 C 
BRANCH  30  31
ATOM     31  O   UNL     1       6.430  -6.052  -0.715  1.00  0.00    -0.460 OA
BRANCH  31  32
ATOM     32  C   UNL     1       7.651  -6.407  -0.271  1.00  0.00     0.338 C 
ATOM     33  O   UNL     1       8.178  -7.506  -0.308  1.00  0.00    -0.246 OA
BRANCH  32  34
ATOM     34  C   UNL     1       8.291  -5.162   0.155  1.00  0.00     0.060 A 
ATOM     35  C   UNL     1       9.407  -4.722  -0.559  1.00  0.00     0.016 A 
ATOM     36  C   UNL     1       7.758  -4.420   1.215  1.00  0.00     0.016 A 
ATOM     37  C   UNL     1      10.031  -3.543  -0.178  1.00  0.00     0.010 A 
ATOM     38  C   UNL     1       8.385  -3.237   1.594  1.00  0.00     0.010 A 
ATOM     39  C   UNL     1       9.542  -2.817   0.919  1.00  0.00    -0.014 A 
BRANCH  39  40
ATOM     40  C   UNL     1      10.339  -1.691   1.441  1.00  0.00     0.031 A 
ATOM     41  C   UNL     1      11.235  -1.931   2.620  1.00  0.00     0.074 A 
ATOM     42  C   UNL     1      10.281  -0.489   0.845  1.00  0.00     0.049 A 
ATOM     43  N   UNL     1      12.068  -1.112   3.203  1.00  0.00    -0.248 NA
ATOM     44  C   UNL     1      11.181  -3.274   3.222  1.00  0.00     0.031 C 
ATOM     45  C   UNL     1       9.441  -0.159  -0.307  1.00  0.00     0.029 A 
ATOM     46  N   UNL     1      10.942   0.676   1.129  1.00  0.00    -0.354 N 
ATOM     47  C   UNL     1      12.638  -1.838   4.242  1.00  0.00     0.074 A 
ATOM     48  C   UNL     1      12.028  -3.149   4.232  1.00  0.00     0.031 C 
ATOM     49  C   UNL     1       9.636   1.130  -0.630  1.00  0.00     0.029 A 
ATOM     50  C   UNL     1      10.597   1.716   0.302  1.00  0.00     0.049 A 
ATOM     51  H   UNL     1      11.601   0.759   1.855  1.00  0.00     0.167 HD
ATOM     52  C   UNL     1      13.591  -1.445   5.120  1.00  0.00     0.031 A 
ATOM     53  C   UNL     1      11.004   2.999   0.308  1.00  0.00     0.031 A 
ATOM     54  C   UNL     1      14.163  -0.127   5.136  1.00  0.00     0.049 A 
ATOM     55  C   UNL     1      12.039   3.428   1.310  1.00  0.00     0.074 A 
ATOM     56  C   UNL     1      15.151   0.376   5.961  1.00  0.00     0.029 A 
ATOM     57  N   UNL     1      13.779   0.907   4.292  1.00  0.00    -0.354 N 
ATOM     58  N   UNL     1      12.619   2.715   2.248  1.00  0.00    -0.248 NA
ATOM     59  C   UNL     1      12.487   4.824   1.247  1.00  0.00     0.031 C 
ATOM     60  C   UNL     1      15.325   1.731   5.654  1.00  0.00     0.029 A 
ATOM     61  C   UNL     1      14.487   2.057   4.597  1.00  0.00     0.049 A 
ATOM     62  H   UNL     1      13.102   0.834   3.580  1.00  0.00     0.167 HD
ATOM     63  C   UNL     1      13.512   3.572   2.880  1.00  0.00     0.074 A 
ATOM     64  C   UNL     1      13.406   4.851   2.205  1.00  0.00     0.031 C 
ATOM     65  C   UNL     1      14.346   3.324   3.921  1.00  0.00     0.031 A 
BRANCH  52  66
ATOM     66  C   UNL     1      14.018  -2.450   6.157  1.00  0.00    -0.014 A 
ATOM     67  C   UNL     1      14.751  -3.599   5.806  1.00  0.00     0.010 A 
ATOM     68  C   UNL     1      13.651  -2.258   7.501  1.00  0.00     0.010 A 
ATOM     69  C   UNL     1      15.053  -4.567   6.768  1.00  0.00     0.020 A 
ATOM     70  C   UNL     1      13.976  -3.210   8.471  1.00  0.00     0.020 A 
ATOM     71  C   UNL     1      14.651  -4.372   8.093  1.00  0.00     0.054 A 
BRANCH  71  72
ATOM     72  S   UNL     1      15.029  -5.655   9.318  1.00  0.00     0.124 S 
ATOM     73  O   UNL     1      14.050  -6.687   8.984  1.00  0.00    -0.237 OA
ATOM     74  O   UNL     1      16.419  -5.989   9.019  1.00  0.00    -0.237 OA
ATOM     75  O   UNL     1      14.815  -4.985  10.599  1.00  0.00    -0.744 OA
ENDBRANCH  71  72
ENDBRANCH  52  66
BRANCH  53  76
ATOM     76  C   UNL     1      10.415   3.949  -0.673  1.00  0.00    -0.014 A 
ATOM     77  C   UNL     1      11.151   4.390  -1.785  1.00  0.00     0.010 A 
ATOM     78  C   UNL     1       9.072   4.348  -0.537  1.00  0.00     0.010 A 
ATOM     79  C   UNL     1      10.549   5.203  -2.752  1.00  0.00     0.020 A 
ATOM     80  C   UNL     1       8.461   5.141  -1.512  1.00  0.00     0.020 A 
ATOM     81  C   UNL     1       9.204   5.563  -2.615  1.00  0.00     0.054 A 
BRANCH  81  82
ATOM     82  S   UNL     1       8.412   6.519  -3.939  1.00  0.00     0.124 S 
ATOM     83  O   UNL     1       8.972   7.851  -3.730  1.00  0.00    -0.237 OA
ATOM     84  O   UNL     1       8.861   5.824  -5.142  1.00  0.00    -0.237 OA
ATOM     85  O   UNL     1       6.986   6.386  -3.650  1.00  0.00    -0.744 OA
ENDBRANCH  81  82
ENDBRANCH  53  76
BRANCH  65  86
ATOM     86  C   UNL     1      15.215   4.459   4.391  1.00  0.00    -0.014 A 
ATOM     87  C   UNL     1      14.675   5.536   5.115  1.00  0.00     0.010 A 
ATOM     88  C   UNL     1      16.601   4.416   4.154  1.00  0.00     0.010 A 
ATOM     89  C   UNL     1      15.502   6.565   5.570  1.00  0.00     0.020 A 
ATOM     90  C   UNL     1      17.435   5.430   4.630  1.00  0.00     0.020 A 
ATOM     91  C   UNL     1      16.878   6.506   5.323  1.00  0.00     0.054 A 
BRANCH  91  92
ATOM     92  S   UNL     1      17.938   7.833   5.961  1.00  0.00     0.124 S 
ATOM     93  O   UNL     1      17.642   8.926   5.038  1.00  0.00    -0.237 OA
ATOM     94  O   UNL     1      17.446   8.011   7.325  1.00  0.00    -0.237 OA
ATOM     95  O   UNL     1      19.285   7.278   5.858  1.00  0.00    -0.744 OA
ENDBRANCH  91  92
ENDBRANCH  65  86
ENDBRANCH  39  40
ENDBRANCH  32  34
ENDBRANCH  31  32
ENDBRANCH  30  31
ENDBRANCH  29  30
ENDBRANCH   1  29
TORSDOF 22
