REMARK SMILES CC(C)(C)c1nnsc1C(=O)N[C@](C)(C(=O)OCCOCCOC(=O)c1ccc(-c2c3nc(c(-c4ccc(S(=O)(=O)[O-])cc4)c4ccc([nH]4)c(-c4ccc(S(=O)(=O)[O-])cc4)c4nc(c(-c5ccc(S(=O)(=O)[O-])cc5)c5ccc2[nH]5)C=C4)C=C3)cc1)C(F)(F)F
REMARK SMILES IDX 20 1 19 2 18 3 17 4 15 5 16 6 13 7 14 8 12 9 10 10 11 11
REMARK SMILES IDX 9 13 5 14 6 15 7 16 8 17 2 18 1 19 3 20 4 21 86 22 87 23
REMARK SMILES IDX 88 24 89 25 21 26 22 27 23 28 24 29 25 30 26 31 27 32 85 33
REMARK SMILES IDX 28 34 84 35 29 36 30 37 31 38 78 39 32 40 83 41 77 42 79 43
REMARK SMILES IDX 33 44 82 45 76 46 75 47 34 49 64 50 45 51 63 52 46 53 49 54
REMARK SMILES IDX 62 55 80 56 47 57 48 58 61 60 81 61 50 62 35 63 36 64 44 65
REMARK SMILES IDX 37 66 43 67 38 68 39 69 40 70 41 71 42 72 65 73 66 74 74 75
REMARK SMILES IDX 67 76 73 77 68 78 69 79 70 80 71 81 72 82 51 83 52 84 60 85
REMARK SMILES IDX 53 86 59 87 54 88 55 89 56 90 57 91 58 92
REMARK H PARENT 12 12 79 48 49 59
REMARK Flexibility Score: inf
ROOT
ATOM      1  O   UNL     1      -4.004  -0.792  -2.632  1.00  0.00    -0.374 OA
ENDROOT
BRANCH   1   2
ATOM      2  C   UNL     1      -4.527  -1.330  -1.424  1.00  0.00     0.202 C 
BRANCH   2   3
ATOM      3  C   UNL     1      -3.573  -1.484  -0.236  1.00  0.00     0.261 C 
BRANCH   3   4
ATOM      4  O   UNL     1      -2.789  -0.307   0.032  1.00  0.00    -0.461 OA
BRANCH   4   5
ATOM      5  C   UNL     1      -1.748  -0.555   0.863  1.00  0.00     0.341 C 
ATOM      6  O   UNL     1      -1.659  -1.584   1.529  1.00  0.00    -0.249 OA
BRANCH   5   7
ATOM      7  C   UNL     1      -0.699   0.548   0.930  1.00  0.00     0.231 C 
ATOM      8  C   UNL     1      -1.123   1.401   2.160  1.00  0.00     0.058 C 
BRANCH   7   9
ATOM      9  N   UNL     1       0.620  -0.116   1.310  1.00  0.00    -0.328 N 
ATOM     10  C   UNL     1       1.387  -1.231   1.043  1.00  0.00     0.266 C 
ATOM     11  O   UNL     1       2.316  -1.321   1.859  1.00  0.00    -0.268 OA
ATOM     12  H   UNL     1       1.083   0.444   1.974  1.00  0.00     0.165 HD
BRANCH  10  13
ATOM     13  C   UNL     1       1.234  -2.259   0.024  1.00  0.00     0.137 A 
ATOM     14  C   UNL     1       1.226  -2.332  -1.377  1.00  0.00     0.094 A 
ATOM     15  N   UNL     1       1.343  -3.618  -1.906  1.00  0.00    -0.142 NA
ATOM     16  N   UNL     1       1.462  -4.535  -0.972  1.00  0.00    -0.090 NA
ATOM     17  S   UNL     1       1.409  -3.902   0.566  1.00  0.00    -0.006 S 
BRANCH  14  18
ATOM     18  C   UNL     1       1.043  -1.224  -2.381  1.00  0.00     0.008 C 
ATOM     19  C   UNL     1      -0.478  -1.039  -2.466  1.00  0.00     0.018 C 
ATOM     20  C   UNL     1       1.442  -1.535  -3.838  1.00  0.00     0.018 C 
ATOM     21  C   UNL     1       1.925  -0.027  -1.968  1.00  0.00     0.018 C 
ENDBRANCH  14  18
ENDBRANCH  10  13
ENDBRANCH   7   9
BRANCH   7  22
ATOM     22  C   UNL     1      -0.671   1.609  -0.193  1.00  0.00     0.422 C 
ATOM     23  F   UNL     1      -1.833   2.297  -0.291  1.00  0.00    -0.168 F 
ATOM     24  F   UNL     1       0.293   2.537   0.071  1.00  0.00    -0.168 F 
ATOM     25  F   UNL     1      -0.398   1.168  -1.424  1.00  0.00    -0.168 F 
ENDBRANCH   7  22
ENDBRANCH   5   7
ENDBRANCH   4   5
ENDBRANCH   3   4
ENDBRANCH   2   3
ENDBRANCH   1   2
BRANCH   1  26
ATOM     26  C   UNL     1      -3.495   0.540  -2.621  1.00  0.00     0.202 C 
BRANCH  26  27
ATOM     27  C   UNL     1      -4.431   1.706  -2.289  1.00  0.00     0.261 C 
BRANCH  27  28
ATOM     28  O   UNL     1      -4.980   1.630  -0.964  1.00  0.00    -0.460 OA
BRANCH  28  29
ATOM     29  C   UNL     1      -6.321   1.421  -0.933  1.00  0.00     0.338 C 
ATOM     30  O   UNL     1      -7.072   1.325  -1.884  1.00  0.00    -0.246 OA
BRANCH  29  31
ATOM     31  C   UNL     1      -6.746   1.108   0.442  1.00  0.00     0.060 A 
ATOM     32  C   UNL     1      -7.430  -0.099   0.641  1.00  0.00     0.016 A 
ATOM     33  C   UNL     1      -6.589   2.025   1.481  1.00  0.00     0.016 A 
ATOM     34  C   UNL     1      -8.023  -0.365   1.868  1.00  0.00     0.010 A 
ATOM     35  C   UNL     1      -7.199   1.763   2.710  1.00  0.00     0.010 A 
ATOM     36  C   UNL     1      -7.958   0.592   2.887  1.00  0.00    -0.014 A 
BRANCH  36  37
ATOM     37  C   UNL     1      -8.858   0.448   4.052  1.00  0.00     0.031 A 
ATOM     38  C   UNL     1     -10.147   1.227   4.062  1.00  0.00     0.074 A 
ATOM     39  C   UNL     1      -8.565  -0.414   5.040  1.00  0.00     0.049 A 
ATOM     40  N   UNL     1     -11.077   1.275   4.978  1.00  0.00    -0.248 NA
ATOM     41  C   UNL     1     -10.425   2.058   2.877  1.00  0.00     0.031 C 
ATOM     42  C   UNL     1      -7.383  -1.276   5.087  1.00  0.00     0.029 A 
ATOM     43  N   UNL     1      -9.246  -0.713   6.190  1.00  0.00    -0.354 N 
ATOM     44  C   UNL     1     -12.047   2.141   4.483  1.00  0.00     0.074 A 
ATOM     45  C   UNL     1     -11.577   2.623   3.204  1.00  0.00     0.031 C 
ATOM     46  C   UNL     1      -7.422  -2.007   6.214  1.00  0.00     0.029 A 
ATOM     47  C   UNL     1      -8.607  -1.636   6.983  1.00  0.00     0.049 A 
ATOM     48  H   UNL     1     -10.111  -0.306   6.426  1.00  0.00     0.167 HD
ATOM     49  C   UNL     1     -13.229   2.493   5.043  1.00  0.00     0.031 A 
ATOM     50  C   UNL     1      -8.935  -2.106   8.202  1.00  0.00     0.031 A 
ATOM     51  C   UNL     1     -13.677   2.016   6.324  1.00  0.00     0.049 A 
ATOM     52  C   UNL     1     -10.202  -1.612   8.853  1.00  0.00     0.074 A 
ATOM     53  C   UNL     1     -14.847   2.320   6.996  1.00  0.00     0.029 A 
ATOM     54  N   UNL     1     -12.971   1.132   7.128  1.00  0.00    -0.354 N 
ATOM     55  N   UNL     1     -11.106  -0.787   8.379  1.00  0.00    -0.248 NA
ATOM     56  C   UNL     1     -10.495  -2.119  10.200  1.00  0.00     0.031 C 
ATOM     57  C   UNL     1     -14.820   1.667   8.232  1.00  0.00     0.029 A 
ATOM     58  C   UNL     1     -13.668   0.898   8.299  1.00  0.00     0.049 A 
ATOM     59  H   UNL     1     -12.102   0.730   6.898  1.00  0.00     0.167 HD
ATOM     60  C   UNL     1     -12.094  -0.705   9.356  1.00  0.00     0.074 A 
ATOM     61  C   UNL     1     -11.681  -1.576  10.438  1.00  0.00     0.031 C 
ATOM     62  C   UNL     1     -13.240   0.021   9.359  1.00  0.00     0.031 A 
BRANCH  49  63
ATOM     63  C   UNL     1     -14.101   3.462   4.288  1.00  0.00    -0.014 A 
ATOM     64  C   UNL     1     -14.759   3.082   3.103  1.00  0.00     0.010 A 
ATOM     65  C   UNL     1     -14.303   4.759   4.794  1.00  0.00     0.010 A 
ATOM     66  C   UNL     1     -15.576   3.990   2.424  1.00  0.00     0.020 A 
ATOM     67  C   UNL     1     -15.142   5.661   4.133  1.00  0.00     0.020 A 
ATOM     68  C   UNL     1     -15.764   5.274   2.945  1.00  0.00     0.054 A 
BRANCH  68  69
ATOM     69  S   UNL     1     -16.859   6.418   2.060  1.00  0.00     0.124 S 
ATOM     70  O   UNL     1     -16.079   6.716   0.861  1.00  0.00    -0.237 OA
ATOM     71  O   UNL     1     -18.057   5.611   1.846  1.00  0.00    -0.237 OA
ATOM     72  O   UNL     1     -17.020   7.534   2.990  1.00  0.00    -0.744 OA
ENDBRANCH  68  69
ENDBRANCH  49  63
BRANCH  50  73
ATOM     73  C   UNL     1      -8.044  -3.074   8.900  1.00  0.00    -0.014 A 
ATOM     74  C   UNL     1      -8.476  -4.385   9.169  1.00  0.00     0.010 A 
ATOM     75  C   UNL     1      -6.762  -2.678   9.323  1.00  0.00     0.010 A 
ATOM     76  C   UNL     1      -7.656  -5.269   9.877  1.00  0.00     0.020 A 
ATOM     77  C   UNL     1      -5.926  -3.570  10.001  1.00  0.00     0.020 A 
ATOM     78  C   UNL     1      -6.387  -4.855  10.290  1.00  0.00     0.054 A 
BRANCH  78  79
ATOM     79  S   UNL     1      -5.335  -6.026  11.192  1.00  0.00     0.124 S 
ATOM     80  O   UNL     1      -6.006  -6.100  12.486  1.00  0.00    -0.237 OA
ATOM     81  O   UNL     1      -5.419  -7.226  10.364  1.00  0.00    -0.237 OA
ATOM     82  O   UNL     1      -4.028  -5.373  11.201  1.00  0.00    -0.744 OA
ENDBRANCH  78  79
ENDBRANCH  50  73
BRANCH  62  83
ATOM     83  C   UNL     1     -14.153  -0.134  10.547  1.00  0.00    -0.014 A 
ATOM     84  C   UNL     1     -13.812   0.385  11.808  1.00  0.00     0.010 A 
ATOM     85  C   UNL     1     -15.401  -0.764  10.379  1.00  0.00     0.010 A 
ATOM     86  C   UNL     1     -14.687   0.245  12.888  1.00  0.00     0.020 A 
ATOM     87  C   UNL     1     -16.292  -0.875  11.448  1.00  0.00     0.020 A 
ATOM     88  C   UNL     1     -15.922  -0.383  12.701  1.00  0.00     0.054 A 
BRANCH  88  89
ATOM     89  S   UNL     1     -17.056  -0.511  14.109  1.00  0.00     0.124 S 
ATOM     90  O   UNL     1     -16.398  -1.517  14.939  1.00  0.00    -0.237 OA
ATOM     91  O   UNL     1     -17.053   0.847  14.646  1.00  0.00    -0.237 OA
ATOM     92  O   UNL     1     -18.317  -0.932  13.503  1.00  0.00    -0.744 OA
ENDBRANCH  88  89
ENDBRANCH  62  83
ENDBRANCH  36  37
ENDBRANCH  29  31
ENDBRANCH  28  29
ENDBRANCH  27  28
ENDBRANCH  26  27
ENDBRANCH   1  26
TORSDOF 21
