REMARK SMILES CCc1cc(N2CCC[C@H](C(=O)OCCOCCOC(=O)c3ccc(-c4c5nc(c(-c6ccc(S(=O)(=O)[O-])cc6)c6ccc([nH]6)c(-c6ccc(S(=O)(=O)[O-])cc6)c6nc(c(-c7ccc(S(=O)(=O)[O-])cc7)c7ccc4[nH]7)C=C6)C=C5)cc3)C2)nc(-c2ccc(Cl)cc2)n1
REMARK SMILES IDX 17 1 16 2 15 3 14 4 13 5 11 6 12 7 10 8 6 9 7 10 82 11 8 12
REMARK SMILES IDX 9 13 5 14 3 15 4 16 92 17 84 18 83 19 2 20 1 21 85 22 86 23
REMARK SMILES IDX 91 24 87 25 90 26 88 27 89 28 18 29 19 30 20 31 21 32 22 33
REMARK SMILES IDX 23 34 81 35 24 36 80 37 25 38 26 39 27 40 74 41 28 42 79 43
REMARK SMILES IDX 73 44 75 45 29 46 78 47 72 48 71 49 30 51 60 52 41 53 59 54
REMARK SMILES IDX 42 55 45 56 58 57 76 58 43 59 44 60 57 62 77 63 46 64 31 65
REMARK SMILES IDX 32 66 40 67 33 68 39 69 34 70 35 71 36 72 37 73 38 74 61 75
REMARK SMILES IDX 62 76 70 77 63 78 69 79 64 80 65 81 66 82 67 83 68 84 47 85
REMARK SMILES IDX 48 86 56 87 49 88 55 89 50 90 51 91 52 92 53 93 54 94
REMARK H PARENT 75 50 45 61
REMARK Flexibility Score: inf
ROOT
ATOM      1  C   UNL     1       5.095   8.542  -4.710  1.00  0.00     0.202 C 
ENDROOT
BRANCH   1   2
ATOM      2  O   UNL     1       5.931   7.439  -5.056  1.00  0.00    -0.374 OA
BRANCH   2   3
ATOM      3  C   UNL     1       5.292   6.248  -5.513  1.00  0.00     0.202 C 
BRANCH   3   4
ATOM      4  C   UNL     1       4.569   5.420  -4.452  1.00  0.00     0.261 C 
BRANCH   4   5
ATOM      5  O   UNL     1       3.470   6.144  -3.889  1.00  0.00    -0.463 OA
BRANCH   5   6
ATOM      6  C   UNL     1       3.459   6.310  -2.545  1.00  0.00     0.310 C 
ATOM      7  O   UNL     1       4.320   5.896  -1.774  1.00  0.00    -0.252 OA
BRANCH   6   8
ATOM      8  C   UNL     1       2.256   7.101  -2.060  1.00  0.00     0.118 C 
ATOM      9  N   UNL     1       0.604   5.336  -2.326  1.00  0.00    -0.356 N 
ATOM     10  C   UNL     1      -0.150   5.984  -3.386  1.00  0.00     0.118 C 
ATOM     11  C   UNL     1       1.313   6.144  -1.346  1.00  0.00     0.133 C 
ATOM     12  C   UNL     1       0.659   7.083  -4.072  1.00  0.00     0.022 C 
ATOM     13  C   UNL     1       1.491   7.927  -3.103  1.00  0.00     0.019 C 
BRANCH   9  14
ATOM     14  C   UNL     1       0.807   3.969  -2.336  1.00  0.00     0.132 A 
ATOM     15  C   UNL     1       0.783   1.897  -1.186  1.00  0.00     0.046 A 
ATOM     16  C   UNL     1       0.531   3.251  -1.185  1.00  0.00     0.070 A 
ATOM     17  N   UNL     1       1.268   1.276  -2.271  1.00  0.00    -0.233 NA
ATOM     18  C   UNL     1       1.506   2.041  -3.352  1.00  0.00     0.161 A 
ATOM     19  N   UNL     1       1.300   3.372  -3.434  1.00  0.00    -0.211 NA
BRANCH  15  20
ATOM     20  C   UNL     1       0.476   1.090   0.050  1.00  0.00     0.053 C 
ATOM     21  C   UNL     1       1.111  -0.292   0.072  1.00  0.00     0.011 C 
ENDBRANCH  15  20
BRANCH  18  22
ATOM     22  C   UNL     1       2.107   1.351  -4.498  1.00  0.00     0.019 A 
ATOM     23  C   UNL     1       1.419   0.317  -5.157  1.00  0.00     0.013 A 
ATOM     24  C   UNL     1       3.414   1.647  -4.920  1.00  0.00     0.013 A 
ATOM     25  C   UNL     1       2.011  -0.390  -6.209  1.00  0.00     0.021 A 
ATOM     26  C   UNL     1       4.011   0.944  -5.972  1.00  0.00     0.021 A 
ATOM     27  C   UNL     1       3.306  -0.073  -6.612  1.00  0.00     0.041 A 
ATOM     28  Cl  UNL     1       4.053  -0.955  -7.886  1.00  0.00    -0.084 Cl
ENDBRANCH  18  22
ENDBRANCH   9  14
ENDBRANCH   6   8
ENDBRANCH   5   6
ENDBRANCH   4   5
ENDBRANCH   3   4
ENDBRANCH   2   3
ENDBRANCH   1   2
BRANCH   1  29
ATOM     29  C   UNL     1       4.440   9.309  -5.866  1.00  0.00     0.261 C 
BRANCH  29  30
ATOM     30  O   UNL     1       3.457   8.537  -6.581  1.00  0.00    -0.460 OA
BRANCH  30  31
ATOM     31  C   UNL     1       3.801   8.218  -7.851  1.00  0.00     0.338 C 
ATOM     32  O   UNL     1       4.833   8.537  -8.435  1.00  0.00    -0.246 OA
BRANCH  31  33
ATOM     33  C   UNL     1       2.831   7.280  -8.443  1.00  0.00     0.060 A 
ATOM     34  C   UNL     1       3.324   6.085  -8.983  1.00  0.00     0.016 A 
ATOM     35  C   UNL     1       1.483   7.616  -8.581  1.00  0.00     0.016 A 
ATOM     36  C   UNL     1       2.482   5.244  -9.711  1.00  0.00     0.010 A 
ATOM     37  C   UNL     1       0.642   6.775  -9.320  1.00  0.00     0.010 A 
ATOM     38  C   UNL     1       1.146   5.606  -9.921  1.00  0.00    -0.014 A 
BRANCH  38  39
ATOM     39  C   UNL     1       0.315   4.853 -10.893  1.00  0.00     0.031 A 
ATOM     40  C   UNL     1       0.123   5.418 -12.277  1.00  0.00     0.074 A 
ATOM     41  C   UNL     1      -0.263   3.685 -10.554  1.00  0.00     0.049 A 
ATOM     42  N   UNL     1      -0.635   4.985 -13.250  1.00  0.00    -0.248 NA
ATOM     43  C   UNL     1       0.887   6.633 -12.607  1.00  0.00     0.031 C 
ATOM     44  C   UNL     1      -0.112   3.005  -9.267  1.00  0.00     0.029 A 
ATOM     45  N   UNL     1      -1.110   2.872 -11.266  1.00  0.00    -0.354 N 
ATOM     46  C   UNL     1      -0.463   5.886 -14.295  1.00  0.00     0.074 A 
ATOM     47  C   UNL     1       0.468   6.894 -13.837  1.00  0.00     0.031 C 
ATOM     48  C   UNL     1      -0.859   1.887  -9.276  1.00  0.00     0.029 A 
ATOM     49  C   UNL     1      -1.570   1.793 -10.550  1.00  0.00     0.049 A 
ATOM     50  H   UNL     1      -1.363   3.046 -12.202  1.00  0.00     0.167 HD
ATOM     51  C   UNL     1      -1.032   5.877 -15.524  1.00  0.00     0.031 A 
ATOM     52  C   UNL     1      -2.486   0.857 -10.873  1.00  0.00     0.031 A 
ATOM     53  C   UNL     1      -1.944   4.865 -15.983  1.00  0.00     0.049 A 
ATOM     54  C   UNL     1      -3.154   0.908 -12.225  1.00  0.00     0.074 A 
ATOM     55  C   UNL     1      -2.542   4.751 -17.227  1.00  0.00     0.029 A 
ATOM     56  N   UNL     1      -2.395   3.800 -15.222  1.00  0.00    -0.354 N 
ATOM     57  N   UNL     1      -2.956   1.749 -13.212  1.00  0.00    -0.248 NA
ATOM     58  C   UNL     1      -4.169  -0.119 -12.507  1.00  0.00     0.031 C 
ATOM     59  C   UNL     1      -3.397   3.646 -17.199  1.00  0.00     0.029 A 
ATOM     60  C   UNL     1      -3.288   3.041 -15.958  1.00  0.00     0.049 A 
ATOM     61  H   UNL     1      -2.122   3.611 -14.295  1.00  0.00     0.167 HD
ATOM     62  C   UNL     1      -3.793   1.329 -14.242  1.00  0.00     0.074 A 
ATOM     63  C   UNL     1      -4.495   0.158 -13.762  1.00  0.00     0.031 C 
ATOM     64  C   UNL     1      -3.961   1.862 -15.476  1.00  0.00     0.031 A 
BRANCH  51  65
ATOM     65  C   UNL     1      -0.719   7.013 -16.459  1.00  0.00    -0.014 A 
ATOM     66  C   UNL     1       0.516   7.095 -17.124  1.00  0.00     0.010 A 
ATOM     67  C   UNL     1      -1.718   7.963 -16.745  1.00  0.00     0.010 A 
ATOM     68  C   UNL     1       0.752   8.116 -18.049  1.00  0.00     0.020 A 
ATOM     69  C   UNL     1      -1.494   8.971 -17.685  1.00  0.00     0.020 A 
ATOM     70  C   UNL     1      -0.256   9.046 -18.326  1.00  0.00     0.054 A 
BRANCH  70  71
ATOM     71  S   UNL     1       0.054  10.323 -19.577  1.00  0.00     0.124 S 
ATOM     72  O   UNL     1       0.976  11.214 -18.876  1.00  0.00    -0.237 OA
ATOM     73  O   UNL     1       0.635   9.560 -20.678  1.00  0.00    -0.237 OA
ATOM     74  O   UNL     1      -1.270  10.881 -19.840  1.00  0.00    -0.744 OA
ENDBRANCH  70  71
ENDBRANCH  51  65
BRANCH  52  75
ATOM     75  C   UNL     1      -2.873  -0.190  -9.886  1.00  0.00    -0.014 A 
ATOM     76  C   UNL     1      -2.561  -1.542 -10.111  1.00  0.00     0.010 A 
ATOM     77  C   UNL     1      -3.602   0.161  -8.735  1.00  0.00     0.010 A 
ATOM     78  C   UNL     1      -3.005  -2.528  -9.225  1.00  0.00     0.020 A 
ATOM     79  C   UNL     1      -4.022  -0.819  -7.831  1.00  0.00     0.020 A 
ATOM     80  C   UNL     1      -3.739  -2.160  -8.093  1.00  0.00     0.054 A 
BRANCH  80  81
ATOM     81  S   UNL     1      -4.301  -3.452  -6.950  1.00  0.00     0.124 S 
ATOM     82  O   UNL     1      -5.423  -4.033  -7.680  1.00  0.00    -0.237 OA
ATOM     83  O   UNL     1      -3.118  -4.300  -6.824  1.00  0.00    -0.237 OA
ATOM     84  O   UNL     1      -4.655  -2.708  -5.744  1.00  0.00    -0.744 OA
ENDBRANCH  80  81
ENDBRANCH  52  75
BRANCH  64  85
ATOM     85  C   UNL     1      -4.894   1.161 -16.427  1.00  0.00    -0.014 A 
ATOM     86  C   UNL     1      -6.289   1.244 -16.277  1.00  0.00     0.010 A 
ATOM     87  C   UNL     1      -4.362   0.482 -17.539  1.00  0.00     0.010 A 
ATOM     88  C   UNL     1      -7.135   0.646 -17.215  1.00  0.00     0.020 A 
ATOM     89  C   UNL     1      -5.204  -0.095 -18.492  1.00  0.00     0.020 A 
ATOM     90  C   UNL     1      -6.587  -0.017 -18.319  1.00  0.00     0.054 A 
BRANCH  90  91
ATOM     91  S   UNL     1      -7.707  -0.725 -19.559  1.00  0.00     0.124 S 
ATOM     92  O   UNL     1      -8.206  -1.914 -18.875  1.00  0.00    -0.237 OA
ATOM     93  O   UNL     1      -8.684   0.342 -19.758  1.00  0.00    -0.237 OA
ATOM     94  O   UNL     1      -6.836  -0.985 -20.704  1.00  0.00    -0.744 OA
ENDBRANCH  90  91
ENDBRANCH  64  85
ENDBRANCH  38  39
ENDBRANCH  31  33
ENDBRANCH  30  31
ENDBRANCH  29  30
ENDBRANCH   1  29
TORSDOF 20
