REMARK SMILES CC(C)[C@@H](Nc1cc(Cl)c(Cl)cc1[N+](=O)[O-])C(=O)OCCOCCOC(=O)c1ccc(-c2c3nc(c(-c4ccc(S(=O)(=O)[O-])cc4)c4ccc([nH]4)c(-c4ccc(S(=O)(=O)[O-])cc4)c4nc(c(-c5ccc(S(=O)(=O)[O-])cc5)c5ccc2[nH]5)C=C4)C=C3)cc1
REMARK SMILES IDX 22 1 21 2 20 3 19 4 17 5 18 6 4 7 2 8 1 9 3 10 5 11 6 13
REMARK SMILES IDX 7 14 13 15 8 16 12 17 9 18 10 19 11 20 14 21 15 22 16 23
REMARK SMILES IDX 23 24 24 25 25 26 26 27 27 28 28 29 29 30 87 31 30 32 86 33
REMARK SMILES IDX 31 34 32 35 33 36 80 37 34 38 85 39 79 40 81 41 35 42 84 43
REMARK SMILES IDX 78 44 77 45 36 47 66 48 47 49 65 50 48 51 51 52 64 53 82 54
REMARK SMILES IDX 49 55 50 56 63 58 83 59 52 60 37 61 38 62 46 63 39 64 45 65
REMARK SMILES IDX 40 66 41 67 42 68 43 69 44 70 67 71 68 72 76 73 69 74 75 75
REMARK SMILES IDX 70 76 71 77 72 78 73 79 74 80 53 81 54 82 62 83 55 84 61 85
REMARK SMILES IDX 56 86 57 87 58 88 59 89 60 90
REMARK H PARENT 5 12 81 46 51 57
REMARK Flexibility Score: inf
ROOT
ATOM      1  O   UNL     1      -1.696   0.099   5.632  1.00  0.00    -0.374 OA
ENDROOT
BRANCH   1   2
ATOM      2  C   UNL     1      -1.712  -1.312   5.418  1.00  0.00     0.202 C 
BRANCH   2   3
ATOM      3  C   UNL     1      -2.318  -1.792   4.099  1.00  0.00     0.261 C 
BRANCH   3   4
ATOM      4  O   UNL     1      -1.484  -1.550   2.946  1.00  0.00    -0.462 OA
BRANCH   4   5
ATOM      5  C   UNL     1      -1.892  -0.533   2.131  1.00  0.00     0.328 C 
ATOM      6  O   UNL     1      -2.759   0.285   2.425  1.00  0.00    -0.250 OA
BRANCH   5   7
ATOM      7  C   UNL     1      -1.238  -0.581   0.738  1.00  0.00     0.192 C 
BRANCH   7   8
ATOM      8  C   UNL     1       0.314  -0.710   0.728  1.00  0.00     0.017 C 
ATOM      9  C   UNL     1       0.890  -0.252  -0.625  1.00  0.00     0.010 C 
ATOM     10  C   UNL     1       1.012   0.110   1.817  1.00  0.00     0.010 C 
ENDBRANCH   7   8
BRANCH   7  11
ATOM     11  N   UNL     1      -1.836  -1.595  -0.182  1.00  0.00    -0.366 N 
ATOM     12  H   UNL     1      -1.681  -1.483  -1.147  1.00  0.00     0.161 HD
BRANCH  11  13
ATOM     13  C   UNL     1      -2.596  -2.687   0.226  1.00  0.00     0.115 A 
ATOM     14  C   UNL     1      -3.794  -2.466   0.929  1.00  0.00     0.055 A 
ATOM     15  C   UNL     1      -2.205  -4.033   0.030  1.00  0.00     0.293 A 
ATOM     16  C   UNL     1      -4.533  -3.515   1.486  1.00  0.00     0.062 A 
ATOM     17  C   UNL     1      -2.946  -5.094   0.585  1.00  0.00     0.110 A 
ATOM     18  Cl  UNL     1      -5.955  -3.106   2.379  1.00  0.00    -0.083 Cl
ATOM     19  C   UNL     1      -4.098  -4.831   1.327  1.00  0.00     0.066 A 
ATOM     20  Cl  UNL     1      -4.941  -6.168   2.015  1.00  0.00    -0.082 Cl
BRANCH  15  21
ATOM     21  N   UNL     1      -1.020  -4.377  -0.778  1.00  0.00     0.065 N 
ATOM     22  O   UNL     1      -0.658  -5.561  -0.796  1.00  0.00    -0.258 OA
ATOM     23  O   UNL     1      -0.462  -3.474  -1.421  1.00  0.00    -0.258 OA
ENDBRANCH  15  21
ENDBRANCH  11  13
ENDBRANCH   7  11
ENDBRANCH   5   7
ENDBRANCH   4   5
ENDBRANCH   3   4
ENDBRANCH   2   3
ENDBRANCH   1   2
BRANCH   1  24
ATOM     24  C   UNL     1      -0.661   0.836   4.986  1.00  0.00     0.202 C 
BRANCH  24  25
ATOM     25  C   UNL     1       0.722   0.764   5.644  1.00  0.00     0.261 C 
BRANCH  25  26
ATOM     26  O   UNL     1       1.268  -0.569   5.606  1.00  0.00    -0.460 OA
BRANCH  26  27
ATOM     27  C   UNL     1       1.461  -1.129   6.824  1.00  0.00     0.338 C 
ATOM     28  O   UNL     1       1.348  -0.576   7.912  1.00  0.00    -0.246 OA
BRANCH  27  29
ATOM     29  C   UNL     1       1.657  -2.587   6.710  1.00  0.00     0.060 A 
ATOM     30  C   UNL     1       0.834  -3.397   7.502  1.00  0.00     0.016 A 
ATOM     31  C   UNL     1       2.672  -3.154   5.936  1.00  0.00     0.016 A 
ATOM     32  C   UNL     1       1.073  -4.766   7.584  1.00  0.00     0.010 A 
ATOM     33  C   UNL     1       2.911  -4.533   6.022  1.00  0.00     0.010 A 
ATOM     34  C   UNL     1       2.144  -5.337   6.884  1.00  0.00    -0.014 A 
BRANCH  34  35
ATOM     35  C   UNL     1       2.526  -6.739   7.197  1.00  0.00     0.031 A 
ATOM     36  C   UNL     1       3.670  -6.998   8.143  1.00  0.00     0.074 A 
ATOM     37  C   UNL     1       1.803  -7.770   6.723  1.00  0.00     0.049 A 
ATOM     38  N   UNL     1       4.096  -8.133   8.636  1.00  0.00    -0.248 NA
ATOM     39  C   UNL     1       4.430  -5.822   8.599  1.00  0.00     0.031 C 
ATOM     40  C   UNL     1       0.653  -7.655   5.828  1.00  0.00     0.029 A 
ATOM     41  N   UNL     1       1.923  -9.120   6.947  1.00  0.00    -0.354 N 
ATOM     42  C   UNL     1       5.170  -7.811   9.459  1.00  0.00     0.074 A 
ATOM     43  C   UNL     1       5.352  -6.378   9.371  1.00  0.00     0.031 C 
ATOM     44  C   UNL     1       0.165  -8.884   5.586  1.00  0.00     0.029 A 
ATOM     45  C   UNL     1       0.979  -9.873   6.291  1.00  0.00     0.049 A 
ATOM     46  H   UNL     1       2.619  -9.511   7.522  1.00  0.00     0.167 HD
ATOM     47  C   UNL     1       5.930  -8.629  10.226  1.00  0.00     0.031 A 
ATOM     48  C   UNL     1       0.791 -11.207   6.259  1.00  0.00     0.031 A 
ATOM     49  C   UNL     1       5.761 -10.056  10.306  1.00  0.00     0.049 A 
ATOM     50  C   UNL     1       1.681 -12.102   7.079  1.00  0.00     0.074 A 
ATOM     51  C   UNL     1       6.468 -10.966  11.073  1.00  0.00     0.029 A 
ATOM     52  N   UNL     1       4.827 -10.785   9.585  1.00  0.00    -0.354 N 
ATOM     53  N   UNL     1       2.666 -11.775   7.881  1.00  0.00    -0.248 NA
ATOM     54  C   UNL     1       1.422 -13.547   6.999  1.00  0.00     0.031 C 
ATOM     55  C   UNL     1       6.000 -12.250  10.773  1.00  0.00     0.029 A 
ATOM     56  C   UNL     1       4.960 -12.135   9.865  1.00  0.00     0.049 A 
ATOM     57  H   UNL     1       4.166 -10.399   8.966  1.00  0.00     0.167 HD
ATOM     58  C   UNL     1       3.132 -12.973   8.417  1.00  0.00     0.074 A 
ATOM     59  C   UNL     1       2.307 -14.027   7.862  1.00  0.00     0.031 C 
ATOM     60  C   UNL     1       4.148 -13.179   9.291  1.00  0.00     0.031 A 
BRANCH  47  61
ATOM     61  C   UNL     1       7.046  -7.996  11.016  1.00  0.00    -0.014 A 
ATOM     62  C   UNL     1       6.784  -7.194  12.141  1.00  0.00     0.010 A 
ATOM     63  C   UNL     1       8.382  -8.231  10.640  1.00  0.00     0.010 A 
ATOM     64  C   UNL     1       7.834  -6.602  12.848  1.00  0.00     0.020 A 
ATOM     65  C   UNL     1       9.436  -7.662  11.360  1.00  0.00     0.020 A 
ATOM     66  C   UNL     1       9.154  -6.835  12.449  1.00  0.00     0.054 A 
BRANCH  66  67
ATOM     67  S   UNL     1      10.499  -6.061  13.388  1.00  0.00     0.124 S 
ATOM     68  O   UNL     1      10.401  -4.667  12.960  1.00  0.00    -0.237 OA
ATOM     69  O   UNL     1      10.117  -6.321  14.773  1.00  0.00    -0.237 OA
ATOM     70  O   UNL     1      11.693  -6.769  12.931  1.00  0.00    -0.744 OA
ENDBRANCH  66  67
ENDBRANCH  47  61
BRANCH  48  71
ATOM     71  C   UNL     1      -0.289 -11.776   5.408  1.00  0.00    -0.014 A 
ATOM     72  C   UNL     1      -1.441 -12.341   5.982  1.00  0.00     0.010 A 
ATOM     73  C   UNL     1      -0.173 -11.735   4.006  1.00  0.00     0.010 A 
ATOM     74  C   UNL     1      -2.454 -12.860   5.170  1.00  0.00     0.020 A 
ATOM     75  C   UNL     1      -1.194 -12.228   3.191  1.00  0.00     0.020 A 
ATOM     76  C   UNL     1      -2.326 -12.795   3.779  1.00  0.00     0.054 A 
BRANCH  76  77
ATOM     77  S   UNL     1      -3.684 -13.406   2.742  1.00  0.00     0.124 S 
ATOM     78  O   UNL     1      -3.523 -14.852   2.851  1.00  0.00    -0.237 OA
ATOM     79  O   UNL     1      -4.861 -12.848   3.401  1.00  0.00    -0.237 OA
ATOM     80  O   UNL     1      -3.390 -12.840   1.427  1.00  0.00    -0.744 OA
ENDBRANCH  76  77
ENDBRANCH  48  71
BRANCH  60  81
ATOM     81  C   UNL     1       4.417 -14.600   9.715  1.00  0.00    -0.014 A 
ATOM     82  C   UNL     1       4.984 -15.531   8.827  1.00  0.00     0.010 A 
ATOM     83  C   UNL     1       4.121 -15.003  11.030  1.00  0.00     0.010 A 
ATOM     84  C   UNL     1       5.207 -16.851   9.232  1.00  0.00     0.020 A 
ATOM     85  C   UNL     1       4.368 -16.314  11.448  1.00  0.00     0.020 A 
ATOM     86  C   UNL     1       4.891 -17.235  10.539  1.00  0.00     0.054 A 
BRANCH  86  87
ATOM     87  S   UNL     1       5.201 -18.949  11.046  1.00  0.00     0.124 S 
ATOM     88  O   UNL     1       4.103 -19.660  10.396  1.00  0.00    -0.237 OA
ATOM     89  O   UNL     1       6.530 -19.212  10.502  1.00  0.00    -0.237 OA
ATOM     90  O   UNL     1       5.132 -18.896  12.505  1.00  0.00    -0.744 OA
ENDBRANCH  86  87
ENDBRANCH  60  81
ENDBRANCH  34  35
ENDBRANCH  27  29
ENDBRANCH  26  27
ENDBRANCH  25  26
ENDBRANCH  24  25
ENDBRANCH   1  24
TORSDOF 21
