REMARK SMILES CC(=O)c1ccc(C(F)(F)C(=O)OCCOCCOC(=O)c2ccc(-c3c4nc(c(-c5ccc(S(=O)(=O)[O-])cc5)c5ccc([nH]5)c(-c5ccc(S(=O)(=O)[O-])cc5)c5nc(c(-c6ccc(S(=O)(=O)[O-])cc6)c6ccc3[nH]6)C=C5)C=C4)cc2)n1C
REMARK SMILES IDX 17 1 16 2 15 3 14 4 13 5 11 6 12 7 8 8 9 9 10 10 7 11 4 12
REMARK SMILES IDX 5 13 82 14 6 15 83 16 2 17 1 18 3 19 18 20 19 21 20 22 21 23
REMARK SMILES IDX 22 24 23 25 81 26 24 27 80 28 25 29 26 30 27 31 74 32 28 33
REMARK SMILES IDX 79 34 73 35 75 36 29 37 78 38 72 39 71 40 30 42 60 43 41 44
REMARK SMILES IDX 59 45 42 46 45 47 58 48 76 49 43 50 44 51 57 53 77 54 46 55
REMARK SMILES IDX 31 56 32 57 40 58 33 59 39 60 34 61 35 62 36 63 37 64 38 65
REMARK SMILES IDX 61 66 62 67 70 68 63 69 69 70 64 71 65 72 66 73 67 74 68 75
REMARK SMILES IDX 47 76 48 77 56 78 49 79 55 80 50 81 51 82 52 83 53 84 54 85
REMARK H PARENT 75 41 45 52
REMARK Flexibility Score: inf
ROOT
ATOM      1  C   UNL     1       4.551   3.264  -1.130  1.00  0.00     0.202 C 
ENDROOT
BRANCH   1   2
ATOM      2  O   UNL     1       5.616   2.308  -1.070  1.00  0.00    -0.374 OA
BRANCH   2   3
ATOM      3  C   UNL     1       6.739   2.527  -1.935  1.00  0.00     0.202 C 
BRANCH   3   4
ATOM      4  C   UNL     1       6.557   2.026  -3.373  1.00  0.00     0.261 C 
BRANCH   4   5
ATOM      5  O   UNL     1       5.462   2.735  -3.970  1.00  0.00    -0.458 OA
BRANCH   5   6
ATOM      6  C   UNL     1       4.553   1.998  -4.678  1.00  0.00     0.383 C 
ATOM      7  O   UNL     1       4.776   0.876  -5.123  1.00  0.00    -0.244 OA
BRANCH   6   8
ATOM      8  C   UNL     1       3.205   2.728  -4.720  1.00  0.00     0.382 C 
ATOM      9  F   UNL     1       2.833   2.932  -6.024  1.00  0.00    -0.186 F 
ATOM     10  F   UNL     1       3.296   3.995  -4.197  1.00  0.00    -0.186 F 
BRANCH   8  11
ATOM     11  C   UNL     1       2.058   2.022  -3.996  1.00  0.00     0.100 A 
ATOM     12  C   UNL     1       0.762   0.757  -2.615  1.00  0.00     0.084 A 
ATOM     13  C   UNL     1      -0.077   1.496  -3.425  1.00  0.00     0.032 A 
ATOM     14  N   UNL     1       2.072   1.069  -2.981  1.00  0.00    -0.340 N 
ATOM     15  C   UNL     1       0.720   2.300  -4.251  1.00  0.00     0.031 A 
ATOM     16  C   UNL     1       3.194   0.365  -2.394  1.00  0.00     0.150 C 
BRANCH  12  17
ATOM     17  C   UNL     1       0.319  -0.210  -1.619  1.00  0.00     0.176 C 
ATOM     18  C   UNL     1       0.826  -0.052  -0.206  1.00  0.00     0.095 C 
ATOM     19  O   UNL     1      -0.478  -1.108  -1.887  1.00  0.00    -0.293 OA
ENDBRANCH  12  17
ENDBRANCH   8  11
ENDBRANCH   6   8
ENDBRANCH   5   6
ENDBRANCH   4   5
ENDBRANCH   3   4
ENDBRANCH   2   3
ENDBRANCH   1   2
BRANCH   1  20
ATOM     20  C   UNL     1       4.745   4.588  -0.387  1.00  0.00     0.261 C 
BRANCH  20  21
ATOM     21  O   UNL     1       5.757   5.401  -0.994  1.00  0.00    -0.460 OA
BRANCH  21  22
ATOM     22  C   UNL     1       6.925   5.449  -0.309  1.00  0.00     0.338 C 
ATOM     23  O   UNL     1       7.170   4.925   0.764  1.00  0.00    -0.246 OA
BRANCH  22  24
ATOM     24  C   UNL     1       7.958   6.080  -1.151  1.00  0.00     0.060 A 
ATOM     25  C   UNL     1       9.209   5.453  -1.211  1.00  0.00     0.016 A 
ATOM     26  C   UNL     1       7.726   7.279  -1.829  1.00  0.00     0.016 A 
ATOM     27  C   UNL     1      10.255   6.055  -1.904  1.00  0.00     0.010 A 
ATOM     28  C   UNL     1       8.779   7.886  -2.517  1.00  0.00     0.010 A 
ATOM     29  C   UNL     1      10.055   7.295  -2.522  1.00  0.00    -0.014 A 
BRANCH  29  30
ATOM     30  C   UNL     1      11.220   8.060  -3.017  1.00  0.00     0.031 A 
ATOM     31  C   UNL     1      11.804   9.127  -2.132  1.00  0.00     0.074 A 
ATOM     32  C   UNL     1      11.755   7.795  -4.221  1.00  0.00     0.049 A 
ATOM     33  N   UNL     1      12.791   9.949  -2.369  1.00  0.00    -0.248 NA
ATOM     34  C   UNL     1      11.188   9.290  -0.804  1.00  0.00     0.031 C 
ATOM     35  C   UNL     1      11.299   6.753  -5.140  1.00  0.00     0.029 A 
ATOM     36  N   UNL     1      12.801   8.391  -4.878  1.00  0.00    -0.354 N 
ATOM     37  C   UNL     1      12.908  10.734  -1.228  1.00  0.00     0.074 A 
ATOM     38  C   UNL     1      11.877  10.307  -0.308  1.00  0.00     0.031 C 
ATOM     39  C   UNL     1      12.057   6.790  -6.250  1.00  0.00     0.029 A 
ATOM     40  C   UNL     1      13.028   7.876  -6.131  1.00  0.00     0.049 A 
ATOM     41  H   UNL     1      13.338   9.119  -4.489  1.00  0.00     0.167 HD
ATOM     42  C   UNL     1      13.798  11.721  -0.969  1.00  0.00     0.031 A 
ATOM     43  C   UNL     1      13.907   8.254  -7.079  1.00  0.00     0.031 A 
ATOM     44  C   UNL     1      14.811  12.148  -1.895  1.00  0.00     0.049 A 
ATOM     45  C   UNL     1      14.844   9.398  -6.794  1.00  0.00     0.074 A 
ATOM     46  C   UNL     1      15.769  13.132  -1.730  1.00  0.00     0.029 A 
ATOM     47  N   UNL     1      14.992  11.619  -3.164  1.00  0.00    -0.354 N 
ATOM     48  N   UNL     1      14.956  10.120  -5.703  1.00  0.00    -0.248 NA
ATOM     49  C   UNL     1      15.777   9.775  -7.865  1.00  0.00     0.031 C 
ATOM     50  C   UNL     1      16.498  13.231  -2.920  1.00  0.00     0.029 A 
ATOM     51  C   UNL     1      16.031  12.271  -3.803  1.00  0.00     0.049 A 
ATOM     52  H   UNL     1      14.459  10.888  -3.553  1.00  0.00     0.167 HD
ATOM     53  C   UNL     1      15.992  11.015  -5.946  1.00  0.00     0.074 A 
ATOM     54  C   UNL     1      16.477  10.740  -7.283  1.00  0.00     0.031 C 
ATOM     55  C   UNL     1      16.500  11.975  -5.134  1.00  0.00     0.031 A 
BRANCH  42  56
ATOM     56  C   UNL     1      13.684  12.427   0.355  1.00  0.00    -0.014 A 
ATOM     57  C   UNL     1      14.051  11.792   1.555  1.00  0.00     0.010 A 
ATOM     58  C   UNL     1      13.222  13.755   0.396  1.00  0.00     0.010 A 
ATOM     59  C   UNL     1      13.920  12.459   2.776  1.00  0.00     0.020 A 
ATOM     60  C   UNL     1      13.114  14.434   1.613  1.00  0.00     0.020 A 
ATOM     61  C   UNL     1      13.447  13.775   2.798  1.00  0.00     0.054 A 
BRANCH  61  62
ATOM     62  S   UNL     1      13.301  14.623   4.395  1.00  0.00     0.124 S 
ATOM     63  O   UNL     1      12.124  13.976   4.971  1.00  0.00    -0.237 OA
ATOM     64  O   UNL     1      14.571  14.307   5.044  1.00  0.00    -0.237 OA
ATOM     65  O   UNL     1      13.124  16.025   4.028  1.00  0.00    -0.744 OA
ENDBRANCH  61  62
ENDBRANCH  42  56
BRANCH  43  66
ATOM     66  C   UNL     1      13.934   7.550  -8.390  1.00  0.00    -0.014 A 
ATOM     67  C   UNL     1      15.013   6.719  -8.735  1.00  0.00     0.010 A 
ATOM     68  C   UNL     1      12.870   7.702  -9.299  1.00  0.00     0.010 A 
ATOM     69  C   UNL     1      15.036   6.063  -9.969  1.00  0.00     0.020 A 
ATOM     70  C   UNL     1      12.877   7.029 -10.523  1.00  0.00     0.020 A 
ATOM     71  C   UNL     1      13.966   6.221 -10.855  1.00  0.00     0.054 A 
BRANCH  71  72
ATOM     72  S   UNL     1      13.990   5.316 -12.428  1.00  0.00     0.124 S 
ATOM     73  O   UNL     1      14.974   6.070 -13.197  1.00  0.00    -0.237 OA
ATOM     74  O   UNL     1      14.399   3.976 -12.015  1.00  0.00    -0.237 OA
ATOM     75  O   UNL     1      12.611   5.419 -12.901  1.00  0.00    -0.744 OA
ENDBRANCH  71  72
ENDBRANCH  43  66
BRANCH  55  76
ATOM     76  C   UNL     1      17.669  12.772  -5.648  1.00  0.00    -0.014 A 
ATOM     77  C   UNL     1      17.501  13.764  -6.630  1.00  0.00     0.010 A 
ATOM     78  C   UNL     1      18.942  12.569  -5.085  1.00  0.00     0.010 A 
ATOM     79  C   UNL     1      18.593  14.523  -7.058  1.00  0.00     0.020 A 
ATOM     80  C   UNL     1      20.031  13.343  -5.492  1.00  0.00     0.020 A 
ATOM     81  C   UNL     1      19.852  14.307  -6.486  1.00  0.00     0.054 A 
BRANCH  81  82
ATOM     82  S   UNL     1      21.243  15.341  -7.019  1.00  0.00     0.124 S 
ATOM     83  O   UNL     1      21.555  14.778  -8.330  1.00  0.00    -0.237 OA
ATOM     84  O   UNL     1      20.662  16.681  -7.033  1.00  0.00    -0.237 OA
ATOM     85  O   UNL     1      22.255  15.119  -5.988  1.00  0.00    -0.744 OA
ENDBRANCH  81  82
ENDBRANCH  55  76
ENDBRANCH  29  30
ENDBRANCH  22  24
ENDBRANCH  21  22
ENDBRANCH  20  21
ENDBRANCH   1  20
TORSDOF 19
