REMARK SMILES Cc1cc(C)cc(Oc2nc3ccccn3c(=O)c2/C=C2\SC(=S)N(CCC(=O)OCCOCCOC(=O)c3ccc(-c4c5nc(c(-c6ccc(S(=O)(=O)[O-])cc6)c6ccc([nH]6)c(-c6ccc(S(=O)(=O)[O-])cc6)c6nc(c(-c7ccc(S(=O)(=O)[O-])cc7)c7ccc4[nH]7)C=C6)C=C5)cc3)C2=O)c1
REMARK SMILES IDX 32 1 31 2 30 3 28 4 29 5 27 6 26 7 25 8 20 9 21 10 22 11
REMARK SMILES IDX 99 12 23 13 100 14 24 15 19 16 9 17 10 18 11 19 17 20 12 21
REMARK SMILES IDX 16 22 18 23 13 24 15 25 14 26 8 27 7 28 1 29 2 30 3 31
REMARK SMILES IDX 101 32 4 33 5 34 6 35 33 36 34 37 35 38 36 39 37 40 38 41
REMARK SMILES IDX 39 42 40 43 98 44 41 45 97 46 42 47 43 48 44 49 91 50 45 51
REMARK SMILES IDX 96 52 90 53 92 54 46 55 95 56 89 57 88 58 47 60 77 61 58 62
REMARK SMILES IDX 76 63 59 64 62 65 75 66 93 67 60 68 61 69 74 71 94 72 63 73
REMARK SMILES IDX 48 74 49 75 57 76 50 77 56 78 51 79 52 80 53 81 54 82 55 83
REMARK SMILES IDX 78 84 79 85 87 86 80 87 86 88 81 89 82 90 83 91 84 92 85 93
REMARK SMILES IDX 64 94 65 95 73 96 66 97 72 98 67 99 68 100 69 101 70 102
REMARK SMILES IDX 71 103
REMARK H PARENT 92 59 62 70
REMARK Flexibility Score: inf
ROOT
ATOM      1  C   UNL     1      -0.714  -0.656   5.220  1.00  0.00     0.202 C 
ENDROOT
BRANCH   1   2
ATOM      2  C   UNL     1      -0.914   0.482   4.203  1.00  0.00     0.261 C 
BRANCH   2   3
ATOM      3  O   UNL     1       0.321   1.039   3.704  1.00  0.00    -0.463 OA
BRANCH   3   4
ATOM      4  C   UNL     1       0.795   2.154   4.304  1.00  0.00     0.307 C 
ATOM      5  O   UNL     1       0.223   2.782   5.186  1.00  0.00    -0.252 OA
BRANCH   4   6
ATOM      6  C   UNL     1       2.135   2.571   3.737  1.00  0.00     0.144 C 
BRANCH   6   7
ATOM      7  C   UNL     1       3.324   1.681   4.119  1.00  0.00     0.139 C 
BRANCH   7   8
ATOM      8  N   UNL     1       3.644   0.637   3.133  1.00  0.00    -0.292 N 
ATOM      9  C   UNL     1       2.445  -2.369   1.599  1.00  0.00     0.041 C 
ATOM     10  C   UNL     1       3.265  -1.384   1.988  1.00  0.00     0.081 C 
ATOM     11  S   UNL     1       4.720  -0.819   1.285  1.00  0.00    -0.054 SA
ATOM     12  C   UNL     1       2.906  -0.524   3.125  1.00  0.00     0.266 C 
ATOM     13  C   UNL     1       4.713   0.652   2.260  1.00  0.00     0.148 C 
ATOM     14  O   UNL     1       2.089  -0.860   3.967  1.00  0.00    -0.268 OA
ATOM     15  S   UNL     1       5.873   1.837   2.077  1.00  0.00    -0.052 S 
BRANCH   9  16
ATOM     16  C   UNL     1       2.659  -3.269   0.481  1.00  0.00     0.104 A 
ATOM     17  C   UNL     1       1.846  -3.382  -0.593  1.00  0.00     0.234 A 
ATOM     18  N   UNL     1       2.045  -4.308  -1.583  1.00  0.00    -0.194 NA
ATOM     19  C   UNL     1       2.980  -5.189  -1.444  1.00  0.00     0.143 A 
ATOM     20  C   UNL     1       3.796  -4.237   0.587  1.00  0.00     0.269 A 
ATOM     21  C   UNL     1       3.124  -6.257  -2.472  1.00  0.00     0.048 A 
ATOM     22  N   UNL     1       3.878  -5.206  -0.393  1.00  0.00    -0.267 N 
ATOM     23  O   UNL     1       4.564  -4.173   1.552  1.00  0.00    -0.268 OA
ATOM     24  C   UNL     1       4.090  -7.175  -2.349  1.00  0.00     0.005 A 
ATOM     25  C   UNL     1       4.867  -6.179  -0.307  1.00  0.00     0.096 A 
ATOM     26  C   UNL     1       4.996  -7.135  -1.234  1.00  0.00     0.019 A 
BRANCH  17  27
ATOM     27  O   UNL     1       0.626  -2.710  -0.720  1.00  0.00    -0.438 OA
BRANCH  27  28
ATOM     28  C   UNL     1       0.480  -1.358  -0.554  1.00  0.00     0.130 A 
ATOM     29  C   UNL     1       2.444   1.876  -0.456  1.00  0.00     0.044 C 
ATOM     30  C   UNL     1       1.301   0.911  -0.410  1.00  0.00    -0.047 A 
ATOM     31  C   UNL     1       0.007   1.352  -0.105  1.00  0.00     0.007 A 
ATOM     32  C   UNL     1       1.514  -0.441  -0.694  1.00  0.00     0.050 A 
ATOM     33  C   UNL     1      -1.067   0.453  -0.070  1.00  0.00    -0.047 A 
ATOM     34  C   UNL     1      -2.464   0.964   0.126  1.00  0.00     0.044 C 
ATOM     35  C   UNL     1      -0.815  -0.909  -0.274  1.00  0.00     0.050 A 
ENDBRANCH  27  28
ENDBRANCH  17  27
ENDBRANCH   9  16
ENDBRANCH   7   8
ENDBRANCH   6   7
ENDBRANCH   4   6
ENDBRANCH   3   4
ENDBRANCH   2   3
ENDBRANCH   1   2
BRANCH   1  36
ATOM     36  O   UNL     1      -0.353  -0.253   6.544  1.00  0.00    -0.374 OA
BRANCH  36  37
ATOM     37  C   UNL     1       1.042  -0.077   6.777  1.00  0.00     0.202 C 
BRANCH  37  38
ATOM     38  C   UNL     1       1.830  -1.317   7.233  1.00  0.00     0.261 C 
BRANCH  38  39
ATOM     39  O   UNL     1       1.916  -2.342   6.227  1.00  0.00    -0.460 OA
BRANCH  39  40
ATOM     40  C   UNL     1       0.963  -3.300   6.295  1.00  0.00     0.338 C 
ATOM     41  O   UNL     1       0.146  -3.447   7.190  1.00  0.00    -0.246 OA
BRANCH  40  42
ATOM     42  C   UNL     1       0.920  -4.088   5.039  1.00  0.00     0.060 A 
ATOM     43  C   UNL     1      -0.342  -4.418   4.527  1.00  0.00     0.016 A 
ATOM     44  C   UNL     1       2.065  -4.544   4.389  1.00  0.00     0.016 A 
ATOM     45  C   UNL     1      -0.467  -5.241   3.401  1.00  0.00     0.010 A 
ATOM     46  C   UNL     1       1.933  -5.361   3.255  1.00  0.00     0.010 A 
ATOM     47  C   UNL     1       0.669  -5.745   2.756  1.00  0.00    -0.014 A 
BRANCH  47  48
ATOM     48  C   UNL     1       0.559  -6.763   1.661  1.00  0.00     0.031 A 
ATOM     49  C   UNL     1       1.178  -8.128   1.863  1.00  0.00     0.074 A 
ATOM     50  C   UNL     1      -0.078  -6.519   0.494  1.00  0.00     0.049 A 
ATOM     51  N   UNL     1       1.292  -9.122   1.018  1.00  0.00    -0.248 NA
ATOM     52  C   UNL     1       1.732  -8.413   3.198  1.00  0.00     0.031 C 
ATOM     53  C   UNL     1      -0.798  -5.295   0.149  1.00  0.00     0.029 A 
ATOM     54  N   UNL     1      -0.176  -7.284  -0.649  1.00  0.00    -0.354 N 
ATOM     55  C   UNL     1       1.893 -10.154   1.730  1.00  0.00     0.074 A 
ATOM     56  C   UNL     1       2.227  -9.629   3.035  1.00  0.00     0.031 C 
ATOM     57  C   UNL     1      -1.179  -5.350  -1.140  1.00  0.00     0.029 A 
ATOM     58  C   UNL     1      -0.733  -6.613  -1.717  1.00  0.00     0.049 A 
ATOM     59  H   UNL     1       0.123  -8.221  -0.699  1.00  0.00     0.167 HD
ATOM     60  C   UNL     1       2.090 -11.444   1.368  1.00  0.00     0.031 A 
ATOM     61  C   UNL     1      -0.847  -6.950  -3.019  1.00  0.00     0.031 A 
ATOM     62  C   UNL     1       1.749 -11.993   0.084  1.00  0.00     0.049 A 
ATOM     63  C   UNL     1      -0.441  -8.331  -3.467  1.00  0.00     0.074 A 
ATOM     64  C   UNL     1       1.864 -13.303  -0.347  1.00  0.00     0.029 A 
ATOM     65  N   UNL     1       1.226 -11.268  -0.973  1.00  0.00    -0.354 N 
ATOM     66  N   UNL     1       0.080  -9.306  -2.762  1.00  0.00    -0.248 NA
ATOM     67  C   UNL     1      -0.694  -8.679  -4.874  1.00  0.00     0.031 C 
ATOM     68  C   UNL     1       1.467 -13.360  -1.686  1.00  0.00     0.029 A 
ATOM     69  C   UNL     1       1.042 -12.098  -2.067  1.00  0.00     0.049 A 
ATOM     70  H   UNL     1       1.017 -10.306  -0.952  1.00  0.00     0.167 HD
ATOM     71  C   UNL     1       0.120 -10.407  -3.613  1.00  0.00     0.074 A 
ATOM     72  C   UNL     1      -0.391  -9.969  -4.893  1.00  0.00     0.031 C 
ATOM     73  C   UNL     1       0.512 -11.675  -3.338  1.00  0.00     0.031 A 
BRANCH  60  74
ATOM     74  C   UNL     1       2.671 -12.370   2.404  1.00  0.00    -0.014 A 
ATOM     75  C   UNL     1       1.919 -12.738   3.537  1.00  0.00     0.010 A 
ATOM     76  C   UNL     1       3.951 -12.920   2.224  1.00  0.00     0.010 A 
ATOM     77  C   UNL     1       2.454 -13.606   4.490  1.00  0.00     0.020 A 
ATOM     78  C   UNL     1       4.477 -13.816   3.159  1.00  0.00     0.020 A 
ATOM     79  C   UNL     1       3.730 -14.141   4.294  1.00  0.00     0.054 A 
BRANCH  79  80
ATOM     80  S   UNL     1       4.381 -15.296   5.530  1.00  0.00     0.124 S 
ATOM     81  O   UNL     1       4.630 -14.412   6.666  1.00  0.00    -0.237 OA
ATOM     82  O   UNL     1       3.277 -16.239   5.697  1.00  0.00    -0.237 OA
ATOM     83  O   UNL     1       5.576 -15.846   4.896  1.00  0.00    -0.744 OA
ENDBRANCH  79  80
ENDBRANCH  60  74
BRANCH  61  84
ATOM     84  C   UNL     1      -1.378  -5.975  -4.018  1.00  0.00    -0.014 A 
ATOM     85  C   UNL     1      -2.634  -6.171  -4.618  1.00  0.00     0.010 A 
ATOM     86  C   UNL     1      -0.593  -4.881  -4.428  1.00  0.00     0.010 A 
ATOM     87  C   UNL     1      -3.072  -5.326  -5.644  1.00  0.00     0.020 A 
ATOM     88  C   UNL     1      -1.037  -4.020  -5.438  1.00  0.00     0.020 A 
ATOM     89  C   UNL     1      -2.267  -4.259  -6.053  1.00  0.00     0.054 A 
BRANCH  89  90
ATOM     90  S   UNL     1      -2.859  -3.187  -7.393  1.00  0.00     0.124 S 
ATOM     91  O   UNL     1      -2.821  -4.086  -8.542  1.00  0.00    -0.237 OA
ATOM     92  O   UNL     1      -4.192  -2.812  -6.927  1.00  0.00    -0.237 OA
ATOM     93  O   UNL     1      -1.886  -2.098  -7.420  1.00  0.00    -0.744 OA
ENDBRANCH  89  90
ENDBRANCH  61  84
BRANCH  73  94
ATOM     94  C   UNL     1       0.323 -12.721  -4.406  1.00  0.00    -0.014 A 
ATOM     95  C   UNL     1       1.103 -12.740  -5.575  1.00  0.00     0.010 A 
ATOM     96  C   UNL     1      -0.626 -13.742  -4.202  1.00  0.00     0.010 A 
ATOM     97  C   UNL     1       0.915 -13.742  -6.532  1.00  0.00     0.020 A 
ATOM     98  C   UNL     1      -0.793 -14.764  -5.140  1.00  0.00     0.020 A 
ATOM     99  C   UNL     1      -0.029 -14.750  -6.307  1.00  0.00     0.054 A 
BRANCH  99 100
ATOM    100  S   UNL     1      -0.214 -16.065  -7.542  1.00  0.00     0.124 S 
ATOM    101  O   UNL     1      -0.877 -15.364  -8.638  1.00  0.00    -0.237 OA
ATOM    102  O   UNL     1       1.170 -16.461  -7.795  1.00  0.00    -0.237 OA
ATOM    103  O   UNL     1      -1.028 -17.070  -6.861  1.00  0.00    -0.744 OA
ENDBRANCH  99 100
ENDBRANCH  73  94
ENDBRANCH  47  48
ENDBRANCH  40  42
ENDBRANCH  39  40
ENDBRANCH  38  39
ENDBRANCH  37  38
ENDBRANCH  36  37
ENDBRANCH   1  36
TORSDOF 22
