REMARK SMILES CC[N@@H+](C)Cc1cc2c(cc1Cl)C=C(C(=O)OCCOCCOC(=O)c1ccc(-c3c4nc(c(-c5ccc(S(=O)(=O)[O-])cc5)c5ccc([nH]5)c(-c5ccc(S(=O)(=O)[O-])cc5)c5nc(c(-c6ccc(S(=O)(=O)[O-])cc6)c6ccc3[nH]6)C=C5)C=C4)cc1)[C@@H](C(F)(F)F)O2
REMARK SMILES IDX 20 1 19 2 18 3 17 4 15 5 16 6 14 7 6 8 7 9 11 10 8 11 10 12
REMARK SMILES IDX 12 13 9 14 91 15 13 16 86 17 5 18 3 19 4 20 2 22 1 23 87 24
REMARK SMILES IDX 88 25 89 26 90 27 21 28 22 29 23 30 24 31 25 32 26 33 27 34
REMARK SMILES IDX 85 35 28 36 84 37 29 38 30 39 31 40 78 41 32 42 83 43 77 44
REMARK SMILES IDX 79 45 33 46 82 47 76 48 75 49 34 51 64 52 45 53 63 54 46 55
REMARK SMILES IDX 49 56 62 57 80 58 47 59 48 60 61 62 81 63 50 64 35 65 36 66
REMARK SMILES IDX 44 67 37 68 43 69 38 70 39 71 40 72 41 73 42 74 65 75 66 76
REMARK SMILES IDX 74 77 67 78 73 79 68 80 69 81 70 82 71 83 72 84 51 85 52 86
REMARK SMILES IDX 60 87 53 88 59 89 54 90 55 91 56 92 57 93 58 94
REMARK H PARENT 3 21 79 50 49 61
REMARK Flexibility Score: inf
ROOT
ATOM      1  O   UNL     1       3.673   7.718   6.876  1.00  0.00    -0.374 OA
ENDROOT
BRANCH   1   2
ATOM      2  C   UNL     1       3.925   9.067   6.491  1.00  0.00     0.202 C 
BRANCH   2   3
ATOM      3  C   UNL     1       4.801   9.312   5.258  1.00  0.00     0.261 C 
BRANCH   3   4
ATOM      4  O   UNL     1       4.331   8.601   4.106  1.00  0.00    -0.460 OA
BRANCH   4   5
ATOM      5  C   UNL     1       5.097   7.540   3.763  1.00  0.00     0.338 C 
ATOM      6  O   UNL     1       6.154   7.201   4.273  1.00  0.00    -0.246 OA
BRANCH   5   7
ATOM      7  C   UNL     1       4.401   6.730   2.748  1.00  0.00     0.087 C 
ATOM      8  C   UNL     1       3.053   2.930  -0.247  1.00  0.00     0.029 A 
ATOM      9  C   UNL     1       2.861   4.326  -0.259  1.00  0.00     0.058 A 
ATOM     10  C   UNL     1       3.756   2.375   0.836  1.00  0.00     0.050 A 
ATOM     11  C   UNL     1       3.301   5.130   0.790  1.00  0.00     0.128 A 
ATOM     12  C   UNL     1       4.202   3.183   1.886  1.00  0.00     0.033 A 
ATOM     13  Cl  UNL     1       4.169   0.701   0.937  1.00  0.00    -0.084 Cl
ATOM     14  C   UNL     1       3.981   4.560   1.859  1.00  0.00     0.019 A 
ATOM     15  O   UNL     1       3.005   6.459   0.699  1.00  0.00    -0.475 OA
ATOM     16  C   UNL     1       4.523   5.405   2.900  1.00  0.00     0.027 C 
ATOM     17  C   UNL     1       3.646   7.384   1.624  1.00  0.00     0.316 C 
BRANCH   8  18
ATOM     18  C   UNL     1       2.490   2.105  -1.389  1.00  0.00     0.300 C 
BRANCH  18  19
ATOM     19  N   UNL     1       1.023   1.921  -1.417  1.00  0.00    -0.334 N 
ATOM     20  C   UNL     1       0.295   3.139  -1.769  1.00  0.00     0.333 C 
ATOM     21  H   UNL     1       0.886   1.246  -2.170  1.00  0.00     0.348 HD
BRANCH  19  22
ATOM     22  C   UNL     1       0.459   1.309  -0.208  1.00  0.00     0.258 C 
ATOM     23  C   UNL     1       0.764  -0.179  -0.106  1.00  0.00     0.071 C 
ENDBRANCH  19  22
ENDBRANCH  18  19
ENDBRANCH   8  18
BRANCH  17  24
ATOM     24  C   UNL     1       4.516   8.351   0.808  1.00  0.00     0.430 C 
ATOM     25  F   UNL     1       3.821   8.872  -0.230  1.00  0.00    -0.167 F 
ATOM     26  F   UNL     1       4.946   9.391   1.556  1.00  0.00    -0.167 F 
ATOM     27  F   UNL     1       5.606   7.732   0.300  1.00  0.00    -0.167 F 
ENDBRANCH  17  24
ENDBRANCH   5   7
ENDBRANCH   4   5
ENDBRANCH   3   4
ENDBRANCH   2   3
ENDBRANCH   1   2
BRANCH   1  28
ATOM     28  C   UNL     1       2.732   6.957   6.119  1.00  0.00     0.202 C 
BRANCH  28  29
ATOM     29  C   UNL     1       1.247   7.336   6.190  1.00  0.00     0.261 C 
BRANCH  29  30
ATOM     30  O   UNL     1       0.968   8.620   5.608  1.00  0.00    -0.460 OA
BRANCH  30  31
ATOM     31  C   UNL     1       0.601   9.581   6.493  1.00  0.00     0.338 C 
ATOM     32  O   UNL     1       0.463   9.458   7.700  1.00  0.00    -0.246 OA
BRANCH  31  33
ATOM     33  C   UNL     1       0.596  10.887   5.810  1.00  0.00     0.060 A 
ATOM     34  C   UNL     1      -0.239  11.127   4.719  1.00  0.00     0.016 A 
ATOM     35  C   UNL     1       1.425  11.899   6.313  1.00  0.00     0.016 A 
ATOM     36  C   UNL     1      -0.259  12.401   4.144  1.00  0.00     0.010 A 
ATOM     37  C   UNL     1       1.409  13.165   5.732  1.00  0.00     0.010 A 
ATOM     38  C   UNL     1       0.550  13.432   4.657  1.00  0.00    -0.014 A 
BRANCH  38  39
ATOM     39  C   UNL     1       0.399  14.824   4.169  1.00  0.00     0.031 A 
ATOM     40  C   UNL     1       1.438  15.465   3.300  1.00  0.00     0.074 A 
ATOM     41  C   UNL     1      -0.686  15.522   4.559  1.00  0.00     0.049 A 
ATOM     42  N   UNL     1       1.435  16.663   2.775  1.00  0.00    -0.248 NA
ATOM     43  C   UNL     1       2.632  14.669   2.978  1.00  0.00     0.031 C 
ATOM     44  C   UNL     1      -1.748  14.998   5.421  1.00  0.00     0.029 A 
ATOM     45  N   UNL     1      -1.082  16.807   4.285  1.00  0.00    -0.354 N 
ATOM     46  C   UNL     1       2.613  16.762   2.045  1.00  0.00     0.074 A 
ATOM     47  C   UNL     1       3.330  15.519   2.235  1.00  0.00     0.031 C 
ATOM     48  C   UNL     1      -2.689  15.940   5.577  1.00  0.00     0.029 A 
ATOM     49  C   UNL     1      -2.280  17.151   4.868  1.00  0.00     0.049 A 
ATOM     50  H   UNL     1      -0.559  17.424   3.724  1.00  0.00     0.167 HD
ATOM     51  C   UNL     1       3.039  17.791   1.275  1.00  0.00     0.031 A 
ATOM     52  C   UNL     1      -2.975  18.306   4.842  1.00  0.00     0.031 A 
ATOM     53  C   UNL     1       2.316  19.029   1.113  1.00  0.00     0.049 A 
ATOM     54  C   UNL     1      -2.450  19.456   4.028  1.00  0.00     0.074 A 
ATOM     55  C   UNL     1       2.652  20.114   0.323  1.00  0.00     0.029 A 
ATOM     56  N   UNL     1       1.127  19.354   1.751  1.00  0.00    -0.354 N 
ATOM     57  N   UNL     1      -1.372  19.505   3.282  1.00  0.00    -0.248 NA
ATOM     58  C   UNL     1      -3.233  20.699   4.036  1.00  0.00     0.031 C 
ATOM     59  C   UNL     1       1.718  21.126   0.550  1.00  0.00     0.029 A 
ATOM     60  C   UNL     1       0.741  20.639   1.404  1.00  0.00     0.049 A 
ATOM     61  H   UNL     1       0.631  18.760   2.359  1.00  0.00     0.167 HD
ATOM     62  C   UNL     1      -1.361  20.773   2.712  1.00  0.00     0.074 A 
ATOM     63  C   UNL     1      -2.546  21.456   3.188  1.00  0.00     0.031 C 
ATOM     64  C   UNL     1      -0.447  21.315   1.871  1.00  0.00     0.031 A 
BRANCH  51  65
ATOM     65  C   UNL     1       4.336  17.642   0.519  1.00  0.00    -0.014 A 
ATOM     66  C   UNL     1       5.415  18.504   0.797  1.00  0.00     0.010 A 
ATOM     67  C   UNL     1       4.434  16.761  -0.573  1.00  0.00     0.010 A 
ATOM     68  C   UNL     1       6.543  18.522  -0.027  1.00  0.00     0.020 A 
ATOM     69  C   UNL     1       5.576  16.752  -1.380  1.00  0.00     0.020 A 
ATOM     70  C   UNL     1       6.611  17.653  -1.119  1.00  0.00     0.054 A 
BRANCH  70  71
ATOM     71  S   UNL     1       8.059  17.729  -2.209  1.00  0.00     0.124 S 
ATOM     72  O   UNL     1       7.854  18.995  -2.907  1.00  0.00    -0.237 OA
ATOM     73  O   UNL     1       9.170  17.702  -1.262  1.00  0.00    -0.237 OA
ATOM     74  O   UNL     1       7.928  16.532  -3.037  1.00  0.00    -0.744 OA
ENDBRANCH  70  71
ENDBRANCH  51  65
BRANCH  52  75
ATOM     75  C   UNL     1      -4.268  18.388   5.579  1.00  0.00    -0.014 A 
ATOM     76  C   UNL     1      -4.297  18.283   6.983  1.00  0.00     0.010 A 
ATOM     77  C   UNL     1      -5.483  18.463   4.877  1.00  0.00     0.010 A 
ATOM     78  C   UNL     1      -5.513  18.177   7.663  1.00  0.00     0.020 A 
ATOM     79  C   UNL     1      -6.704  18.395   5.558  1.00  0.00     0.020 A 
ATOM     80  C   UNL     1      -6.709  18.217   6.943  1.00  0.00     0.054 A 
BRANCH  80  81
ATOM     81  S   UNL     1      -8.270  17.997   7.840  1.00  0.00     0.124 S 
ATOM     82  O   UNL     1      -8.225  16.575   8.172  1.00  0.00    -0.237 OA
ATOM     83  O   UNL     1      -8.119  18.912   8.968  1.00  0.00    -0.237 OA
ATOM     84  O   UNL     1      -9.285  18.378   6.862  1.00  0.00    -0.744 OA
ENDBRANCH  80  81
ENDBRANCH  52  75
BRANCH  64  85
ATOM     85  C   UNL     1      -0.660  22.727   1.381  1.00  0.00    -0.014 A 
ATOM     86  C   UNL     1      -0.858  22.961   0.006  1.00  0.00     0.010 A 
ATOM     87  C   UNL     1      -0.480  23.824   2.241  1.00  0.00     0.010 A 
ATOM     88  C   UNL     1      -0.803  24.259  -0.509  1.00  0.00     0.020 A 
ATOM     89  C   UNL     1      -0.460  25.127   1.734  1.00  0.00     0.020 A 
ATOM     90  C   UNL     1      -0.584  25.332   0.357  1.00  0.00     0.054 A 
BRANCH  90  91
ATOM     91  S   UNL     1      -0.419  26.997  -0.344  1.00  0.00     0.124 S 
ATOM     92  O   UNL     1       0.883  26.926  -1.001  1.00  0.00    -0.237 OA
ATOM     93  O   UNL     1      -1.571  27.084  -1.237  1.00  0.00    -0.237 OA
ATOM     94  O   UNL     1      -0.479  27.871   0.826  1.00  0.00    -0.744 OA
ENDBRANCH  90  91
ENDBRANCH  64  85
ENDBRANCH  38  39
ENDBRANCH  31  33
ENDBRANCH  30  31
ENDBRANCH  29  30
ENDBRANCH  28  29
ENDBRANCH   1  28
TORSDOF 21
