REMARK SMILES Cc1nc(S[C@@H](C(=O)OCCOCCOC(=O)c2ccc(-c3c4nc(c(-c5ccc(S(=O)(=O)[O-])cc5)c5ccc([nH]5)c(-c5ccc(S(=O)(=O)[O-])cc5)c5nc(c(-c6ccc(S(=O)(=O)[O-])cc6)c6ccc3[nH]6)C=C5)C=C4)cc2)c2ccccc2)nc2ccccc12
REMARK SMILES IDX 13 1 12 2 11 3 10 4 9 5 7 6 8 7 6 8 5 9 4 10 1 11 2 12 3 13
REMARK SMILES IDX 90 14 85 15 89 16 84 17 86 18 88 19 87 20 78 21 79 22 83 23
REMARK SMILES IDX 80 24 82 25 81 26 14 27 15 28 16 29 17 30 18 31 19 32 77 33
REMARK SMILES IDX 20 34 76 35 21 36 22 37 23 38 70 39 24 40 75 41 69 42 71 43
REMARK SMILES IDX 25 44 74 45 68 46 67 47 26 49 56 50 37 51 55 52 38 53 41 54
REMARK SMILES IDX 54 55 72 56 39 57 40 58 53 60 73 61 42 62 27 63 28 64 36 65
REMARK SMILES IDX 29 66 35 67 30 68 31 69 32 70 33 71 34 72 57 73 58 74 66 75
REMARK SMILES IDX 59 76 65 77 60 78 61 79 62 80 63 81 64 82 43 83 44 84 52 85
REMARK SMILES IDX 45 86 51 87 46 88 47 89 48 90 49 91 50 92
REMARK H PARENT 71 48 41 59
REMARK Flexibility Score: inf
ROOT
ATOM      1  C   UNL     1       2.847   2.078   1.278  1.00  0.00     0.202 C 
ENDROOT
BRANCH   1   2
ATOM      2  O   UNL     1       3.886   3.037   1.145  1.00  0.00    -0.374 OA
BRANCH   2   3
ATOM      3  C   UNL     1       4.217   3.820   2.286  1.00  0.00     0.202 C 
BRANCH   3   4
ATOM      4  C   UNL     1       3.138   4.690   2.953  1.00  0.00     0.261 C 
BRANCH   4   5
ATOM      5  O   UNL     1       1.857   4.058   3.200  1.00  0.00    -0.462 OA
BRANCH   5   6
ATOM      6  C   UNL     1       0.841   4.527   2.416  1.00  0.00     0.324 C 
ATOM      7  O   UNL     1       1.048   5.380   1.551  1.00  0.00    -0.251 OA
BRANCH   6   8
ATOM      8  C   UNL     1      -0.592   4.018   2.740  1.00  0.00     0.194 C 
BRANCH   8   9
ATOM      9  S   UNL     1      -0.711   2.686   3.991  1.00  0.00    -0.066 SA
BRANCH   9  10
ATOM     10  C   UNL     1      -0.490   1.124   3.179  1.00  0.00     0.189 A 
ATOM     11  C   UNL     1       0.449  -0.216  -0.089  1.00  0.00     0.067 C 
ATOM     12  C   UNL     1       0.012  -0.188   1.349  1.00  0.00     0.050 A 
ATOM     13  N   UNL     1      -0.156   1.050   1.885  1.00  0.00    -0.227 NA
ATOM     14  C   UNL     1      -0.088  -1.363   2.105  1.00  0.00     0.022 A 
ATOM     15  C   UNL     1      -0.477  -1.170   3.435  1.00  0.00     0.075 A 
ATOM     16  C   UNL     1       0.202  -2.670   1.635  1.00  0.00     0.012 A 
ATOM     17  N   UNL     1      -0.688   0.047   3.957  1.00  0.00    -0.222 NA
ATOM     18  C   UNL     1      -0.621  -2.293   4.245  1.00  0.00     0.029 A 
ATOM     19  C   UNL     1       0.077  -3.773   2.476  1.00  0.00     0.001 A 
ATOM     20  C   UNL     1      -0.350  -3.585   3.783  1.00  0.00     0.002 A 
ENDBRANCH   9  10
ENDBRANCH   8   9
BRANCH   8  21
ATOM     21  C   UNL     1      -1.514   4.009   1.505  1.00  0.00    -0.023 A 
ATOM     22  C   UNL     1      -2.229   2.902   1.035  1.00  0.00     0.005 A 
ATOM     23  C   UNL     1      -1.607   5.185   0.729  1.00  0.00     0.005 A 
ATOM     24  C   UNL     1      -2.812   2.894  -0.237  1.00  0.00     0.000 A 
ATOM     25  C   UNL     1      -2.206   5.193  -0.531  1.00  0.00     0.000 A 
ATOM     26  C   UNL     1      -2.773   4.031  -1.033  1.00  0.00     0.000 A 
ENDBRANCH   8  21
ENDBRANCH   6   8
ENDBRANCH   5   6
ENDBRANCH   4   5
ENDBRANCH   3   4
ENDBRANCH   2   3
ENDBRANCH   1   2
BRANCH   1  27
ATOM     27  C   UNL     1       3.016   0.946   2.295  1.00  0.00     0.261 C 
BRANCH  27  28
ATOM     28  O   UNL     1       3.585   1.326   3.534  1.00  0.00    -0.460 OA
BRANCH  28  29
ATOM     29  C   UNL     1       4.696   0.639   3.865  1.00  0.00     0.338 C 
ATOM     30  O   UNL     1       5.273  -0.231   3.237  1.00  0.00    -0.246 OA
BRANCH  29  31
ATOM     31  C   UNL     1       5.173   1.230   5.109  1.00  0.00     0.060 A 
ATOM     32  C   UNL     1       4.415   1.101   6.274  1.00  0.00     0.016 A 
ATOM     33  C   UNL     1       6.374   1.941   5.078  1.00  0.00     0.016 A 
ATOM     34  C   UNL     1       4.888   1.678   7.444  1.00  0.00     0.010 A 
ATOM     35  C   UNL     1       6.850   2.503   6.253  1.00  0.00     0.010 A 
ATOM     36  C   UNL     1       6.120   2.355   7.441  1.00  0.00    -0.014 A 
BRANCH  36  37
ATOM     37  C   UNL     1       6.722   2.793   8.714  1.00  0.00     0.031 A 
ATOM     38  C   UNL     1       6.811   4.244   9.060  1.00  0.00     0.074 A 
ATOM     39  C   UNL     1       7.222   1.842   9.524  1.00  0.00     0.049 A 
ATOM     40  N   UNL     1       7.305   4.793  10.136  1.00  0.00    -0.248 NA
ATOM     41  C   UNL     1       6.290   5.206   8.074  1.00  0.00     0.031 C 
ATOM     42  C   UNL     1       7.188   0.403   9.244  1.00  0.00     0.029 A 
ATOM     43  N   UNL     1       7.839   1.929  10.743  1.00  0.00    -0.354 N 
ATOM     44  C   UNL     1       7.145   6.162   9.968  1.00  0.00     0.074 A 
ATOM     45  C   UNL     1       6.555   6.365   8.664  1.00  0.00     0.031 C 
ATOM     46  C   UNL     1       7.712  -0.259  10.284  1.00  0.00     0.029 A 
ATOM     47  C   UNL     1       8.168   0.706  11.279  1.00  0.00     0.049 A 
ATOM     48  H   UNL     1       8.029   2.784  11.193  1.00  0.00     0.167 HD
ATOM     49  C   UNL     1       7.449   7.147  10.844  1.00  0.00     0.031 A 
ATOM     50  C   UNL     1       8.762   0.396  12.447  1.00  0.00     0.031 A 
ATOM     51  C   UNL     1       8.045   6.907  12.134  1.00  0.00     0.049 A 
ATOM     52  C   UNL     1       9.126   1.517  13.379  1.00  0.00     0.074 A 
ATOM     53  C   UNL     1       8.374   7.833  13.108  1.00  0.00     0.029 A 
ATOM     54  N   UNL     1       8.397   5.660  12.633  1.00  0.00    -0.354 N 
ATOM     55  N   UNL     1       8.924   2.805  13.229  1.00  0.00    -0.248 NA
ATOM     56  C   UNL     1       9.778   1.149  14.640  1.00  0.00     0.031 C 
ATOM     57  C   UNL     1       8.994   7.156  14.159  1.00  0.00     0.029 A 
ATOM     58  C   UNL     1       8.966   5.796  13.888  1.00  0.00     0.049 A 
ATOM     59  H   UNL     1       8.261   4.805  12.164  1.00  0.00     0.167 HD
ATOM     60  C   UNL     1       9.398   3.400  14.392  1.00  0.00     0.074 A 
ATOM     61  C   UNL     1       9.878   2.328  15.241  1.00  0.00     0.031 C 
ATOM     62  C   UNL     1       9.433   4.715  14.723  1.00  0.00     0.031 A 
BRANCH  49  63
ATOM     63  C   UNL     1       7.130   8.571  10.468  1.00  0.00    -0.014 A 
ATOM     64  C   UNL     1       8.168   9.512  10.334  1.00  0.00     0.010 A 
ATOM     65  C   UNL     1       5.796   9.013  10.401  1.00  0.00     0.010 A 
ATOM     66  C   UNL     1       7.881  10.873  10.196  1.00  0.00     0.020 A 
ATOM     67  C   UNL     1       5.504  10.370  10.230  1.00  0.00     0.020 A 
ATOM     68  C   UNL     1       6.549  11.294  10.161  1.00  0.00     0.054 A 
BRANCH  68  69
ATOM     69  S   UNL     1       6.197  13.071  10.060  1.00  0.00     0.124 S 
ATOM     70  O   UNL     1       6.590  13.539  11.386  1.00  0.00    -0.237 OA
ATOM     71  O   UNL     1       7.054  13.501   8.958  1.00  0.00    -0.237 OA
ATOM     72  O   UNL     1       4.764  13.122   9.779  1.00  0.00    -0.744 OA
ENDBRANCH  68  69
ENDBRANCH  49  63
BRANCH  50  73
ATOM     73  C   UNL     1       8.968  -1.035  12.805  1.00  0.00    -0.014 A 
ATOM     74  C   UNL     1       9.825  -1.853  12.044  1.00  0.00     0.010 A 
ATOM     75  C   UNL     1       8.231  -1.613  13.854  1.00  0.00     0.010 A 
ATOM     76  C   UNL     1       9.896  -3.227  12.285  1.00  0.00     0.020 A 
ATOM     77  C   UNL     1       8.328  -2.982  14.123  1.00  0.00     0.020 A 
ATOM     78  C   UNL     1       9.137  -3.785  13.316  1.00  0.00     0.054 A 
BRANCH  78  79
ATOM     79  S   UNL     1       9.206  -5.579  13.575  1.00  0.00     0.124 S 
ATOM     80  O   UNL     1       8.453  -6.076  12.427  1.00  0.00    -0.237 OA
ATOM     81  O   UNL     1      10.642  -5.848  13.550  1.00  0.00    -0.237 OA
ATOM     82  O   UNL     1       8.562  -5.764  14.873  1.00  0.00    -0.744 OA
ENDBRANCH  78  79
ENDBRANCH  50  73
BRANCH  62  83
ATOM     83  C   UNL     1       9.998   5.089  16.070  1.00  0.00    -0.014 A 
ATOM     84  C   UNL     1       9.165   5.701  17.026  1.00  0.00     0.010 A 
ATOM     85  C   UNL     1      11.371   4.961  16.341  1.00  0.00     0.010 A 
ATOM     86  C   UNL     1       9.700   6.218  18.207  1.00  0.00     0.020 A 
ATOM     87  C   UNL     1      11.904   5.441  17.541  1.00  0.00     0.020 A 
ATOM     88  C   UNL     1      11.069   6.092  18.453  1.00  0.00     0.054 A 
BRANCH  88  89
ATOM     89  S   UNL     1      11.751   6.803  19.975  1.00  0.00     0.124 S 
ATOM     90  O   UNL     1      11.729   8.233  19.682  1.00  0.00    -0.237 OA
ATOM     91  O   UNL     1      10.802   6.353  20.991  1.00  0.00    -0.237 OA
ATOM     92  O   UNL     1      13.081   6.205  20.067  1.00  0.00    -0.744 OA
ENDBRANCH  88  89
ENDBRANCH  62  83
ENDBRANCH  36  37
ENDBRANCH  29  31
ENDBRANCH  28  29
ENDBRANCH  27  28
ENDBRANCH   1  27
TORSDOF 20
