REMARK SMILES CCc1nc2sc(C(=O)NCC(=O)OCCOCCOC(=O)c3ccc(-c4c5nc(c(-c6ccc(S(=O)(=O)[O-])cc6)c6ccc([nH]6)c(-c6ccc(S(=O)(=O)[O-])cc6)c6nc(c(-c7ccc(S(=O)(=O)[O-])cc7)c7ccc4[nH]7)C=C6)C=C5)cc3)c(N)c2c(C(F)(F)F)c1C
REMARK SMILES IDX 17 1 16 2 15 3 14 4 12 5 13 6 11 7 10 8 8 9 9 10 7 12 3 13
REMARK SMILES IDX 4 14 91 15 5 16 86 17 92 18 6 19 85 20 83 21 2 22 1 23 87 24
REMARK SMILES IDX 88 25 89 26 90 27 84 28 18 31 19 32 20 33 21 34 22 35 23 36
REMARK SMILES IDX 24 37 82 38 25 39 81 40 26 41 27 42 28 43 75 44 29 45 80 46
REMARK SMILES IDX 74 47 76 48 30 49 79 50 73 51 72 52 31 54 61 55 42 56 60 57
REMARK SMILES IDX 43 58 46 59 59 60 77 61 44 62 45 63 58 65 78 66 47 67 32 68
REMARK SMILES IDX 33 69 41 70 34 71 40 72 35 73 36 74 37 75 38 76 39 77 62 78
REMARK SMILES IDX 63 79 71 80 64 81 70 82 65 83 66 84 67 85 68 86 69 87 48 88
REMARK SMILES IDX 49 89 57 90 50 91 56 92 51 93 52 94 53 95 54 96 55 97
REMARK H PARENT 10 11 84 29 84 30 76 53 46 64
REMARK Flexibility Score: inf
ROOT
ATOM      1  O   UNL     1       1.651  -7.922   9.360  1.00  0.00    -0.374 OA
ENDROOT
BRANCH   1   2
ATOM      2  C   UNL     1       0.502  -7.271   8.826  1.00  0.00     0.202 C 
BRANCH   2   3
ATOM      3  C   UNL     1       0.662  -6.356   7.609  1.00  0.00     0.261 C 
BRANCH   3   4
ATOM      4  O   UNL     1       1.075  -7.071   6.431  1.00  0.00    -0.462 OA
BRANCH   4   5
ATOM      5  C   UNL     1       2.372  -6.888   6.066  1.00  0.00     0.325 C 
ATOM      6  O   UNL     1       3.155  -6.138   6.645  1.00  0.00    -0.250 OA
BRANCH   5   7
ATOM      7  C   UNL     1       2.826  -7.866   4.977  1.00  0.00     0.239 C 
BRANCH   7   8
ATOM      8  N   UNL     1       1.827  -8.391   4.072  1.00  0.00    -0.340 N 
ATOM      9  C   UNL     1       1.306  -7.893   2.901  1.00  0.00     0.264 C 
ATOM     10  O   UNL     1       0.660  -8.734   2.264  1.00  0.00    -0.268 OA
ATOM     11  H   UNL     1       1.454  -9.261   4.342  1.00  0.00     0.164 HD
BRANCH   9  12
ATOM     12  C   UNL     1       1.458  -6.505   2.454  1.00  0.00     0.118 A 
ATOM     13  C   UNL     1       1.031  -2.265   0.357  1.00  0.00     0.045 A 
ATOM     14  N   UNL     1       0.673  -3.560   0.167  1.00  0.00    -0.242 NA
ATOM     15  C   UNL     1       1.817  -1.844   1.447  1.00  0.00    -0.017 A 
ATOM     16  C   UNL     1       1.076  -4.447   1.084  1.00  0.00     0.127 A 
ATOM     17  C   UNL     1       2.197  -2.810   2.429  1.00  0.00     0.073 A 
ATOM     18  C   UNL     1       2.278  -0.433   1.684  1.00  0.00     0.047 C 
ATOM     19  S   UNL     1       0.669  -6.091   0.958  1.00  0.00    -0.108 S 
ATOM     20  C   UNL     1       1.821  -4.164   2.203  1.00  0.00     0.048 A 
ATOM     21  C   UNL     1       2.075  -5.367   2.941  1.00  0.00     0.066 A 
BRANCH  13  22
ATOM     22  C   UNL     1       0.435  -1.426  -0.753  1.00  0.00     0.053 C 
ATOM     23  C   UNL     1       0.532   0.085  -0.809  1.00  0.00     0.011 C 
ENDBRANCH  13  22
BRANCH  17  24
ATOM     24  C   UNL     1       2.961  -2.466   3.695  1.00  0.00     0.417 C 
ATOM     25  F   UNL     1       2.312  -2.892   4.823  1.00  0.00    -0.166 F 
ATOM     26  F   UNL     1       4.194  -3.055   3.732  1.00  0.00    -0.166 F 
ATOM     27  F   UNL     1       3.200  -1.147   3.930  1.00  0.00    -0.166 F 
ENDBRANCH  17  24
BRANCH  21  28
ATOM     28  N   UNL     1       2.849  -5.293   4.035  1.00  0.00    -0.397 N 
ATOM     29  H   UNL     1       3.038  -6.105   4.559  1.00  0.00     0.156 HD
ATOM     30  H   UNL     1       3.226  -4.428   4.314  1.00  0.00     0.156 HD
ENDBRANCH  21  28
ENDBRANCH   9  12
ENDBRANCH   7   8
ENDBRANCH   5   7
ENDBRANCH   4   5
ENDBRANCH   3   4
ENDBRANCH   2   3
ENDBRANCH   1   2
BRANCH   1  31
ATOM     31  C   UNL     1       2.424  -8.809   8.569  1.00  0.00     0.202 C 
BRANCH  31  32
ATOM     32  C   UNL     1       1.805 -10.068   7.963  1.00  0.00     0.261 C 
BRANCH  32  33
ATOM     33  O   UNL     1       0.591  -9.888   7.243  1.00  0.00    -0.460 OA
BRANCH  33  34
ATOM     34  C   UNL     1      -0.489 -10.260   7.978  1.00  0.00     0.338 C 
ATOM     35  O   UNL     1      -0.557 -10.272   9.193  1.00  0.00    -0.246 OA
BRANCH  34  36
ATOM     36  C   UNL     1      -1.527 -10.844   7.115  1.00  0.00     0.060 A 
ATOM     37  C   UNL     1      -2.661 -11.326   7.769  1.00  0.00     0.016 A 
ATOM     38  C   UNL     1      -1.295 -11.123   5.759  1.00  0.00     0.016 A 
ATOM     39  C   UNL     1      -3.477 -12.221   7.110  1.00  0.00     0.010 A 
ATOM     40  C   UNL     1      -2.123 -12.016   5.096  1.00  0.00     0.010 A 
ATOM     41  C   UNL     1      -3.170 -12.609   5.796  1.00  0.00    -0.014 A 
BRANCH  41  42
ATOM     42  C   UNL     1      -4.100 -13.517   5.145  1.00  0.00     0.031 A 
ATOM     43  C   UNL     1      -5.452 -12.930   5.018  1.00  0.00     0.074 A 
ATOM     44  C   UNL     1      -3.819 -14.755   4.694  1.00  0.00     0.049 A 
ATOM     45  N   UNL     1      -6.466 -13.189   5.774  1.00  0.00    -0.248 NA
ATOM     46  C   UNL     1      -5.646 -11.790   4.112  1.00  0.00     0.031 C 
ATOM     47  C   UNL     1      -2.520 -15.413   4.563  1.00  0.00     0.029 A 
ATOM     48  N   UNL     1      -4.680 -15.681   4.183  1.00  0.00    -0.354 N 
ATOM     49  C   UNL     1      -7.506 -12.419   5.280  1.00  0.00     0.074 A 
ATOM     50  C   UNL     1      -6.905 -11.449   4.396  1.00  0.00     0.031 C 
ATOM     51  C   UNL     1      -2.657 -16.526   3.800  1.00  0.00     0.029 A 
ATOM     52  C   UNL     1      -4.068 -16.738   3.517  1.00  0.00     0.049 A 
ATOM     53  H   UNL     1      -5.657 -15.608   4.278  1.00  0.00     0.167 HD
ATOM     54  C   UNL     1      -8.795 -12.827   5.420  1.00  0.00     0.031 A 
ATOM     55  C   UNL     1      -4.680 -17.696   2.769  1.00  0.00     0.031 A 
ATOM     56  C   UNL     1      -8.928 -13.855   6.422  1.00  0.00     0.049 A 
ATOM     57  C   UNL     1      -6.079 -17.789   3.255  1.00  0.00     0.074 A 
ATOM     58  C   UNL     1      -8.615 -13.952   7.764  1.00  0.00     0.029 A 
ATOM     59  N   UNL     1      -9.085 -15.147   5.974  1.00  0.00    -0.354 N 
ATOM     60  N   UNL     1      -6.392 -18.230   4.442  1.00  0.00    -0.248 NA
ATOM     61  C   UNL     1      -7.085 -16.962   2.607  1.00  0.00     0.031 C 
ATOM     62  C   UNL     1      -8.133 -15.282   7.933  1.00  0.00     0.029 A 
ATOM     63  C   UNL     1      -8.250 -15.943   6.709  1.00  0.00     0.049 A 
ATOM     64  H   UNL     1      -9.689 -15.444   5.255  1.00  0.00     0.167 HD
ATOM     65  C   UNL     1      -7.406 -17.386   4.870  1.00  0.00     0.074 A 
ATOM     66  C   UNL     1      -7.846 -16.678   3.668  1.00  0.00     0.031 C 
ATOM     67  C   UNL     1      -7.608 -17.135   6.197  1.00  0.00     0.031 A 
BRANCH  54  68
ATOM     68  C   UNL     1      -9.821 -12.642   4.332  1.00  0.00    -0.014 A 
ATOM     69  C   UNL     1     -11.137 -13.085   4.568  1.00  0.00     0.010 A 
ATOM     70  C   UNL     1      -9.468 -12.347   2.998  1.00  0.00     0.010 A 
ATOM     71  C   UNL     1     -12.025 -13.303   3.509  1.00  0.00     0.020 A 
ATOM     72  C   UNL     1     -10.361 -12.517   1.942  1.00  0.00     0.020 A 
ATOM     73  C   UNL     1     -11.624 -13.028   2.202  1.00  0.00     0.054 A 
BRANCH  73  74
ATOM     74  S   UNL     1     -12.746 -13.404   0.837  1.00  0.00     0.124 S 
ATOM     75  O   UNL     1     -12.844 -14.857   0.921  1.00  0.00    -0.237 OA
ATOM     76  O   UNL     1     -13.946 -12.662   1.216  1.00  0.00    -0.237 OA
ATOM     77  O   UNL     1     -12.044 -12.887  -0.335  1.00  0.00    -0.744 OA
ENDBRANCH  73  74
ENDBRANCH  54  68
BRANCH  55  78
ATOM     78  C   UNL     1      -4.243 -18.268   1.464  1.00  0.00    -0.014 A 
ATOM     79  C   UNL     1      -4.965 -19.311   0.845  1.00  0.00     0.010 A 
ATOM     80  C   UNL     1      -3.287 -17.594   0.679  1.00  0.00     0.010 A 
ATOM     81  C   UNL     1      -4.788 -19.614  -0.520  1.00  0.00     0.020 A 
ATOM     82  C   UNL     1      -3.099 -17.895  -0.678  1.00  0.00     0.020 A 
ATOM     83  C   UNL     1      -3.870 -18.886  -1.279  1.00  0.00     0.054 A 
BRANCH  83  84
ATOM     84  S   UNL     1      -3.769 -19.158  -3.076  1.00  0.00     0.124 S 
ATOM     85  O   UNL     1      -3.217 -20.507  -3.159  1.00  0.00    -0.237 OA
ATOM     86  O   UNL     1      -5.160 -19.018  -3.498  1.00  0.00    -0.237 OA
ATOM     87  O   UNL     1      -2.876 -18.096  -3.537  1.00  0.00    -0.744 OA
ENDBRANCH  83  84
ENDBRANCH  55  78
BRANCH  67  88
ATOM     88  C   UNL     1      -6.940 -18.010   7.230  1.00  0.00    -0.014 A 
ATOM     89  C   UNL     1      -5.546 -18.093   7.411  1.00  0.00     0.010 A 
ATOM     90  C   UNL     1      -7.780 -18.598   8.194  1.00  0.00     0.010 A 
ATOM     91  C   UNL     1      -5.012 -18.739   8.540  1.00  0.00     0.020 A 
ATOM     92  C   UNL     1      -7.256 -19.224   9.325  1.00  0.00     0.020 A 
ATOM     93  C   UNL     1      -5.874 -19.289   9.496  1.00  0.00     0.054 A 
BRANCH  93  94
ATOM     94  S   UNL     1      -5.187 -20.029  11.006  1.00  0.00     0.124 S 
ATOM     95  O   UNL     1      -4.490 -21.206  10.496  1.00  0.00    -0.237 OA
ATOM     96  O   UNL     1      -4.330 -18.966  11.526  1.00  0.00    -0.237 OA
ATOM     97  O   UNL     1      -6.367 -20.315  11.822  1.00  0.00    -0.744 OA
ENDBRANCH  93  94
ENDBRANCH  67  88
ENDBRANCH  41  42
ENDBRANCH  34  36
ENDBRANCH  33  34
ENDBRANCH  32  33
ENDBRANCH  31  32
ENDBRANCH   1  31
TORSDOF 22
