REMARK SMILES Cn1ncc(C(=O)OCCOCCOC(=O)c2ccc(-c3c4nc(c(-c5ccc(S(=O)(=O)[O-])cc5)c5ccc([nH]5)c(-c5ccc(S(=O)(=O)[O-])cc5)c5nc(c(-c6ccc(S(=O)(=O)[O-])cc6)c6ccc3[nH]6)C=C5)C=C4)cc2)c1C(=O)Nc1ccccn1
REMARK SMILES IDX 12 1 11 2 10 3 9 4 8 5 6 6 7 7 5 8 1 9 2 10 3 11 77 12 4 13
REMARK SMILES IDX 78 14 79 15 80 16 81 18 82 19 86 20 83 21 85 22 84 23 13 24
REMARK SMILES IDX 14 25 15 26 16 27 17 28 18 29 76 30 19 31 75 32 20 33 21 34
REMARK SMILES IDX 22 35 69 36 23 37 74 38 68 39 70 40 24 41 73 42 67 43 66 44
REMARK SMILES IDX 25 46 55 47 36 48 54 49 37 50 40 51 53 52 71 53 38 54 39 55
REMARK SMILES IDX 52 57 72 58 41 59 26 60 27 61 35 62 28 63 34 64 29 65 30 66
REMARK SMILES IDX 31 67 32 68 33 69 56 70 57 71 65 72 58 73 64 74 59 75 60 76
REMARK SMILES IDX 61 77 62 78 63 79 42 80 43 81 51 82 44 83 50 84 45 85 46 86
REMARK SMILES IDX 47 87 48 88 49 89
REMARK H PARENT 80 17 70 45 40 56
REMARK Flexibility Score: inf
ROOT
ATOM      1  C   UNL     1       3.777  -1.342  -2.122  1.00  0.00     0.202 C 
ENDROOT
BRANCH   1   2
ATOM      2  O   UNL     1       4.905  -1.917  -1.456  1.00  0.00    -0.374 OA
BRANCH   2   3
ATOM      3  C   UNL     1       4.688  -3.170  -0.799  1.00  0.00     0.202 C 
BRANCH   3   4
ATOM      4  C   UNL     1       4.100  -3.052   0.607  1.00  0.00     0.261 C 
BRANCH   4   5
ATOM      5  O   UNL     1       2.780  -2.493   0.526  1.00  0.00    -0.460 OA
BRANCH   5   6
ATOM      6  C   UNL     1       2.606  -1.313   1.170  1.00  0.00     0.342 C 
ATOM      7  O   UNL     1       3.421  -0.807   1.935  1.00  0.00    -0.246 OA
BRANCH   6   8
ATOM      8  C   UNL     1       1.435  -0.571   0.741  1.00  0.00     0.111 A 
ATOM      9  C   UNL     1      -1.754   0.691   1.253  1.00  0.00     0.174 C 
ATOM     10  N   UNL     1      -0.543   0.281   0.575  1.00  0.00    -0.262 N 
ATOM     11  N   UNL     1       0.262   1.284   0.161  1.00  0.00    -0.180 NA
ATOM     12  C   UNL     1       0.090  -0.950   0.597  1.00  0.00     0.140 A 
ATOM     13  C   UNL     1       1.474   0.798   0.406  1.00  0.00     0.151 A 
BRANCH  12  14
ATOM     14  C   UNL     1      -0.465  -2.287   0.728  1.00  0.00     0.275 C 
ATOM     15  O   UNL     1       0.242  -3.229   1.092  1.00  0.00    -0.267 OA
ATOM     16  N   UNL     1      -1.789  -2.595   0.566  1.00  0.00    -0.305 N 
ATOM     17  H   UNL     1      -2.004  -3.500   0.889  1.00  0.00     0.171 HD
BRANCH  16  18
ATOM     18  C   UNL     1      -2.898  -1.942   0.057  1.00  0.00     0.132 A 
ATOM     19  C   UNL     1      -2.880  -1.128  -1.064  1.00  0.00     0.047 A 
ATOM     20  N   UNL     1      -4.011  -2.147   0.791  1.00  0.00    -0.239 NA
ATOM     21  C   UNL     1      -4.047  -0.429  -1.389  1.00  0.00     0.005 A 
ATOM     22  C   UNL     1      -5.115  -1.440   0.477  1.00  0.00     0.113 A 
ATOM     23  C   UNL     1      -5.177  -0.562  -0.588  1.00  0.00     0.020 A 
ENDBRANCH  16  18
ENDBRANCH  12  14
ENDBRANCH   6   8
ENDBRANCH   5   6
ENDBRANCH   4   5
ENDBRANCH   3   4
ENDBRANCH   2   3
ENDBRANCH   1   2
BRANCH   1  24
ATOM     24  C   UNL     1       3.492  -1.892  -3.522  1.00  0.00     0.261 C 
BRANCH  24  25
ATOM     25  O   UNL     1       2.956  -3.226  -3.457  1.00  0.00    -0.460 OA
BRANCH  25  26
ATOM     26  C   UNL     1       3.788  -4.199  -3.901  1.00  0.00     0.338 C 
ATOM     27  O   UNL     1       4.869  -4.046  -4.444  1.00  0.00    -0.246 OA
BRANCH  26  28
ATOM     28  C   UNL     1       3.291  -5.522  -3.471  1.00  0.00     0.060 A 
ATOM     29  C   UNL     1       4.222  -6.401  -2.901  1.00  0.00     0.016 A 
ATOM     30  C   UNL     1       1.965  -5.921  -3.658  1.00  0.00     0.016 A 
ATOM     31  C   UNL     1       3.844  -7.698  -2.565  1.00  0.00     0.010 A 
ATOM     32  C   UNL     1       1.590  -7.229  -3.330  1.00  0.00     0.010 A 
ATOM     33  C   UNL     1       2.536  -8.133  -2.815  1.00  0.00    -0.014 A 
BRANCH  33  34
ATOM     34  C   UNL     1       2.212  -9.573  -2.674  1.00  0.00     0.031 A 
ATOM     35  C   UNL     1       2.258 -10.451  -3.896  1.00  0.00     0.074 A 
ATOM     36  C   UNL     1       1.923 -10.101  -1.472  1.00  0.00     0.049 A 
ATOM     37  N   UNL     1       2.025 -11.734  -4.001  1.00  0.00    -0.248 NA
ATOM     38  C   UNL     1       2.618  -9.797  -5.165  1.00  0.00     0.031 C 
ATOM     39  C   UNL     1       1.884  -9.363  -0.210  1.00  0.00     0.029 A 
ATOM     40  N   UNL     1       1.607 -11.389  -1.119  1.00  0.00    -0.354 N 
ATOM     41  C   UNL     1       2.210 -12.041  -5.344  1.00  0.00     0.074 A 
ATOM     42  C   UNL     1       2.548 -10.807  -6.019  1.00  0.00     0.031 C 
ATOM     43  C   UNL     1       1.558 -10.212   0.781  1.00  0.00     0.029 A 
ATOM     44  C   UNL     1       1.340 -11.545   0.220  1.00  0.00     0.049 A 
ATOM     45  H   UNL     1       1.575 -12.132  -1.765  1.00  0.00     0.167 HD
ATOM     46  C   UNL     1       2.113 -13.243  -5.960  1.00  0.00     0.031 A 
ATOM     47  C   UNL     1       0.951 -12.634   0.911  1.00  0.00     0.031 A 
ATOM     48  C   UNL     1       1.761 -14.468  -5.294  1.00  0.00     0.049 A 
ATOM     49  C   UNL     1       0.779 -13.946   0.191  1.00  0.00     0.074 A 
ATOM     50  C   UNL     1       1.647 -15.739  -5.831  1.00  0.00     0.029 A 
ATOM     51  N   UNL     1       1.458 -14.575  -3.946  1.00  0.00    -0.354 N 
ATOM     52  N   UNL     1       0.983 -14.224  -1.075  1.00  0.00    -0.248 NA
ATOM     53  C   UNL     1       0.328 -15.091   0.995  1.00  0.00     0.031 C 
ATOM     54  C   UNL     1       1.229 -16.606  -4.816  1.00  0.00     0.029 A 
ATOM     55  C   UNL     1       1.130 -15.884  -3.637  1.00  0.00     0.049 A 
ATOM     56  H   UNL     1       1.472 -13.830  -3.302  1.00  0.00     0.167 HD
ATOM     57  C   UNL     1       0.705 -15.581  -1.214  1.00  0.00     0.074 A 
ATOM     58  C   UNL     1       0.331 -16.069   0.098  1.00  0.00     0.031 C 
ATOM     59  C   UNL     1       0.756 -16.353  -2.327  1.00  0.00     0.031 A 
BRANCH  46  60
ATOM     60  C   UNL     1       2.365 -13.282  -7.442  1.00  0.00    -0.014 A 
ATOM     61  C   UNL     1       3.668 -13.172  -7.959  1.00  0.00     0.010 A 
ATOM     62  C   UNL     1       1.287 -13.461  -8.327  1.00  0.00     0.010 A 
ATOM     63  C   UNL     1       3.885 -13.205  -9.339  1.00  0.00     0.020 A 
ATOM     64  C   UNL     1       1.502 -13.516  -9.707  1.00  0.00     0.020 A 
ATOM     65  C   UNL     1       2.799 -13.371 -10.205  1.00  0.00     0.054 A 
BRANCH  65  66
ATOM     66  S   UNL     1       3.107 -13.427 -11.992  1.00  0.00     0.124 S 
ATOM     67  O   UNL     1       3.355 -12.020 -12.298  1.00  0.00    -0.237 OA
ATOM     68  O   UNL     1       4.270 -14.305 -12.091  1.00  0.00    -0.237 OA
ATOM     69  O   UNL     1       1.869 -13.975 -12.540  1.00  0.00    -0.744 OA
ENDBRANCH  65  66
ENDBRANCH  46  60
BRANCH  47  70
ATOM     70  C   UNL     1       0.671 -12.528   2.368  1.00  0.00    -0.014 A 
ATOM     71  C   UNL     1       1.534 -13.115   3.310  1.00  0.00     0.010 A 
ATOM     72  C   UNL     1      -0.470 -11.841   2.820  1.00  0.00     0.010 A 
ATOM     73  C   UNL     1       1.252 -13.030   4.677  1.00  0.00     0.020 A 
ATOM     74  C   UNL     1      -0.743 -11.734   4.186  1.00  0.00     0.020 A 
ATOM     75  C   UNL     1       0.114 -12.340   5.106  1.00  0.00     0.054 A 
BRANCH  75  76
ATOM     76  S   UNL     1      -0.212 -12.201   6.886  1.00  0.00     0.124 S 
ATOM     77  O   UNL     1      -0.740 -13.524   7.202  1.00  0.00    -0.237 OA
ATOM     78  O   UNL     1       1.110 -11.900   7.429  1.00  0.00    -0.237 OA
ATOM     79  O   UNL     1      -1.175 -11.105   6.970  1.00  0.00    -0.744 OA
ENDBRANCH  75  76
ENDBRANCH  47  70
BRANCH  59  80
ATOM     80  C   UNL     1       0.423 -17.812  -2.176  1.00  0.00    -0.014 A 
ATOM     81  C   UNL     1      -0.907 -18.239  -2.014  1.00  0.00     0.010 A 
ATOM     82  C   UNL     1       1.448 -18.773  -2.255  1.00  0.00     0.010 A 
ATOM     83  C   UNL     1      -1.203 -19.601  -1.910  1.00  0.00     0.020 A 
ATOM     84  C   UNL     1       1.153 -20.136  -2.174  1.00  0.00     0.020 A 
ATOM     85  C   UNL     1      -0.171 -20.541  -1.988  1.00  0.00     0.054 A 
BRANCH  85  86
ATOM     86  S   UNL     1      -0.583 -22.305  -1.898  1.00  0.00     0.124 S 
ATOM     87  O   UNL     1      -0.818 -22.490  -0.469  1.00  0.00    -0.237 OA
ATOM     88  O   UNL     1      -1.768 -22.404  -2.748  1.00  0.00    -0.237 OA
ATOM     89  O   UNL     1       0.609 -22.966  -2.425  1.00  0.00    -0.744 OA
ENDBRANCH  85  86
ENDBRANCH  59  80
ENDBRANCH  33  34
ENDBRANCH  26  28
ENDBRANCH  25  26
ENDBRANCH  24  25
ENDBRANCH   1  24
TORSDOF 19
