REMARK SMILES O=C(OCCOCCOC(=O)c1ccc2c(c1)[C@@H]1C=CC[C@@H]1[C@H](c1ccncc1)N2)c1ccc(-c2c3nc(c(-c4ccc(S(=O)(=O)[O-])cc4)c4ccc([nH]4)c(-c4ccc(S(=O)(=O)[O-])cc4)c4nc(c(-c5ccc(S(=O)(=O)[O-])cc5)c5ccc2[nH]5)C=C4)C=C3)cc1
REMARK SMILES IDX 5 1 4 2 3 3 2 4 1 5 31 6 32 7 90 8 33 9 89 10 34 11 35 12
REMARK SMILES IDX 36 13 83 14 37 15 88 16 82 17 84 18 38 19 87 20 81 21 80 22
REMARK SMILES IDX 39 24 69 25 50 26 68 27 51 28 54 29 67 30 85 31 52 32 53 33
REMARK SMILES IDX 66 35 86 36 55 37 40 38 41 39 49 40 42 41 48 42 43 43 44 44
REMARK SMILES IDX 45 45 46 46 47 47 70 48 71 49 79 50 72 51 78 52 73 53 74 54
REMARK SMILES IDX 75 55 76 56 77 57 56 58 57 59 65 60 58 61 64 62 59 63 60 64
REMARK SMILES IDX 61 65 62 66 63 67 6 68 7 69 8 70 9 71 10 72 11 73 12 74
REMARK SMILES IDX 13 75 17 76 14 77 16 78 15 79 18 80 30 81 19 82 22 83 23 84
REMARK SMILES IDX 20 86 21 87 24 88 25 89 29 90 26 91 28 92 27 93
REMARK H PARENT 84 23 54 34 30 85
REMARK Flexibility Score: inf
ROOT
ATOM      1  C   UNL     1       4.245   1.545  -0.767  1.00  0.00     0.202 C 
ENDROOT
BRANCH   1   2
ATOM      2  C   UNL     1       3.871   0.218  -1.435  1.00  0.00     0.261 C 
BRANCH   2   3
ATOM      3  O   UNL     1       2.520  -0.148  -1.106  1.00  0.00    -0.460 OA
BRANCH   3   4
ATOM      4  C   UNL     1       2.099  -1.149  -0.295  1.00  0.00     0.338 C 
ATOM      5  O   UNL     1       0.897  -1.412  -0.264  1.00  0.00    -0.246 OA
BRANCH   4   6
ATOM      6  C   UNL     1       3.015  -1.945   0.578  1.00  0.00     0.060 A 
ATOM      7  C   UNL     1       4.242  -1.488   1.055  1.00  0.00     0.016 A 
ATOM      8  C   UNL     1       2.566  -3.200   1.025  1.00  0.00     0.016 A 
ATOM      9  C   UNL     1       5.037  -2.263   1.880  1.00  0.00     0.010 A 
ATOM     10  C   UNL     1       3.334  -3.968   1.910  1.00  0.00     0.010 A 
ATOM     11  C   UNL     1       4.582  -3.499   2.331  1.00  0.00    -0.014 A 
BRANCH  11  12
ATOM     12  C   UNL     1       5.496  -4.267   3.195  1.00  0.00     0.031 A 
ATOM     13  C   UNL     1       6.246  -5.420   2.605  1.00  0.00     0.074 A 
ATOM     14  C   UNL     1       5.780  -3.787   4.422  1.00  0.00     0.049 A 
ATOM     15  N   UNL     1       7.151  -6.180   3.158  1.00  0.00    -0.248 NA
ATOM     16  C   UNL     1       5.960  -5.746   1.197  1.00  0.00     0.031 C 
ATOM     17  C   UNL     1       5.176  -2.588   5.017  1.00  0.00     0.029 A 
ATOM     18  N   UNL     1       6.684  -4.201   5.362  1.00  0.00    -0.354 N 
ATOM     19  C   UNL     1       7.536  -7.079   2.173  1.00  0.00     0.074 A 
ATOM     20  C   UNL     1       6.759  -6.782   0.991  1.00  0.00     0.031 C 
ATOM     21  C   UNL     1       5.763  -2.339   6.198  1.00  0.00     0.029 A 
ATOM     22  C   UNL     1       6.727  -3.395   6.476  1.00  0.00     0.049 A 
ATOM     23  H   UNL     1       7.250  -4.998   5.251  1.00  0.00     0.167 HD
ATOM     24  C   UNL     1       8.458  -8.066   2.257  1.00  0.00     0.031 A 
ATOM     25  C   UNL     1       7.449  -3.519   7.607  1.00  0.00     0.031 A 
ATOM     26  C   UNL     1       9.197  -8.350   3.456  1.00  0.00     0.049 A 
ATOM     27  C   UNL     1       8.388  -4.689   7.709  1.00  0.00     0.074 A 
ATOM     28  C   UNL     1      10.077  -9.386   3.706  1.00  0.00     0.029 A 
ATOM     29  N   UNL     1       9.141  -7.580   4.610  1.00  0.00    -0.354 N 
ATOM     30  N   UNL     1       8.676  -5.593   6.800  1.00  0.00    -0.248 NA
ATOM     31  C   UNL     1       9.088  -4.869   8.985  1.00  0.00     0.031 C 
ATOM     32  C   UNL     1      10.522  -9.264   5.028  1.00  0.00     0.029 A 
ATOM     33  C   UNL     1       9.962  -8.122   5.582  1.00  0.00     0.049 A 
ATOM     34  H   UNL     1       8.597  -6.767   4.721  1.00  0.00     0.167 HD
ATOM     35  C   UNL     1       9.592  -6.450   7.395  1.00  0.00     0.074 A 
ATOM     36  C   UNL     1       9.838  -5.931   8.727  1.00  0.00     0.031 C 
ATOM     37  C   UNL     1      10.169  -7.573   6.898  1.00  0.00     0.031 A 
BRANCH  24  38
ATOM     38  C   UNL     1       8.648  -8.932   1.043  1.00  0.00    -0.014 A 
ATOM     39  C   UNL     1       9.326  -8.458  -0.095  1.00  0.00     0.010 A 
ATOM     40  C   UNL     1       8.122 -10.236   1.033  1.00  0.00     0.010 A 
ATOM     41  C   UNL     1       9.445  -9.262  -1.233  1.00  0.00     0.020 A 
ATOM     42  C   UNL     1       8.257 -11.051  -0.094  1.00  0.00     0.020 A 
ATOM     43  C   UNL     1       8.904 -10.552  -1.227  1.00  0.00     0.054 A 
BRANCH  43  44
ATOM     44  S   UNL     1       9.075 -11.576  -2.715  1.00  0.00     0.124 S 
ATOM     45  O   UNL     1       8.136 -10.936  -3.631  1.00  0.00    -0.237 OA
ATOM     46  O   UNL     1      10.487 -11.418  -3.052  1.00  0.00    -0.237 OA
ATOM     47  O   UNL     1       8.691 -12.912  -2.263  1.00  0.00    -0.744 OA
ENDBRANCH  43  44
ENDBRANCH  24  38
BRANCH  25  48
ATOM     48  C   UNL     1       7.244  -2.578   8.745  1.00  0.00    -0.014 A 
ATOM     49  C   UNL     1       8.278  -1.749   9.214  1.00  0.00     0.010 A 
ATOM     50  C   UNL     1       5.994  -2.530   9.393  1.00  0.00     0.010 A 
ATOM     51  C   UNL     1       8.076  -0.919  10.325  1.00  0.00     0.020 A 
ATOM     52  C   UNL     1       5.777  -1.679  10.479  1.00  0.00     0.020 A 
ATOM     53  C   UNL     1       6.827  -0.894  10.953  1.00  0.00     0.054 A 
BRANCH  53  54
ATOM     54  S   UNL     1       6.577   0.190  12.387  1.00  0.00     0.124 S 
ATOM     55  O   UNL     1       7.275  -0.538  13.442  1.00  0.00    -0.237 OA
ATOM     56  O   UNL     1       7.203   1.438  11.958  1.00  0.00    -0.237 OA
ATOM     57  O   UNL     1       5.122   0.247  12.523  1.00  0.00    -0.744 OA
ENDBRANCH  53  54
ENDBRANCH  25  48
BRANCH  37  58
ATOM     58  C   UNL     1      11.129  -8.291   7.804  1.00  0.00    -0.014 A 
ATOM     59  C   UNL     1      10.666  -9.027   8.909  1.00  0.00     0.010 A 
ATOM     60  C   UNL     1      12.506  -8.253   7.524  1.00  0.00     0.010 A 
ATOM     61  C   UNL     1      11.572  -9.681   9.745  1.00  0.00     0.020 A 
ATOM     62  C   UNL     1      13.411  -8.930   8.341  1.00  0.00     0.020 A 
ATOM     63  C   UNL     1      12.939  -9.624   9.457  1.00  0.00     0.054 A 
BRANCH  63  64
ATOM     64  S   UNL     1      14.095 -10.504  10.541  1.00  0.00     0.124 S 
ATOM     65  O   UNL     1      14.152  -9.622  11.703  1.00  0.00    -0.237 OA
ATOM     66  O   UNL     1      13.425 -11.785  10.755  1.00  0.00    -0.237 OA
ATOM     67  O   UNL     1      15.322 -10.576   9.750  1.00  0.00    -0.744 OA
ENDBRANCH  63  64
ENDBRANCH  37  58
ENDBRANCH  11  12
ENDBRANCH   4   6
ENDBRANCH   3   4
ENDBRANCH   2   3
ENDBRANCH   1   2
BRANCH   1  68
ATOM     68  O   UNL     1       4.127   1.547   0.654  1.00  0.00    -0.374 OA
BRANCH  68  69
ATOM     69  C   UNL     1       2.833   1.861   1.180  1.00  0.00     0.202 C 
BRANCH  69  70
ATOM     70  C   UNL     1       2.989   2.847   2.343  1.00  0.00     0.261 C 
BRANCH  70  71
ATOM     71  O   UNL     1       3.538   4.069   1.825  1.00  0.00    -0.460 OA
BRANCH  71  72
ATOM     72  C   UNL     1       4.892   4.081   1.711  1.00  0.00     0.338 C 
ATOM     73  O   UNL     1       5.701   3.420   2.338  1.00  0.00    -0.246 OA
BRANCH  72  74
ATOM     74  C   UNL     1       5.218   4.871   0.506  1.00  0.00     0.060 A 
ATOM     75  C   UNL     1       6.210   4.409  -0.360  1.00  0.00     0.018 A 
ATOM     76  C   UNL     1       4.472   6.001   0.173  1.00  0.00     0.022 A 
ATOM     77  C   UNL     1       6.435   5.066  -1.572  1.00  0.00     0.027 A 
ATOM     78  C   UNL     1       4.702   6.670  -1.037  1.00  0.00    -0.017 A 
ATOM     79  C   UNL     1       5.714   6.221  -1.904  1.00  0.00     0.038 A 
ATOM     80  C   UNL     1       3.870   7.887  -1.362  1.00  0.00     0.049 C 
ATOM     81  N   UNL     1       5.987   6.885  -3.101  1.00  0.00    -0.378 N 
ATOM     82  C   UNL     1       2.400   7.589  -1.491  1.00  0.00    -0.023 C 
ATOM     83  C   UNL     1       4.175   8.511  -2.733  1.00  0.00     0.031 C 
ATOM     84  C   UNL     1       5.633   8.297  -3.146  1.00  0.00     0.114 C 
ATOM     85  H   UNL     1       6.395   6.426  -3.870  1.00  0.00     0.161 HD
ATOM     86  C   UNL     1       1.984   7.634  -2.762  1.00  0.00    -0.030 C 
ATOM     87  C   UNL     1       3.110   7.953  -3.692  1.00  0.00     0.034 C 
BRANCH  84  88
ATOM     88  C   UNL     1       5.954   8.957  -4.476  1.00  0.00    -0.022 A 
ATOM     89  C   UNL     1       5.959  10.359  -4.540  1.00  0.00     0.026 A 
ATOM     90  C   UNL     1       6.237   8.254  -5.651  1.00  0.00     0.026 A 
ATOM     91  C   UNL     1       6.241  10.983  -5.743  1.00  0.00     0.111 A 
ATOM     92  C   UNL     1       6.524   8.970  -6.805  1.00  0.00     0.111 A 
ATOM     93  N   UNL     1       6.530  10.318  -6.879  1.00  0.00    -0.265 NA
ENDBRANCH  84  88
ENDBRANCH  72  74
ENDBRANCH  71  72
ENDBRANCH  70  71
ENDBRANCH  69  70
ENDBRANCH  68  69
ENDBRANCH   1  68
TORSDOF 18
