REMARK SMILES Cc1cc(/C=C2\C(=O)N(Cc3ccco3)C(=O)N=C2OCCOCCOC(=O)c2ccc(-c3c4nc(c(-c5ccc(S(=O)(=O)[O-])cc5)c5ccc([nH]5)c(-c5ccc(S(=O)(=O)[O-])cc5)c5nc(c(-c6ccc(S(=O)(=O)[O-])cc6)c6ccc3[nH]6)C=C5)C=C4)cc2)c(C)n1-c1ccc(Cl)c(C(=O)[O-])c1
REMARK SMILES IDX 24 1 23 2 22 3 21 4 20 5 19 6 5 7 6 8 7 9 8 10 9 11 18 12
REMARK SMILES IDX 16 13 17 14 4 15 1 16 2 17 3 18 91 19 89 20 90 21 92 22
REMARK SMILES IDX 93 23 101 24 94 25 97 26 95 27 96 28 98 29 99 30 100 31
REMARK SMILES IDX 10 32 11 33 12 34 15 35 13 36 14 37 25 38 26 39 27 40 28 41
REMARK SMILES IDX 29 42 30 43 88 44 31 45 87 46 32 47 33 48 34 49 81 50 35 51
REMARK SMILES IDX 86 52 80 53 82 54 36 55 85 56 79 57 78 58 37 60 67 61 48 62
REMARK SMILES IDX 66 63 49 64 52 65 65 66 83 67 50 68 51 69 64 71 84 72 53 73
REMARK SMILES IDX 38 74 39 75 47 76 40 77 46 78 41 79 42 80 43 81 44 82 45 83
REMARK SMILES IDX 68 84 69 85 77 86 70 87 76 88 71 89 72 90 73 91 74 92 75 93
REMARK SMILES IDX 54 94 55 95 63 96 56 97 62 98 57 99 58 100 59 101 60 102
REMARK SMILES IDX 61 103
REMARK H PARENT 82 59 52 70
REMARK Flexibility Score: inf
ROOT
ATOM      1  C   UNL     1      -0.488  -7.535   2.233  1.00  0.00     0.202 C 
ENDROOT
BRANCH   1   2
ATOM      2  O   UNL     1      -0.354  -8.841   1.641  1.00  0.00    -0.374 OA
BRANCH   2   3
ATOM      3  C   UNL     1       0.995  -9.283   1.470  1.00  0.00     0.202 C 
BRANCH   3   4
ATOM      4  C   UNL     1       1.584  -8.992   0.076  1.00  0.00     0.260 C 
BRANCH   4   5
ATOM      5  O   UNL     1       1.409  -7.620  -0.343  1.00  0.00    -0.475 OA
BRANCH   5   6
ATOM      6  C   UNL     1       0.302  -7.346  -1.078  1.00  0.00     0.231 C 
ATOM      7  C   UNL     1       0.571  -4.938  -0.582  1.00  0.00     0.029 C 
ATOM      8  C   UNL     1       0.126  -5.921  -1.390  1.00  0.00     0.103 C 
ATOM      9  C   UNL     1      -0.739  -5.707  -2.582  1.00  0.00     0.267 C 
ATOM     10  O   UNL     1      -0.549  -4.843  -3.388  1.00  0.00    -0.268 OA
ATOM     11  N   UNL     1      -1.783  -6.628  -2.607  1.00  0.00    -0.250 N 
ATOM     12  N   UNL     1      -0.505  -8.270  -1.472  1.00  0.00    -0.156 NA
ATOM     13  C   UNL     1      -1.671  -7.903  -2.083  1.00  0.00     0.354 C 
ATOM     14  O   UNL     1      -2.606  -8.704  -2.162  1.00  0.00    -0.245 OA
BRANCH   7  15
ATOM     15  C   UNL     1       0.315  -3.520  -0.591  1.00  0.00    -0.003 A 
ATOM     16  C   UNL     1       1.216   0.025   0.149  1.00  0.00     0.065 C 
ATOM     17  C   UNL     1       0.670  -1.294  -0.279  1.00  0.00     0.020 A 
ATOM     18  C   UNL     1       1.242  -2.545  -0.140  1.00  0.00     0.031 A 
ATOM     19  N   UNL     1      -0.597  -1.469  -0.808  1.00  0.00    -0.318 N 
ATOM     20  C   UNL     1      -0.858  -2.839  -0.897  1.00  0.00     0.027 A 
ATOM     21  C   UNL     1      -2.176  -3.348  -1.366  1.00  0.00     0.065 C 
BRANCH  19  22
ATOM     22  C   UNL     1      -1.463  -0.446  -1.286  1.00  0.00     0.046 A 
ATOM     23  C   UNL     1      -2.771  -0.358  -0.809  1.00  0.00     0.028 A 
ATOM     24  C   UNL     1      -1.051   0.350  -2.363  1.00  0.00     0.038 A 
ATOM     25  C   UNL     1      -3.692   0.456  -1.466  1.00  0.00     0.023 A 
ATOM     26  C   UNL     1      -1.973   1.192  -3.021  1.00  0.00     0.018 A 
ATOM     27  C   UNL     1      -3.307   1.215  -2.579  1.00  0.00     0.050 A 
ATOM     28  Cl  UNL     1      -4.568   2.120  -3.342  1.00  0.00    -0.084 Cl
BRANCH  26  29
ATOM     29  C   UNL     1      -1.521   2.000  -4.189  1.00  0.00     0.073 C 
ATOM     30  O   UNL     1      -2.188   2.688  -4.937  1.00  0.00    -0.545 OA
ATOM     31  O   UNL     1      -0.188   1.924  -4.375  1.00  0.00    -0.545 OA
ENDBRANCH  26  29
ENDBRANCH  19  22
ENDBRANCH   7  15
BRANCH  11  32
ATOM     32  C   UNL     1      -3.047  -6.227  -3.191  1.00  0.00     0.206 C 
BRANCH  32  33
ATOM     33  C   UNL     1      -3.181  -6.666  -4.596  1.00  0.00     0.123 A 
ATOM     34  C   UNL     1      -3.494  -7.871  -5.186  1.00  0.00     0.047 A 
ATOM     35  O   UNL     1      -3.041  -5.700  -5.546  1.00  0.00    -0.467 OA
ATOM     36  C   UNL     1      -3.531  -7.630  -6.579  1.00  0.00     0.042 A 
ATOM     37  C   UNL     1      -3.248  -6.295  -6.747  1.00  0.00     0.195 A 
ENDBRANCH  32  33
ENDBRANCH  11  32
ENDBRANCH   5   6
ENDBRANCH   4   5
ENDBRANCH   3   4
ENDBRANCH   2   3
ENDBRANCH   1   2
BRANCH   1  38
ATOM     38  C   UNL     1      -0.594  -7.537   3.780  1.00  0.00     0.261 C 
BRANCH  38  39
ATOM     39  O   UNL     1       0.258  -6.559   4.483  1.00  0.00    -0.460 OA
BRANCH  39  40
ATOM     40  C   UNL     1       1.200  -7.088   5.328  1.00  0.00     0.338 C 
ATOM     41  O   UNL     1       1.531  -8.268   5.284  1.00  0.00    -0.246 OA
BRANCH  40  42
ATOM     42  C   UNL     1       1.942  -6.107   6.238  1.00  0.00     0.060 A 
ATOM     43  C   UNL     1       3.319  -6.265   6.310  1.00  0.00     0.016 A 
ATOM     44  C   UNL     1       1.401  -5.186   7.160  1.00  0.00     0.016 A 
ATOM     45  C   UNL     1       4.109  -5.528   7.240  1.00  0.00     0.010 A 
ATOM     46  C   UNL     1       2.217  -4.496   8.179  1.00  0.00     0.010 A 
ATOM     47  C   UNL     1       3.611  -4.662   8.276  1.00  0.00    -0.014 A 
BRANCH  47  48
ATOM     48  C   UNL     1       4.609  -4.392   9.525  1.00  0.00     0.031 A 
ATOM     49  C   UNL     1       5.340  -5.685   9.678  1.00  0.00     0.074 A 
ATOM     50  C   UNL     1       4.970  -3.492  10.529  1.00  0.00     0.049 A 
ATOM     51  N   UNL     1       4.684  -6.792   9.868  1.00  0.00    -0.248 NA
ATOM     52  C   UNL     1       6.733  -5.855   9.256  1.00  0.00     0.031 C 
ATOM     53  C   UNL     1       4.389  -2.179  10.846  1.00  0.00     0.029 A 
ATOM     54  N   UNL     1       5.990  -3.550  11.540  1.00  0.00    -0.354 N 
ATOM     55  C   UNL     1       5.615  -7.795   9.845  1.00  0.00     0.074 A 
ATOM     56  C   UNL     1       6.807  -7.190   9.270  1.00  0.00     0.031 C 
ATOM     57  C   UNL     1       5.092  -1.537  11.829  1.00  0.00     0.029 A 
ATOM     58  C   UNL     1       6.189  -2.364  12.331  1.00  0.00     0.049 A 
ATOM     59  H   UNL     1       6.527  -4.363  11.684  1.00  0.00     0.167 HD
ATOM     60  C   UNL     1       5.523  -8.769  10.791  1.00  0.00     0.031 A 
ATOM     61  C   UNL     1       7.095  -2.079  13.351  1.00  0.00     0.031 A 
ATOM     62  C   UNL     1       6.569  -8.657  11.771  1.00  0.00     0.049 A 
ATOM     63  C   UNL     1       7.562  -3.365  13.898  1.00  0.00     0.074 A 
ATOM     64  C   UNL     1       7.933  -8.453  11.704  1.00  0.00     0.029 A 
ATOM     65  N   UNL     1       6.170  -8.252  13.030  1.00  0.00    -0.354 N 
ATOM     66  N   UNL     1       6.823  -4.056  14.709  1.00  0.00    -0.248 NA
ATOM     67  C   UNL     1       8.917  -3.873  13.706  1.00  0.00     0.031 C 
ATOM     68  C   UNL     1       8.204  -7.478  12.697  1.00  0.00     0.029 A 
ATOM     69  C   UNL     1       7.079  -7.327  13.501  1.00  0.00     0.049 A 
ATOM     70  H   UNL     1       5.372  -8.570  13.511  1.00  0.00     0.167 HD
ATOM     71  C   UNL     1       7.408  -5.285  14.700  1.00  0.00     0.074 A 
ATOM     72  C   UNL     1       8.788  -5.047  14.328  1.00  0.00     0.031 C 
ATOM     73  C   UNL     1       6.610  -6.355  14.463  1.00  0.00     0.031 A 
BRANCH  60  74
ATOM     74  C   UNL     1       4.130  -9.231  11.134  1.00  0.00    -0.014 A 
ATOM     75  C   UNL     1       3.774 -10.562  10.881  1.00  0.00     0.010 A 
ATOM     76  C   UNL     1       3.144  -8.354  11.641  1.00  0.00     0.010 A 
ATOM     77  C   UNL     1       2.451 -10.983  11.060  1.00  0.00     0.020 A 
ATOM     78  C   UNL     1       1.818  -8.761  11.796  1.00  0.00     0.020 A 
ATOM     79  C   UNL     1       1.477 -10.075  11.492  1.00  0.00     0.054 A 
BRANCH  79  80
ATOM     80  S   UNL     1      -0.254 -10.615  11.550  1.00  0.00     0.124 S 
ATOM     81  O   UNL     1      -0.394 -11.366  10.302  1.00  0.00    -0.237 OA
ATOM     82  O   UNL     1      -0.282 -11.428  12.762  1.00  0.00    -0.237 OA
ATOM     83  O   UNL     1      -1.014  -9.370  11.593  1.00  0.00    -0.744 OA
ENDBRANCH  79  80
ENDBRANCH  60  74
BRANCH  61  84
ATOM     84  C   UNL     1       7.656  -0.946  14.255  1.00  0.00    -0.014 A 
ATOM     85  C   UNL     1       7.974  -1.239  15.627  1.00  0.00     0.010 A 
ATOM     86  C   UNL     1       8.272   0.211  13.751  1.00  0.00     0.010 A 
ATOM     87  C   UNL     1       8.930  -0.528  16.388  1.00  0.00     0.020 A 
ATOM     88  C   UNL     1       9.213   0.960  14.526  1.00  0.00     0.020 A 
ATOM     89  C   UNL     1       9.572   0.561  15.821  1.00  0.00     0.054 A 
BRANCH  89  90
ATOM     90  S   UNL     1      10.953   1.349  16.735  1.00  0.00     0.124 S 
ATOM     91  O   UNL     1      10.290   1.916  17.906  1.00  0.00    -0.237 OA
ATOM     92  O   UNL     1      11.845   0.222  17.005  1.00  0.00    -0.237 OA
ATOM     93  O   UNL     1      11.480   2.328  15.786  1.00  0.00    -0.744 OA
ENDBRANCH  89  90
ENDBRANCH  61  84
BRANCH  73  94
ATOM     94  C   UNL     1       5.179  -6.282  14.991  1.00  0.00    -0.014 A 
ATOM     95  C   UNL     1       4.311  -5.179  14.802  1.00  0.00     0.010 A 
ATOM     96  C   UNL     1       4.698  -7.348  15.768  1.00  0.00     0.010 A 
ATOM     97  C   UNL     1       3.072  -5.091  15.450  1.00  0.00     0.020 A 
ATOM     98  C   UNL     1       3.435  -7.292  16.379  1.00  0.00     0.020 A 
ATOM     99  C   UNL     1       2.649  -6.144  16.253  1.00  0.00     0.054 A 
BRANCH  99 100
ATOM    100  S   UNL     1       1.073  -5.993  17.142  1.00  0.00     0.124 S 
ATOM    101  O   UNL     1       1.420  -5.080  18.229  1.00  0.00    -0.237 OA
ATOM    102  O   UNL     1       0.176  -5.440  16.131  1.00  0.00    -0.237 OA
ATOM    103  O   UNL     1       0.783  -7.362  17.562  1.00  0.00    -0.744 OA
ENDBRANCH  99 100
ENDBRANCH  73  94
ENDBRANCH  47  48
ENDBRANCH  40  42
ENDBRANCH  39  40
ENDBRANCH  38  39
ENDBRANCH   1  38
TORSDOF 21
