REMARK SMILES CC(=O)c1cc(C(=O)NC[C@H]2CC[C@H](C(=O)OCCOCCOC(=O)c3ccc(-c4c5nc(c(-c6ccc(S(=O)(=O)[O-])cc6)c6ccc([nH]6)c(-c6ccc(S(=O)(=O)[O-])cc6)c6nc(c(-c7ccc(S(=O)(=O)[O-])cc7)c7ccc4[nH]7)C=C6)C=C5)cc3)O2)n(C)c1
REMARK SMILES IDX 19 1 18 2 17 3 15 4 16 5 14 6 11 7 12 8 86 9 13 10 10 11
REMARK SMILES IDX 9 12 7 13 8 14 6 16 4 17 5 18 89 19 87 20 88 21 2 22 1 23
REMARK SMILES IDX 3 24 20 25 21 26 22 27 23 28 24 29 25 30 26 31 27 32 85 33
REMARK SMILES IDX 28 34 84 35 29 36 30 37 31 38 78 39 32 40 83 41 77 42 79 43
REMARK SMILES IDX 33 44 82 45 76 46 75 47 34 49 64 50 45 51 63 52 46 53 49 54
REMARK SMILES IDX 62 55 80 56 47 57 48 58 61 60 81 61 50 62 35 63 36 64 44 65
REMARK SMILES IDX 37 66 43 67 38 68 39 69 40 70 41 71 42 72 65 73 66 74 74 75
REMARK SMILES IDX 67 76 73 77 68 78 69 79 70 80 71 81 72 82 51 83 52 84 60 85
REMARK SMILES IDX 53 86 59 87 54 88 55 89 56 90 57 91 58 92
REMARK H PARENT 9 15 79 48 49 59
REMARK Flexibility Score: inf
ROOT
ATOM      1  C   UNL     1       6.763  -4.652  -7.724  1.00  0.00     0.202 C 
ENDROOT
BRANCH   1   2
ATOM      2  C   UNL     1       5.753  -4.104  -6.712  1.00  0.00     0.261 C 
BRANCH   2   3
ATOM      3  O   UNL     1       4.488  -4.770  -6.859  1.00  0.00    -0.461 OA
BRANCH   3   4
ATOM      4  C   UNL     1       3.407  -3.975  -7.080  1.00  0.00     0.335 C 
ATOM      5  O   UNL     1       3.407  -2.752  -6.992  1.00  0.00    -0.249 OA
BRANCH   4   6
ATOM      6  C   UNL     1       2.166  -4.789  -7.493  1.00  0.00     0.228 C 
ATOM      7  C   UNL     1       1.392  -5.908  -5.628  1.00  0.00     0.138 C 
ATOM      8  C   UNL     1       2.238  -6.902  -6.410  1.00  0.00     0.037 C 
ATOM      9  O   UNL     1       1.165  -4.763  -6.473  1.00  0.00    -0.361 OA
ATOM     10  C   UNL     1       2.361  -6.269  -7.774  1.00  0.00     0.047 C 
BRANCH   7  11
ATOM     11  C   UNL     1       0.054  -6.466  -5.154  1.00  0.00     0.148 C 
BRANCH  11  12
ATOM     12  N   UNL     1      -0.841  -6.834  -6.235  1.00  0.00    -0.348 N 
ATOM     13  C   UNL     1      -1.795  -7.811  -6.319  1.00  0.00     0.268 C 
ATOM     14  O   UNL     1      -2.323  -7.965  -7.422  1.00  0.00    -0.268 OA
ATOM     15  H   UNL     1      -0.745  -6.287  -7.047  1.00  0.00     0.163 HD
BRANCH  13  16
ATOM     16  C   UNL     1      -2.131  -8.663  -5.188  1.00  0.00     0.107 A 
ATOM     17  C   UNL     1      -2.871 -10.514  -4.029  1.00  0.00     0.036 A 
ATOM     18  C   UNL     1      -2.560  -9.987  -5.311  1.00  0.00     0.045 A 
ATOM     19  C   UNL     1      -2.589  -9.499  -3.141  1.00  0.00     0.097 A 
ATOM     20  N   UNL     1      -2.244  -8.370  -3.841  1.00  0.00    -0.346 N 
ATOM     21  C   UNL     1      -2.195  -7.079  -3.192  1.00  0.00     0.150 C 
BRANCH  17  22
ATOM     22  C   UNL     1      -3.408 -11.818  -3.643  1.00  0.00     0.161 C 
ATOM     23  C   UNL     1      -3.510 -12.895  -4.691  1.00  0.00     0.093 C 
ATOM     24  O   UNL     1      -3.766 -12.046  -2.487  1.00  0.00    -0.294 OA
ENDBRANCH  17  22
ENDBRANCH  13  16
ENDBRANCH  11  12
ENDBRANCH   7  11
ENDBRANCH   4   6
ENDBRANCH   3   4
ENDBRANCH   2   3
ENDBRANCH   1   2
BRANCH   1  25
ATOM     25  O   UNL     1       6.486  -4.392  -9.102  1.00  0.00    -0.374 OA
BRANCH  25  26
ATOM     26  C   UNL     1       5.417  -5.107  -9.716  1.00  0.00     0.202 C 
BRANCH  26  27
ATOM     27  C   UNL     1       5.651  -6.591 -10.033  1.00  0.00     0.261 C 
BRANCH  27  28
ATOM     28  O   UNL     1       5.984  -7.375  -8.873  1.00  0.00    -0.460 OA
BRANCH  28  29
ATOM     29  C   UNL     1       7.223  -7.919  -8.909  1.00  0.00     0.338 C 
ATOM     30  O   UNL     1       8.014  -7.883  -9.851  1.00  0.00    -0.246 OA
BRANCH  29  31
ATOM     31  C   UNL     1       7.622  -8.442  -7.593  1.00  0.00     0.060 A 
ATOM     32  C   UNL     1       8.777  -7.897  -7.019  1.00  0.00     0.016 A 
ATOM     33  C   UNL     1       6.979  -9.529  -6.995  1.00  0.00     0.016 A 
ATOM     34  C   UNL     1       9.329  -8.475  -5.880  1.00  0.00     0.010 A 
ATOM     35  C   UNL     1       7.541 -10.112  -5.848  1.00  0.00     0.010 A 
ATOM     36  C   UNL     1       8.743  -9.615  -5.312  1.00  0.00    -0.014 A 
BRANCH  36  37
ATOM     37  C   UNL     1       9.495 -10.342  -4.256  1.00  0.00     0.031 A 
ATOM     38  C   UNL     1      10.307 -11.557  -4.630  1.00  0.00     0.074 A 
ATOM     39  C   UNL     1       9.551  -9.859  -3.001  1.00  0.00     0.049 A 
ATOM     40  N   UNL     1      11.115 -12.272  -3.889  1.00  0.00    -0.248 NA
ATOM     41  C   UNL     1      10.204 -12.021  -6.024  1.00  0.00     0.031 C 
ATOM     42  C   UNL     1       8.848  -8.669  -2.520  1.00  0.00     0.029 A 
ATOM     43  N   UNL     1      10.251 -10.300  -1.905  1.00  0.00    -0.354 N 
ATOM     44  C   UNL     1      11.631 -13.255  -4.727  1.00  0.00     0.074 A 
ATOM     45  C   UNL     1      11.010 -13.074  -6.021  1.00  0.00     0.031 C 
ATOM     46  C   UNL     1       9.161  -8.469  -1.228  1.00  0.00     0.029 A 
ATOM     47  C   UNL     1      10.070  -9.525  -0.784  1.00  0.00     0.049 A 
ATOM     48  H   UNL     1      10.829 -11.097  -1.921  1.00  0.00     0.167 HD
ATOM     49  C   UNL     1      12.552 -14.210  -4.453  1.00  0.00     0.031 A 
ATOM     50  C   UNL     1      10.576  -9.651   0.458  1.00  0.00     0.031 A 
ATOM     51  C   UNL     1      13.161 -14.406  -3.164  1.00  0.00     0.049 A 
ATOM     52  C   UNL     1      11.542 -10.770   0.755  1.00  0.00     0.074 A 
ATOM     53  C   UNL     1      14.090 -15.361  -2.788  1.00  0.00     0.029 A 
ATOM     54  N   UNL     1      12.908 -13.633  -2.042  1.00  0.00    -0.354 N 
ATOM     55  N   UNL     1      12.024 -11.681  -0.056  1.00  0.00    -0.248 NA
ATOM     56  C   UNL     1      12.043 -10.864   2.134  1.00  0.00     0.031 C 
ATOM     57  C   UNL     1      14.367 -15.192  -1.427  1.00  0.00     0.029 A 
ATOM     58  C   UNL     1      13.650 -14.098  -0.970  1.00  0.00     0.049 A 
ATOM     59  H   UNL     1      12.291 -12.867  -2.012  1.00  0.00     0.167 HD
ATOM     60  C   UNL     1      12.903 -12.441   0.710  1.00  0.00     0.074 A 
ATOM     61  C   UNL     1      12.905 -11.867   2.039  1.00  0.00     0.031 C 
ATOM     62  C   UNL     1      13.642 -13.519   0.348  1.00  0.00     0.031 A 
BRANCH  49  63
ATOM     63  C   UNL     1      12.960 -15.128  -5.574  1.00  0.00    -0.014 A 
ATOM     64  C   UNL     1      13.802 -14.674  -6.605  1.00  0.00     0.010 A 
ATOM     65  C   UNL     1      12.559 -16.476  -5.560  1.00  0.00     0.010 A 
ATOM     66  C   UNL     1      14.220 -15.547  -7.613  1.00  0.00     0.020 A 
ATOM     67  C   UNL     1      12.994 -17.358  -6.554  1.00  0.00     0.020 A 
ATOM     68  C   UNL     1      13.815 -16.885  -7.580  1.00  0.00     0.054 A 
BRANCH  68  69
ATOM     69  S   UNL     1      14.415 -18.007  -8.873  1.00  0.00     0.124 S 
ATOM     70  O   UNL     1      13.646 -17.567 -10.034  1.00  0.00    -0.237 OA
ATOM     71  O   UNL     1      15.845 -17.710  -8.916  1.00  0.00    -0.237 OA
ATOM     72  O   UNL     1      14.073 -19.334  -8.367  1.00  0.00    -0.744 OA
ENDBRANCH  68  69
ENDBRANCH  49  63
BRANCH  50  73
ATOM     73  C   UNL     1      10.164  -8.711   1.537  1.00  0.00    -0.014 A 
ATOM     74  C   UNL     1      11.081  -7.809   2.104  1.00  0.00     0.010 A 
ATOM     75  C   UNL     1       8.850  -8.756   2.039  1.00  0.00     0.010 A 
ATOM     76  C   UNL     1      10.704  -6.997   3.179  1.00  0.00     0.020 A 
ATOM     77  C   UNL     1       8.461  -7.926   3.092  1.00  0.00     0.020 A 
ATOM     78  C   UNL     1       9.397  -7.067   3.670  1.00  0.00     0.054 A 
BRANCH  78  79
ATOM     79  S   UNL     1       8.917  -6.001   5.058  1.00  0.00     0.124 S 
ATOM     80  O   UNL     1       9.509  -6.701   6.194  1.00  0.00    -0.237 OA
ATOM     81  O   UNL     1       9.535  -4.725   4.708  1.00  0.00    -0.237 OA
ATOM     82  O   UNL     1       7.457  -6.013   5.005  1.00  0.00    -0.744 OA
ENDBRANCH  78  79
ENDBRANCH  50  73
BRANCH  62  83
ATOM     83  C   UNL     1      14.536 -14.126   1.397  1.00  0.00    -0.014 A 
ATOM     84  C   UNL     1      14.003 -14.851   2.478  1.00  0.00     0.010 A 
ATOM     85  C   UNL     1      15.931 -13.983   1.289  1.00  0.00     0.010 A 
ATOM     86  C   UNL     1      14.846 -15.379   3.459  1.00  0.00     0.020 A 
ATOM     87  C   UNL     1      16.780 -14.534   2.254  1.00  0.00     0.020 A 
ATOM     88  C   UNL     1      16.230 -15.210   3.345  1.00  0.00     0.054 A 
BRANCH  88  89
ATOM     89  S   UNL     1      17.306 -15.911   4.625  1.00  0.00     0.124 S 
ATOM     90  O   UNL     1      17.131 -14.962   5.721  1.00  0.00    -0.237 OA
ATOM     91  O   UNL     1      16.730 -17.235   4.843  1.00  0.00    -0.237 OA
ATOM     92  O   UNL     1      18.629 -15.909   4.004  1.00  0.00    -0.744 OA
ENDBRANCH  88  89
ENDBRANCH  62  83
ENDBRANCH  36  37
ENDBRANCH  29  31
ENDBRANCH  28  29
ENDBRANCH  27  28
ENDBRANCH  26  27
ENDBRANCH  25  26
ENDBRANCH   1  25
TORSDOF 21
