REMARK SMILES Cc1ccccc1OC1(C(=O)OCCOCCOC(=O)c2ccc(-c3c4nc(c(-c5ccc(S(=O)(=O)[O-])cc5)c5ccc([nH]5)c(-c5ccc(S(=O)(=O)[O-])cc5)c5nc(c(-c6ccc(S(=O)(=O)[O-])cc6)c6ccc3[nH]6)C=C5)C=C4)cc2)CCN(C(=O)[C@H]2CCCCO2)CC1
REMARK SMILES IDX 16 1 15 2 14 3 13 4 12 5 10 6 11 7 9 8 81 9 93 10 82 11
REMARK SMILES IDX 92 12 83 13 84 14 85 15 8 16 7 17 1 18 2 19 3 20 4 21 6 22
REMARK SMILES IDX 5 23 86 24 87 25 91 26 88 27 90 28 89 29 17 30 18 31 19 32
REMARK SMILES IDX 20 33 21 34 22 35 80 36 23 37 79 38 24 39 25 40 26 41 73 42
REMARK SMILES IDX 27 43 78 44 72 45 74 46 28 47 77 48 71 49 70 50 29 52 59 53
REMARK SMILES IDX 40 54 58 55 41 56 44 57 57 58 75 59 42 60 43 61 56 63 76 64
REMARK SMILES IDX 45 65 30 66 31 67 39 68 32 69 38 70 33 71 34 72 35 73 36 74
REMARK SMILES IDX 37 75 60 76 61 77 69 78 62 79 68 80 63 81 64 82 65 83 66 84
REMARK SMILES IDX 67 85 46 86 47 87 55 88 48 89 54 90 49 91 50 92 51 93 52 94
REMARK SMILES IDX 53 95
REMARK H PARENT 74 51 44 62
REMARK Flexibility Score: inf
ROOT
ATOM      1  C   UNL     1       8.599  -9.250  -2.281  1.00  0.00     0.202 C 
ENDROOT
BRANCH   1   2
ATOM      2  O   UNL     1       8.232  -7.998  -2.824  1.00  0.00    -0.374 OA
BRANCH   2   3
ATOM      3  C   UNL     1       9.026  -6.883  -2.443  1.00  0.00     0.202 C 
BRANCH   3   4
ATOM      4  C   UNL     1       8.357  -5.657  -3.021  1.00  0.00     0.261 C 
BRANCH   4   5
ATOM      5  O   UNL     1       7.077  -5.329  -2.418  1.00  0.00    -0.460 OA
BRANCH   5   6
ATOM      6  C   UNL     1       6.024  -6.201  -2.367  1.00  0.00     0.350 C 
ATOM      7  O   UNL     1       5.732  -7.013  -3.231  1.00  0.00    -0.247 OA
BRANCH   6   8
ATOM      8  C   UNL     1       5.248  -5.970  -1.027  1.00  0.00     0.209 C 
ATOM      9  C   UNL     1       6.342  -5.884   0.045  1.00  0.00     0.082 C 
ATOM     10  C   UNL     1       4.343  -4.751  -1.260  1.00  0.00     0.082 C 
ATOM     11  C   UNL     1       6.863  -4.470   0.260  1.00  0.00     0.124 C 
ATOM     12  C   UNL     1       4.832  -3.414  -0.703  1.00  0.00     0.124 C 
ATOM     13  N   UNL     1       5.785  -3.501   0.403  1.00  0.00    -0.340 N 
ATOM     14  C   UNL     1       5.884  -2.584   1.452  1.00  0.00     0.251 C 
ATOM     15  O   UNL     1       6.791  -2.667   2.288  1.00  0.00    -0.272 OA
BRANCH   8  16
ATOM     16  O   UNL     1       4.461  -7.166  -0.837  1.00  0.00    -0.475 OA
BRANCH  16  17
ATOM     17  C   UNL     1       3.489  -7.427   0.090  1.00  0.00     0.123 A 
ATOM     18  C   UNL     1       3.891  -5.737   2.035  1.00  0.00     0.048 C 
ATOM     19  C   UNL     1       3.189  -6.857   1.340  1.00  0.00    -0.009 A 
ATOM     20  C   UNL     1       2.150  -7.419   2.125  1.00  0.00     0.007 A 
ATOM     21  C   UNL     1       1.394  -8.497   1.687  1.00  0.00     0.001 A 
ATOM     22  C   UNL     1       2.700  -8.516  -0.333  1.00  0.00     0.047 A 
ATOM     23  C   UNL     1       1.665  -9.044   0.446  1.00  0.00     0.004 A 
ENDBRANCH  16  17
ENDBRANCH   8  16
BRANCH  14  24
ATOM     24  C   UNL     1       4.795  -1.497   1.593  1.00  0.00     0.207 C 
ATOM     25  C   UNL     1       3.602  -2.104   2.344  1.00  0.00     0.042 C 
ATOM     26  O   UNL     1       5.336  -0.389   2.326  1.00  0.00    -0.368 OA
ATOM     27  C   UNL     1       2.576  -1.051   2.743  1.00  0.00     0.006 C 
ATOM     28  C   UNL     1       4.389   0.644   2.566  1.00  0.00     0.161 C 
ATOM     29  C   UNL     1       3.257   0.121   3.434  1.00  0.00     0.029 C 
ENDBRANCH  14  24
ENDBRANCH   6   8
ENDBRANCH   5   6
ENDBRANCH   4   5
ENDBRANCH   3   4
ENDBRANCH   2   3
ENDBRANCH   1   2
BRANCH   1  30
ATOM     30  C   UNL     1       9.974  -9.739  -2.745  1.00  0.00     0.261 C 
BRANCH  30  31
ATOM     31  O   UNL     1       9.945 -10.116  -4.136  1.00  0.00    -0.460 OA
BRANCH  31  32
ATOM     32  C   UNL     1      10.507  -9.213  -4.989  1.00  0.00     0.338 C 
ATOM     33  O   UNL     1      11.710  -9.095  -5.158  1.00  0.00    -0.246 OA
BRANCH  32  34
ATOM     34  C   UNL     1       9.450  -8.433  -5.688  1.00  0.00     0.060 A 
ATOM     35  C   UNL     1       9.723  -7.174  -6.247  1.00  0.00     0.016 A 
ATOM     36  C   UNL     1       8.136  -8.895  -5.633  1.00  0.00     0.016 A 
ATOM     37  C   UNL     1       8.668  -6.337  -6.657  1.00  0.00     0.010 A 
ATOM     38  C   UNL     1       7.104  -8.037  -5.952  1.00  0.00     0.010 A 
ATOM     39  C   UNL     1       7.350  -6.751  -6.460  1.00  0.00    -0.014 A 
BRANCH  39  40
ATOM     40  C   UNL     1       6.132  -5.956  -6.662  1.00  0.00     0.031 A 
ATOM     41  C   UNL     1       5.106  -6.447  -7.622  1.00  0.00     0.074 A 
ATOM     42  C   UNL     1       5.785  -4.976  -5.792  1.00  0.00     0.049 A 
ATOM     43  N   UNL     1       4.040  -5.790  -7.932  1.00  0.00    -0.248 NA
ATOM     44  C   UNL     1       5.211  -7.709  -8.360  1.00  0.00     0.031 C 
ATOM     45  C   UNL     1       4.436  -4.515  -5.462  1.00  0.00     0.029 A 
ATOM     46  N   UNL     1       6.603  -4.121  -5.051  1.00  0.00    -0.354 N 
ATOM     47  C   UNL     1       3.186  -6.660  -8.563  1.00  0.00     0.074 A 
ATOM     48  C   UNL     1       4.005  -7.785  -8.934  1.00  0.00     0.031 C 
ATOM     49  C   UNL     1       4.509  -3.345  -4.809  1.00  0.00     0.029 A 
ATOM     50  C   UNL     1       5.901  -2.931  -4.816  1.00  0.00     0.049 A 
ATOM     51  H   UNL     1       7.517  -4.320  -4.746  1.00  0.00     0.167 HD
ATOM     52  C   UNL     1       1.853  -6.383  -8.564  1.00  0.00     0.031 A 
ATOM     53  C   UNL     1       6.383  -1.728  -5.232  1.00  0.00     0.031 A 
ATOM     54  C   UNL     1       1.589  -5.020  -8.087  1.00  0.00     0.049 A 
ATOM     55  C   UNL     1       5.455  -1.132  -6.255  1.00  0.00     0.074 A 
ATOM     56  C   UNL     1       0.993  -4.500  -6.952  1.00  0.00     0.029 A 
ATOM     57  N   UNL     1       2.227  -3.951  -8.718  1.00  0.00    -0.354 N 
ATOM     58  N   UNL     1       4.566  -1.850  -6.886  1.00  0.00    -0.248 NA
ATOM     59  C   UNL     1       5.383   0.279  -6.617  1.00  0.00     0.031 C 
ATOM     60  C   UNL     1       1.379  -3.131  -6.849  1.00  0.00     0.029 A 
ATOM     61  C   UNL     1       2.162  -2.807  -7.948  1.00  0.00     0.049 A 
ATOM     62  H   UNL     1       2.666  -4.006  -9.598  1.00  0.00     0.167 HD
ATOM     63  C   UNL     1       3.799  -1.057  -7.675  1.00  0.00     0.074 A 
ATOM     64  C   UNL     1       4.362   0.271  -7.497  1.00  0.00     0.031 C 
ATOM     65  C   UNL     1       2.768  -1.560  -8.410  1.00  0.00     0.031 A 
BRANCH  52  66
ATOM     66  C   UNL     1       0.765  -7.406  -8.829  1.00  0.00    -0.014 A 
ATOM     67  C   UNL     1      -0.588  -7.005  -8.840  1.00  0.00     0.010 A 
ATOM     68  C   UNL     1       0.995  -8.790  -8.982  1.00  0.00     0.010 A 
ATOM     69  C   UNL     1      -1.639  -7.925  -9.009  1.00  0.00     0.020 A 
ATOM     70  C   UNL     1      -0.041  -9.715  -9.187  1.00  0.00     0.020 A 
ATOM     71  C   UNL     1      -1.357  -9.278  -9.190  1.00  0.00     0.054 A 
BRANCH  71  72
ATOM     72  S   UNL     1      -2.715 -10.458  -9.412  1.00  0.00     0.124 S 
ATOM     73  O   UNL     1      -3.383 -10.414  -8.114  1.00  0.00    -0.237 OA
ATOM     74  O   UNL     1      -3.462  -9.881 -10.526  1.00  0.00    -0.237 OA
ATOM     75  O   UNL     1      -2.036 -11.718  -9.714  1.00  0.00    -0.744 OA
ENDBRANCH  71  72
ENDBRANCH  52  66
BRANCH  53  76
ATOM     76  C   UNL     1       7.872  -1.622  -5.131  1.00  0.00    -0.014 A 
ATOM     77  C   UNL     1       8.405  -1.442  -3.833  1.00  0.00     0.010 A 
ATOM     78  C   UNL     1       8.701  -2.192  -6.116  1.00  0.00     0.010 A 
ATOM     79  C   UNL     1       9.654  -1.974  -3.483  1.00  0.00     0.020 A 
ATOM     80  C   UNL     1       9.951  -2.735  -5.764  1.00  0.00     0.020 A 
ATOM     81  C   UNL     1      10.393  -2.673  -4.438  1.00  0.00     0.054 A 
BRANCH  81  82
ATOM     82  S   UNL     1      11.764  -3.745  -3.878  1.00  0.00     0.124 S 
ATOM     83  O   UNL     1      12.893  -2.824  -3.855  1.00  0.00    -0.237 OA
ATOM     84  O   UNL     1      11.304  -4.213  -2.570  1.00  0.00    -0.237 OA
ATOM     85  O   UNL     1      11.807  -4.786  -4.901  1.00  0.00    -0.744 OA
ENDBRANCH  81  82
ENDBRANCH  53  76
BRANCH  65  86
ATOM     86  C   UNL     1       2.205  -0.865  -9.614  1.00  0.00    -0.014 A 
ATOM     87  C   UNL     1       2.927   0.096 -10.341  1.00  0.00     0.010 A 
ATOM     88  C   UNL     1       0.976  -1.302 -10.154  1.00  0.00     0.010 A 
ATOM     89  C   UNL     1       2.410   0.659 -11.508  1.00  0.00     0.020 A 
ATOM     90  C   UNL     1       0.475  -0.783 -11.349  1.00  0.00     0.020 A 
ATOM     91  C   UNL     1       1.183   0.221 -12.001  1.00  0.00     0.054 A 
BRANCH  91  92
ATOM     92  S   UNL     1       0.547   0.934 -13.534  1.00  0.00     0.124 S 
ATOM     93  O   UNL     1      -0.116   2.140 -13.046  1.00  0.00    -0.237 OA
ATOM     94  O   UNL     1       1.760   1.161 -14.317  1.00  0.00    -0.237 OA
ATOM     95  O   UNL     1      -0.338  -0.104 -14.055  1.00  0.00    -0.744 OA
ENDBRANCH  91  92
ENDBRANCH  65  86
ENDBRANCH  39  40
ENDBRANCH  32  34
ENDBRANCH  31  32
ENDBRANCH  30  31
ENDBRANCH   1  30
TORSDOF 20
