REMARK SMILES O=C(CNc1nc(-c2ccccc2)c(-c2ccccc2)s1)OCCOCCOC(=O)c1ccc(-c2c3nc(c(-c4ccc(S(=O)(=O)[O-])cc4)c4ccc([nH]4)c(-c4ccc(S(=O)(=O)[O-])cc4)c4nc(c(-c5ccc(S(=O)(=O)[O-])cc5)c5ccc2[nH]5)C=C4)C=C3)cc1
REMARK SMILES IDX 25 1 24 2 23 3 22 4 2 5 1 6 3 7 4 8 5 10 6 11 21 12 7 13
REMARK SMILES IDX 14 14 8 15 9 16 13 17 10 18 12 19 11 20 15 21 16 22 20 23
REMARK SMILES IDX 17 24 19 25 18 26 26 27 27 28 28 29 29 30 30 31 31 32 32 33
REMARK SMILES IDX 90 34 33 35 89 36 34 37 35 38 36 39 83 40 37 41 88 42 82 43
REMARK SMILES IDX 84 44 38 45 87 46 81 47 80 48 39 50 69 51 50 52 68 53 51 54
REMARK SMILES IDX 54 55 67 56 85 57 52 58 53 59 66 61 86 62 55 63 40 64 41 65
REMARK SMILES IDX 49 66 42 67 48 68 43 69 44 70 45 71 46 72 47 73 70 74 71 75
REMARK SMILES IDX 79 76 72 77 78 78 73 79 74 80 75 81 76 82 77 83 56 84 57 85
REMARK SMILES IDX 65 86 58 87 64 88 59 89 60 90 61 91 62 92 63 93
REMARK H PARENT 4 9 84 49 54 60
REMARK Flexibility Score: inf
ROOT
ATOM      1  O   UNL     1       4.141  -0.127  -1.561  1.00  0.00    -0.374 OA
ENDROOT
BRANCH   1   2
ATOM      2  C   UNL     1       4.665  -0.856  -0.458  1.00  0.00     0.202 C 
BRANCH   2   3
ATOM      3  C   UNL     1       4.162  -0.476   0.933  1.00  0.00     0.261 C 
BRANCH   3   4
ATOM      4  O   UNL     1       2.783  -0.091   1.005  1.00  0.00    -0.462 OA
BRANCH   4   5
ATOM      5  C   UNL     1       2.288   1.130   0.693  1.00  0.00     0.325 C 
ATOM      6  O   UNL     1       1.069   1.308   0.764  1.00  0.00    -0.250 OA
BRANCH   5   7
ATOM      7  C   UNL     1       3.204   2.255   0.209  1.00  0.00     0.238 C 
BRANCH   7   8
ATOM      8  N   UNL     1       4.300   2.551   1.115  1.00  0.00    -0.351 N 
ATOM      9  H   UNL     1       4.108   2.756   2.058  1.00  0.00     0.163 HD
BRANCH   8  10
ATOM     10  C   UNL     1       5.578   2.549   0.681  1.00  0.00     0.184 A 
ATOM     11  N   UNL     1       5.978   2.667  -0.563  1.00  0.00    -0.220 NA
ATOM     12  S   UNL     1       6.832   2.294   1.830  1.00  0.00    -0.096 S 
ATOM     13  C   UNL     1       7.353   2.479  -0.644  1.00  0.00     0.091 A 
ATOM     14  C   UNL     1       7.978   2.198   0.562  1.00  0.00     0.064 A 
BRANCH  13  15
ATOM     15  C   UNL     1       8.088   2.700  -1.883  1.00  0.00     0.002 A 
ATOM     16  C   UNL     1       9.002   1.759  -2.378  1.00  0.00     0.010 A 
ATOM     17  C   UNL     1       7.976   3.942  -2.520  1.00  0.00     0.010 A 
ATOM     18  C   UNL     1       9.835   2.084  -3.453  1.00  0.00     0.001 A 
ATOM     19  C   UNL     1       8.812   4.266  -3.591  1.00  0.00     0.001 A 
ATOM     20  C   UNL     1       9.752   3.342  -4.046  1.00  0.00     0.000 A 
ENDBRANCH  13  15
BRANCH  14  21
ATOM     21  C   UNL     1       9.379   1.981   0.903  1.00  0.00    -0.006 A 
ATOM     22  C   UNL     1       9.823   0.731   1.352  1.00  0.00     0.009 A 
ATOM     23  C   UNL     1      10.291   3.038   0.794  1.00  0.00     0.009 A 
ATOM     24  C   UNL     1      11.160   0.549   1.709  1.00  0.00     0.001 A 
ATOM     25  C   UNL     1      11.625   2.855   1.154  1.00  0.00     0.001 A 
ATOM     26  C   UNL     1      12.057   1.613   1.616  1.00  0.00     0.000 A 
ENDBRANCH  14  21
ENDBRANCH   8  10
ENDBRANCH   7   8
ENDBRANCH   5   7
ENDBRANCH   4   5
ENDBRANCH   3   4
ENDBRANCH   2   3
ENDBRANCH   1   2
BRANCH   1  27
ATOM     27  C   UNL     1       2.875  -0.567  -2.061  1.00  0.00     0.202 C 
BRANCH  27  28
ATOM     28  C   UNL     1       2.923  -1.735  -3.053  1.00  0.00     0.261 C 
BRANCH  28  29
ATOM     29  O   UNL     1       3.378  -2.944  -2.427  1.00  0.00    -0.460 OA
BRANCH  29  30
ATOM     30  C   UNL     1       4.674  -3.257  -2.671  1.00  0.00     0.338 C 
ATOM     31  O   UNL     1       5.436  -2.693  -3.442  1.00  0.00    -0.246 OA
BRANCH  30  32
ATOM     32  C   UNL     1       5.124  -4.275  -1.702  1.00  0.00     0.060 A 
ATOM     33  C   UNL     1       6.368  -4.074  -1.089  1.00  0.00     0.016 A 
ATOM     34  C   UNL     1       4.361  -5.407  -1.406  1.00  0.00     0.016 A 
ATOM     35  C   UNL     1       6.883  -5.039  -0.230  1.00  0.00     0.010 A 
ATOM     36  C   UNL     1       4.880  -6.376  -0.544  1.00  0.00     0.010 A 
ATOM     37  C   UNL     1       6.162  -6.216   0.011  1.00  0.00    -0.014 A 
BRANCH  37  38
ATOM     38  C   UNL     1       6.823  -7.334   0.723  1.00  0.00     0.031 A 
ATOM     39  C   UNL     1       7.352  -8.493  -0.079  1.00  0.00     0.074 A 
ATOM     40  C   UNL     1       7.001  -7.284   2.055  1.00  0.00     0.049 A 
ATOM     41  N   UNL     1       7.978  -9.565   0.332  1.00  0.00    -0.248 NA
ATOM     42  C   UNL     1       7.150  -8.437  -1.537  1.00  0.00     0.031 C 
ATOM     43  C   UNL     1       6.556  -6.195   2.927  1.00  0.00     0.029 A 
ATOM     44  N   UNL     1       7.607  -8.171   2.908  1.00  0.00    -0.354 N 
ATOM     45  C   UNL     1       8.246 -10.308  -0.813  1.00  0.00     0.074 A 
ATOM     46  C   UNL     1       7.678  -9.587  -1.930  1.00  0.00     0.031 C 
ATOM     47  C   UNL     1       6.905  -6.481   4.193  1.00  0.00     0.029 A 
ATOM     48  C   UNL     1       7.567  -7.783   4.225  1.00  0.00     0.049 A 
ATOM     49  H   UNL     1       8.030  -9.006   2.604  1.00  0.00     0.167 HD
ATOM     50  C   UNL     1       8.918 -11.478  -0.924  1.00  0.00     0.031 A 
ATOM     51  C   UNL     1       7.998  -8.418   5.333  1.00  0.00     0.031 A 
ATOM     52  C   UNL     1       9.468 -12.196   0.196  1.00  0.00     0.049 A 
ATOM     53  C   UNL     1       8.683  -9.752   5.187  1.00  0.00     0.074 A 
ATOM     54  C   UNL     1      10.169 -13.389   0.193  1.00  0.00     0.029 A 
ATOM     55  N   UNL     1       9.377 -11.790   1.518  1.00  0.00    -0.354 N 
ATOM     56  N   UNL     1       8.951 -10.428   4.094  1.00  0.00    -0.248 NA
ATOM     57  C   UNL     1       9.137 -10.401   6.424  1.00  0.00     0.031 C 
ATOM     58  C   UNL     1      10.450 -13.734   1.519  1.00  0.00     0.029 A 
ATOM     59  C   UNL     1       9.987 -12.720   2.343  1.00  0.00     0.049 A 
ATOM     60  H   UNL     1       8.943 -10.961   1.826  1.00  0.00     0.167 HD
ATOM     61  C   UNL     1       9.625 -11.572   4.512  1.00  0.00     0.074 A 
ATOM     62  C   UNL     1       9.752 -11.476   5.952  1.00  0.00     0.031 C 
ATOM     63  C   UNL     1      10.093 -12.611   3.776  1.00  0.00     0.031 A 
BRANCH  50  64
ATOM     64  C   UNL     1       9.085 -12.065  -2.302  1.00  0.00    -0.014 A 
ATOM     65  C   UNL     1       9.945 -11.472  -3.245  1.00  0.00     0.010 A 
ATOM     66  C   UNL     1       8.427 -13.262  -2.637  1.00  0.00     0.010 A 
ATOM     67  C   UNL     1      10.129 -12.055  -4.502  1.00  0.00     0.020 A 
ATOM     68  C   UNL     1       8.629 -13.864  -3.883  1.00  0.00     0.020 A 
ATOM     69  C   UNL     1       9.474 -13.251  -4.810  1.00  0.00     0.054 A 
BRANCH  69  70
ATOM     70  S   UNL     1       9.780 -14.015  -6.427  1.00  0.00     0.124 S 
ATOM     71  O   UNL     1       9.112 -13.084  -7.333  1.00  0.00    -0.237 OA
ATOM     72  O   UNL     1      11.239 -14.026  -6.502  1.00  0.00    -0.237 OA
ATOM     73  O   UNL     1       9.154 -15.330  -6.315  1.00  0.00    -0.744 OA
ENDBRANCH  69  70
ENDBRANCH  50  64
BRANCH  51  74
ATOM     74  C   UNL     1       7.769  -7.819   6.678  1.00  0.00    -0.014 A 
ATOM     75  C   UNL     1       8.845  -7.401   7.481  1.00  0.00     0.010 A 
ATOM     76  C   UNL     1       6.458  -7.691   7.176  1.00  0.00     0.010 A 
ATOM     77  C   UNL     1       8.617  -6.900   8.767  1.00  0.00     0.020 A 
ATOM     78  C   UNL     1       6.224  -7.158   8.445  1.00  0.00     0.020 A 
ATOM     79  C   UNL     1       7.307  -6.783   9.240  1.00  0.00     0.054 A 
BRANCH  79  80
ATOM     80  S   UNL     1       7.033  -6.109  10.902  1.00  0.00     0.124 S 
ATOM     81  O   UNL     1       7.489  -7.203  11.752  1.00  0.00    -0.237 OA
ATOM     82  O   UNL     1       7.874  -4.914  10.899  1.00  0.00    -0.237 OA
ATOM     83  O   UNL     1       5.595  -5.849  10.932  1.00  0.00    -0.744 OA
ENDBRANCH  79  80
ENDBRANCH  51  74
BRANCH  63  84
ATOM     84  C   UNL     1      10.810 -13.709   4.519  1.00  0.00    -0.014 A 
ATOM     85  C   UNL     1      10.123 -14.569   5.394  1.00  0.00     0.010 A 
ATOM     86  C   UNL     1      12.192 -13.890   4.327  1.00  0.00     0.010 A 
ATOM     87  C   UNL     1      10.816 -15.548   6.111  1.00  0.00     0.020 A 
ATOM     88  C   UNL     1      12.882 -14.893   5.013  1.00  0.00     0.020 A 
ATOM     89  C   UNL     1      12.192 -15.699   5.920  1.00  0.00     0.054 A 
BRANCH  89  90
ATOM     90  S   UNL     1      13.068 -16.977   6.862  1.00  0.00     0.124 S 
ATOM     91  O   UNL     1      13.085 -16.405   8.205  1.00  0.00    -0.237 OA
ATOM     92  O   UNL     1      12.211 -18.147   6.688  1.00  0.00    -0.237 OA
ATOM     93  O   UNL     1      14.370 -17.063   6.204  1.00  0.00    -0.744 OA
ENDBRANCH  89  90
ENDBRANCH  63  84
ENDBRANCH  37  38
ENDBRANCH  30  32
ENDBRANCH  29  30
ENDBRANCH  28  29
ENDBRANCH  27  28
ENDBRANCH   1  27
TORSDOF 21
