REMARK SMILES O=C(COc1csc(C(=O)OCCOCCOC(=O)c2ccc(-c3c4nc(c(-c5ccc(S(=O)(=O)[O-])cc5)c5ccc([nH]5)c(-c5ccc(S(=O)(=O)[O-])cc5)c5nc(c(-c6ccc(S(=O)(=O)[O-])cc6)c6ccc3[nH]6)C=C5)C=C4)cc2)c1)Nc1nccs1
REMARK SMILES IDX 13 1 12 2 11 3 9 4 10 5 8 6 5 7 6 8 80 9 7 10 4 11 3 12 2 13
REMARK SMILES IDX 1 14 81 15 82 17 83 18 86 19 84 20 85 21 14 22 15 23 16 24
REMARK SMILES IDX 17 25 18 26 19 27 20 28 21 29 79 30 22 31 78 32 23 33 24 34
REMARK SMILES IDX 25 35 72 36 26 37 77 38 71 39 73 40 27 41 76 42 70 43 69 44
REMARK SMILES IDX 28 46 58 47 39 48 57 49 40 50 43 51 56 52 74 53 41 54 42 55
REMARK SMILES IDX 55 57 75 58 44 59 29 60 30 61 38 62 31 63 37 64 32 65 33 66
REMARK SMILES IDX 34 67 35 68 36 69 59 70 60 71 68 72 61 73 67 74 62 75 63 76
REMARK SMILES IDX 64 77 65 78 66 79 45 80 46 81 54 82 47 83 53 84 48 85 49 86
REMARK SMILES IDX 50 87 51 88 52 89
REMARK H PARENT 81 16 73 45 43 56
REMARK Flexibility Score: inf
ROOT
ATOM      1  C   UNL     1       4.237  -8.806  -1.044  1.00  0.00     0.202 C 
ENDROOT
BRANCH   1   2
ATOM      2  C   UNL     1       5.214  -7.904  -1.808  1.00  0.00     0.261 C 
BRANCH   2   3
ATOM      3  O   UNL     1       4.999  -6.521  -1.473  1.00  0.00    -0.459 OA
BRANCH   3   4
ATOM      4  C   UNL     1       4.364  -5.779  -2.425  1.00  0.00     0.348 C 
ATOM      5  O   UNL     1       4.150  -6.149  -3.573  1.00  0.00    -0.245 OA
BRANCH   4   6
ATOM      6  C   UNL     1       3.880  -4.546  -1.836  1.00  0.00     0.116 A 
ATOM      7  C   UNL     1       3.591  -2.622  -0.540  1.00  0.00     0.131 A 
ATOM      8  C   UNL     1       2.433  -2.627  -1.284  1.00  0.00     0.112 A 
ATOM      9  C   UNL     1       4.406  -3.759  -0.827  1.00  0.00     0.074 A 
ATOM     10  S   UNL     1       2.391  -3.916  -2.405  1.00  0.00    -0.133 S 
BRANCH   7  11
ATOM     11  O   UNL     1       3.999  -1.645   0.313  1.00  0.00    -0.483 OA
BRANCH  11  12
ATOM     12  C   UNL     1       2.973  -0.912   0.971  1.00  0.00     0.329 C 
BRANCH  12  13
ATOM     13  C   UNL     1       2.252   0.186   0.172  1.00  0.00     0.264 C 
ATOM     14  O   UNL     1       1.193   0.652   0.581  1.00  0.00    -0.271 OA
ATOM     15  N   UNL     1       2.909   0.521  -0.991  1.00  0.00    -0.299 N 
ATOM     16  H   UNL     1       3.838   0.218  -1.116  1.00  0.00     0.172 HD
BRANCH  15  17
ATOM     17  C   UNL     1       2.319   1.259  -1.976  1.00  0.00     0.189 A 
ATOM     18  N   UNL     1       1.141   1.826  -1.998  1.00  0.00    -0.229 NA
ATOM     19  S   UNL     1       3.240   1.366  -3.412  1.00  0.00    -0.105 S 
ATOM     20  C   UNL     1       0.925   2.385  -3.241  1.00  0.00     0.125 A 
ATOM     21  C   UNL     1       1.948   2.223  -4.151  1.00  0.00     0.088 A 
ENDBRANCH  15  17
ENDBRANCH  12  13
ENDBRANCH  11  12
ENDBRANCH   7  11
ENDBRANCH   4   6
ENDBRANCH   3   4
ENDBRANCH   2   3
ENDBRANCH   1   2
BRANCH   1  22
ATOM     22  O   UNL     1       2.871  -8.660  -1.440  1.00  0.00    -0.374 OA
BRANCH  22  23
ATOM     23  C   UNL     1       2.120  -7.665  -0.740  1.00  0.00     0.202 C 
BRANCH  23  24
ATOM     24  C   UNL     1       1.506  -8.132   0.584  1.00  0.00     0.261 C 
BRANCH  24  25
ATOM     25  O   UNL     1       2.525  -8.319   1.583  1.00  0.00    -0.460 OA
BRANCH  25  26
ATOM     26  C   UNL     1       2.777  -9.611   1.905  1.00  0.00     0.338 C 
ATOM     27  O   UNL     1       2.164 -10.595   1.528  1.00  0.00    -0.246 OA
BRANCH  26  28
ATOM     28  C   UNL     1       4.045  -9.700   2.660  1.00  0.00     0.060 A 
ATOM     29  C   UNL     1       4.941 -10.709   2.286  1.00  0.00     0.016 A 
ATOM     30  C   UNL     1       4.340  -8.854   3.733  1.00  0.00     0.016 A 
ATOM     31  C   UNL     1       6.109 -10.912   3.017  1.00  0.00     0.010 A 
ATOM     32  C   UNL     1       5.513  -9.062   4.468  1.00  0.00     0.010 A 
ATOM     33  C   UNL     1       6.384 -10.114   4.135  1.00  0.00    -0.014 A 
BRANCH  33  34
ATOM     34  C   UNL     1       7.514 -10.476   5.025  1.00  0.00     0.031 A 
ATOM     35  C   UNL     1       7.236 -11.250   6.285  1.00  0.00     0.074 A 
ATOM     36  C   UNL     1       8.778 -10.152   4.699  1.00  0.00     0.049 A 
ATOM     37  N   UNL     1       8.075 -11.691   7.187  1.00  0.00    -0.248 NA
ATOM     38  C   UNL     1       5.826 -11.568   6.564  1.00  0.00     0.031 C 
ATOM     39  C   UNL     1       9.180  -9.425   3.495  1.00  0.00     0.029 A 
ATOM     40  N   UNL     1       9.957 -10.393   5.358  1.00  0.00    -0.354 N 
ATOM     41  C   UNL     1       7.297 -12.331   8.145  1.00  0.00     0.074 A 
ATOM     42  C   UNL     1       5.917 -12.197   7.727  1.00  0.00     0.031 C 
ATOM     43  C   UNL     1      10.516  -9.275   3.505  1.00  0.00     0.029 A 
ATOM     44  C   UNL     1      11.059  -9.873   4.724  1.00  0.00     0.049 A 
ATOM     45  H   UNL     1      10.008 -10.893   6.205  1.00  0.00     0.167 HD
ATOM     46  C   UNL     1       7.693 -12.977   9.267  1.00  0.00     0.031 A 
ATOM     47  C   UNL     1      12.356  -9.867   5.089  1.00  0.00     0.031 A 
ATOM     48  C   UNL     1       9.062 -13.099   9.691  1.00  0.00     0.049 A 
ATOM     49  C   UNL     1      12.771 -10.550   6.364  1.00  0.00     0.074 A 
ATOM     50  C   UNL     1       9.566 -13.761  10.797  1.00  0.00     0.029 A 
ATOM     51  N   UNL     1      10.146 -12.535   9.034  1.00  0.00    -0.354 N 
ATOM     52  N   UNL     1      12.027 -11.191   7.234  1.00  0.00    -0.248 NA
ATOM     53  C   UNL     1      14.201 -10.520   6.699  1.00  0.00     0.031 C 
ATOM     54  C   UNL     1      10.950 -13.552  10.838  1.00  0.00     0.029 A 
ATOM     55  C   UNL     1      11.314 -12.807   9.728  1.00  0.00     0.049 A 
ATOM     56  H   UNL     1      10.093 -12.018   8.199  1.00  0.00     0.167 HD
ATOM     57  C   UNL     1      12.902 -11.656   8.211  1.00  0.00     0.074 A 
ATOM     58  C   UNL     1      14.231 -11.236   7.815  1.00  0.00     0.031 C 
ATOM     59  C   UNL     1      12.629 -12.371   9.331  1.00  0.00     0.031 A 
BRANCH  46  60
ATOM     60  C   UNL     1       6.616 -13.568  10.138  1.00  0.00    -0.014 A 
ATOM     61  C   UNL     1       5.900 -14.711   9.740  1.00  0.00     0.010 A 
ATOM     62  C   UNL     1       6.324 -12.974  11.379  1.00  0.00     0.010 A 
ATOM     63  C   UNL     1       4.879 -15.221  10.546  1.00  0.00     0.020 A 
ATOM     64  C   UNL     1       5.321 -13.496  12.200  1.00  0.00     0.020 A 
ATOM     65  C   UNL     1       4.590 -14.604  11.768  1.00  0.00     0.054 A 
BRANCH  65  66
ATOM     66  S   UNL     1       3.258 -15.283  12.795  1.00  0.00     0.124 S 
ATOM     67  O   UNL     1       2.067 -14.828  12.081  1.00  0.00    -0.237 OA
ATOM     68  O   UNL     1       3.510 -16.721  12.743  1.00  0.00    -0.237 OA
ATOM     69  O   UNL     1       3.477 -14.663  14.100  1.00  0.00    -0.744 OA
ENDBRANCH  65  66
ENDBRANCH  46  60
BRANCH  47  70
ATOM     70  C   UNL     1      13.355  -9.175   4.231  1.00  0.00    -0.014 A 
ATOM     71  C   UNL     1      14.274  -9.909   3.462  1.00  0.00     0.010 A 
ATOM     72  C   UNL     1      13.366  -7.770   4.158  1.00  0.00     0.010 A 
ATOM     73  C   UNL     1      15.188  -9.249   2.634  1.00  0.00     0.020 A 
ATOM     74  C   UNL     1      14.262  -7.109   3.314  1.00  0.00     0.020 A 
ATOM     75  C   UNL     1      15.171  -7.853   2.560  1.00  0.00     0.054 A 
BRANCH  75  76
ATOM     76  S   UNL     1      16.307  -7.020   1.416  1.00  0.00     0.124 S 
ATOM     77  O   UNL     1      17.579  -7.121   2.122  1.00  0.00    -0.237 OA
ATOM     78  O   UNL     1      16.186  -7.830   0.206  1.00  0.00    -0.237 OA
ATOM     79  O   UNL     1      15.753  -5.672   1.308  1.00  0.00    -0.744 OA
ENDBRANCH  75  76
ENDBRANCH  47  70
BRANCH  59  80
ATOM     80  C   UNL     1      13.792 -12.762  10.203  1.00  0.00    -0.014 A 
ATOM     81  C   UNL     1      14.452 -11.814  11.005  1.00  0.00     0.010 A 
ATOM     82  C   UNL     1      14.200 -14.108  10.257  1.00  0.00     0.010 A 
ATOM     83  C   UNL     1      15.521 -12.199  11.820  1.00  0.00     0.020 A 
ATOM     84  C   UNL     1      15.251 -14.501  11.089  1.00  0.00     0.020 A 
ATOM     85  C   UNL     1      15.916 -13.540  11.854  1.00  0.00     0.054 A 
BRANCH  85  86
ATOM     86  S   UNL     1      17.283 -14.023  12.944  1.00  0.00     0.124 S 
ATOM     87  O   UNL     1      18.446 -13.542  12.204  1.00  0.00    -0.237 OA
ATOM     88  O   UNL     1      16.982 -13.303  14.179  1.00  0.00    -0.237 OA
ATOM     89  O   UNL     1      17.158 -15.476  13.033  1.00  0.00    -0.744 OA
ENDBRANCH  85  86
ENDBRANCH  59  80
ENDBRANCH  33  34
ENDBRANCH  26  28
ENDBRANCH  25  26
ENDBRANCH  24  25
ENDBRANCH  23  24
ENDBRANCH  22  23
ENDBRANCH   1  22
TORSDOF 21
