REMARK SMILES Cc1ccc(O)c(C[C@H](NC=O)C(=O)OCCOCCOC(=O)c2ccc(-c3c4nc(c(-c5ccc(S(=O)(=O)[O-])cc5)c5ccc([nH]5)c(-c5ccc(S(=O)(=O)[O-])cc5)c5nc(c(-c6ccc(S(=O)(=O)[O-])cc6)c6ccc3[nH]6)C=C5)C=C4)cc2)n1
REMARK SMILES IDX 18 1 17 2 16 3 15 4 13 5 14 6 9 7 8 8 7 9 1 10 2 11 3 12
REMARK SMILES IDX 84 13 4 14 5 15 6 16 10 18 11 19 12 21 19 22 20 23 21 24
REMARK SMILES IDX 22 25 23 26 24 27 25 28 83 29 26 30 82 31 27 32 28 33 29 34
REMARK SMILES IDX 76 35 30 36 81 37 75 38 77 39 31 40 80 41 74 42 73 43 32 45
REMARK SMILES IDX 62 46 43 47 61 48 44 49 47 50 60 51 78 52 45 53 46 54 59 56
REMARK SMILES IDX 79 57 48 58 33 59 34 60 42 61 35 62 41 63 36 64 37 65 38 66
REMARK SMILES IDX 39 67 40 68 63 69 64 70 72 71 65 72 71 73 66 74 67 75 68 76
REMARK SMILES IDX 69 77 70 78 49 79 50 80 58 81 51 82 57 83 52 84 53 85 54 86
REMARK SMILES IDX 55 87 56 88
REMARK H PARENT 6 17 10 20 77 44 47 55
REMARK Flexibility Score: inf
ROOT
ATOM      1  O   UNL     1      -4.447  -5.492  -1.662  1.00  0.00    -0.374 OA
ENDROOT
BRANCH   1   2
ATOM      2  C   UNL     1      -3.712  -6.532  -1.024  1.00  0.00     0.202 C 
BRANCH   2   3
ATOM      3  C   UNL     1      -2.195  -6.540  -1.219  1.00  0.00     0.261 C 
BRANCH   3   4
ATOM      4  O   UNL     1      -1.575  -5.301  -0.852  1.00  0.00    -0.462 OA
BRANCH   4   5
ATOM      5  C   UNL     1      -0.990  -4.620  -1.882  1.00  0.00     0.329 C 
ATOM      6  O   UNL     1      -1.019  -4.958  -3.062  1.00  0.00    -0.250 OA
BRANCH   5   7
ATOM      7  C   UNL     1      -0.199  -3.399  -1.385  1.00  0.00     0.198 C 
BRANCH   7   8
ATOM      8  C   UNL     1       1.265  -3.733  -1.050  1.00  0.00     0.097 C 
BRANCH   8   9
ATOM      9  C   UNL     1       1.748  -4.990  -1.718  1.00  0.00     0.085 A 
ATOM     10  C   UNL     1       1.278  -8.550  -0.918  1.00  0.00     0.067 C 
ATOM     11  C   UNL     1       1.697  -7.316  -1.657  1.00  0.00     0.038 A 
ATOM     12  C   UNL     1       2.192  -7.393  -2.953  1.00  0.00     0.027 A 
ATOM     13  N   UNL     1       1.477  -6.134  -1.039  1.00  0.00    -0.254 NA
ATOM     14  C   UNL     1       2.486  -6.213  -3.636  1.00  0.00     0.050 A 
ATOM     15  C   UNL     1       2.251  -4.993  -3.014  1.00  0.00     0.137 A 
BRANCH  15  16
ATOM     16  O   UNL     1       2.448  -3.816  -3.676  1.00  0.00    -0.506 OA
ATOM     17  H   UNL     1       2.786  -3.821  -4.550  1.00  0.00     0.293 HD
ENDBRANCH  15  16
ENDBRANCH   8   9
ENDBRANCH   7   8
BRANCH   7  18
ATOM     18  N   UNL     1      -0.858  -2.776  -0.231  1.00  0.00    -0.345 N 
ATOM     19  C   UNL     1      -0.966  -1.434  -0.042  1.00  0.00     0.337 C 
ATOM     20  H   UNL     1      -1.248  -3.370   0.452  1.00  0.00     0.164 HD
ATOM     21  O   UNL     1      -1.573  -0.934   0.894  1.00  0.00    -0.279 OA
ENDBRANCH   7  18
ENDBRANCH   5   7
ENDBRANCH   4   5
ENDBRANCH   3   4
ENDBRANCH   2   3
ENDBRANCH   1   2
BRANCH   1  22
ATOM     22  C   UNL     1      -4.309  -4.163  -1.162  1.00  0.00     0.202 C 
BRANCH  22  23
ATOM     23  C   UNL     1      -4.841  -3.861   0.245  1.00  0.00     0.261 C 
BRANCH  23  24
ATOM     24  O   UNL     1      -4.184  -4.605   1.288  1.00  0.00    -0.460 OA
BRANCH  24  25
ATOM     25  C   UNL     1      -4.999  -5.449   1.965  1.00  0.00     0.338 C 
ATOM     26  O   UNL     1      -6.200  -5.625   1.770  1.00  0.00    -0.246 OA
BRANCH  25  27
ATOM     27  C   UNL     1      -4.248  -6.294   2.908  1.00  0.00     0.060 A 
ATOM     28  C   UNL     1      -4.416  -7.681   2.802  1.00  0.00     0.016 A 
ATOM     29  C   UNL     1      -3.529  -5.747   3.974  1.00  0.00     0.016 A 
ATOM     30  C   UNL     1      -3.929  -8.521   3.800  1.00  0.00     0.010 A 
ATOM     31  C   UNL     1      -3.044  -6.595   4.980  1.00  0.00     0.010 A 
ATOM     32  C   UNL     1      -3.285  -7.980   4.921  1.00  0.00    -0.014 A 
BRANCH  32  33
ATOM     33  C   UNL     1      -3.026  -8.861   6.089  1.00  0.00     0.031 A 
ATOM     34  C   UNL     1      -4.010  -8.876   7.231  1.00  0.00     0.074 A 
ATOM     35  C   UNL     1      -1.974  -9.699   6.098  1.00  0.00     0.049 A 
ATOM     36  N   UNL     1      -4.027  -9.634   8.298  1.00  0.00    -0.248 NA
ATOM     37  C   UNL     1      -5.123  -7.917   7.156  1.00  0.00     0.031 C 
ATOM     38  C   UNL     1      -0.970  -9.807   5.041  1.00  0.00     0.029 A 
ATOM     39  N   UNL     1      -1.587 -10.631   7.028  1.00  0.00    -0.354 N 
ATOM     40  C   UNL     1      -5.152  -9.248   9.018  1.00  0.00     0.074 A 
ATOM     41  C   UNL     1      -5.772  -8.166   8.284  1.00  0.00     0.031 C 
ATOM     42  C   UNL     1      -0.086 -10.762   5.378  1.00  0.00     0.029 A 
ATOM     43  C   UNL     1      -0.451 -11.319   6.679  1.00  0.00     0.049 A 
ATOM     44  H   UNL     1      -2.078 -10.792   7.867  1.00  0.00     0.167 HD
ATOM     45  C   UNL     1      -5.634  -9.752  10.180  1.00  0.00     0.031 A 
ATOM     46  C   UNL     1       0.219 -12.290   7.331  1.00  0.00     0.031 A 
ATOM     47  C   UNL     1      -5.011 -10.815  10.924  1.00  0.00     0.049 A 
ATOM     48  C   UNL     1      -0.306 -12.801   8.647  1.00  0.00     0.074 A 
ATOM     49  C   UNL     1      -5.426 -11.394  12.111  1.00  0.00     0.029 A 
ATOM     50  N   UNL     1      -3.839 -11.455  10.555  1.00  0.00    -0.354 N 
ATOM     51  N   UNL     1      -1.385 -12.441   9.300  1.00  0.00    -0.248 NA
ATOM     52  C   UNL     1       0.471 -13.862   9.304  1.00  0.00     0.031 C 
ATOM     53  C   UNL     1      -4.481 -12.358  12.481  1.00  0.00     0.029 A 
ATOM     54  C   UNL     1      -3.505 -12.412  11.498  1.00  0.00     0.049 A 
ATOM     55  H   UNL     1      -3.320 -11.259   9.742  1.00  0.00     0.167 HD
ATOM     56  C   UNL     1      -1.433 -13.251  10.429  1.00  0.00     0.074 A 
ATOM     57  C   UNL     1      -0.279 -14.125  10.367  1.00  0.00     0.031 C 
ATOM     58  C   UNL     1      -2.353 -13.274  11.425  1.00  0.00     0.031 A 
BRANCH  45  59
ATOM     59  C   UNL     1      -6.890  -9.132  10.731  1.00  0.00    -0.014 A 
ATOM     60  C   UNL     1      -8.141  -9.378  10.136  1.00  0.00     0.010 A 
ATOM     61  C   UNL     1      -6.822  -8.309  11.869  1.00  0.00     0.010 A 
ATOM     62  C   UNL     1      -9.296  -8.778  10.646  1.00  0.00     0.020 A 
ATOM     63  C   UNL     1      -7.978  -7.725  12.395  1.00  0.00     0.020 A 
ATOM     64  C   UNL     1      -9.206  -7.949  11.768  1.00  0.00     0.054 A 
BRANCH  64  65
ATOM     65  S   UNL     1     -10.719  -7.186  12.415  1.00  0.00     0.124 S 
ATOM     66  O   UNL     1     -10.953  -6.115  11.450  1.00  0.00    -0.237 OA
ATOM     67  O   UNL     1     -11.679  -8.287  12.375  1.00  0.00    -0.237 OA
ATOM     68  O   UNL     1     -10.339  -6.745  13.755  1.00  0.00    -0.744 OA
ENDBRANCH  64  65
ENDBRANCH  45  59
BRANCH  46  69
ATOM     69  C   UNL     1       1.461 -12.855   6.739  1.00  0.00    -0.014 A 
ATOM     70  C   UNL     1       1.471 -14.152   6.197  1.00  0.00     0.010 A 
ATOM     71  C   UNL     1       2.638 -12.087   6.702  1.00  0.00     0.010 A 
ATOM     72  C   UNL     1       2.640 -14.675   5.636  1.00  0.00     0.020 A 
ATOM     73  C   UNL     1       3.803 -12.597   6.122  1.00  0.00     0.020 A 
ATOM     74  C   UNL     1       3.799 -13.892   5.600  1.00  0.00     0.054 A 
BRANCH  74  75
ATOM     75  S   UNL     1       5.286 -14.562   4.805  1.00  0.00     0.124 S 
ATOM     76  O   UNL     1       5.786 -15.481   5.822  1.00  0.00    -0.237 OA
ATOM     77  O   UNL     1       4.749 -15.183   3.597  1.00  0.00    -0.237 OA
ATOM     78  O   UNL     1       6.109 -13.377   4.571  1.00  0.00    -0.744 OA
ENDBRANCH  74  75
ENDBRANCH  46  69
BRANCH  58  79
ATOM     79  C   UNL     1      -2.173 -14.301  12.511  1.00  0.00    -0.014 A 
ATOM     80  C   UNL     1      -1.178 -14.157  13.494  1.00  0.00     0.010 A 
ATOM     81  C   UNL     1      -3.041 -15.407  12.570  1.00  0.00     0.010 A 
ATOM     82  C   UNL     1      -1.031 -15.121  14.496  1.00  0.00     0.020 A 
ATOM     83  C   UNL     1      -2.912 -16.360  13.583  1.00  0.00     0.020 A 
ATOM     84  C   UNL     1      -1.896 -16.220  14.530  1.00  0.00     0.054 A 
BRANCH  84  85
ATOM     85  S   UNL     1      -1.706 -17.446  15.855  1.00  0.00     0.124 S 
ATOM     86  O   UNL     1      -0.557 -18.218  15.391  1.00  0.00    -0.237 OA
ATOM     87  O   UNL     1      -1.471 -16.616  17.034  1.00  0.00    -0.237 OA
ATOM     88  O   UNL     1      -2.981 -18.160  15.849  1.00  0.00    -0.744 OA
ENDBRANCH  84  85
ENDBRANCH  58  79
ENDBRANCH  32  33
ENDBRANCH  25  27
ENDBRANCH  24  25
ENDBRANCH  23  24
ENDBRANCH  22  23
ENDBRANCH   1  22
TORSDOF 21
