REMARK SMILES O=C(OCCOCCOC(=O)c1cc(F)c(F)cc1NS(=O)(=O)c1ccc2c(c1)CCC2)c1ccc(-c2c3nc(c(-c4ccc(S(=O)(=O)[O-])cc4)c4ccc([nH]4)c(-c4ccc(S(=O)(=O)[O-])cc4)c4nc(c(-c5ccc(S(=O)(=O)[O-])cc5)c5ccc2[nH]5)C=C4)C=C3)cc1
REMARK SMILES IDX 6 1 5 2 4 3 3 4 2 5 1 6 33 7 34 8 92 9 35 10 91 11 36 12
REMARK SMILES IDX 37 13 38 14 85 15 39 16 90 17 84 18 86 19 40 20 89 21 83 22
REMARK SMILES IDX 82 23 41 25 71 26 52 27 70 28 53 29 56 30 69 31 87 32 54 33
REMARK SMILES IDX 55 34 68 36 88 37 57 38 42 39 43 40 51 41 44 42 50 43 45 44
REMARK SMILES IDX 46 45 47 46 48 47 49 48 72 49 73 50 81 51 74 52 80 53 75 54
REMARK SMILES IDX 76 55 77 56 78 57 79 58 58 59 59 60 67 61 60 62 66 63 61 64
REMARK SMILES IDX 62 65 63 66 64 67 65 68 7 69 8 70 9 71 10 72 11 73 12 74
REMARK SMILES IDX 13 75 19 76 14 77 18 78 15 79 16 80 17 81 20 82 21 84 22 85
REMARK SMILES IDX 23 86 24 87 25 88 29 89 26 90 28 91 27 92 30 93 32 94 31 95
REMARK H PARENT 86 24 56 35 20 83
REMARK Flexibility Score: inf
ROOT
ATOM      1  O   UNL     1       4.204  -1.214  -1.238  1.00  0.00    -0.374 OA
ENDROOT
BRANCH   1   2
ATOM      2  C   UNL     1       4.304  -1.541   0.145  1.00  0.00     0.202 C 
BRANCH   2   3
ATOM      3  C   UNL     1       3.828  -0.470   1.123  1.00  0.00     0.261 C 
BRANCH   3   4
ATOM      4  O   UNL     1       2.430  -0.215   0.912  1.00  0.00    -0.460 OA
BRANCH   4   5
ATOM      5  C   UNL     1       1.870   0.912   0.418  1.00  0.00     0.338 C 
ATOM      6  O   UNL     1       0.646   1.026   0.441  1.00  0.00    -0.246 OA
BRANCH   5   7
ATOM      7  C   UNL     1       2.672   2.028  -0.160  1.00  0.00     0.060 A 
ATOM      8  C   UNL     1       3.873   1.857  -0.852  1.00  0.00     0.016 A 
ATOM      9  C   UNL     1       2.125   3.317  -0.089  1.00  0.00     0.016 A 
ATOM     10  C   UNL     1       4.555   2.930  -1.402  1.00  0.00     0.010 A 
ATOM     11  C   UNL     1       2.781   4.400  -0.679  1.00  0.00     0.010 A 
ATOM     12  C   UNL     1       4.006   4.205  -1.326  1.00  0.00    -0.014 A 
BRANCH  12  13
ATOM     13  C   UNL     1       4.783   5.329  -1.866  1.00  0.00     0.031 A 
ATOM     14  C   UNL     1       5.518   6.209  -0.907  1.00  0.00     0.074 A 
ATOM     15  C   UNL     1       4.894   5.476  -3.198  1.00  0.00     0.049 A 
ATOM     16  N   UNL     1       6.182   7.306  -1.139  1.00  0.00    -0.248 NA
ATOM     17  C   UNL     1       5.509   5.789   0.505  1.00  0.00     0.031 C 
ATOM     18  C   UNL     1       4.317   4.572  -4.198  1.00  0.00     0.029 A 
ATOM     19  N   UNL     1       5.545   6.423  -3.940  1.00  0.00    -0.354 N 
ATOM     20  C   UNL     1       6.638   7.732   0.101  1.00  0.00     0.074 A 
ATOM     21  C   UNL     1       6.186   6.770   1.081  1.00  0.00     0.031 C 
ATOM     22  C   UNL     1       4.654   5.004  -5.424  1.00  0.00     0.029 A 
ATOM     23  C   UNL     1       5.403   6.248  -5.296  1.00  0.00     0.049 A 
ATOM     24  H   UNL     1       6.065   7.158  -3.542  1.00  0.00     0.167 HD
ATOM     25  C   UNL     1       7.350   8.845   0.388  1.00  0.00     0.031 A 
ATOM     26  C   UNL     1       5.801   7.036  -6.312  1.00  0.00     0.031 A 
ATOM     27  C   UNL     1       7.755   9.790  -0.616  1.00  0.00     0.049 A 
ATOM     28  C   UNL     1       6.518   8.312  -5.967  1.00  0.00     0.074 A 
ATOM     29  C   UNL     1       8.396  11.004  -0.459  1.00  0.00     0.029 A 
ATOM     30  N   UNL     1       7.549   9.614  -1.979  1.00  0.00    -0.354 N 
ATOM     31  N   UNL     1       6.863   8.763  -4.782  1.00  0.00    -0.248 NA
ATOM     32  C   UNL     1       6.885   9.192  -7.082  1.00  0.00     0.031 C 
ATOM     33  C   UNL     1       8.543  11.578  -1.728  1.00  0.00     0.029 A 
ATOM     34  C   UNL     1       8.042  10.699  -2.678  1.00  0.00     0.049 A 
ATOM     35  H   UNL     1       7.116   8.829  -2.388  1.00  0.00     0.167 HD
ATOM     36  C   UNL     1       7.497   9.977  -5.007  1.00  0.00     0.074 A 
ATOM     37  C   UNL     1       7.501  10.180  -6.445  1.00  0.00     0.031 C 
ATOM     38  C   UNL     1       8.025  10.850  -4.113  1.00  0.00     0.031 A 
BRANCH  25  39
ATOM     39  C   UNL     1       7.619   9.121   1.841  1.00  0.00    -0.014 A 
ATOM     40  C   UNL     1       8.546   8.361   2.578  1.00  0.00     0.010 A 
ATOM     41  C   UNL     1       6.869  10.112   2.501  1.00  0.00     0.010 A 
ATOM     42  C   UNL     1       8.671   8.545   3.959  1.00  0.00     0.020 A 
ATOM     43  C   UNL     1       7.007  10.314   3.876  1.00  0.00     0.020 A 
ATOM     44  C   UNL     1       7.888   9.509   4.602  1.00  0.00     0.054 A 
BRANCH  44  45
ATOM     45  S   UNL     1       8.026   9.697   6.402  1.00  0.00     0.124 S 
ATOM     46  O   UNL     1       7.279   8.537   6.882  1.00  0.00    -0.237 OA
ATOM     47  O   UNL     1       9.469   9.649   6.622  1.00  0.00    -0.237 OA
ATOM     48  O   UNL     1       7.402  10.991   6.664  1.00  0.00    -0.744 OA
ENDBRANCH  44  45
ENDBRANCH  25  39
BRANCH  26  49
ATOM     49  C   UNL     1       5.471   6.663  -7.716  1.00  0.00    -0.014 A 
ATOM     50  C   UNL     1       6.474   6.271  -8.617  1.00  0.00     0.010 A 
ATOM     51  C   UNL     1       4.129   6.649  -8.145  1.00  0.00     0.010 A 
ATOM     52  C   UNL     1       6.143   5.871  -9.918  1.00  0.00     0.020 A 
ATOM     53  C   UNL     1       3.791   6.226  -9.433  1.00  0.00     0.020 A 
ATOM     54  C   UNL     1       4.802   5.845 -10.316  1.00  0.00     0.054 A 
BRANCH  54  55
ATOM     55  S   UNL     1       4.386   5.249 -11.979  1.00  0.00     0.124 S 
ATOM     56  O   UNL     1       4.779   6.379 -12.814  1.00  0.00    -0.237 OA
ATOM     57  O   UNL     1       5.215   4.052 -12.104  1.00  0.00    -0.237 OA
ATOM     58  O   UNL     1       2.949   4.995 -11.902  1.00  0.00    -0.744 OA
ENDBRANCH  54  55
ENDBRANCH  26  49
BRANCH  38  59
ATOM     59  C   UNL     1       8.677  12.082  -4.669  1.00  0.00    -0.014 A 
ATOM     60  C   UNL     1       7.907  13.166  -5.122  1.00  0.00     0.010 A 
ATOM     61  C   UNL     1      10.079  12.184  -4.650  1.00  0.00     0.010 A 
ATOM     62  C   UNL     1       8.533  14.333  -5.561  1.00  0.00     0.020 A 
ATOM     63  C   UNL     1      10.707  13.357  -5.069  1.00  0.00     0.020 A 
ATOM     64  C   UNL     1       9.929  14.422  -5.529  1.00  0.00     0.054 A 
BRANCH  64  65
ATOM     65  S   UNL     1      10.718  15.975  -6.031  1.00  0.00     0.124 S 
ATOM     66  O   UNL     1      10.627  15.904  -7.487  1.00  0.00    -0.237 OA
ATOM     67  O   UNL     1       9.875  16.985  -5.397  1.00  0.00    -0.237 OA
ATOM     68  O   UNL     1      12.069  15.868  -5.484  1.00  0.00    -0.744 OA
ENDBRANCH  64  65
ENDBRANCH  38  59
ENDBRANCH  12  13
ENDBRANCH   5   7
ENDBRANCH   4   5
ENDBRANCH   3   4
ENDBRANCH   2   3
ENDBRANCH   1   2
BRANCH   1  69
ATOM     69  C   UNL     1       2.952  -1.485  -1.871  1.00  0.00     0.202 C 
BRANCH  69  70
ATOM     70  C   UNL     1       3.237  -2.165  -3.216  1.00  0.00     0.261 C 
BRANCH  70  71
ATOM     71  O   UNL     1       3.657  -3.519  -2.961  1.00  0.00    -0.460 OA
BRANCH  71  72
ATOM     72  C   UNL     1       4.965  -3.701  -2.629  1.00  0.00     0.340 C 
ATOM     73  O   UNL     1       5.916  -3.001  -2.883  1.00  0.00    -0.246 OA
BRANCH  72  74
ATOM     74  C   UNL     1       4.968  -4.795  -1.625  1.00  0.00     0.087 A 
ATOM     75  C   UNL     1       4.111  -5.888  -1.821  1.00  0.00     0.060 A 
ATOM     76  C   UNL     1       5.679  -4.632  -0.416  1.00  0.00     0.066 A 
ATOM     77  C   UNL     1       3.896  -6.773  -0.779  1.00  0.00     0.159 A 
ATOM     78  C   UNL     1       5.352  -5.477   0.650  1.00  0.00     0.070 A 
ATOM     79  F   UNL     1       3.095  -7.829  -0.968  1.00  0.00    -0.204 F 
ATOM     80  C   UNL     1       4.478  -6.545   0.459  1.00  0.00     0.160 A 
ATOM     81  F   UNL     1       4.228  -7.375   1.480  1.00  0.00    -0.204 F 
BRANCH  76  82
ATOM     82  N   UNL     1       6.795  -3.729  -0.365  1.00  0.00    -0.279 N 
ATOM     83  H   UNL     1       7.062  -3.315  -1.217  1.00  0.00     0.180 HD
BRANCH  82  84
ATOM     84  S   UNL     1       7.692  -3.303   0.985  1.00  0.00     0.261 S 
ATOM     85  O   UNL     1       8.758  -2.442   0.527  1.00  0.00    -0.201 OA
ATOM     86  O   UNL     1       6.758  -2.880   2.009  1.00  0.00    -0.201 OA
BRANCH  84  87
ATOM     87  C   UNL     1       8.457  -4.803   1.571  1.00  0.00     0.088 A 
ATOM     88  C   UNL     1       8.440  -5.970   0.787  1.00  0.00     0.022 A 
ATOM     89  C   UNL     1       8.835  -4.840   2.921  1.00  0.00     0.026 A 
ATOM     90  C   UNL     1       8.627  -7.214   1.390  1.00  0.00     0.005 A 
ATOM     91  C   UNL     1       9.103  -6.075   3.481  1.00  0.00    -0.043 A 
ATOM     92  C   UNL     1       8.931  -7.249   2.739  1.00  0.00    -0.045 A 
ATOM     93  C   UNL     1       9.489  -6.386   4.894  1.00  0.00     0.036 C 
ATOM     94  C   UNL     1       9.031  -8.447   3.631  1.00  0.00     0.036 C 
ATOM     95  C   UNL     1       9.864  -7.873   4.782  1.00  0.00     0.010 C 
ENDBRANCH  84  87
ENDBRANCH  82  84
ENDBRANCH  76  82
ENDBRANCH  72  74
ENDBRANCH  71  72
ENDBRANCH  70  71
ENDBRANCH  69  70
ENDBRANCH   1  69
TORSDOF 20
