REMARK SMILES Cc1c(NC(=O)c2ccccc2NC(=O)[C@@H]2CCCO2)cccc1C(=O)OCCOCCOC(=O)c1ccc(-c2c3nc(c(-c4ccc(S(=O)(=O)[O-])cc4)c4ccc([nH]4)c(-c4ccc(S(=O)(=O)[O-])cc4)c4nc(c(-c5ccc(S(=O)(=O)[O-])cc5)c5ccc2[nH]5)C=C4)C=C3)cc1
REMARK SMILES IDX 29 1 28 2 27 3 25 4 26 5 24 6 1 7 2 8 3 9 21 10 23 11 22 12
REMARK SMILES IDX 4 13 5 14 6 16 7 17 8 18 12 19 9 20 11 21 10 22 13 23 14 24
REMARK SMILES IDX 15 26 16 27 17 28 20 29 18 30 19 31 30 32 31 33 32 34 33 35
REMARK SMILES IDX 34 36 35 37 36 38 37 39 95 40 38 41 94 42 39 43 40 44 41 45
REMARK SMILES IDX 88 46 42 47 93 48 87 49 89 50 43 51 92 52 86 53 85 54 44 56
REMARK SMILES IDX 74 57 55 58 73 59 56 60 59 61 72 62 90 63 57 64 58 65 71 67
REMARK SMILES IDX 91 68 60 69 45 70 46 71 54 72 47 73 53 74 48 75 49 76 50 77
REMARK SMILES IDX 51 78 52 79 75 80 76 81 84 82 77 83 83 84 78 85 79 86 80 87
REMARK SMILES IDX 81 88 82 89 61 90 62 91 70 92 63 93 69 94 64 95 65 96 66 97
REMARK SMILES IDX 67 98 68 99
REMARK H PARENT 4 15 13 25 89 55 59 66
REMARK Flexibility Score: inf
ROOT
ATOM      1  C   UNL     1       2.234   2.582  -2.458  1.00  0.00     0.202 C 
ENDROOT
BRANCH   1   2
ATOM      2  C   UNL     1       2.753   2.363  -1.089  1.00  0.00     0.261 C 
BRANCH   2   3
ATOM      3  O   UNL     1       1.850   1.504  -0.372  1.00  0.00    -0.460 OA
BRANCH   3   4
ATOM      4  C   UNL     1       0.671   1.841   0.179  1.00  0.00     0.338 C 
ATOM      5  O   UNL     1       0.183   2.932   0.353  1.00  0.00    -0.246 OA
BRANCH   4   6
ATOM      6  C   UNL     1      -0.008   0.552   0.501  1.00  0.00     0.065 A 
ATOM      7  C   UNL     1       2.106  -0.959   0.286  1.00  0.00     0.047 C 
ATOM      8  C   UNL     1       0.627  -0.717   0.548  1.00  0.00    -0.013 A 
ATOM      9  C   UNL     1      -0.201  -1.858   0.647  1.00  0.00     0.045 A 
ATOM     10  C   UNL     1      -1.589  -1.740   0.788  1.00  0.00     0.026 A 
ATOM     11  C   UNL     1      -1.406   0.654   0.643  1.00  0.00     0.016 A 
ATOM     12  C   UNL     1      -2.192  -0.485   0.788  1.00  0.00     0.003 A 
BRANCH   9  13
ATOM     13  N   UNL     1       0.427  -3.105   0.487  1.00  0.00    -0.322 N 
ATOM     14  C   UNL     1       0.103  -4.211  -0.248  1.00  0.00     0.257 C 
ATOM     15  H   UNL     1       1.261  -3.200   1.002  1.00  0.00     0.170 HD
ATOM     16  O   UNL     1       0.858  -5.185  -0.206  1.00  0.00    -0.269 OA
BRANCH  14  17
ATOM     17  C   UNL     1      -1.109  -4.291  -1.091  1.00  0.00     0.063 A 
ATOM     18  C   UNL     1      -1.801  -5.507  -0.932  1.00  0.00     0.016 A 
ATOM     19  C   UNL     1      -1.583  -3.297  -1.980  1.00  0.00     0.054 A 
ATOM     20  C   UNL     1      -3.013  -5.720  -1.566  1.00  0.00     0.001 A 
ATOM     21  C   UNL     1      -2.862  -3.497  -2.506  1.00  0.00     0.027 A 
ATOM     22  C   UNL     1      -3.562  -4.696  -2.319  1.00  0.00     0.002 A 
BRANCH  19  23
ATOM     23  N   UNL     1      -0.776  -2.174  -2.293  1.00  0.00    -0.323 N 
ATOM     24  C   UNL     1      -0.869  -1.087  -3.121  1.00  0.00     0.253 C 
ATOM     25  H   UNL     1       0.067  -2.177  -1.786  1.00  0.00     0.170 HD
ATOM     26  O   UNL     1       0.024  -0.239  -3.023  1.00  0.00    -0.272 OA
BRANCH  24  27
ATOM     27  C   UNL     1      -1.980  -0.937  -4.166  1.00  0.00     0.207 C 
ATOM     28  C   UNL     1      -1.820  -1.993  -5.253  1.00  0.00     0.044 C 
ATOM     29  O   UNL     1      -2.000   0.322  -4.868  1.00  0.00    -0.368 OA
ATOM     30  C   UNL     1      -2.567  -1.378  -6.402  1.00  0.00     0.032 C 
ATOM     31  C   UNL     1      -2.172   0.073  -6.269  1.00  0.00     0.161 C 
ENDBRANCH  24  27
ENDBRANCH  19  23
ENDBRANCH  14  17
ENDBRANCH   9  13
ENDBRANCH   4   6
ENDBRANCH   3   4
ENDBRANCH   2   3
ENDBRANCH   1   2
BRANCH   1  32
ATOM     32  O   UNL     1       1.052   3.340  -2.242  1.00  0.00    -0.374 OA
BRANCH  32  33
ATOM     33  C   UNL     1       0.236   3.501  -3.370  1.00  0.00     0.202 C 
BRANCH  33  34
ATOM     34  C   UNL     1       0.996   4.208  -4.491  1.00  0.00     0.261 C 
BRANCH  34  35
ATOM     35  O   UNL     1       1.283   5.585  -4.135  1.00  0.00    -0.460 OA
BRANCH  35  36
ATOM     36  C   UNL     1       2.554   5.875  -3.712  1.00  0.00     0.338 C 
ATOM     37  O   UNL     1       3.479   6.104  -4.472  1.00  0.00    -0.246 OA
BRANCH  36  38
ATOM     38  C   UNL     1       2.621   6.005  -2.223  1.00  0.00     0.060 A 
ATOM     39  C   UNL     1       3.833   5.894  -1.510  1.00  0.00     0.016 A 
ATOM     40  C   UNL     1       1.423   6.058  -1.522  1.00  0.00     0.016 A 
ATOM     41  C   UNL     1       3.828   5.680  -0.115  1.00  0.00     0.010 A 
ATOM     42  C   UNL     1       1.418   5.735  -0.182  1.00  0.00     0.010 A 
ATOM     43  C   UNL     1       2.607   5.519   0.537  1.00  0.00    -0.014 A 
BRANCH  43  44
ATOM     44  C   UNL     1       2.368   5.065   1.916  1.00  0.00     0.031 A 
ATOM     45  C   UNL     1       1.598   5.986   2.790  1.00  0.00     0.074 A 
ATOM     46  C   UNL     1       2.502   3.757   2.265  1.00  0.00     0.049 A 
ATOM     47  N   UNL     1       1.320   5.740   4.019  1.00  0.00    -0.248 NA
ATOM     48  C   UNL     1       1.084   7.291   2.362  1.00  0.00     0.031 C 
ATOM     49  C   UNL     1       1.774   2.998   3.288  1.00  0.00     0.029 A 
ATOM     50  N   UNL     1       3.350   2.786   1.733  1.00  0.00    -0.354 N 
ATOM     51  C   UNL     1       0.344   6.622   4.416  1.00  0.00     0.074 A 
ATOM     52  C   UNL     1       0.312   7.636   3.397  1.00  0.00     0.031 C 
ATOM     53  C   UNL     1       2.372   1.807   3.488  1.00  0.00     0.029 A 
ATOM     54  C   UNL     1       3.585   1.788   2.685  1.00  0.00     0.049 A 
ATOM     55  H   UNL     1       3.728   2.801   0.824  1.00  0.00     0.167 HD
ATOM     56  C   UNL     1      -0.399   6.297   5.508  1.00  0.00     0.031 A 
ATOM     57  C   UNL     1       4.858   1.534   3.091  1.00  0.00     0.031 A 
ATOM     58  C   UNL     1       0.160   5.108   6.167  1.00  0.00     0.049 A 
ATOM     59  C   UNL     1       4.955   2.024   4.508  1.00  0.00     0.074 A 
ATOM     60  C   UNL     1      -0.235   3.785   6.244  1.00  0.00     0.029 A 
ATOM     61  N   UNL     1       1.499   5.140   6.561  1.00  0.00    -0.354 N 
ATOM     62  N   UNL     1       4.153   2.943   4.981  1.00  0.00    -0.248 NA
ATOM     63  C   UNL     1       5.800   1.431   5.538  1.00  0.00     0.031 C 
ATOM     64  C   UNL     1       0.924   3.010   6.564  1.00  0.00     0.029 A 
ATOM     65  C   UNL     1       2.008   3.864   6.721  1.00  0.00     0.049 A 
ATOM     66  H   UNL     1       2.015   5.965   6.707  1.00  0.00     0.167 HD
ATOM     67  C   UNL     1       4.239   2.960   6.334  1.00  0.00     0.074 A 
ATOM     68  C   UNL     1       5.335   2.051   6.638  1.00  0.00     0.031 C 
ATOM     69  C   UNL     1       3.398   3.675   7.131  1.00  0.00     0.031 A 
BRANCH  56  70
ATOM     70  C   UNL     1      -1.715   6.935   5.892  1.00  0.00    -0.014 A 
ATOM     71  C   UNL     1      -2.390   6.469   7.039  1.00  0.00     0.010 A 
ATOM     72  C   UNL     1      -2.380   7.934   5.150  1.00  0.00     0.010 A 
ATOM     73  C   UNL     1      -3.644   6.972   7.425  1.00  0.00     0.020 A 
ATOM     74  C   UNL     1      -3.623   8.465   5.536  1.00  0.00     0.020 A 
ATOM     75  C   UNL     1      -4.251   7.976   6.673  1.00  0.00     0.054 A 
BRANCH  75  76
ATOM     76  S   UNL     1      -5.861   8.623   7.197  1.00  0.00     0.124 S 
ATOM     77  O   UNL     1      -6.721   7.447   7.089  1.00  0.00    -0.237 OA
ATOM     78  O   UNL     1      -5.590   9.083   8.556  1.00  0.00    -0.237 OA
ATOM     79  O   UNL     1      -6.142   9.683   6.231  1.00  0.00    -0.744 OA
ENDBRANCH  75  76
ENDBRANCH  56  70
BRANCH  57  80
ATOM     80  C   UNL     1       5.844   1.621   1.956  1.00  0.00    -0.014 A 
ATOM     81  C   UNL     1       5.855   0.532   1.047  1.00  0.00     0.010 A 
ATOM     82  C   UNL     1       6.305   2.866   1.486  1.00  0.00     0.010 A 
ATOM     83  C   UNL     1       6.144   0.717  -0.316  1.00  0.00     0.020 A 
ATOM     84  C   UNL     1       6.582   3.058   0.115  1.00  0.00     0.020 A 
ATOM     85  C   UNL     1       6.450   1.994  -0.785  1.00  0.00     0.054 A 
BRANCH  85  86
ATOM     86  S   UNL     1       6.353   2.310  -2.588  1.00  0.00     0.124 S 
ATOM     87  O   UNL     1       7.659   1.863  -3.057  1.00  0.00    -0.237 OA
ATOM     88  O   UNL     1       5.222   1.480  -3.003  1.00  0.00    -0.237 OA
ATOM     89  O   UNL     1       6.106   3.746  -2.661  1.00  0.00    -0.744 OA
ENDBRANCH  85  86
ENDBRANCH  57  80
BRANCH  69  90
ATOM     90  C   UNL     1       3.871   4.238   8.434  1.00  0.00    -0.014 A 
ATOM     91  C   UNL     1       5.237   4.370   8.736  1.00  0.00     0.010 A 
ATOM     92  C   UNL     1       2.944   4.827   9.318  1.00  0.00     0.010 A 
ATOM     93  C   UNL     1       5.656   4.951   9.928  1.00  0.00     0.020 A 
ATOM     94  C   UNL     1       3.357   5.477  10.476  1.00  0.00     0.020 A 
ATOM     95  C   UNL     1       4.710   5.489  10.796  1.00  0.00     0.054 A 
BRANCH  95  96
ATOM     96  S   UNL     1       5.274   6.210  12.347  1.00  0.00     0.124 S 
ATOM     97  O   UNL     1       5.479   5.016  13.164  1.00  0.00    -0.237 OA
ATOM     98  O   UNL     1       6.491   6.915  11.952  1.00  0.00    -0.237 OA
ATOM     99  O   UNL     1       4.165   7.068  12.753  1.00  0.00    -0.744 OA
ENDBRANCH  95  96
ENDBRANCH  69  90
ENDBRANCH  43  44
ENDBRANCH  36  38
ENDBRANCH  35  36
ENDBRANCH  34  35
ENDBRANCH  33  34
ENDBRANCH  32  33
ENDBRANCH   1  32
TORSDOF 21
