REMARK SMILES C[C@@H]1[C@H](C)CCC[C@H]1NC(=O)C[N@@H+]1CCC[C@@H]1C(=O)OCCOCCOC(=O)c1ccc(-c2c3nc(c(-c4ccc(S(=O)(=O)[O-])cc4)c4ccc([nH]4)c(-c4ccc(S(=O)(=O)[O-])cc4)c4nc(c(-c5ccc(S(=O)(=O)[O-])cc5)c5ccc2[nH]5)C=C4)C=C3)cc1
REMARK SMILES IDX 23 1 22 2 21 3 20 4 18 5 19 6 17 7 13 8 14 9 15 11 16 12
REMARK SMILES IDX 12 13 10 14 9 15 11 17 8 18 1 19 2 20 3 21 4 22 5 23 7 24
REMARK SMILES IDX 6 25 24 26 25 27 26 28 27 29 28 30 29 31 30 32 88 33 31 34
REMARK SMILES IDX 87 35 32 36 33 37 34 38 81 39 35 40 86 41 80 42 82 43 36 44
REMARK SMILES IDX 85 45 79 46 78 47 37 49 67 50 48 51 66 52 49 53 52 54 65 55
REMARK SMILES IDX 83 56 50 57 51 58 64 60 84 61 53 62 38 63 39 64 47 65 40 66
REMARK SMILES IDX 46 67 41 68 42 69 43 70 44 71 45 72 68 73 69 74 77 75 70 76
REMARK SMILES IDX 76 77 71 78 72 79 73 80 74 81 75 82 54 83 55 84 63 85 56 86
REMARK SMILES IDX 62 87 57 88 58 89 59 90 60 91 61 92
REMARK H PARENT 13 10 9 16 82 48 52 59
REMARK Flexibility Score: inf
ROOT
ATOM      1  O   UNL     1       1.995   7.753   6.090  1.00  0.00    -0.374 OA
ENDROOT
BRANCH   1   2
ATOM      2  C   UNL     1       0.659   7.295   6.305  1.00  0.00     0.202 C 
BRANCH   2   3
ATOM      3  C   UNL     1       0.031   6.498   5.157  1.00  0.00     0.261 C 
BRANCH   3   4
ATOM      4  O   UNL     1       0.680   5.224   5.005  1.00  0.00    -0.459 OA
BRANCH   4   5
ATOM      5  C   UNL     1       1.108   4.892   3.754  1.00  0.00     0.365 C 
ATOM      6  O   UNL     1       0.889   5.550   2.743  1.00  0.00    -0.245 OA
BRANCH   5   7
ATOM      7  C   UNL     1       1.883   3.562   3.749  1.00  0.00     0.295 C 
ATOM      8  N   UNL     1       1.066   2.354   3.397  1.00  0.00    -0.315 N 
ATOM      9  C   UNL     1       1.804   1.245   4.028  1.00  0.00     0.263 C 
ATOM     10  H   UNL     1       0.958   2.216   2.392  1.00  0.00     0.349 HD
ATOM     11  C   UNL     1       2.288   1.780   5.353  1.00  0.00     0.068 C 
ATOM     12  C   UNL     1       2.647   3.219   5.037  1.00  0.00     0.083 C 
BRANCH   8  13
ATOM     13  C   UNL     1      -0.329   2.479   3.892  1.00  0.00     0.364 C 
BRANCH  13  14
ATOM     14  C   UNL     1      -1.101   1.165   3.936  1.00  0.00     0.275 C 
ATOM     15  N   UNL     1      -1.376   0.468   2.803  1.00  0.00    -0.348 N 
ATOM     16  H   UNL     1      -1.996  -0.288   2.924  1.00  0.00     0.163 HD
ATOM     17  O   UNL     1      -1.511   0.713   5.008  1.00  0.00    -0.268 OA
BRANCH  15  18
ATOM     18  C   UNL     1      -0.901   0.656   1.431  1.00  0.00     0.085 C 
ATOM     19  C   UNL     1       0.971   0.042  -0.183  1.00  0.00     0.010 C 
ATOM     20  C   UNL     1       0.250  -0.337   1.120  1.00  0.00     0.011 C 
ATOM     21  C   UNL     1      -0.271  -1.798   1.129  1.00  0.00    -0.009 C 
ATOM     22  C   UNL     1       0.828  -2.821   0.831  1.00  0.00     0.008 C 
ATOM     23  C   UNL     1      -1.466  -1.993   0.184  1.00  0.00     0.004 C 
ATOM     24  C   UNL     1      -2.070   0.467   0.454  1.00  0.00     0.025 C 
ATOM     25  C   UNL     1      -2.580  -0.975   0.423  1.00  0.00     0.002 C 
ENDBRANCH  15  18
ENDBRANCH  13  14
ENDBRANCH   8  13
ENDBRANCH   5   7
ENDBRANCH   4   5
ENDBRANCH   3   4
ENDBRANCH   2   3
ENDBRANCH   1   2
BRANCH   1  26
ATOM     26  C   UNL     1       3.040   6.783   6.104  1.00  0.00     0.202 C 
BRANCH  26  27
ATOM     27  C   UNL     1       3.432   6.205   7.471  1.00  0.00     0.261 C 
BRANCH  27  28
ATOM     28  O   UNL     1       2.380   5.445   8.096  1.00  0.00    -0.460 OA
BRANCH  28  29
ATOM     29  C   UNL     1       1.920   5.972   9.255  1.00  0.00     0.338 C 
ATOM     30  O   UNL     1       2.327   6.989   9.811  1.00  0.00    -0.246 OA
BRANCH  29  31
ATOM     31  C   UNL     1       0.733   5.252   9.745  1.00  0.00     0.060 A 
ATOM     32  C   UNL     1      -0.423   6.007   9.979  1.00  0.00     0.016 A 
ATOM     33  C   UNL     1       0.788   3.908  10.121  1.00  0.00     0.016 A 
ATOM     34  C   UNL     1      -1.502   5.441  10.655  1.00  0.00     0.010 A 
ATOM     35  C   UNL     1      -0.297   3.342  10.805  1.00  0.00     0.010 A 
ATOM     36  C   UNL     1      -1.426   4.121  11.119  1.00  0.00    -0.014 A 
BRANCH  36  37
ATOM     37  C   UNL     1      -2.456   3.633  12.072  1.00  0.00     0.031 A 
ATOM     38  C   UNL     1      -2.157   3.654  13.549  1.00  0.00     0.074 A 
ATOM     39  C   UNL     1      -3.669   3.242  11.640  1.00  0.00     0.049 A 
ATOM     40  N   UNL     1      -2.925   3.322  14.556  1.00  0.00    -0.248 NA
ATOM     41  C   UNL     1      -0.815   4.114  13.944  1.00  0.00     0.031 C 
ATOM     42  C   UNL     1      -4.099   3.212  10.243  1.00  0.00     0.029 A 
ATOM     43  N   UNL     1      -4.764   2.801  12.341  1.00  0.00    -0.354 N 
ATOM     44  C   UNL     1      -2.162   3.527  15.700  1.00  0.00     0.074 A 
ATOM     45  C   UNL     1      -0.861   3.985  15.262  1.00  0.00     0.031 C 
ATOM     46  C   UNL     1      -5.370   2.777  10.189  1.00  0.00     0.029 A 
ATOM     47  C   UNL     1      -5.834   2.477  11.542  1.00  0.00     0.049 A 
ATOM     48  H   UNL     1      -4.781   2.725  13.322  1.00  0.00     0.167 HD
ATOM     49  C   UNL     1      -2.511   3.359  16.998  1.00  0.00     0.031 A 
ATOM     50  C   UNL     1      -7.047   1.984  11.863  1.00  0.00     0.031 A 
ATOM     51  C   UNL     1      -3.799   2.893  17.437  1.00  0.00     0.049 A 
ATOM     52  C   UNL     1      -7.395   1.749  13.310  1.00  0.00     0.074 A 
ATOM     53  C   UNL     1      -4.250   2.701  18.732  1.00  0.00     0.029 A 
ATOM     54  N   UNL     1      -4.841   2.538  16.595  1.00  0.00    -0.354 N 
ATOM     55  N   UNL     1      -6.669   1.974  14.380  1.00  0.00    -0.248 NA
ATOM     56  C   UNL     1      -8.731   1.206  13.592  1.00  0.00     0.031 C 
ATOM     57  C   UNL     1      -5.550   2.185  18.671  1.00  0.00     0.029 A 
ATOM     58  C   UNL     1      -5.926   2.106  17.339  1.00  0.00     0.049 A 
ATOM     59  H   UNL     1      -4.814   2.585  15.612  1.00  0.00     0.167 HD
ATOM     60  C   UNL     1      -7.470   1.623  15.462  1.00  0.00     0.074 A 
ATOM     61  C   UNL     1      -8.739   1.183  14.918  1.00  0.00     0.031 C 
ATOM     62  C   UNL     1      -7.182   1.667  16.787  1.00  0.00     0.031 A 
BRANCH  49  63
ATOM     63  C   UNL     1      -1.462   3.651  18.039  1.00  0.00    -0.014 A 
ATOM     64  C   UNL     1      -1.076   4.971  18.334  1.00  0.00     0.010 A 
ATOM     65  C   UNL     1      -0.871   2.589  18.747  1.00  0.00     0.010 A 
ATOM     66  C   UNL     1      -0.085   5.221  19.288  1.00  0.00     0.020 A 
ATOM     67  C   UNL     1       0.103   2.837  19.719  1.00  0.00     0.020 A 
ATOM     68  C   UNL     1       0.504   4.151  19.969  1.00  0.00     0.054 A 
BRANCH  68  69
ATOM     69  S   UNL     1       1.785   4.500  21.205  1.00  0.00     0.124 S 
ATOM     70  O   UNL     1       2.933   4.828  20.364  1.00  0.00    -0.237 OA
ATOM     71  O   UNL     1       1.215   5.619  21.953  1.00  0.00    -0.237 OA
ATOM     72  O   UNL     1       1.897   3.249  21.952  1.00  0.00    -0.744 OA
ENDBRANCH  68  69
ENDBRANCH  49  63
BRANCH  50  73
ATOM     73  C   UNL     1      -8.025   1.670  10.786  1.00  0.00    -0.014 A 
ATOM     74  C   UNL     1      -9.174   2.460  10.605  1.00  0.00     0.010 A 
ATOM     75  C   UNL     1      -7.803   0.578   9.927  1.00  0.00     0.010 A 
ATOM     76  C   UNL     1     -10.088   2.157   9.591  1.00  0.00     0.020 A 
ATOM     77  C   UNL     1      -8.701   0.287   8.897  1.00  0.00     0.020 A 
ATOM     78  C   UNL     1      -9.844   1.074   8.741  1.00  0.00     0.054 A 
BRANCH  78  79
ATOM     79  S   UNL     1     -11.011   0.736   7.393  1.00  0.00     0.124 S 
ATOM     80  O   UNL     1     -12.131   0.131   8.105  1.00  0.00    -0.237 OA
ATOM     81  O   UNL     1     -11.255   2.067   6.843  1.00  0.00    -0.237 OA
ATOM     82  O   UNL     1     -10.266  -0.164   6.515  1.00  0.00    -0.744 OA
ENDBRANCH  78  79
ENDBRANCH  50  73
BRANCH  62  83
ATOM     83  C   UNL     1      -8.268   1.258  17.747  1.00  0.00    -0.014 A 
ATOM     84  C   UNL     1      -8.631  -0.091  17.908  1.00  0.00     0.010 A 
ATOM     85  C   UNL     1      -8.900   2.236  18.537  1.00  0.00     0.010 A 
ATOM     86  C   UNL     1      -9.631  -0.450  18.816  1.00  0.00     0.020 A 
ATOM     87  C   UNL     1      -9.883   1.879  19.463  1.00  0.00     0.020 A 
ATOM     88  C   UNL     1     -10.253   0.538  19.586  1.00  0.00     0.054 A 
BRANCH  88  89
ATOM     89  S   UNL     1     -11.524   0.046  20.784  1.00  0.00     0.124 S 
ATOM     90  O   UNL     1     -12.673  -0.209  19.920  1.00  0.00    -0.237 OA
ATOM     91  O   UNL     1     -10.936  -1.135  21.413  1.00  0.00    -0.237 OA
ATOM     92  O   UNL     1     -11.646   1.212  21.657  1.00  0.00    -0.744 OA
ENDBRANCH  88  89
ENDBRANCH  62  83
ENDBRANCH  36  37
ENDBRANCH  29  31
ENDBRANCH  28  29
ENDBRANCH  27  28
ENDBRANCH  26  27
ENDBRANCH   1  26
TORSDOF 20
