REMARK SMILES CCOc1ccc(-c2ccc(=O)n(CC(=O)OCCOCCOC(=O)c3ccc(-c4c5nc(c(-c6ccc(S(=O)(=O)[O-])cc6)c6ccc([nH]6)c(-c6ccc(S(=O)(=O)[O-])cc6)c6nc(c(-c7ccc(S(=O)(=O)[O-])cc7)c7ccc4[nH]7)C=C6)C=C5)cc3)n2)cc1
REMARK SMILES IDX 19 1 18 2 17 3 15 4 16 5 14 6 13 7 8 8 9 9 86 10 10 11 11 12
REMARK SMILES IDX 12 13 7 14 4 15 5 16 88 17 6 18 87 19 3 20 2 21 1 22 20 23
REMARK SMILES IDX 21 24 22 25 23 26 24 27 25 28 26 29 27 30 85 31 28 32 84 33
REMARK SMILES IDX 29 34 30 35 31 36 78 37 32 38 83 39 77 40 79 41 33 42 82 43
REMARK SMILES IDX 76 44 75 45 34 47 64 48 45 49 63 50 46 51 49 52 62 53 80 54
REMARK SMILES IDX 47 55 48 56 61 58 81 59 50 60 35 61 36 62 44 63 37 64 43 65
REMARK SMILES IDX 38 66 39 67 40 68 41 69 42 70 65 71 66 72 74 73 67 74 73 75
REMARK SMILES IDX 68 76 69 77 70 78 71 79 72 80 51 81 52 82 60 83 53 84 59 85
REMARK SMILES IDX 54 86 55 87 56 88 57 89 58 90
REMARK H PARENT 79 46 49 57
REMARK Flexibility Score: inf
ROOT
ATOM      1  C   UNL     1      10.797   4.209   6.846  1.00  0.00     0.202 C 
ENDROOT
BRANCH   1   2
ATOM      2  C   UNL     1       9.905   5.066   5.940  1.00  0.00     0.261 C 
BRANCH   2   3
ATOM      3  O   UNL     1       9.268   4.275   4.917  1.00  0.00    -0.462 OA
BRANCH   3   4
ATOM      4  C   UNL     1       9.346   4.774   3.655  1.00  0.00     0.328 C 
ATOM      5  O   UNL     1       9.807   5.879   3.374  1.00  0.00    -0.250 OA
BRANCH   4   6
ATOM      6  C   UNL     1       8.825   3.839   2.572  1.00  0.00     0.270 C 
BRANCH   6   7
ATOM      7  N   UNL     1       8.332   2.522   2.968  1.00  0.00    -0.218 N 
ATOM      8  C   UNL     1       6.483   1.217   3.283  1.00  0.00     0.091 A 
ATOM      9  C   UNL     1       7.284   0.023   3.606  1.00  0.00     0.036 A 
ATOM     10  N   UNL     1       6.965   2.392   3.029  1.00  0.00    -0.169 NA
ATOM     11  C   UNL     1       8.602   0.150   3.444  1.00  0.00     0.075 A 
ATOM     12  C   UNL     1       9.195   1.436   3.015  1.00  0.00     0.267 A 
ATOM     13  O   UNL     1      10.390   1.469   2.732  1.00  0.00    -0.268 OA
BRANCH   8  14
ATOM     14  C   UNL     1       5.037   0.995   3.105  1.00  0.00     0.002 A 
ATOM     15  C   UNL     1       2.344   0.595   2.570  1.00  0.00     0.119 A 
ATOM     16  C   UNL     1       2.846   0.329   3.847  1.00  0.00     0.047 A 
ATOM     17  C   UNL     1       3.174   1.101   1.574  1.00  0.00     0.047 A 
ATOM     18  C   UNL     1       4.206   0.518   4.119  1.00  0.00     0.014 A 
ATOM     19  C   UNL     1       4.524   1.292   1.837  1.00  0.00     0.014 A 
BRANCH  15  20
ATOM     20  O   UNL     1       1.000   0.469   2.353  1.00  0.00    -0.494 OA
BRANCH  20  21
ATOM     21  C   UNL     1       0.669  -0.623   1.486  1.00  0.00     0.226 C 
ATOM     22  C   UNL     1       0.615  -0.201   0.025  1.00  0.00     0.049 C 
ENDBRANCH  20  21
ENDBRANCH  15  20
ENDBRANCH   8  14
ENDBRANCH   6   7
ENDBRANCH   4   6
ENDBRANCH   3   4
ENDBRANCH   2   3
ENDBRANCH   1   2
BRANCH   1  23
ATOM     23  O   UNL     1      11.935   3.607   6.227  1.00  0.00    -0.374 OA
BRANCH  23  24
ATOM     24  C   UNL     1      11.679   2.514   5.345  1.00  0.00     0.202 C 
BRANCH  24  25
ATOM     25  C   UNL     1      11.369   1.165   6.008  1.00  0.00     0.261 C 
BRANCH  25  26
ATOM     26  O   UNL     1      10.142   1.188   6.764  1.00  0.00    -0.460 OA
BRANCH  26  27
ATOM     27  C   UNL     1      10.303   1.026   8.099  1.00  0.00     0.338 C 
ATOM     28  O   UNL     1      11.344   0.756   8.688  1.00  0.00    -0.246 OA
BRANCH  27  29
ATOM     29  C   UNL     1       9.071   1.386   8.826  1.00  0.00     0.060 A 
ATOM     30  C   UNL     1       9.193   2.309   9.873  1.00  0.00     0.016 A 
ATOM     31  C   UNL     1       7.845   0.769   8.567  1.00  0.00     0.016 A 
ATOM     32  C   UNL     1       8.106   2.575  10.702  1.00  0.00     0.010 A 
ATOM     33  C   UNL     1       6.754   1.034   9.406  1.00  0.00     0.010 A 
ATOM     34  C   UNL     1       6.892   1.907  10.502  1.00  0.00    -0.014 A 
BRANCH  34  35
ATOM     35  C   UNL     1       5.829   2.013  11.534  1.00  0.00     0.031 A 
ATOM     36  C   UNL     1       5.686   0.913  12.553  1.00  0.00     0.074 A 
ATOM     37  C   UNL     1       5.041   3.101  11.604  1.00  0.00     0.049 A 
ATOM     38  N   UNL     1       4.854   0.817  13.559  1.00  0.00    -0.248 NA
ATOM     39  C   UNL     1       6.607  -0.228  12.422  1.00  0.00     0.031 C 
ATOM     40  C   UNL     1       5.118   4.258  10.714  1.00  0.00     0.029 A 
ATOM     41  N   UNL     1       4.029   3.413  12.476  1.00  0.00    -0.354 N 
ATOM     42  C   UNL     1       5.149  -0.392  14.180  1.00  0.00     0.074 A 
ATOM     43  C   UNL     1       6.211  -1.010  13.415  1.00  0.00     0.031 C 
ATOM     44  C   UNL     1       4.199   5.162  11.095  1.00  0.00     0.029 A 
ATOM     45  C   UNL     1       3.449   4.635  12.234  1.00  0.00     0.049 A 
ATOM     46  H   UNL     1       3.744   2.817  13.207  1.00  0.00     0.167 HD
ATOM     47  C   UNL     1       4.595  -0.936  15.290  1.00  0.00     0.031 A 
ATOM     48  C   UNL     1       2.427   5.256  12.855  1.00  0.00     0.031 A 
ATOM     49  C   UNL     1       3.524  -0.332  16.038  1.00  0.00     0.049 A 
ATOM     50  C   UNL     1       1.761   4.589  14.030  1.00  0.00     0.074 A 
ATOM     51  C   UNL     1       2.895  -0.802  17.178  1.00  0.00     0.029 A 
ATOM     52  N   UNL     1       2.917   0.873  15.715  1.00  0.00    -0.354 N 
ATOM     53  N   UNL     1       2.061   3.452  14.613  1.00  0.00    -0.248 NA
ATOM     54  C   UNL     1       0.621   5.293  14.634  1.00  0.00     0.031 C 
ATOM     55  C   UNL     1       1.871   0.091  17.512  1.00  0.00     0.029 A 
ATOM     56  C   UNL     1       1.900   1.147  16.615  1.00  0.00     0.049 A 
ATOM     57  H   UNL     1       3.171   1.448  14.958  1.00  0.00     0.167 HD
ATOM     58  C   UNL     1       1.165   3.319  15.669  1.00  0.00     0.074 A 
ATOM     59  C   UNL     1       0.318   4.495  15.649  1.00  0.00     0.031 C 
ATOM     60  C   UNL     1       1.059   2.318  16.578  1.00  0.00     0.031 A 
BRANCH  47  61
ATOM     61  C   UNL     1       5.117  -2.280  15.730  1.00  0.00    -0.014 A 
ATOM     62  C   UNL     1       6.404  -2.419  16.281  1.00  0.00     0.010 A 
ATOM     63  C   UNL     1       4.308  -3.421  15.584  1.00  0.00     0.010 A 
ATOM     64  C   UNL     1       6.895  -3.683  16.621  1.00  0.00     0.020 A 
ATOM     65  C   UNL     1       4.785  -4.684  15.950  1.00  0.00     0.020 A 
ATOM     66  C   UNL     1       6.086  -4.809  16.441  1.00  0.00     0.054 A 
BRANCH  66  67
ATOM     67  S   UNL     1       6.753  -6.441  16.867  1.00  0.00     0.124 S 
ATOM     68  O   UNL     1       7.669  -6.689  15.755  1.00  0.00    -0.237 OA
ATOM     69  O   UNL     1       7.387  -6.204  18.161  1.00  0.00    -0.237 OA
ATOM     70  O   UNL     1       5.572  -7.300  16.903  1.00  0.00    -0.744 OA
ENDBRANCH  66  67
ENDBRANCH  47  61
BRANCH  48  71
ATOM     71  C   UNL     1       1.971   6.591  12.381  1.00  0.00    -0.014 A 
ATOM     72  C   UNL     1       2.205   7.741  13.154  1.00  0.00     0.010 A 
ATOM     73  C   UNL     1       1.312   6.721  11.145  1.00  0.00     0.010 A 
ATOM     74  C   UNL     1       1.783   8.996  12.704  1.00  0.00     0.020 A 
ATOM     75  C   UNL     1       0.910   7.976  10.680  1.00  0.00     0.020 A 
ATOM     76  C   UNL     1       1.141   9.105  11.467  1.00  0.00     0.054 A 
BRANCH  76  77
ATOM     77  S   UNL     1       0.659  10.752  10.874  1.00  0.00     0.124 S 
ATOM     78  O   UNL     1      -0.489  11.056  11.721  1.00  0.00    -0.237 OA
ATOM     79  O   UNL     1       1.861  11.542  11.128  1.00  0.00    -0.237 OA
ATOM     80  O   UNL     1       0.356  10.530   9.462  1.00  0.00    -0.744 OA
ENDBRANCH  76  77
ENDBRANCH  48  71
BRANCH  60  81
ATOM     81  C   UNL     1       0.009   2.461  17.648  1.00  0.00    -0.014 A 
ATOM     82  C   UNL     1      -1.357   2.300  17.356  1.00  0.00     0.010 A 
ATOM     83  C   UNL     1       0.401   2.709  18.977  1.00  0.00     0.010 A 
ATOM     84  C   UNL     1      -2.314   2.413  18.369  1.00  0.00     0.020 A 
ATOM     85  C   UNL     1      -0.551   2.797  19.996  1.00  0.00     0.020 A 
ATOM     86  C   UNL     1      -1.905   2.663  19.683  1.00  0.00     0.054 A 
BRANCH  86  87
ATOM     87  S   UNL     1      -3.162   2.762  20.988  1.00  0.00     0.124 S 
ATOM     88  O   UNL     1      -3.756   4.072  20.738  1.00  0.00    -0.237 OA
ATOM     89  O   UNL     1      -4.020   1.616  20.695  1.00  0.00    -0.237 OA
ATOM     90  O   UNL     1      -2.388   2.653  22.223  1.00  0.00    -0.744 OA
ENDBRANCH  86  87
ENDBRANCH  60  81
ENDBRANCH  34  35
ENDBRANCH  27  29
ENDBRANCH  26  27
ENDBRANCH  25  26
ENDBRANCH  24  25
ENDBRANCH  23  24
ENDBRANCH   1  23
TORSDOF 21
