REMARK SMILES [NH3+][C@@](C(=O)OCCOCCOC(=O)c1ccc(-c2c3nc(c(-c4ccc(S(=O)(=O)[O-])cc4)c4ccc([nH]4)c(-c4ccc(S(=O)(=O)[O-])cc4)c4nc(c(-c5ccc(S(=O)(=O)[O-])cc5)c5ccc2[nH]5)C=C4)C=C3)cc1)(c1ccc([P@TB4](=O)([O-])[O-])cc1)C1CC1
REMARK SMILES IDX 9 1 8 2 7 3 6 4 5 5 3 6 4 7 2 8 1 9 74 13 75 14 83 15 76 16
REMARK SMILES IDX 82 17 77 18 78 19 79 20 80 21 81 22 84 23 85 24 86 25 10 26
REMARK SMILES IDX 11 27 12 28 13 29 14 30 15 31 73 32 16 33 72 34 17 35 18 36
REMARK SMILES IDX 19 37 66 38 20 39 71 40 65 41 67 42 21 43 70 44 64 45 63 46
REMARK SMILES IDX 22 48 52 49 33 50 51 51 34 52 37 53 50 54 68 55 35 56 36 57
REMARK SMILES IDX 49 59 69 60 38 61 23 62 24 63 32 64 25 65 31 66 26 67 27 68
REMARK SMILES IDX 28 69 29 70 30 71 53 72 54 73 62 74 55 75 61 76 56 77 57 78
REMARK SMILES IDX 58 79 59 80 60 81 39 82 40 83 48 84 41 85 47 86 42 87 43 88
REMARK SMILES IDX 44 89 45 90 46 91
REMARK H PARENT 1 10 1 11 1 12 67 47 37 58
REMARK Flexibility Score: inf
ROOT
ATOM      1  C   UNL     1       0.245   0.938  -3.522  1.00  0.00       nan C 
ENDROOT
BRANCH   1   2
ATOM      2  O   UNL     1       0.567   2.163  -4.180  1.00  0.00       nan OA
BRANCH   2   3
ATOM      3  C   UNL     1       1.887   2.678  -4.046  1.00  0.00       nan C 
BRANCH   3   4
ATOM      4  C   UNL     1       2.284   3.283  -2.695  1.00  0.00       nan C 
BRANCH   4   5
ATOM      5  O   UNL     1       1.954   2.445  -1.577  1.00  0.00       nan OA
BRANCH   5   6
ATOM      6  C   UNL     1       0.931   2.919  -0.792  1.00  0.00       nan C 
ATOM      7  O   UNL     1       0.391   4.006  -0.973  1.00  0.00       nan OA
BRANCH   6   8
ATOM      8  C   UNL     1       0.552   1.908   0.370  1.00  0.00       nan C 
BRANCH   8   9
ATOM      9  N   UNL     1       1.302   0.624   0.222  1.00  0.00       nan N 
ATOM     10  H   UNL     1       1.077   0.201  -0.679  1.00  0.00       nan HD
ATOM     11  H   UNL     1       1.036  -0.013   0.972  1.00  0.00       nan HD
ATOM     12  H   UNL     1       2.304   0.808   0.270  1.00  0.00       nan HD
ENDBRANCH   8   9
BRANCH   8  13
ATOM     13  C   UNL     1      -0.978   1.680   0.384  1.00  0.00       nan A 
ATOM     14  C   UNL     1      -1.835   2.785   0.503  1.00  0.00       nan A 
ATOM     15  C   UNL     1      -1.586   0.413   0.256  1.00  0.00       nan A 
ATOM     16  C   UNL     1      -3.220   2.643   0.425  1.00  0.00       nan A 
ATOM     17  C   UNL     1      -2.987   0.267   0.191  1.00  0.00       nan A 
ATOM     18  C   UNL     1      -3.823   1.386   0.242  1.00  0.00       nan A 
BRANCH  18  19
ATOM     19  P   UNL     1      -5.653   1.372   0.233  1.00  0.00       nan P 
ATOM     20  O   UNL     1      -5.695   2.341  -0.957  1.00  0.00       nan OA
ATOM     21  O   UNL     1      -5.750  -0.091  -0.501  1.00  0.00       nan OA
ATOM     22  O   UNL     1      -7.383   1.359   0.223  1.00  0.00       nan OA
ENDBRANCH  18  19
ENDBRANCH   8  13
BRANCH   8  23
ATOM     23  C   UNL     1       0.999   2.397   1.749  1.00  0.00       nan C 
ATOM     24  C   UNL     1       2.389   2.968   1.968  1.00  0.00       nan C 
ATOM     25  C   UNL     1       1.187   3.856   2.113  1.00  0.00       nan C 
ENDBRANCH   8  23
ENDBRANCH   6   8
ENDBRANCH   5   6
ENDBRANCH   4   5
ENDBRANCH   3   4
ENDBRANCH   2   3
ENDBRANCH   1   2
BRANCH   1  26
ATOM     26  C   UNL     1       1.019  -0.322  -3.933  1.00  0.00       inf C 
BRANCH  26  27
ATOM     27  O   UNL     1       2.413  -0.266  -3.567  1.00  0.00    -0.460 OA
BRANCH  27  28
ATOM     28  C   UNL     1       3.272  -0.440  -4.604  1.00  0.00     0.338 C 
ATOM     29  O   UNL     1       2.982  -0.686  -5.765  1.00  0.00    -0.246 OA
BRANCH  28  30
ATOM     30  C   UNL     1       4.652  -0.116  -4.201  1.00  0.00     0.060 A 
ATOM     31  C   UNL     1       5.295   0.935  -4.868  1.00  0.00     0.016 A 
ATOM     32  C   UNL     1       5.350  -0.914  -3.294  1.00  0.00     0.016 A 
ATOM     33  C   UNL     1       6.654   1.163  -4.664  1.00  0.00     0.010 A 
ATOM     34  C   UNL     1       6.719  -0.691  -3.100  1.00  0.00     0.010 A 
ATOM     35  C   UNL     1       7.384   0.324  -3.813  1.00  0.00    -0.014 A 
BRANCH  35  36
ATOM     36  C   UNL     1       8.865   0.417  -3.792  1.00  0.00     0.031 A 
ATOM     37  C   UNL     1       9.670  -0.534  -4.637  1.00  0.00     0.074 A 
ATOM     38  C   UNL     1       9.486   1.361  -3.062  1.00  0.00     0.049 A 
ATOM     39  N   UNL     1      10.969  -0.633  -4.763  1.00  0.00    -0.248 NA
ATOM     40  C   UNL     1       8.911  -1.497  -5.451  1.00  0.00     0.031 C 
ATOM     41  C   UNL     1       8.818   2.368  -2.239  1.00  0.00     0.029 A 
ATOM     42  N   UNL     1      10.823   1.623  -2.897  1.00  0.00    -0.354 N 
ATOM     43  C   UNL     1      11.184  -1.668  -5.666  1.00  0.00     0.074 A 
ATOM     44  C   UNL     1       9.883  -2.183  -6.036  1.00  0.00     0.031 C 
ATOM     45  C   UNL     1       9.751   3.134  -1.646  1.00  0.00     0.029 A 
ATOM     46  C   UNL     1      11.079   2.654  -2.026  1.00  0.00     0.049 A 
ATOM     47  H   UNL     1      11.531   1.119  -3.359  1.00  0.00     0.167 HD
ATOM     48  C   UNL     1      12.356  -2.144  -6.149  1.00  0.00     0.031 A 
ATOM     49  C   UNL     1      12.249   3.144  -1.572  1.00  0.00     0.031 A 
ATOM     50  C   UNL     1      13.651  -1.646  -5.768  1.00  0.00     0.049 A 
ATOM     51  C   UNL     1      13.542   2.552  -2.068  1.00  0.00     0.074 A 
ATOM     52  C   UNL     1      14.897  -2.063  -6.202  1.00  0.00     0.029 A 
ATOM     53  N   UNL     1      13.867  -0.624  -4.856  1.00  0.00    -0.354 N 
ATOM     54  N   UNL     1      13.726   1.583  -2.933  1.00  0.00    -0.248 NA
ATOM     55  C   UNL     1      14.785   3.126  -1.531  1.00  0.00     0.031 C 
ATOM     56  C   UNL     1      15.868  -1.325  -5.518  1.00  0.00     0.029 A 
ATOM     57  C   UNL     1      15.226  -0.411  -4.697  1.00  0.00     0.049 A 
ATOM     58  H   UNL     1      13.159  -0.123  -4.391  1.00  0.00     0.167 HD
ATOM     59  C   UNL     1      15.105   1.447  -3.060  1.00  0.00     0.074 A 
ATOM     60  C   UNL     1      15.706   2.440  -2.194  1.00  0.00     0.031 C 
ATOM     61  C   UNL     1      15.809   0.579  -3.828  1.00  0.00     0.031 A 
BRANCH  48  62
ATOM     62  C   UNL     1      12.288  -3.288  -7.124  1.00  0.00    -0.014 A 
ATOM     63  C   UNL     1      11.854  -3.090  -8.447  1.00  0.00     0.010 A 
ATOM     64  C   UNL     1      12.689  -4.574  -6.720  1.00  0.00     0.010 A 
ATOM     65  C   UNL     1      11.785  -4.166  -9.337  1.00  0.00     0.020 A 
ATOM     66  C   UNL     1      12.643  -5.648  -7.613  1.00  0.00     0.020 A 
ATOM     67  C   UNL     1      12.174  -5.440  -8.912  1.00  0.00     0.054 A 
BRANCH  67  68
ATOM     68  S   UNL     1      12.085  -6.818 -10.088  1.00  0.00     0.124 S 
ATOM     69  O   UNL     1      10.648  -7.074 -10.142  1.00  0.00    -0.237 OA
ATOM     70  O   UNL     1      12.666  -6.245 -11.300  1.00  0.00    -0.237 OA
ATOM     71  O   UNL     1      12.881  -7.866  -9.455  1.00  0.00    -0.744 OA
ENDBRANCH  67  68
ENDBRANCH  48  62
BRANCH  49  72
ATOM     72  C   UNL     1      12.250   4.244  -0.571  1.00  0.00    -0.014 A 
ATOM     73  C   UNL     1      12.657   5.542  -0.925  1.00  0.00     0.010 A 
ATOM     74  C   UNL     1      11.833   3.994   0.750  1.00  0.00     0.010 A 
ATOM     75  C   UNL     1      12.656   6.567   0.025  1.00  0.00     0.020 A 
ATOM     76  C   UNL     1      11.808   5.021   1.696  1.00  0.00     0.020 A 
ATOM     77  C   UNL     1      12.229   6.300   1.330  1.00  0.00     0.054 A 
BRANCH  77  78
ATOM     78  S   UNL     1      12.176   7.658   2.533  1.00  0.00     0.124 S 
ATOM     79  O   UNL     1      13.586   7.814   2.876  1.00  0.00    -0.237 OA
ATOM     80  O   UNL     1      11.588   8.747   1.757  1.00  0.00    -0.237 OA
ATOM     81  O   UNL     1      11.325   7.134   3.599  1.00  0.00    -0.744 OA
ENDBRANCH  77  78
ENDBRANCH  49  72
BRANCH  61  82
ATOM     82  C   UNL     1      17.311   0.679  -3.790  1.00  0.00    -0.014 A 
ATOM     83  C   UNL     1      18.044   0.219  -2.683  1.00  0.00     0.010 A 
ATOM     84  C   UNL     1      18.001   1.190  -4.905  1.00  0.00     0.010 A 
ATOM     85  C   UNL     1      19.439   0.294  -2.679  1.00  0.00     0.020 A 
ATOM     86  C   UNL     1      19.397   1.245  -4.915  1.00  0.00     0.020 A 
ATOM     87  C   UNL     1      20.107   0.809  -3.795  1.00  0.00     0.054 A 
BRANCH  87  88
ATOM     88  S   UNL     1      21.921   0.856  -3.785  1.00  0.00     0.124 S 
ATOM     89  O   UNL     1      22.190   1.994  -2.912  1.00  0.00    -0.237 OA
ATOM     90  O   UNL     1      22.275  -0.453  -3.240  1.00  0.00    -0.237 OA
ATOM     91  O   UNL     1      22.269   1.052  -5.191  1.00  0.00    -0.744 OA
ENDBRANCH  87  88
ENDBRANCH  61  82
ENDBRANCH  35  36
ENDBRANCH  28  30
ENDBRANCH  27  28
ENDBRANCH  26  27
ENDBRANCH   1  26
TORSDOF 21
