REMARK SMILES CC1(C)CCC[C@@]1(C(=O)OCCOCCOC(=O)c1ccc(-c2c3nc(c(-c4ccc(S(=O)(=O)[O-])cc4)c4ccc([nH]4)c(-c4ccc(S(=O)(=O)[O-])cc4)c4nc(c(-c5ccc(S(=O)(=O)[O-])cc5)c5ccc2[nH]5)C=C4)C=C3)cc1)[NH+]1CC[NH2+]CC1
REMARK SMILES IDX 14 1 13 2 12 3 11 4 10 5 8 6 9 7 7 8 1 9 2 10 3 11 4 12 5 13
REMARK SMILES IDX 6 14 79 15 80 16 84 17 81 19 83 20 82 21 15 24 16 25 17 26
REMARK SMILES IDX 18 27 19 28 20 29 78 30 21 31 77 32 22 33 23 34 24 35 71 36
REMARK SMILES IDX 25 37 76 38 70 39 72 40 26 41 75 42 69 43 68 44 27 46 57 47
REMARK SMILES IDX 38 48 56 49 39 50 42 51 55 52 73 53 40 54 41 55 54 57 74 58
REMARK SMILES IDX 43 59 28 60 29 61 37 62 30 63 36 64 31 65 32 66 33 67 34 68
REMARK SMILES IDX 35 69 58 70 59 71 67 72 60 73 66 74 61 75 62 76 63 77 64 78
REMARK SMILES IDX 65 79 44 80 45 81 53 82 46 83 52 84 47 85 48 86 49 87 50 88
REMARK SMILES IDX 51 89
REMARK H PARENT 79 18 82 22 82 23 72 45 42 56
REMARK Flexibility Score: inf
ROOT
ATOM      1  C   UNL     1      -1.557   4.102  -1.717  1.00  0.00     0.202 C 
ENDROOT
BRANCH   1   2
ATOM      2  O   UNL     1      -0.533   5.070  -1.942  1.00  0.00    -0.374 OA
BRANCH   2   3
ATOM      3  C   UNL     1       0.684   4.621  -2.537  1.00  0.00     0.202 C 
BRANCH   3   4
ATOM      4  C   UNL     1       1.567   3.711  -1.681  1.00  0.00     0.261 C 
BRANCH   4   5
ATOM      5  O   UNL     1       0.855   2.550  -1.225  1.00  0.00    -0.459 OA
BRANCH   5   6
ATOM      6  C   UNL     1       1.129   2.185   0.058  1.00  0.00     0.368 C 
ATOM      7  O   UNL     1       2.008   2.713   0.736  1.00  0.00    -0.245 OA
BRANCH   6   8
ATOM      8  C   UNL     1       0.224   1.009   0.582  1.00  0.00     0.201 C 
ATOM      9  C   UNL     1       2.253  -0.581   1.087  1.00  0.00     0.018 C 
ATOM     10  C   UNL     1       1.002  -0.332   0.236  1.00  0.00     0.031 C 
ATOM     11  C   UNL     1       1.480  -0.397  -1.251  1.00  0.00     0.018 C 
ATOM     12  C   UNL     1      -0.076  -1.425   0.383  1.00  0.00     0.014 C 
ATOM     13  C   UNL     1      -1.392  -0.756  -0.022  1.00  0.00     0.008 C 
ATOM     14  C   UNL     1      -1.098   0.740  -0.185  1.00  0.00     0.082 C 
BRANCH   8  15
ATOM     15  N   UNL     1      -0.062   1.349   2.022  1.00  0.00    -0.311 N 
ATOM     16  C   UNL     1      -0.478   0.331   2.986  1.00  0.00     0.325 C 
ATOM     17  C   UNL     1      -0.876   2.576   2.209  1.00  0.00     0.325 C 
ATOM     18  H   UNL     1       0.914   1.494   2.282  1.00  0.00     0.349 HD
ATOM     19  C   UNL     1      -0.450   0.873   4.441  1.00  0.00     0.322 C 
ATOM     20  C   UNL     1      -0.848   3.092   3.666  1.00  0.00     0.322 C 
ATOM     21  N   UNL     1      -1.283   2.072   4.637  1.00  0.00    -0.337 N 
ATOM     22  H   UNL     1      -1.164   2.425   5.586  1.00  0.00     0.346 HD
ATOM     23  H   UNL     1      -2.268   1.847   4.497  1.00  0.00     0.346 HD
ENDBRANCH   8  15
ENDBRANCH   6   8
ENDBRANCH   5   6
ENDBRANCH   4   5
ENDBRANCH   3   4
ENDBRANCH   2   3
ENDBRANCH   1   2
BRANCH   1  24
ATOM     24  C   UNL     1      -2.225   3.477  -2.950  1.00  0.00     0.261 C 
BRANCH  24  25
ATOM     25  O   UNL     1      -1.321   2.715  -3.775  1.00  0.00    -0.460 OA
BRANCH  25  26
ATOM     26  C   UNL     1      -1.195   3.186  -5.041  1.00  0.00     0.338 C 
ATOM     27  O   UNL     1      -1.797   4.130  -5.535  1.00  0.00    -0.246 OA
BRANCH  26  28
ATOM     28  C   UNL     1      -0.094   2.520  -5.761  1.00  0.00     0.060 A 
ATOM     29  C   UNL     1       0.923   3.337  -6.271  1.00  0.00     0.016 A 
ATOM     30  C   UNL     1      -0.139   1.161  -6.082  1.00  0.00     0.016 A 
ATOM     31  C   UNL     1       1.855   2.815  -7.165  1.00  0.00     0.010 A 
ATOM     32  C   UNL     1       0.797   0.640  -6.987  1.00  0.00     0.010 A 
ATOM     33  C   UNL     1       1.764   1.478  -7.573  1.00  0.00    -0.014 A 
BRANCH  33  34
ATOM     34  C   UNL     1       2.564   1.040  -8.746  1.00  0.00     0.031 A 
ATOM     35  C   UNL     1       1.915   1.020 -10.107  1.00  0.00     0.074 A 
ATOM     36  C   UNL     1       3.873   0.756  -8.623  1.00  0.00     0.049 A 
ATOM     37  N   UNL     1       2.448   0.768 -11.276  1.00  0.00    -0.248 NA
ATOM     38  C   UNL     1       0.477   1.332 -10.158  1.00  0.00     0.031 C 
ATOM     39  C   UNL     1       4.629   0.775  -7.372  1.00  0.00     0.029 A 
ATOM     40  N   UNL     1       4.802   0.412  -9.574  1.00  0.00    -0.354 N 
ATOM     41  C   UNL     1       1.415   0.894 -12.199  1.00  0.00     0.074 A 
ATOM     42  C   UNL     1       0.217   1.209 -11.451  1.00  0.00     0.031 C 
ATOM     43  C   UNL     1       5.911   0.465  -7.634  1.00  0.00     0.029 A 
ATOM     44  C   UNL     1       6.062   0.211  -9.066  1.00  0.00     0.049 A 
ATOM     45  H   UNL     1       4.585   0.319 -10.530  1.00  0.00     0.167 HD
ATOM     46  C   UNL     1       1.457   0.771 -13.547  1.00  0.00     0.031 A 
ATOM     47  C   UNL     1       7.208  -0.138  -9.683  1.00  0.00     0.031 A 
ATOM     48  C   UNL     1       2.643   0.448 -14.296  1.00  0.00     0.049 A 
ATOM     49  C   UNL     1       7.221  -0.322 -11.178  1.00  0.00     0.074 A 
ATOM     50  C   UNL     1       2.787   0.313 -15.666  1.00  0.00     0.029 A 
ATOM     51  N   UNL     1       3.887   0.202 -13.737  1.00  0.00    -0.354 N 
ATOM     52  N   UNL     1       6.240  -0.171 -12.036  1.00  0.00    -0.248 NA
ATOM     53  C   UNL     1       8.501  -0.708 -11.787  1.00  0.00     0.031 C 
ATOM     54  C   UNL     1       4.110  -0.061 -15.932  1.00  0.00     0.029 A 
ATOM     55  C   UNL     1       4.800  -0.107 -14.731  1.00  0.00     0.049 A 
ATOM     56  H   UNL     1       4.092   0.242 -12.775  1.00  0.00     0.167 HD
ATOM     57  C   UNL     1       6.790  -0.425 -13.289  1.00  0.00     0.074 A 
ATOM     58  C   UNL     1       8.193  -0.720 -13.077  1.00  0.00     0.031 C 
ATOM     59  C   UNL     1       6.189  -0.413 -14.505  1.00  0.00     0.031 A 
BRANCH  46  60
ATOM     60  C   UNL     1       0.166   0.962 -14.298  1.00  0.00    -0.014 A 
ATOM     61  C   UNL     1      -0.403   2.239 -14.455  1.00  0.00     0.010 A 
ATOM     62  C   UNL     1      -0.475  -0.149 -14.874  1.00  0.00     0.010 A 
ATOM     63  C   UNL     1      -1.611   2.395 -15.139  1.00  0.00     0.020 A 
ATOM     64  C   UNL     1      -1.672   0.006 -15.579  1.00  0.00     0.020 A 
ATOM     65  C   UNL     1      -2.242   1.276 -15.691  1.00  0.00     0.054 A 
BRANCH  65  66
ATOM     66  S   UNL     1      -3.806   1.505 -16.582  1.00  0.00     0.124 S 
ATOM     67  O   UNL     1      -4.748   1.717 -15.486  1.00  0.00    -0.237 OA
ATOM     68  O   UNL     1      -3.535   2.676 -17.412  1.00  0.00    -0.237 OA
ATOM     69  O   UNL     1      -3.974   0.253 -17.315  1.00  0.00    -0.744 OA
ENDBRANCH  65  66
ENDBRANCH  46  60
BRANCH  47  70
ATOM     70  C   UNL     1       8.447  -0.343  -8.885  1.00  0.00    -0.014 A 
ATOM     71  C   UNL     1       9.514   0.568  -8.963  1.00  0.00     0.010 A 
ATOM     72  C   UNL     1       8.562  -1.462  -8.040  1.00  0.00     0.010 A 
ATOM     73  C   UNL     1      10.680   0.357  -8.220  1.00  0.00     0.020 A 
ATOM     74  C   UNL     1       9.716  -1.663  -7.278  1.00  0.00     0.020 A 
ATOM     75  C   UNL     1      10.773  -0.757  -7.381  1.00  0.00     0.054 A 
BRANCH  75  76
ATOM     76  S   UNL     1      12.271  -0.985  -6.382  1.00  0.00     0.124 S 
ATOM     77  O   UNL     1      13.223  -1.478  -7.372  1.00  0.00    -0.237 OA
ATOM     78  O   UNL     1      12.522   0.362  -5.876  1.00  0.00    -0.237 OA
ATOM     79  O   UNL     1      11.860  -1.955  -5.370  1.00  0.00    -0.744 OA
ENDBRANCH  75  76
ENDBRANCH  47  70
BRANCH  59  80
ATOM     80  C   UNL     1       7.053  -0.712 -15.702  1.00  0.00    -0.014 A 
ATOM     81  C   UNL     1       7.515  -2.016 -15.958  1.00  0.00     0.010 A 
ATOM     82  C   UNL     1       7.385   0.321 -16.597  1.00  0.00     0.010 A 
ATOM     83  C   UNL     1       8.331  -2.272 -17.063  1.00  0.00     0.020 A 
ATOM     84  C   UNL     1       8.181   0.064 -17.717  1.00  0.00     0.020 A 
ATOM     85  C   UNL     1       8.665  -1.228 -17.931  1.00  0.00     0.054 A 
BRANCH  85  86
ATOM     86  S   UNL     1       9.715  -1.585 -19.368  1.00  0.00     0.124 S 
ATOM     87  O   UNL     1      11.040  -1.670 -18.761  1.00  0.00    -0.237 OA
ATOM     88  O   UNL     1       9.168  -2.845 -19.864  1.00  0.00    -0.237 OA
ATOM     89  O   UNL     1       9.503  -0.434 -20.244  1.00  0.00    -0.744 OA
ENDBRANCH  85  86
ENDBRANCH  59  80
ENDBRANCH  33  34
ENDBRANCH  26  28
ENDBRANCH  25  26
ENDBRANCH  24  25
ENDBRANCH   1  24
TORSDOF 18
