REMARK SMILES O=C(OCCOCCOC(=O)c1csc(-c2ccnc(N3CCOCC3)c2)n1)c1ccc(-c2c3nc(c(-c4ccc(S(=O)(=O)[O-])cc4)c4ccc([nH]4)c(-c4ccc(S(=O)(=O)[O-])cc4)c4nc(c(-c5ccc(S(=O)(=O)[O-])cc5)c5ccc2[nH]5)C=C4)C=C3)cc1
REMARK SMILES IDX 5 1 4 2 3 3 2 4 1 5 29 6 30 7 88 8 31 9 87 10 32 11 33 12
REMARK SMILES IDX 34 13 81 14 35 15 86 16 80 17 82 18 36 19 85 20 79 21 78 22
REMARK SMILES IDX 37 24 67 25 48 26 66 27 49 28 52 29 65 30 83 31 50 32 51 33
REMARK SMILES IDX 64 35 84 36 53 37 38 38 39 39 47 40 40 41 46 42 41 43 42 44
REMARK SMILES IDX 43 45 44 46 45 47 68 48 69 49 77 50 70 51 76 52 71 53 72 54
REMARK SMILES IDX 73 55 74 56 75 57 54 58 55 59 63 60 56 61 62 62 57 63 58 64
REMARK SMILES IDX 59 65 60 66 61 67 6 68 7 69 8 70 9 71 10 72 11 73 12 74
REMARK SMILES IDX 13 75 28 76 14 77 15 78 16 79 17 80 27 81 18 82 20 83 19 84
REMARK SMILES IDX 21 85 22 86 26 87 23 88 25 89 24 90
REMARK H PARENT 82 23 52 34
REMARK Flexibility Score: inf
ROOT
ATOM      1  C   UNL     1       4.339  -1.712   0.638  1.00  0.00     0.202 C 
ENDROOT
BRANCH   1   2
ATOM      2  C   UNL     1       4.072  -0.417   1.408  1.00  0.00     0.261 C 
BRANCH   2   3
ATOM      3  O   UNL     1       2.677  -0.085   1.320  1.00  0.00    -0.460 OA
BRANCH   3   4
ATOM      4  C   UNL     1       2.078   0.867   0.571  1.00  0.00     0.338 C 
ATOM      5  O   UNL     1       0.857   0.990   0.658  1.00  0.00    -0.246 OA
BRANCH   4   6
ATOM      6  C   UNL     1       2.808   1.790  -0.352  1.00  0.00     0.060 A 
ATOM      7  C   UNL     1       3.991   1.491  -1.034  1.00  0.00     0.016 A 
ATOM      8  C   UNL     1       2.184   3.019  -0.623  1.00  0.00     0.016 A 
ATOM      9  C   UNL     1       4.579   2.402  -1.906  1.00  0.00     0.010 A 
ATOM     10  C   UNL     1       2.748   3.927  -1.521  1.00  0.00     0.010 A 
ATOM     11  C   UNL     1       3.962   3.626  -2.148  1.00  0.00    -0.014 A 
BRANCH  11  12
ATOM     12  C   UNL     1       4.644   4.629  -2.981  1.00  0.00     0.031 A 
ATOM     13  C   UNL     1       5.346   5.759  -2.296  1.00  0.00     0.074 A 
ATOM     14  C   UNL     1       4.657   4.498  -4.319  1.00  0.00     0.049 A 
ATOM     15  N   UNL     1       5.909   6.816  -2.811  1.00  0.00    -0.248 NA
ATOM     16  C   UNL     1       5.426   5.682  -0.827  1.00  0.00     0.031 C 
ATOM     17  C   UNL     1       4.084   3.373  -5.061  1.00  0.00     0.029 A 
ATOM     18  N   UNL     1       5.169   5.316  -5.289  1.00  0.00    -0.354 N 
ATOM     19  C   UNL     1       6.380   7.550  -1.730  1.00  0.00     0.074 A 
ATOM     20  C   UNL     1       6.041   6.816  -0.531  1.00  0.00     0.031 C 
ATOM     21  C   UNL     1       4.271   3.578  -6.375  1.00  0.00     0.029 A 
ATOM     22  C   UNL     1       4.921   4.871  -6.565  1.00  0.00     0.049 A 
ATOM     23  H   UNL     1       5.667   6.142  -5.092  1.00  0.00     0.167 HD
ATOM     24  C   UNL     1       7.017   8.743  -1.744  1.00  0.00     0.031 A 
ATOM     25  C   UNL     1       5.156   5.468  -7.750  1.00  0.00     0.031 A 
ATOM     26  C   UNL     1       7.303   9.465  -2.952  1.00  0.00     0.049 A 
ATOM     27  C   UNL     1       5.801   6.826  -7.744  1.00  0.00     0.074 A 
ATOM     28  C   UNL     1       7.881  10.711  -3.101  1.00  0.00     0.029 A 
ATOM     29  N   UNL     1       7.019   8.994  -4.228  1.00  0.00    -0.354 N 
ATOM     30  N   UNL     1       6.197   7.541  -6.716  1.00  0.00    -0.248 NA
ATOM     31  C   UNL     1       6.026   7.464  -9.047  1.00  0.00     0.031 C 
ATOM     32  C   UNL     1       7.910  11.010  -4.469  1.00  0.00     0.029 A 
ATOM     33  C   UNL     1       7.398   9.928  -5.173  1.00  0.00     0.049 A 
ATOM     34  H   UNL     1       6.608   8.123  -4.429  1.00  0.00     0.167 HD
ATOM     35  C   UNL     1       6.733   8.707  -7.245  1.00  0.00     0.074 A 
ATOM     36  C   UNL     1       6.617   8.598  -8.688  1.00  0.00     0.031 C 
ATOM     37  C   UNL     1       7.272   9.772  -6.602  1.00  0.00     0.031 A 
BRANCH  24  38
ATOM     38  C   UNL     1       7.340   9.350  -0.407  1.00  0.00    -0.014 A 
ATOM     39  C   UNL     1       8.352   8.821   0.415  1.00  0.00     0.010 A 
ATOM     40  C   UNL     1       6.561  10.420   0.069  1.00  0.00     0.010 A 
ATOM     41  C   UNL     1       8.529   9.303   1.716  1.00  0.00     0.020 A 
ATOM     42  C   UNL     1       6.750  10.920   1.360  1.00  0.00     0.020 A 
ATOM     43  C   UNL     1       7.712  10.336   2.187  1.00  0.00     0.054 A 
BRANCH  43  44
ATOM     44  S   UNL     1       7.911  10.900   3.899  1.00  0.00     0.124 S 
ATOM     45  O   UNL     1       7.244   9.834   4.644  1.00  0.00    -0.237 OA
ATOM     46  O   UNL     1       9.362  10.960   4.055  1.00  0.00    -0.237 OA
ATOM     47  O   UNL     1       7.232  12.193   3.919  1.00  0.00    -0.744 OA
ENDBRANCH  43  44
ENDBRANCH  24  38
BRANCH  25  48
ATOM     48  C   UNL     1       4.733   4.794  -9.007  1.00  0.00    -0.014 A 
ATOM     49  C   UNL     1       5.680   4.237  -9.883  1.00  0.00     0.010 A 
ATOM     50  C   UNL     1       3.363   4.640  -9.299  1.00  0.00     0.010 A 
ATOM     51  C   UNL     1       5.266   3.530 -11.018  1.00  0.00     0.020 A 
ATOM     52  C   UNL     1       2.946   3.915 -10.419  1.00  0.00     0.020 A 
ATOM     53  C   UNL     1       3.901   3.366 -11.274  1.00  0.00     0.054 A 
BRANCH  53  54
ATOM     54  S   UNL     1       3.386   2.363 -12.697  1.00  0.00     0.124 S 
ATOM     55  O   UNL     1       3.647   3.264 -13.815  1.00  0.00    -0.237 OA
ATOM     56  O   UNL     1       4.267   1.201 -12.602  1.00  0.00    -0.237 OA
ATOM     57  O   UNL     1       1.976   2.087 -12.429  1.00  0.00    -0.744 OA
ENDBRANCH  53  54
ENDBRANCH  25  48
BRANCH  37  58
ATOM     58  C   UNL     1       7.814  10.888  -7.448  1.00  0.00    -0.014 A 
ATOM     59  C   UNL     1       6.956  11.840  -8.024  1.00  0.00     0.010 A 
ATOM     60  C   UNL     1       9.206  11.048  -7.561  1.00  0.00     0.010 A 
ATOM     61  C   UNL     1       7.486  12.940  -8.702  1.00  0.00     0.020 A 
ATOM     62  C   UNL     1       9.739  12.156  -8.222  1.00  0.00     0.020 A 
ATOM     63  C   UNL     1       8.874  13.094  -8.790  1.00  0.00     0.054 A 
BRANCH  63  64
ATOM     64  S   UNL     1       9.540  14.581  -9.587  1.00  0.00     0.124 S 
ATOM     65  O   UNL     1       9.352  14.277 -11.002  1.00  0.00    -0.237 OA
ATOM     66  O   UNL     1       8.688  15.642  -9.053  1.00  0.00    -0.237 OA
ATOM     67  O   UNL     1      10.929  14.621  -9.136  1.00  0.00    -0.744 OA
ENDBRANCH  63  64
ENDBRANCH  37  58
ENDBRANCH  11  12
ENDBRANCH   4   6
ENDBRANCH   3   4
ENDBRANCH   2   3
ENDBRANCH   1   2
BRANCH   1  68
ATOM     68  O   UNL     1       4.105  -1.609  -0.765  1.00  0.00    -0.374 OA
BRANCH  68  69
ATOM     69  C   UNL     1       2.769  -1.889  -1.206  1.00  0.00     0.202 C 
BRANCH  69  70
ATOM     70  C   UNL     1       2.830  -2.732  -2.486  1.00  0.00     0.261 C 
BRANCH  70  71
ATOM     71  O   UNL     1       3.428  -3.997  -2.171  1.00  0.00    -0.458 OA
BRANCH  71  72
ATOM     72  C   UNL     1       4.791  -3.963  -2.086  1.00  0.00     0.357 C 
ATOM     73  O   UNL     1       5.522  -3.196  -2.703  1.00  0.00    -0.244 OA
BRANCH  72  74
ATOM     74  C   UNL     1       5.273  -4.857  -1.039  1.00  0.00     0.159 A 
ATOM     75  C   UNL     1       6.425  -4.624  -0.308  1.00  0.00     0.103 A 
ATOM     76  N   UNL     1       4.563  -5.988  -0.649  1.00  0.00    -0.229 NA
ATOM     77  S   UNL     1       6.596  -5.806   0.920  1.00  0.00    -0.122 S 
ATOM     78  C   UNL     1       5.181  -6.592   0.339  1.00  0.00     0.124 A 
BRANCH  78  79
ATOM     79  C   UNL     1       4.810  -7.905   0.845  1.00  0.00     0.016 A 
ATOM     80  C   UNL     1       4.817  -8.986  -0.029  1.00  0.00     0.031 A 
ATOM     81  C   UNL     1       4.472  -8.115   2.180  1.00  0.00     0.058 A 
ATOM     82  C   UNL     1       4.558 -10.236   0.489  1.00  0.00     0.114 A 
ATOM     83  C   UNL     1       4.228  -9.409   2.628  1.00  0.00     0.129 A 
ATOM     84  N   UNL     1       4.297 -10.468   1.794  1.00  0.00    -0.239 NA
BRANCH  83  85
ATOM     85  N   UNL     1       4.014  -9.626   3.965  1.00  0.00    -0.352 N 
ATOM     86  C   UNL     1       2.904  -8.998   4.676  1.00  0.00     0.146 C 
ATOM     87  C   UNL     1       4.559 -10.818   4.604  1.00  0.00     0.146 C 
ATOM     88  C   UNL     1       3.367  -8.682   6.107  1.00  0.00     0.181 C 
ATOM     89  C   UNL     1       4.987 -10.414   6.026  1.00  0.00     0.181 C 
ATOM     90  O   UNL     1       3.889  -9.850   6.772  1.00  0.00    -0.378 OA
ENDBRANCH  83  85
ENDBRANCH  78  79
ENDBRANCH  72  74
ENDBRANCH  71  72
ENDBRANCH  70  71
ENDBRANCH  69  70
ENDBRANCH  68  69
ENDBRANCH   1  68
TORSDOF 19
