REMARK SMILES COc1ccc(N2/C(=[NH+]/C(=O)CCCC(=O)OCCOCCOC(=O)c3ccc(-c4c5nc(c(-c6ccc(S(=O)(=O)[O-])cc6)c6ccc([nH]6)c(-c6ccc(S(=O)(=O)[O-])cc6)c6nc(c(-c7ccc(S(=O)(=O)[O-])cc7)c7ccc4[nH]7)C=C6)C=C5)cc3)S[C@@H]3CS(=O)(=O)C[C@H]32)cc1Cl
REMARK SMILES IDX 19 1 18 2 17 3 15 4 16 5 14 6 13 7 12 8 10 9 7 10 8 11 93 12
REMARK SMILES IDX 9 13 86 14 87 15 92 16 88 18 89 19 11 20 90 21 91 22 6 23
REMARK SMILES IDX 3 24 4 25 95 26 5 27 94 28 96 29 2 30 1 31 20 32 21 33 22 34
REMARK SMILES IDX 23 35 24 36 25 37 26 38 27 39 85 40 28 41 84 42 29 43 30 44
REMARK SMILES IDX 31 45 78 46 32 47 83 48 77 49 79 50 33 51 82 52 76 53 75 54
REMARK SMILES IDX 34 56 64 57 45 58 63 59 46 60 49 61 62 62 80 63 47 64 48 65
REMARK SMILES IDX 61 67 81 68 50 69 35 70 36 71 44 72 37 73 43 74 38 75 39 76
REMARK SMILES IDX 40 77 41 78 42 79 65 80 66 81 74 82 67 83 73 84 68 85 69 86
REMARK SMILES IDX 70 87 71 88 72 89 51 90 52 91 60 92 53 93 59 94 54 95 55 96
REMARK SMILES IDX 56 97 57 98 58 99
REMARK H PARENT 9 17 79 55 49 66
REMARK Flexibility Score: inf
ROOT
ATOM      1  C   UNL     1       4.271  -2.253   6.194  1.00  0.00     0.202 C 
ENDROOT
BRANCH   1   2
ATOM      2  C   UNL     1       3.461  -2.685   4.967  1.00  0.00     0.261 C 
BRANCH   2   3
ATOM      3  O   UNL     1       4.111  -3.754   4.262  1.00  0.00    -0.463 OA
BRANCH   3   4
ATOM      4  C   UNL     1       4.806  -3.413   3.153  1.00  0.00     0.305 C 
ATOM      5  O   UNL     1       4.859  -2.285   2.680  1.00  0.00    -0.252 OA
BRANCH   4   6
ATOM      6  C   UNL     1       5.548  -4.584   2.540  1.00  0.00     0.123 C 
BRANCH   6   7
ATOM      7  C   UNL     1       6.248  -5.584   3.463  1.00  0.00     0.024 C 
BRANCH   7   8
ATOM      8  C   UNL     1       5.434  -6.300   4.539  1.00  0.00     0.128 C 
BRANCH   8   9
ATOM      9  C   UNL     1       4.235  -7.104   4.069  1.00  0.00     0.307 C 
ATOM     10  N   UNL     1       1.579  -6.421   1.647  1.00  0.00    -0.217 N 
ATOM     11  C   UNL     1       2.586  -7.006   2.426  1.00  0.00     0.319 C 
ATOM     12  C   UNL     1       0.979  -7.346   0.685  1.00  0.00     0.212 C 
ATOM     13  N   UNL     1       3.348  -6.412   3.281  1.00  0.00    -0.204 N 
ATOM     14  S   UNL     1       2.654  -8.761   2.033  1.00  0.00    -0.029 SA
ATOM     15  C   UNL     1       0.962  -8.689   1.422  1.00  0.00     0.120 C 
ATOM     16  C   UNL     1      -0.449  -7.175   0.229  1.00  0.00     0.188 C 
ATOM     17  H   UNL     1       3.292  -5.433   3.371  1.00  0.00     0.316 HD
ATOM     18  C   UNL     1       0.451  -9.721   0.449  1.00  0.00     0.156 C 
ATOM     19  S   UNL     1      -0.772  -8.793  -0.490  1.00  0.00     0.155 S 
ATOM     20  O   UNL     1       4.058  -8.229   4.533  1.00  0.00    -0.247 OA
ATOM     21  O   UNL     1      -2.100  -9.219  -0.111  1.00  0.00    -0.229 OA
ATOM     22  O   UNL     1      -0.338  -8.758  -1.871  1.00  0.00    -0.229 OA
BRANCH  10  23
ATOM     23  C   UNL     1       1.365  -5.048   1.480  1.00  0.00     0.130 A 
ATOM     24  C   UNL     1       0.880  -2.262   1.143  1.00  0.00     0.137 A 
ATOM     25  C   UNL     1      -0.054  -3.091   1.773  1.00  0.00     0.052 A 
ATOM     26  C   UNL     1       2.060  -2.840   0.662  1.00  0.00     0.087 A 
ATOM     27  C   UNL     1       0.179  -4.462   1.932  1.00  0.00     0.056 A 
ATOM     28  C   UNL     1       2.289  -4.221   0.831  1.00  0.00     0.076 A 
ATOM     29  Cl  UNL     1       3.315  -1.955  -0.133  1.00  0.00    -0.080 Cl
BRANCH  24  30
ATOM     30  O   UNL     1       0.521  -0.943   1.169  1.00  0.00    -0.495 OA
ATOM     31  C   UNL     1       0.815  -0.149   0.029  1.00  0.00     0.278 C 
ENDBRANCH  24  30
ENDBRANCH  10  23
ENDBRANCH   8   9
ENDBRANCH   7   8
ENDBRANCH   6   7
ENDBRANCH   4   6
ENDBRANCH   3   4
ENDBRANCH   2   3
ENDBRANCH   1   2
BRANCH   1  32
ATOM     32  O   UNL     1       5.533  -1.629   5.955  1.00  0.00    -0.374 OA
BRANCH  32  33
ATOM     33  C   UNL     1       6.637  -2.475   5.643  1.00  0.00     0.202 C 
BRANCH  33  34
ATOM     34  C   UNL     1       7.330  -3.192   6.806  1.00  0.00     0.261 C 
BRANCH  34  35
ATOM     35  O   UNL     1       6.471  -4.151   7.447  1.00  0.00    -0.460 OA
BRANCH  35  36
ATOM     36  C   UNL     1       5.978  -3.743   8.643  1.00  0.00     0.338 C 
ATOM     37  O   UNL     1       6.242  -2.706   9.230  1.00  0.00    -0.246 OA
BRANCH  36  38
ATOM     38  C   UNL     1       4.903  -4.652   9.085  1.00  0.00     0.060 A 
ATOM     39  C   UNL     1       3.683  -4.071   9.458  1.00  0.00     0.016 A 
ATOM     40  C   UNL     1       5.101  -6.028   9.206  1.00  0.00     0.016 A 
ATOM     41  C   UNL     1       2.675  -4.857  10.009  1.00  0.00     0.010 A 
ATOM     42  C   UNL     1       4.088  -6.814   9.766  1.00  0.00     0.010 A 
ATOM     43  C   UNL     1       2.887  -6.227  10.206  1.00  0.00    -0.014 A 
BRANCH  43  44
ATOM     44  C   UNL     1       1.912  -7.019  10.995  1.00  0.00     0.031 A 
ATOM     45  C   UNL     1       2.243  -7.376  12.420  1.00  0.00     0.074 A 
ATOM     46  C   UNL     1       0.741  -7.404  10.457  1.00  0.00     0.049 A 
ATOM     47  N   UNL     1       1.572  -8.114  13.266  1.00  0.00    -0.248 NA
ATOM     48  C   UNL     1       3.499  -6.831  12.961  1.00  0.00     0.031 C 
ATOM     49  C   UNL     1       0.283  -7.079   9.107  1.00  0.00     0.029 A 
ATOM     50  N   UNL     1      -0.273  -8.166  10.983  1.00  0.00    -0.354 N 
ATOM     51  C   UNL     1       2.332  -8.139  14.431  1.00  0.00     0.074 A 
ATOM     52  C   UNL     1       3.525  -7.362  14.174  1.00  0.00     0.031 C 
ATOM     53  C   UNL     1      -0.917  -7.649   8.907  1.00  0.00     0.029 A 
ATOM     54  C   UNL     1      -1.291  -8.415  10.095  1.00  0.00     0.049 A 
ATOM     55  H   UNL     1      -0.270  -8.501  11.909  1.00  0.00     0.167 HD
ATOM     56  C   UNL     1       2.059  -8.754  15.606  1.00  0.00     0.031 A 
ATOM     57  C   UNL     1      -2.382  -9.197  10.213  1.00  0.00     0.031 A 
ATOM     58  C   UNL     1       0.875  -9.535  15.851  1.00  0.00     0.049 A 
ATOM     59  C   UNL     1      -2.627  -9.936  11.502  1.00  0.00     0.074 A 
ATOM     60  C   UNL     1       0.496 -10.180  17.016  1.00  0.00     0.029 A 
ATOM     61  N   UNL     1      -0.117  -9.788  14.915  1.00  0.00    -0.354 N 
ATOM     62  N   UNL     1      -1.912  -9.932  12.603  1.00  0.00    -0.248 NA
ATOM     63  C   UNL     1      -3.829 -10.779  11.568  1.00  0.00     0.031 C 
ATOM     64  C   UNL     1      -0.687 -10.879  16.763  1.00  0.00     0.029 A 
ATOM     65  C   UNL     1      -1.089 -10.606  15.465  1.00  0.00     0.049 A 
ATOM     66  H   UNL     1      -0.128  -9.438  13.995  1.00  0.00     0.167 HD
ATOM     67  C   UNL     1      -2.597 -10.744  13.502  1.00  0.00     0.074 A 
ATOM     68  C   UNL     1      -3.785 -11.213  12.821  1.00  0.00     0.031 C 
ATOM     69  C   UNL     1      -2.272 -11.065  14.779  1.00  0.00     0.031 A 
BRANCH  56  70
ATOM     70  C   UNL     1       3.082  -8.645  16.708  1.00  0.00    -0.014 A 
ATOM     71  C   UNL     1       3.317  -7.429  17.375  1.00  0.00     0.010 A 
ATOM     72  C   UNL     1       3.788  -9.793  17.113  1.00  0.00     0.010 A 
ATOM     73  C   UNL     1       4.267  -7.357  18.399  1.00  0.00     0.020 A 
ATOM     74  C   UNL     1       4.714  -9.732  18.157  1.00  0.00     0.020 A 
ATOM     75  C   UNL     1       4.960  -8.509  18.783  1.00  0.00     0.054 A 
BRANCH  75  76
ATOM     76  S   UNL     1       6.168  -8.390  20.131  1.00  0.00     0.124 S 
ATOM     77  O   UNL     1       7.243  -7.624  19.504  1.00  0.00    -0.237 OA
ATOM     78  O   UNL     1       5.420  -7.686  21.169  1.00  0.00    -0.237 OA
ATOM     79  O   UNL     1       6.491  -9.782  20.433  1.00  0.00    -0.744 OA
ENDBRANCH  75  76
ENDBRANCH  56  70
BRANCH  57  80
ATOM     80  C   UNL     1      -3.314  -9.343   9.061  1.00  0.00    -0.014 A 
ATOM     81  C   UNL     1      -4.617  -8.817   9.117  1.00  0.00     0.010 A 
ATOM     82  C   UNL     1      -2.896 -10.008   7.894  1.00  0.00     0.010 A 
ATOM     83  C   UNL     1      -5.486  -8.963   8.033  1.00  0.00     0.020 A 
ATOM     84  C   UNL     1      -3.751 -10.129   6.796  1.00  0.00     0.020 A 
ATOM     85  C   UNL     1      -5.044  -9.612   6.876  1.00  0.00     0.054 A 
BRANCH  85  86
ATOM     86  S   UNL     1      -6.166  -9.728   5.456  1.00  0.00     0.124 S 
ATOM     87  O   UNL     1      -7.150 -10.699   5.923  1.00  0.00    -0.237 OA
ATOM     88  O   UNL     1      -6.643  -8.354   5.322  1.00  0.00    -0.237 OA
ATOM     89  O   UNL     1      -5.296 -10.184   4.374  1.00  0.00    -0.744 OA
ENDBRANCH  85  86
ENDBRANCH  57  80
BRANCH  69  90
ATOM     90  C   UNL     1      -3.235 -11.929  15.553  1.00  0.00    -0.014 A 
ATOM     91  C   UNL     1      -3.398 -13.295  15.261  1.00  0.00     0.010 A 
ATOM     92  C   UNL     1      -3.937 -11.375  16.640  1.00  0.00     0.010 A 
ATOM     93  C   UNL     1      -4.263 -14.083  16.026  1.00  0.00     0.020 A 
ATOM     94  C   UNL     1      -4.777 -12.166  17.427  1.00  0.00     0.020 A 
ATOM     95  C   UNL     1      -4.944 -13.514  17.107  1.00  0.00     0.054 A 
BRANCH  95  96
ATOM     96  S   UNL     1      -6.016 -14.572  18.118  1.00  0.00     0.124 S 
ATOM     97  O   UNL     1      -7.139 -14.817  17.217  1.00  0.00    -0.237 OA
ATOM     98  O   UNL     1      -5.163 -15.726  18.388  1.00  0.00    -0.237 OA
ATOM     99  O   UNL     1      -6.323 -13.744  19.283  1.00  0.00    -0.744 OA
ENDBRANCH  95  96
ENDBRANCH  69  90
ENDBRANCH  43  44
ENDBRANCH  36  38
ENDBRANCH  35  36
ENDBRANCH  34  35
ENDBRANCH  33  34
ENDBRANCH  32  33
ENDBRANCH   1  32
TORSDOF 22
