REMARK SMILES O=C(Cc1ccc(F)cc1F)Nc1sccc1C(=O)OCCOCCOC(=O)c1ccc(-c2c3nc(c(-c4ccc(S(=O)(=O)[O-])cc4)c4ccc([nH]4)c(-c4ccc(S(=O)(=O)[O-])cc4)c4nc(c(-c5ccc(S(=O)(=O)[O-])cc5)c5ccc2[nH]5)C=C4)C=C3)cc1
REMARK SMILES IDX 23 1 22 2 21 3 20 4 18 5 19 6 17 7 13 8 14 9 15 10 16 11
REMARK SMILES IDX 12 12 1 13 2 14 3 16 4 17 5 18 10 19 6 20 9 21 11 22 7 23
REMARK SMILES IDX 8 24 24 25 25 26 26 27 27 28 28 29 29 30 30 31 88 32 31 33
REMARK SMILES IDX 87 34 32 35 33 36 34 37 81 38 35 39 86 40 80 41 82 42 36 43
REMARK SMILES IDX 85 44 79 45 78 46 37 48 67 49 48 50 66 51 49 52 52 53 65 54
REMARK SMILES IDX 83 55 50 56 51 57 64 59 84 60 53 61 38 62 39 63 47 64 40 65
REMARK SMILES IDX 46 66 41 67 42 68 43 69 44 70 45 71 68 72 69 73 77 74 70 75
REMARK SMILES IDX 76 76 71 77 72 78 73 79 74 80 75 81 54 82 55 83 63 84 56 85
REMARK SMILES IDX 62 86 57 87 58 88 59 89 60 90 61 91
REMARK H PARENT 12 15 82 47 52 58
REMARK Flexibility Score: inf
ROOT
ATOM      1  O   UNL     1       0.082   4.828  -0.472  1.00  0.00    -0.374 OA
ENDROOT
BRANCH   1   2
ATOM      2  C   UNL     1       0.145   3.982   0.684  1.00  0.00     0.202 C 
BRANCH   2   3
ATOM      3  C   UNL     1      -0.582   2.653   0.467  1.00  0.00     0.261 C 
BRANCH   3   4
ATOM      4  O   UNL     1       0.275   1.815  -0.321  1.00  0.00    -0.460 OA
BRANCH   4   5
ATOM      5  C   UNL     1      -0.281   1.167  -1.379  1.00  0.00     0.341 C 
ATOM      6  O   UNL     1      -1.483   1.117  -1.616  1.00  0.00    -0.246 OA
BRANCH   5   7
ATOM      7  C   UNL     1       0.731   0.762  -2.353  1.00  0.00     0.094 A 
ATOM      8  C   UNL     1       2.046   0.411  -2.106  1.00  0.00     0.110 A 
ATOM      9  S   UNL     1       2.994   0.349  -3.523  1.00  0.00    -0.126 S 
ATOM     10  C   UNL     1       1.631   0.595  -4.519  1.00  0.00     0.068 A 
ATOM     11  C   UNL     1       0.491   0.797  -3.776  1.00  0.00     0.029 A 
BRANCH   8  12
ATOM     12  N   UNL     1       2.786   0.114  -0.983  1.00  0.00    -0.317 N 
ATOM     13  O   UNL     1       1.064  -0.746   0.316  1.00  0.00    -0.274 OA
ATOM     14  C   UNL     1       2.233  -0.392   0.179  1.00  0.00     0.229 C 
ATOM     15  H   UNL     1       3.757   0.271  -1.008  1.00  0.00     0.170 HD
BRANCH  14  16
ATOM     16  C   UNL     1       3.242  -0.540   1.303  1.00  0.00     0.139 C 
BRANCH  16  17
ATOM     17  C   UNL     1       4.128  -1.744   1.119  1.00  0.00    -0.003 A 
ATOM     18  C   UNL     1       3.684  -3.023   1.482  1.00  0.00     0.010 A 
ATOM     19  C   UNL     1       5.397  -1.610   0.544  1.00  0.00     0.129 A 
ATOM     20  C   UNL     1       4.509  -4.133   1.283  1.00  0.00     0.040 A 
ATOM     21  C   UNL     1       6.227  -2.707   0.350  1.00  0.00     0.078 A 
ATOM     22  F   UNL     1       5.813  -0.401   0.139  1.00  0.00    -0.207 F 
ATOM     23  C   UNL     1       5.772  -3.963   0.723  1.00  0.00     0.126 A 
ATOM     24  F   UNL     1       6.555  -5.032   0.524  1.00  0.00    -0.207 F 
ENDBRANCH  16  17
ENDBRANCH  14  16
ENDBRANCH   8  12
ENDBRANCH   5   7
ENDBRANCH   4   5
ENDBRANCH   3   4
ENDBRANCH   2   3
ENDBRANCH   1   2
BRANCH   1  25
ATOM     25  C   UNL     1       1.077   4.588  -1.469  1.00  0.00     0.202 C 
BRANCH  25  26
ATOM     26  C   UNL     1       2.301   5.495  -1.322  1.00  0.00     0.261 C 
BRANCH  26  27
ATOM     27  O   UNL     1       3.118   5.060  -0.220  1.00  0.00    -0.460 OA
BRANCH  27  28
ATOM     28  C   UNL     1       3.010   5.805   0.906  1.00  0.00     0.338 C 
ATOM     29  O   UNL     1       2.361   6.828   1.046  1.00  0.00    -0.246 OA
BRANCH  28  30
ATOM     30  C   UNL     1       3.709   5.134   2.027  1.00  0.00     0.060 A 
ATOM     31  C   UNL     1       3.191   5.326   3.314  1.00  0.00     0.016 A 
ATOM     32  C   UNL     1       4.864   4.363   1.844  1.00  0.00     0.016 A 
ATOM     33  C   UNL     1       3.847   4.787   4.419  1.00  0.00     0.010 A 
ATOM     34  C   UNL     1       5.525   3.828   2.955  1.00  0.00     0.010 A 
ATOM     35  C   UNL     1       5.035   4.064   4.249  1.00  0.00    -0.014 A 
BRANCH  35  36
ATOM     36  C   UNL     1       5.815   3.677   5.447  1.00  0.00     0.031 A 
ATOM     37  C   UNL     1       6.861   4.620   5.973  1.00  0.00     0.074 A 
ATOM     38  C   UNL     1       5.556   2.527   6.094  1.00  0.00     0.049 A 
ATOM     39  N   UNL     1       7.583   4.527   7.060  1.00  0.00    -0.248 NA
ATOM     40  C   UNL     1       7.121   5.828   5.174  1.00  0.00     0.031 C 
ATOM     41  C   UNL     1       4.556   1.537   5.697  1.00  0.00     0.029 A 
ATOM     42  N   UNL     1       6.113   2.009   7.235  1.00  0.00    -0.354 N 
ATOM     43  C   UNL     1       8.370   5.671   7.087  1.00  0.00     0.074 A 
ATOM     44  C   UNL     1       8.059   6.428   5.893  1.00  0.00     0.031 C 
ATOM     45  C   UNL     1       4.569   0.527   6.586  1.00  0.00     0.029 A 
ATOM     46  C   UNL     1       5.578   0.801   7.608  1.00  0.00     0.049 A 
ATOM     47  H   UNL     1       6.828   2.460   7.739  1.00  0.00     0.167 HD
ATOM     48  C   UNL     1       9.264   6.065   8.024  1.00  0.00     0.031 A 
ATOM     49  C   UNL     1       5.865   0.008   8.658  1.00  0.00     0.031 A 
ATOM     50  C   UNL     1       9.598   5.311   9.200  1.00  0.00     0.049 A 
ATOM     51  C   UNL     1       6.899   0.440   9.661  1.00  0.00     0.074 A 
ATOM     52  C   UNL     1      10.489   5.634  10.208  1.00  0.00     0.029 A 
ATOM     53  N   UNL     1       9.063   4.073   9.519  1.00  0.00    -0.354 N 
ATOM     54  N   UNL     1       7.604   1.545   9.690  1.00  0.00    -0.248 NA
ATOM     55  C   UNL     1       7.167  -0.480  10.776  1.00  0.00     0.031 C 
ATOM     56  C   UNL     1      10.514   4.575  11.125  1.00  0.00     0.029 A 
ATOM     57  C   UNL     1       9.618   3.608  10.698  1.00  0.00     0.049 A 
ATOM     58  H   UNL     1       8.388   3.595   8.985  1.00  0.00     0.167 HD
ATOM     59  C   UNL     1       8.390   1.460  10.835  1.00  0.00     0.074 A 
ATOM     60  C   UNL     1       8.068   0.200  11.474  1.00  0.00     0.031 C 
ATOM     61  C   UNL     1       9.294   2.349  11.315  1.00  0.00     0.031 A 
BRANCH  48  62
ATOM     62  C   UNL     1       9.954   7.378   7.791  1.00  0.00    -0.014 A 
ATOM     63  C   UNL     1       9.297   8.590   8.066  1.00  0.00     0.010 A 
ATOM     64  C   UNL     1      11.267   7.401   7.291  1.00  0.00     0.010 A 
ATOM     65  C   UNL     1       9.929   9.808   7.807  1.00  0.00     0.020 A 
ATOM     66  C   UNL     1      11.907   8.617   7.043  1.00  0.00     0.020 A 
ATOM     67  C   UNL     1      11.226   9.814   7.284  1.00  0.00     0.054 A 
BRANCH  67  68
ATOM     68  S   UNL     1      12.032  11.403   6.945  1.00  0.00     0.124 S 
ATOM     69  O   UNL     1      11.467  11.752   5.643  1.00  0.00    -0.237 OA
ATOM     70  O   UNL     1      11.596  12.237   8.062  1.00  0.00    -0.237 OA
ATOM     71  O   UNL     1      13.455  11.071   6.939  1.00  0.00    -0.744 OA
ENDBRANCH  67  68
ENDBRANCH  48  62
BRANCH  49  72
ATOM     72  C   UNL     1       5.156  -1.287   8.815  1.00  0.00    -0.014 A 
ATOM     73  C   UNL     1       4.117  -1.424   9.751  1.00  0.00     0.010 A 
ATOM     74  C   UNL     1       5.513  -2.384   8.012  1.00  0.00     0.010 A 
ATOM     75  C   UNL     1       3.447  -2.643   9.885  1.00  0.00     0.020 A 
ATOM     76  C   UNL     1       4.836  -3.599   8.135  1.00  0.00     0.020 A 
ATOM     77  C   UNL     1       3.812  -3.724   9.076  1.00  0.00     0.054 A 
BRANCH  77  78
ATOM     78  S   UNL     1       2.890  -5.282   9.204  1.00  0.00     0.124 S 
ATOM     79  O   UNL     1       3.577  -5.950  10.304  1.00  0.00    -0.237 OA
ATOM     80  O   UNL     1       1.529  -4.831   9.487  1.00  0.00    -0.237 OA
ATOM     81  O   UNL     1       3.073  -5.886   7.886  1.00  0.00    -0.744 OA
ENDBRANCH  77  78
ENDBRANCH  49  72
BRANCH  61  82
ATOM     82  C   UNL     1       9.992   1.994  12.596  1.00  0.00    -0.014 A 
ATOM     83  C   UNL     1      11.072   1.093  12.600  1.00  0.00     0.010 A 
ATOM     84  C   UNL     1       9.597   2.603  13.801  1.00  0.00     0.010 A 
ATOM     85  C   UNL     1      11.731   0.789  13.793  1.00  0.00     0.020 A 
ATOM     86  C   UNL     1      10.263   2.310  14.993  1.00  0.00     0.020 A 
ATOM     87  C   UNL     1      11.319   1.394  14.984  1.00  0.00     0.054 A 
BRANCH  87  88
ATOM     88  S   UNL     1      12.211   1.024  16.521  1.00  0.00     0.124 S 
ATOM     89  O   UNL     1      11.569  -0.214  16.952  1.00  0.00    -0.237 OA
ATOM     90  O   UNL     1      13.595   0.891  16.073  1.00  0.00    -0.237 OA
ATOM     91  O   UNL     1      11.945   2.192  17.358  1.00  0.00    -0.744 OA
ENDBRANCH  87  88
ENDBRANCH  61  82
ENDBRANCH  35  36
ENDBRANCH  28  30
ENDBRANCH  27  28
ENDBRANCH  26  27
ENDBRANCH  25  26
ENDBRANCH   1  25
TORSDOF 20
