REMARK SMILES O=C(OCCOCCOC(=O)c1cc(-c2cc(Cl)ccc2Cl)cc([N+](=O)[O-])c1)c1ccc(-c2c3nc(c(-c4ccc(S(=O)(=O)[O-])cc4)c4ccc([nH]4)c(-c4ccc(S(=O)(=O)[O-])cc4)c4nc(c(-c5ccc(S(=O)(=O)[O-])cc5)c5ccc2[nH]5)C=C4)C=C3)cc1
REMARK SMILES IDX 5 1 4 2 3 3 2 4 1 5 29 6 30 7 88 8 31 9 87 10 32 11 33 12
REMARK SMILES IDX 34 13 81 14 35 15 86 16 80 17 82 18 36 19 85 20 79 21 78 22
REMARK SMILES IDX 37 24 67 25 48 26 66 27 49 28 52 29 65 30 83 31 50 32 51 33
REMARK SMILES IDX 64 35 84 36 53 37 38 38 39 39 47 40 40 41 46 42 41 43 42 44
REMARK SMILES IDX 43 45 44 46 45 47 68 48 69 49 77 50 70 51 76 52 71 53 72 54
REMARK SMILES IDX 73 55 74 56 75 57 54 58 55 59 63 60 56 61 62 62 57 63 58 64
REMARK SMILES IDX 59 65 60 66 61 67 6 68 7 69 8 70 9 71 10 72 11 73 12 74
REMARK SMILES IDX 13 75 28 76 14 77 24 78 23 79 15 80 16 81 21 82 17 83 20 84
REMARK SMILES IDX 22 85 18 86 19 87 25 88 26 89 27 90
REMARK H PARENT 82 23 52 34
REMARK Flexibility Score: inf
ROOT
ATOM      1  C   UNL     1       4.373  -1.576   0.361  1.00  0.00     0.202 C 
ENDROOT
BRANCH   1   2
ATOM      2  C   UNL     1       4.123  -0.364   1.263  1.00  0.00     0.261 C 
BRANCH   2   3
ATOM      3  O   UNL     1       2.727  -0.037   1.282  1.00  0.00    -0.460 OA
BRANCH   3   4
ATOM      4  C   UNL     1       2.084   0.884   0.527  1.00  0.00     0.338 C 
ATOM      5  O   UNL     1       0.859   0.956   0.611  1.00  0.00    -0.246 OA
BRANCH   4   6
ATOM      6  C   UNL     1       2.779   1.828  -0.398  1.00  0.00     0.060 A 
ATOM      7  C   UNL     1       3.953   1.548  -1.105  1.00  0.00     0.016 A 
ATOM      8  C   UNL     1       2.134   3.049  -0.648  1.00  0.00     0.016 A 
ATOM      9  C   UNL     1       4.491   2.439  -2.014  1.00  0.00     0.010 A 
ATOM     10  C   UNL     1       2.662   3.955  -1.567  1.00  0.00     0.010 A 
ATOM     11  C   UNL     1       3.848   3.645  -2.242  1.00  0.00    -0.014 A 
BRANCH  11  12
ATOM     12  C   UNL     1       4.538   4.634  -3.071  1.00  0.00     0.031 A 
ATOM     13  C   UNL     1       5.265   5.728  -2.365  1.00  0.00     0.074 A 
ATOM     14  C   UNL     1       4.579   4.475  -4.403  1.00  0.00     0.049 A 
ATOM     15  N   UNL     1       5.829   6.793  -2.855  1.00  0.00    -0.248 NA
ATOM     16  C   UNL     1       5.371   5.600  -0.900  1.00  0.00     0.031 C 
ATOM     17  C   UNL     1       4.027   3.332  -5.135  1.00  0.00     0.029 A 
ATOM     18  N   UNL     1       5.113   5.272  -5.375  1.00  0.00    -0.354 N 
ATOM     19  C   UNL     1       6.309   7.492  -1.755  1.00  0.00     0.074 A 
ATOM     20  C   UNL     1       5.980   6.728  -0.575  1.00  0.00     0.031 C 
ATOM     21  C   UNL     1       4.237   3.514  -6.449  1.00  0.00     0.029 A 
ATOM     22  C   UNL     1       4.864   4.815  -6.646  1.00  0.00     0.049 A 
ATOM     23  H   UNL     1       5.625   6.091  -5.184  1.00  0.00     0.167 HD
ATOM     24  C   UNL     1       6.943   8.685  -1.751  1.00  0.00     0.031 A 
ATOM     25  C   UNL     1       5.066   5.425  -7.829  1.00  0.00     0.031 A 
ATOM     26  C   UNL     1       7.212   9.414  -2.959  1.00  0.00     0.049 A 
ATOM     27  C   UNL     1       5.676   6.799  -7.802  1.00  0.00     0.074 A 
ATOM     28  C   UNL     1       7.790  10.657  -3.112  1.00  0.00     0.029 A 
ATOM     29  N   UNL     1       6.902   8.949  -4.234  1.00  0.00    -0.354 N 
ATOM     30  N   UNL     1       6.063   7.503  -6.761  1.00  0.00    -0.248 NA
ATOM     31  C   UNL     1       5.874   7.467  -9.092  1.00  0.00     0.031 C 
ATOM     32  C   UNL     1       7.771  10.970  -4.475  1.00  0.00     0.029 A 
ATOM     33  C   UNL     1       7.258   9.888  -5.180  1.00  0.00     0.049 A 
ATOM     34  H   UNL     1       6.489   8.077  -4.432  1.00  0.00     0.167 HD
ATOM     35  C   UNL     1       6.580   8.686  -7.270  1.00  0.00     0.074 A 
ATOM     36  C   UNL     1       6.453   8.601  -8.714  1.00  0.00     0.031 C 
ATOM     37  C   UNL     1       7.119   9.743  -6.611  1.00  0.00     0.031 A 
BRANCH  24  38
ATOM     38  C   UNL     1       7.253   9.287  -0.407  1.00  0.00    -0.014 A 
ATOM     39  C   UNL     1       8.192   8.711   0.470  1.00  0.00     0.010 A 
ATOM     40  C   UNL     1       6.524  10.412   0.019  1.00  0.00     0.010 A 
ATOM     41  C   UNL     1       8.341   9.206   1.770  1.00  0.00     0.020 A 
ATOM     42  C   UNL     1       6.696  10.931   1.305  1.00  0.00     0.020 A 
ATOM     43  C   UNL     1       7.583  10.305   2.182  1.00  0.00     0.054 A 
BRANCH  43  44
ATOM     44  S   UNL     1       7.766  10.902   3.885  1.00  0.00     0.124 S 
ATOM     45  O   UNL     1       7.100   9.847   4.646  1.00  0.00    -0.237 OA
ATOM     46  O   UNL     1       9.216  10.971   4.046  1.00  0.00    -0.237 OA
ATOM     47  O   UNL     1       7.080  12.191   3.877  1.00  0.00    -0.744 OA
ENDBRANCH  43  44
ENDBRANCH  24  38
BRANCH  25  48
ATOM     48  C   UNL     1       4.628   4.759  -9.086  1.00  0.00    -0.014 A 
ATOM     49  C   UNL     1       5.563   4.282 -10.019  1.00  0.00     0.010 A 
ATOM     50  C   UNL     1       3.257   4.532  -9.322  1.00  0.00     0.010 A 
ATOM     51  C   UNL     1       5.138   3.586 -11.157  1.00  0.00     0.020 A 
ATOM     52  C   UNL     1       2.829   3.813 -10.442  1.00  0.00     0.020 A 
ATOM     53  C   UNL     1       3.774   3.347 -11.356  1.00  0.00     0.054 A 
BRANCH  53  54
ATOM     54  S   UNL     1       3.255   2.371 -12.796  1.00  0.00     0.124 S 
ATOM     55  O   UNL     1       3.536   3.283 -13.900  1.00  0.00    -0.237 OA
ATOM     56  O   UNL     1       4.120   1.197 -12.707  1.00  0.00    -0.237 OA
ATOM     57  O   UNL     1       1.839   2.111 -12.543  1.00  0.00    -0.744 OA
ENDBRANCH  53  54
ENDBRANCH  25  48
BRANCH  37  58
ATOM     58  C   UNL     1       7.675  10.862  -7.444  1.00  0.00    -0.014 A 
ATOM     59  C   UNL     1       6.835  11.789  -8.081  1.00  0.00     0.010 A 
ATOM     60  C   UNL     1       9.069  11.052  -7.471  1.00  0.00     0.010 A 
ATOM     61  C   UNL     1       7.385  12.894  -8.733  1.00  0.00     0.020 A 
ATOM     62  C   UNL     1       9.618  12.171  -8.095  1.00  0.00     0.020 A 
ATOM     63  C   UNL     1       8.771  13.084  -8.724  1.00  0.00     0.054 A 
BRANCH  63  64
ATOM     64  S   UNL     1       9.450  14.582  -9.485  1.00  0.00     0.124 S 
ATOM     65  O   UNL     1       9.261  14.313 -10.907  1.00  0.00    -0.237 OA
ATOM     66  O   UNL     1       8.604  15.634  -8.925  1.00  0.00    -0.237 OA
ATOM     67  O   UNL     1      10.839  14.602  -9.033  1.00  0.00    -0.744 OA
ENDBRANCH  63  64
ENDBRANCH  37  58
ENDBRANCH  11  12
ENDBRANCH   4   6
ENDBRANCH   3   4
ENDBRANCH   2   3
ENDBRANCH   1   2
BRANCH   1  68
ATOM     68  O   UNL     1       4.001  -1.397  -1.005  1.00  0.00    -0.374 OA
BRANCH  68  69
ATOM     69  C   UNL     1       2.637  -1.671  -1.344  1.00  0.00     0.202 C 
BRANCH  69  70
ATOM     70  C   UNL     1       2.587  -2.745  -2.431  1.00  0.00     0.261 C 
BRANCH  70  71
ATOM     71  O   UNL     1       3.160  -3.947  -1.895  1.00  0.00    -0.460 OA
BRANCH  71  72
ATOM     72  C   UNL     1       4.508  -4.019  -2.013  1.00  0.00     0.338 C 
ATOM     73  O   UNL     1       5.236  -3.383  -2.756  1.00  0.00    -0.246 OA
BRANCH  72  74
ATOM     74  C   UNL     1       5.015  -4.876  -0.926  1.00  0.00     0.067 A 
ATOM     75  C   UNL     1       6.212  -4.506  -0.296  1.00  0.00     0.025 A 
ATOM     76  C   UNL     1       4.340  -6.034  -0.544  1.00  0.00     0.101 A 
ATOM     77  C   UNL     1       6.762  -5.293   0.725  1.00  0.00    -0.009 A 
ATOM     78  C   UNL     1       4.893  -6.832   0.460  1.00  0.00     0.270 A 
ATOM     79  C   UNL     1       6.083  -6.460   1.110  1.00  0.00     0.094 A 
BRANCH  77  80
ATOM     80  C   UNL     1       8.095  -4.971   1.254  1.00  0.00     0.002 A 
ATOM     81  C   UNL     1       8.252  -4.034   2.291  1.00  0.00     0.030 A 
ATOM     82  C   UNL     1       9.255  -5.548   0.696  1.00  0.00     0.048 A 
ATOM     83  C   UNL     1       9.529  -3.687   2.744  1.00  0.00     0.041 A 
ATOM     84  C   UNL     1      10.527  -5.194   1.151  1.00  0.00     0.023 A 
ATOM     85  Cl  UNL     1       9.165  -6.707  -0.589  1.00  0.00    -0.084 Cl
ATOM     86  Cl  UNL     1       9.707  -2.535   4.009  1.00  0.00    -0.084 Cl
ATOM     87  C   UNL     1      10.665  -4.259   2.175  1.00  0.00     0.022 A 
ENDBRANCH  77  80
BRANCH  78  88
ATOM     88  N   UNL     1       4.261  -8.116   0.777  1.00  0.00     0.062 N 
ATOM     89  O   UNL     1       4.890  -8.904   1.497  1.00  0.00    -0.258 OA
ATOM     90  O   UNL     1       3.143  -8.343   0.295  1.00  0.00    -0.258 OA
ENDBRANCH  78  88
ENDBRANCH  72  74
ENDBRANCH  71  72
ENDBRANCH  70  71
ENDBRANCH  69  70
ENDBRANCH  68  69
ENDBRANCH   1  68
TORSDOF 19
