REMARK SMILES Cc1ccnc(C(=O)c2[nH]c3ccc(C(C)(C)C)cc3c2CC(=O)OCCOCCOC(=O)c2ccc(-c3c4nc(c(-c5ccc(S(=O)(=O)[O-])cc5)c5ccc([nH]5)c(-c5ccc(S(=O)(=O)[O-])cc5)c5nc(c(-c6ccc(S(=O)(=O)[O-])cc6)c6ccc3[nH]6)C=C5)C=C4)cc2)c1
REMARK SMILES IDX 28 1 27 2 26 3 25 4 23 5 24 6 22 7 21 8 9 9 10 10 11 11
REMARK SMILES IDX 20 13 12 14 19 15 13 16 14 17 7 18 8 19 6 20 1 21 2 22 3 23
REMARK SMILES IDX 94 24 4 25 5 26 15 27 16 28 17 29 18 30 29 31 30 32 31 33
REMARK SMILES IDX 32 34 33 35 34 36 35 37 93 38 36 39 92 40 37 41 38 42 39 43
REMARK SMILES IDX 86 44 40 45 91 46 85 47 87 48 41 49 90 50 84 51 83 52 42 54
REMARK SMILES IDX 72 55 53 56 71 57 54 58 57 59 70 60 88 61 55 62 56 63 69 65
REMARK SMILES IDX 89 66 58 67 43 68 44 69 52 70 45 71 51 72 46 73 47 74 48 75
REMARK SMILES IDX 49 76 50 77 73 78 74 79 82 80 75 81 81 82 76 83 77 84 78 85
REMARK SMILES IDX 79 86 80 87 59 88 60 89 68 90 61 91 67 92 62 93 63 94 64 95
REMARK SMILES IDX 65 96 66 97
REMARK H PARENT 10 12 87 53 57 64
REMARK Flexibility Score: inf
ROOT
ATOM      1  O   UNL     1       5.932  -3.304   0.348  1.00  0.00    -0.374 OA
ENDROOT
BRANCH   1   2
ATOM      2  C   UNL     1       6.034  -4.727   0.302  1.00  0.00     0.202 C 
BRANCH   2   3
ATOM      3  C   UNL     1       5.369  -5.540   1.420  1.00  0.00     0.261 C 
BRANCH   3   4
ATOM      4  O   UNL     1       3.933  -5.393   1.460  1.00  0.00    -0.463 OA
BRANCH   4   5
ATOM      5  C   UNL     1       3.425  -4.987   2.655  1.00  0.00     0.310 C 
ATOM      6  O   UNL     1       4.103  -4.817   3.668  1.00  0.00    -0.252 OA
BRANCH   5   7
ATOM      7  C   UNL     1       1.923  -4.826   2.703  1.00  0.00     0.161 C 
BRANCH   7   8
ATOM      8  C   UNL     1       1.148  -4.742   1.414  1.00  0.00     0.000 A 
ATOM      9  C   UNL     1       0.860  -3.603   0.656  1.00  0.00     0.093 A 
ATOM     10  N   UNL     1       0.142  -4.035  -0.443  1.00  0.00    -0.352 N 
ATOM     11  C   UNL     1      -0.312  -5.319  -0.242  1.00  0.00     0.046 A 
ATOM     12  H   UNL     1      -0.022  -3.501  -1.253  1.00  0.00     0.167 HD
ATOM     13  C   UNL     1       0.326  -5.792   0.896  1.00  0.00     0.004 A 
ATOM     14  C   UNL     1      -1.236  -6.091  -0.954  1.00  0.00     0.027 A 
ATOM     15  C   UNL     1       0.004  -7.082   1.361  1.00  0.00     0.015 A 
ATOM     16  C   UNL     1      -1.587  -7.346  -0.424  1.00  0.00     0.006 A 
ATOM     17  C   UNL     1      -1.007  -7.850   0.750  1.00  0.00    -0.042 A 
BRANCH   9  18
ATOM     18  C   UNL     1       1.245  -2.229   0.962  1.00  0.00     0.227 C 
ATOM     19  O   UNL     1       2.129  -1.973   1.779  1.00  0.00    -0.285 OA
BRANCH  18  20
ATOM     20  C   UNL     1       0.531  -1.061   0.362  1.00  0.00     0.113 A 
ATOM     21  C   UNL     1      -2.969   0.301  -0.115  1.00  0.00     0.044 C 
ATOM     22  C   UNL     1      -1.476   0.175  -0.084  1.00  0.00    -0.047 A 
ATOM     23  C   UNL     1      -0.677   1.297  -0.319  1.00  0.00     0.023 A 
ATOM     24  C   UNL     1      -0.858  -1.029   0.273  1.00  0.00     0.036 A 
ATOM     25  C   UNL     1       0.699   1.167  -0.229  1.00  0.00     0.112 A 
ATOM     26  N   UNL     1       1.317   0.015   0.091  1.00  0.00    -0.253 NA
ENDBRANCH  18  20
ENDBRANCH   9  18
BRANCH  17  27
ATOM     27  C   UNL     1      -1.462  -9.151   1.437  1.00  0.00    -0.013 C 
ATOM     28  C   UNL     1      -0.277 -10.133   1.549  1.00  0.00     0.016 C 
ATOM     29  C   UNL     1      -1.976  -8.813   2.858  1.00  0.00     0.016 C 
ATOM     30  C   UNL     1      -2.608  -9.882   0.708  1.00  0.00     0.016 C 
ENDBRANCH  17  27
ENDBRANCH   7   8
ENDBRANCH   5   7
ENDBRANCH   4   5
ENDBRANCH   3   4
ENDBRANCH   2   3
ENDBRANCH   1   2
BRANCH   1  31
ATOM     31  C   UNL     1       4.632  -2.747   0.173  1.00  0.00     0.202 C 
BRANCH  31  32
ATOM     32  C   UNL     1       4.069  -2.699  -1.255  1.00  0.00     0.261 C 
BRANCH  32  33
ATOM     33  O   UNL     1       4.113  -3.963  -1.932  1.00  0.00    -0.460 OA
BRANCH  33  34
ATOM     34  C   UNL     1       5.029  -4.032  -2.928  1.00  0.00     0.338 C 
ATOM     35  O   UNL     1       5.711  -3.123  -3.379  1.00  0.00    -0.246 OA
BRANCH  34  36
ATOM     36  C   UNL     1       5.229  -5.438  -3.312  1.00  0.00     0.060 A 
ATOM     37  C   UNL     1       6.510  -5.979  -3.149  1.00  0.00     0.016 A 
ATOM     38  C   UNL     1       4.192  -6.200  -3.853  1.00  0.00     0.016 A 
ATOM     39  C   UNL     1       6.765  -7.289  -3.544  1.00  0.00     0.010 A 
ATOM     40  C   UNL     1       4.454  -7.509  -4.263  1.00  0.00     0.010 A 
ATOM     41  C   UNL     1       5.745  -8.051  -4.127  1.00  0.00    -0.014 A 
BRANCH  41  42
ATOM     42  C   UNL     1       6.053  -9.390  -4.678  1.00  0.00     0.031 A 
ATOM     43  C   UNL     1       6.271  -9.538  -6.157  1.00  0.00     0.074 A 
ATOM     44  C   UNL     1       6.145 -10.450  -3.856  1.00  0.00     0.049 A 
ATOM     45  N   UNL     1       6.512 -10.619  -6.851  1.00  0.00    -0.248 NA
ATOM     46  C   UNL     1       6.209  -8.306  -6.961  1.00  0.00     0.031 C 
ATOM     47  C   UNL     1       5.994 -10.405  -2.400  1.00  0.00     0.029 A 
ATOM     48  N   UNL     1       6.383 -11.773  -4.127  1.00  0.00    -0.354 N 
ATOM     49  C   UNL     1       6.618 -10.202  -8.173  1.00  0.00     0.074 A 
ATOM     50  C   UNL     1       6.396  -8.773  -8.188  1.00  0.00     0.031 C 
ATOM     51  C   UNL     1       6.140 -11.647  -1.908  1.00  0.00     0.029 A 
ATOM     52  C   UNL     1       6.352 -12.578  -3.013  1.00  0.00     0.049 A 
ATOM     53  H   UNL     1       6.559 -12.114  -5.034  1.00  0.00     0.167 HD
ATOM     54  C   UNL     1       6.876 -10.949  -9.272  1.00  0.00     0.031 A 
ATOM     55  C   UNL     1       6.457 -13.917  -2.904  1.00  0.00     0.031 A 
ATOM     56  C   UNL     1       7.082 -12.373  -9.240  1.00  0.00     0.049 A 
ATOM     57  C   UNL     1       6.660 -14.732  -4.155  1.00  0.00     0.074 A 
ATOM     58  C   UNL     1       7.380 -13.223 -10.291  1.00  0.00     0.029 A 
ATOM     59  N   UNL     1       6.998 -13.160  -8.100  1.00  0.00    -0.354 N 
ATOM     60  N   UNL     1       6.802 -14.320  -5.393  1.00  0.00    -0.248 NA
ATOM     61  C   UNL     1       6.715 -16.191  -3.995  1.00  0.00     0.031 C 
ATOM     62  C   UNL     1       7.405 -14.531  -9.798  1.00  0.00     0.029 A 
ATOM     63  C   UNL     1       7.192 -14.490  -8.429  1.00  0.00     0.049 A 
ATOM     64  H   UNL     1       6.825 -12.822  -7.192  1.00  0.00     0.167 HD
ATOM     65  C   UNL     1       6.984 -15.468  -6.156  1.00  0.00     0.074 A 
ATOM     66  C   UNL     1       6.957 -16.588  -5.237  1.00  0.00     0.031 C 
ATOM     67  C   UNL     1       7.154 -15.589  -7.496  1.00  0.00     0.031 A 
BRANCH  54  68
ATOM     68  C   UNL     1       6.907 -10.254 -10.608  1.00  0.00    -0.014 A 
ATOM     69  C   UNL     1       7.960  -9.393 -10.963  1.00  0.00     0.010 A 
ATOM     70  C   UNL     1       5.894 -10.518 -11.549  1.00  0.00     0.010 A 
ATOM     71  C   UNL     1       7.988  -8.792 -12.226  1.00  0.00     0.020 A 
ATOM     72  C   UNL     1       5.931  -9.941 -12.821  1.00  0.00     0.020 A 
ATOM     73  C   UNL     1       6.974  -9.072 -13.148  1.00  0.00     0.054 A 
BRANCH  73  74
ATOM     74  S   UNL     1       7.062  -8.316 -14.794  1.00  0.00     0.124 S 
ATOM     75  O   UNL     1       6.778  -6.914 -14.499  1.00  0.00    -0.237 OA
ATOM     76  O   UNL     1       8.433  -8.606 -15.206  1.00  0.00    -0.237 OA
ATOM     77  O   UNL     1       6.026  -9.013 -15.553  1.00  0.00    -0.744 OA
ENDBRANCH  73  74
ENDBRANCH  54  68
BRANCH  55  78
ATOM     78  C   UNL     1       6.338 -14.575  -1.573  1.00  0.00    -0.014 A 
ATOM     79  C   UNL     1       7.436 -15.237  -0.998  1.00  0.00     0.010 A 
ATOM     80  C   UNL     1       5.115 -14.554  -0.877  1.00  0.00     0.010 A 
ATOM     81  C   UNL     1       7.308 -15.886   0.235  1.00  0.00     0.020 A 
ATOM     82  C   UNL     1       4.990 -15.174   0.370  1.00  0.00     0.020 A 
ATOM     83  C   UNL     1       6.085 -15.849   0.911  1.00  0.00     0.054 A 
BRANCH  83  84
ATOM     84  S   UNL     1       5.951 -16.670   2.524  1.00  0.00     0.124 S 
ATOM     85  O   UNL     1       5.975 -18.080   2.149  1.00  0.00    -0.237 OA
ATOM     86  O   UNL     1       7.135 -16.180   3.225  1.00  0.00    -0.237 OA
ATOM     87  O   UNL     1       4.678 -16.183   3.051  1.00  0.00    -0.744 OA
ENDBRANCH  83  84
ENDBRANCH  55  78
BRANCH  67  88
ATOM     88  C   UNL     1       7.338 -16.978  -8.048  1.00  0.00    -0.014 A 
ATOM     89  C   UNL     1       6.265 -17.885  -8.103  1.00  0.00     0.010 A 
ATOM     90  C   UNL     1       8.586 -17.358  -8.576  1.00  0.00     0.010 A 
ATOM     91  C   UNL     1       6.444 -19.157  -8.651  1.00  0.00     0.020 A 
ATOM     92  C   UNL     1       8.760 -18.617  -9.154  1.00  0.00     0.020 A 
ATOM     93  C   UNL     1       7.690 -19.514  -9.177  1.00  0.00     0.054 A 
BRANCH  93  94
ATOM     94  S   UNL     1       7.878 -21.152  -9.931  1.00  0.00     0.124 S 
ATOM     95  O   UNL     1       7.848 -22.029  -8.765  1.00  0.00    -0.237 OA
ATOM     96  O   UNL     1       6.714 -21.234 -10.810  1.00  0.00    -0.237 OA
ATOM     97  O   UNL     1       9.165 -21.072 -10.618  1.00  0.00    -0.744 OA
ENDBRANCH  93  94
ENDBRANCH  67  88
ENDBRANCH  41  42
ENDBRANCH  34  36
ENDBRANCH  33  34
ENDBRANCH  32  33
ENDBRANCH  31  32
ENDBRANCH   1  31
TORSDOF 21
