REMARK SMILES CC1CC[NH+]([C@H](c2ccc(F)cc2)c2ccc([C@@H](C)C(=O)OCCOCCOC(=O)c3ccc(-c4c5nc(c(-c6ccc(S(=O)(=O)[O-])cc6)c6ccc([nH]6)c(-c6ccc(S(=O)(=O)[O-])cc6)c6nc(c(-c7ccc(S(=O)(=O)[O-])cc7)c7ccc4[nH]7)C=C6)C=C5)cc3)cc2-c2ccc(C(F)(F)F)cc2)CC1
REMARK SMILES IDX 25 1 24 2 23 3 22 4 20 5 21 6 18 7 19 8 17 9 14 10 15 11
REMARK SMILES IDX 92 12 16 13 91 14 6 15 5 16 1 17 2 18 3 19 104 20 4 21
REMARK SMILES IDX 103 22 7 24 8 25 13 26 9 27 12 28 10 29 11 30 93 31 94 32
REMARK SMILES IDX 102 33 95 34 101 35 96 36 97 37 98 38 99 39 100 40 26 41
REMARK SMILES IDX 27 42 28 43 29 44 30 45 31 46 32 47 90 48 33 49 89 50 34 51
REMARK SMILES IDX 35 52 36 53 83 54 37 55 88 56 82 57 84 58 38 59 87 60 81 61
REMARK SMILES IDX 80 62 39 64 69 65 50 66 68 67 51 68 54 69 67 70 85 71 52 72
REMARK SMILES IDX 53 73 66 75 86 76 55 77 40 78 41 79 49 80 42 81 48 82 43 83
REMARK SMILES IDX 44 84 45 85 46 86 47 87 70 88 71 89 79 90 72 91 78 92 73 93
REMARK SMILES IDX 74 94 75 95 76 96 77 97 56 98 57 99 65 100 58 101 64 102
REMARK SMILES IDX 59 103 60 104 61 105 62 106 63 107
REMARK H PARENT 5 23 84 63 54 74
REMARK Flexibility Score: inf
ROOT
ATOM      1  O   UNL     1       3.524   7.254  -0.939  1.00  0.00    -0.374 OA
ENDROOT
BRANCH   1   2
ATOM      2  C   UNL     1       2.659   7.613  -2.018  1.00  0.00     0.202 C 
BRANCH   2   3
ATOM      3  C   UNL     1       3.301   7.601  -3.408  1.00  0.00     0.261 C 
BRANCH   3   4
ATOM      4  O   UNL     1       3.567   6.251  -3.834  1.00  0.00    -0.463 OA
BRANCH   4   5
ATOM      5  C   UNL     1       4.872   5.894  -3.953  1.00  0.00     0.313 C 
ATOM      6  O   UNL     1       5.817   6.670  -3.847  1.00  0.00    -0.252 OA
BRANCH   5   7
ATOM      7  C   UNL     1       5.069   4.419  -4.280  1.00  0.00     0.126 C 
ATOM      8  C   UNL     1       5.046   4.228  -5.794  1.00  0.00     0.025 C 
BRANCH   7   9
ATOM      9  C   UNL     1       4.172   3.414  -3.562  1.00  0.00    -0.033 A 
ATOM     10  C   UNL     1       2.562   1.386  -2.294  1.00  0.00     0.022 A 
ATOM     11  C   UNL     1       2.006   2.417  -3.081  1.00  0.00     0.011 A 
ATOM     12  C   UNL     1       3.975   1.416  -2.106  1.00  0.00    -0.009 A 
ATOM     13  C   UNL     1       2.788   3.389  -3.720  1.00  0.00     0.005 A 
ATOM     14  C   UNL     1       4.742   2.430  -2.737  1.00  0.00     0.013 A 
BRANCH  10  15
ATOM     15  C   UNL     1       1.687   0.243  -1.690  1.00  0.00     0.247 C 
BRANCH  15  16
ATOM     16  N   UNL     1       0.278   0.067  -2.171  1.00  0.00    -0.325 N 
ATOM     17  C   UNL     1      -3.385   1.216  -4.330  1.00  0.00     0.008 C 
ATOM     18  C   UNL     1      -2.000   1.097  -3.704  1.00  0.00    -0.003 C 
ATOM     19  C   UNL     1      -1.249  -0.140  -4.196  1.00  0.00     0.065 C 
ATOM     20  C   UNL     1      -2.087   0.985  -2.187  1.00  0.00     0.065 C 
ATOM     21  C   UNL     1       0.167  -0.201  -3.609  1.00  0.00     0.263 C 
ATOM     22  C   UNL     1      -0.691   0.980  -1.571  1.00  0.00     0.263 C 
ATOM     23  H   UNL     1      -0.039  -0.819  -1.778  1.00  0.00     0.348 HD
ENDBRANCH  15  16
BRANCH  15  24
ATOM     24  C   UNL     1       1.762   0.163  -0.153  1.00  0.00     0.014 A 
ATOM     25  C   UNL     1       1.590   1.300   0.658  1.00  0.00     0.013 A 
ATOM     26  C   UNL     1       1.985  -1.079   0.474  1.00  0.00     0.013 A 
ATOM     27  C   UNL     1       1.653   1.203   2.049  1.00  0.00     0.040 A 
ATOM     28  C   UNL     1       2.069  -1.171   1.864  1.00  0.00     0.040 A 
ATOM     29  C   UNL     1       1.901  -0.030   2.638  1.00  0.00     0.123 A 
ATOM     30  F   UNL     1       1.976  -0.122   3.972  1.00  0.00    -0.207 F 
ENDBRANCH  15  24
ENDBRANCH  10  15
BRANCH  12  31
ATOM     31  C   UNL     1       4.707   0.448  -1.265  1.00  0.00    -0.018 A 
ATOM     32  C   UNL     1       5.253   0.853  -0.036  1.00  0.00     0.009 A 
ATOM     33  C   UNL     1       4.881  -0.886  -1.659  1.00  0.00     0.009 A 
ATOM     34  C   UNL     1       5.913  -0.057   0.795  1.00  0.00     0.014 A 
ATOM     35  C   UNL     1       5.532  -1.802  -0.825  1.00  0.00     0.014 A 
ATOM     36  C   UNL     1       6.042  -1.400   0.417  1.00  0.00     0.056 A 
BRANCH  36  37
ATOM     37  C   UNL     1       6.733  -2.379   1.334  1.00  0.00     0.416 C 
ATOM     38  F   UNL     1       8.081  -2.186   1.379  1.00  0.00    -0.166 F 
ATOM     39  F   UNL     1       6.302  -2.292   2.623  1.00  0.00    -0.166 F 
ATOM     40  F   UNL     1       6.556  -3.681   0.972  1.00  0.00    -0.166 F 
ENDBRANCH  36  37
ENDBRANCH  12  31
ENDBRANCH   7   9
ENDBRANCH   5   7
ENDBRANCH   4   5
ENDBRANCH   3   4
ENDBRANCH   2   3
ENDBRANCH   1   2
BRANCH   1  41
ATOM     41  C   UNL     1       3.737   5.860  -0.728  1.00  0.00     0.202 C 
BRANCH  41  42
ATOM     42  C   UNL     1       2.654   5.124   0.068  1.00  0.00     0.261 C 
BRANCH  42  43
ATOM     43  O   UNL     1       1.390   5.094  -0.617  1.00  0.00    -0.460 OA
BRANCH  43  44
ATOM     44  C   UNL     1       0.458   5.953  -0.137  1.00  0.00     0.338 C 
ATOM     45  O   UNL     1       0.558   6.670   0.850  1.00  0.00    -0.246 OA
BRANCH  44  46
ATOM     46  C   UNL     1      -0.683   6.033  -1.070  1.00  0.00     0.060 A 
ATOM     47  C   UNL     1      -1.178   7.295  -1.412  1.00  0.00     0.016 A 
ATOM     48  C   UNL     1      -1.299   4.884  -1.564  1.00  0.00     0.016 A 
ATOM     49  C   UNL     1      -2.322   7.406  -2.204  1.00  0.00     0.010 A 
ATOM     50  C   UNL     1      -2.434   4.993  -2.370  1.00  0.00     0.010 A 
ATOM     51  C   UNL     1      -2.980   6.254  -2.657  1.00  0.00    -0.014 A 
BRANCH  51  52
ATOM     52  C   UNL     1      -4.312   6.356  -3.303  1.00  0.00     0.031 A 
ATOM     53  C   UNL     1      -5.542   5.997  -2.510  1.00  0.00     0.074 A 
ATOM     54  C   UNL     1      -4.429   6.761  -4.580  1.00  0.00     0.049 A 
ATOM     55  N   UNL     1      -6.798   6.019  -2.875  1.00  0.00    -0.248 NA
ATOM     56  C   UNL     1      -5.325   5.545  -1.126  1.00  0.00     0.031 C 
ATOM     57  C   UNL     1      -3.318   7.133  -5.455  1.00  0.00     0.029 A 
ATOM     58  N   UNL     1      -5.545   6.922  -5.363  1.00  0.00    -0.354 N 
ATOM     59  C   UNL     1      -7.519   5.576  -1.772  1.00  0.00     0.074 A 
ATOM     60  C   UNL     1      -6.558   5.253  -0.740  1.00  0.00     0.031 C 
ATOM     61  C   UNL     1      -3.809   7.481  -6.657  1.00  0.00     0.029 A 
ATOM     62  C   UNL     1      -5.264   7.334  -6.643  1.00  0.00     0.049 A 
ATOM     63  H   UNL     1      -6.460   6.758  -5.038  1.00  0.00     0.167 HD
ATOM     64  C   UNL     1      -8.861   5.460  -1.624  1.00  0.00     0.031 A 
ATOM     65  C   UNL     1      -6.083   7.559  -7.689  1.00  0.00     0.031 A 
ATOM     66  C   UNL     1      -9.817   5.776  -2.652  1.00  0.00     0.049 A 
ATOM     67  C   UNL     1      -7.569   7.395  -7.516  1.00  0.00     0.074 A 
ATOM     68  C   UNL     1     -11.198   5.734  -2.585  1.00  0.00     0.029 A 
ATOM     69  N   UNL     1      -9.490   6.179  -3.938  1.00  0.00    -0.354 N 
ATOM     70  N   UNL     1      -8.239   7.033  -6.447  1.00  0.00    -0.248 NA
ATOM     71  C   UNL     1      -8.411   7.684  -8.686  1.00  0.00     0.031 C 
ATOM     72  C   UNL     1     -11.706   6.060  -3.847  1.00  0.00     0.029 A 
ATOM     73  C   UNL     1     -10.643   6.362  -4.683  1.00  0.00     0.049 A 
ATOM     74  H   UNL     1      -8.574   6.316  -4.271  1.00  0.00     0.167 HD
ATOM     75  C   UNL     1      -9.582   7.073  -6.809  1.00  0.00     0.074 A 
ATOM     76  C   UNL     1      -9.629   7.505  -8.191  1.00  0.00     0.031 C 
ATOM     77  C   UNL     1     -10.676   6.782  -6.062  1.00  0.00     0.031 A 
BRANCH  64  78
ATOM     78  C   UNL     1      -9.368   4.942  -0.303  1.00  0.00    -0.014 A 
ATOM     79  C   UNL     1      -9.275   5.715   0.869  1.00  0.00     0.010 A 
ATOM     80  C   UNL     1      -9.956   3.666  -0.235  1.00  0.00     0.010 A 
ATOM     81  C   UNL     1      -9.712   5.200   2.093  1.00  0.00     0.020 A 
ATOM     82  C   UNL     1     -10.420   3.159   0.982  1.00  0.00     0.020 A 
ATOM     83  C   UNL     1     -10.274   3.921   2.143  1.00  0.00     0.054 A 
BRANCH  83  84
ATOM     84  S   UNL     1     -10.828   3.275   3.744  1.00  0.00     0.124 S 
ATOM     85  O   UNL     1      -9.559   2.957   4.395  1.00  0.00    -0.237 OA
ATOM     86  O   UNL     1     -11.559   4.405   4.312  1.00  0.00    -0.237 OA
ATOM     87  O   UNL     1     -11.650   2.121   3.386  1.00  0.00    -0.744 OA
ENDBRANCH  83  84
ENDBRANCH  64  78
BRANCH  65  88
ATOM     88  C   UNL     1      -5.504   7.975  -8.995  1.00  0.00    -0.014 A 
ATOM     89  C   UNL     1      -5.644   9.296  -9.454  1.00  0.00     0.010 A 
ATOM     90  C   UNL     1      -4.770   7.055  -9.767  1.00  0.00     0.010 A 
ATOM     91  C   UNL     1      -5.058   9.691 -10.661  1.00  0.00     0.020 A 
ATOM     92  C   UNL     1      -4.163   7.453 -10.961  1.00  0.00     0.020 A 
ATOM     93  C   UNL     1      -4.315   8.768 -11.402  1.00  0.00     0.054 A 
BRANCH  93  94
ATOM     94  S   UNL     1      -3.488   9.327 -12.918  1.00  0.00     0.124 S 
ATOM     95  O   UNL     1      -4.607   9.455 -13.846  1.00  0.00    -0.237 OA
ATOM     96  O   UNL     1      -2.868  10.581 -12.495  1.00  0.00    -0.237 OA
ATOM     97  O   UNL     1      -2.549   8.247 -13.212  1.00  0.00    -0.744 OA
ENDBRANCH  93  94
ENDBRANCH  65  88
BRANCH  77  98
ATOM     98  C   UNL     1     -12.025   6.943  -6.712  1.00  0.00    -0.014 A 
ATOM     99  C   UNL     1     -12.480   6.033  -7.682  1.00  0.00     0.010 A 
ATOM    100  C   UNL     1     -12.874   7.987  -6.300  1.00  0.00     0.010 A 
ATOM    101  C   UNL     1     -13.749   6.182  -8.250  1.00  0.00     0.020 A 
ATOM    102  C   UNL     1     -14.153   8.124  -6.846  1.00  0.00     0.020 A 
ATOM    103  C   UNL     1     -14.577   7.227  -7.829  1.00  0.00     0.054 A 
BRANCH 103 104
ATOM    104  S   UNL     1     -16.236   7.374  -8.550  1.00  0.00     0.124 S 
ATOM    105  O   UNL     1     -15.943   7.896  -9.881  1.00  0.00    -0.237 OA
ATOM    106  O   UNL     1     -16.727   5.999  -8.508  1.00  0.00    -0.237 OA
ATOM    107  O   UNL     1     -16.922   8.302  -7.653  1.00  0.00    -0.744 OA
ENDBRANCH 103 104
ENDBRANCH  77  98
ENDBRANCH  51  52
ENDBRANCH  44  46
ENDBRANCH  43  44
ENDBRANCH  42  43
ENDBRANCH  41  42
ENDBRANCH   1  41
TORSDOF 23
