REMARK SMILES CC1(C)CCC[C@@](C)(CCC(=O)OCCOCCOC(=O)c2ccc(-c3c4nc(c(-c5ccc(S(=O)(=O)[O-])cc5)c5ccc([nH]5)c(-c5ccc(S(=O)(=O)[O-])cc5)c5nc(c(-c6ccc(S(=O)(=O)[O-])cc6)c6ccc3[nH]6)C=C5)C=C4)cc2)C1=O
REMARK SMILES IDX 17 1 16 2 15 3 14 4 13 5 11 6 12 7 10 8 9 9 7 10 1 11 2 12
REMARK SMILES IDX 3 13 4 14 82 15 5 16 83 17 6 18 8 19 18 20 19 21 20 22 21 23
REMARK SMILES IDX 22 24 23 25 81 26 24 27 80 28 25 29 26 30 27 31 74 32 28 33
REMARK SMILES IDX 79 34 73 35 75 36 29 37 78 38 72 39 71 40 30 42 60 43 41 44
REMARK SMILES IDX 59 45 42 46 45 47 58 48 76 49 43 50 44 51 57 53 77 54 46 55
REMARK SMILES IDX 31 56 32 57 40 58 33 59 39 60 34 61 35 62 36 63 37 64 38 65
REMARK SMILES IDX 61 66 62 67 70 68 63 69 69 70 64 71 65 72 66 73 67 74 68 75
REMARK SMILES IDX 47 76 48 77 56 78 49 79 55 80 50 81 51 82 52 83 53 84 54 85
REMARK H PARENT 75 41 45 52
REMARK Flexibility Score: inf
ROOT
ATOM      1  C   UNL     1      -3.181  -1.180  -3.448  1.00  0.00     0.202 C 
ENDROOT
BRANCH   1   2
ATOM      2  O   UNL     1      -4.186  -1.868  -2.703  1.00  0.00    -0.374 OA
BRANCH   2   3
ATOM      3  C   UNL     1      -4.564  -1.275  -1.455  1.00  0.00     0.202 C 
BRANCH   3   4
ATOM      4  C   UNL     1      -3.656  -1.623  -0.274  1.00  0.00     0.261 C 
BRANCH   4   5
ATOM      5  O   UNL     1      -2.363  -1.035  -0.487  1.00  0.00    -0.463 OA
BRANCH   5   6
ATOM      6  C   UNL     1      -1.364  -1.860  -0.834  1.00  0.00     0.305 C 
ATOM      7  O   UNL     1      -1.415  -3.084  -0.811  1.00  0.00    -0.252 OA
BRANCH   6   8
ATOM      8  C   UNL     1      -0.121  -1.127  -1.288  1.00  0.00     0.124 C 
BRANCH   8   9
ATOM      9  C   UNL     1      -0.093   0.337  -1.784  1.00  0.00     0.026 C 
BRANCH   9  10
ATOM     10  C   UNL     1      -0.534   1.546  -0.902  1.00  0.00     0.027 C 
ATOM     11  C   UNL     1       1.914   0.275   0.964  1.00  0.00     0.019 C 
ATOM     12  C   UNL     1       0.942   1.410   1.306  1.00  0.00     0.024 C 
ATOM     13  C   UNL     1       0.728   1.366   2.831  1.00  0.00     0.019 C 
ATOM     14  C   UNL     1       1.545   2.765   0.910  1.00  0.00     0.014 C 
ATOM     15  C   UNL     1      -0.427   1.262   0.608  1.00  0.00     0.144 C 
ATOM     16  C   UNL     1       1.655   2.929  -0.603  1.00  0.00     0.002 C 
ATOM     17  O   UNL     1      -1.419   0.897   1.244  1.00  0.00    -0.298 OA
ATOM     18  C   UNL     1       0.284   2.825  -1.256  1.00  0.00     0.014 C 
ATOM     19  C   UNL     1      -1.988   1.944  -1.265  1.00  0.00     0.020 C 
ENDBRANCH   9  10
ENDBRANCH   8   9
ENDBRANCH   6   8
ENDBRANCH   5   6
ENDBRANCH   4   5
ENDBRANCH   3   4
ENDBRANCH   2   3
ENDBRANCH   1   2
BRANCH   1  20
ATOM     20  C   UNL     1      -3.686  -0.100  -4.408  1.00  0.00     0.261 C 
BRANCH  20  21
ATOM     21  O   UNL     1      -4.126   1.063  -3.683  1.00  0.00    -0.460 OA
BRANCH  21  22
ATOM     22  C   UNL     1      -5.465   1.145  -3.501  1.00  0.00     0.338 C 
ATOM     23  O   UNL     1      -6.312   0.422  -4.001  1.00  0.00    -0.246 OA
BRANCH  22  24
ATOM     24  C   UNL     1      -5.773   2.122  -2.433  1.00  0.00     0.060 A 
ATOM     25  C   UNL     1      -6.762   1.763  -1.509  1.00  0.00     0.016 A 
ATOM     26  C   UNL     1      -5.144   3.367  -2.340  1.00  0.00     0.016 A 
ATOM     27  C   UNL     1      -7.181   2.671  -0.540  1.00  0.00     0.010 A 
ATOM     28  C   UNL     1      -5.561   4.277  -1.359  1.00  0.00     0.010 A 
ATOM     29  C   UNL     1      -6.618   3.953  -0.488  1.00  0.00    -0.014 A 
BRANCH  29  30
ATOM     30  C   UNL     1      -7.271   4.994   0.349  1.00  0.00     0.031 A 
ATOM     31  C   UNL     1      -8.122   6.040  -0.327  1.00  0.00     0.074 A 
ATOM     32  C   UNL     1      -7.179   4.973   1.692  1.00  0.00     0.049 A 
ATOM     33  N   UNL     1      -8.811   7.018   0.204  1.00  0.00    -0.248 NA
ATOM     34  C   UNL     1      -8.208   5.974  -1.795  1.00  0.00     0.031 C 
ATOM     35  C   UNL     1      -6.428   3.992   2.475  1.00  0.00     0.029 A 
ATOM     36  N   UNL     1      -7.734   5.801   2.636  1.00  0.00    -0.354 N 
ATOM     37  C   UNL     1      -9.401   7.687  -0.863  1.00  0.00     0.074 A 
ATOM     38  C   UNL     1      -8.958   7.030  -2.072  1.00  0.00     0.031 C 
ATOM     39  C   UNL     1      -6.578   4.270   3.782  1.00  0.00     0.029 A 
ATOM     40  C   UNL     1      -7.406   5.467   3.929  1.00  0.00     0.049 A 
ATOM     41  H   UNL     1      -8.314   6.564   2.409  1.00  0.00     0.167 HD
ATOM     42  C   UNL     1     -10.247   8.745  -0.842  1.00  0.00     0.031 A 
ATOM     43  C   UNL     1      -7.723   6.063   5.097  1.00  0.00     0.031 A 
ATOM     44  C   UNL     1     -10.690   9.402   0.358  1.00  0.00     0.049 A 
ATOM     45  C   UNL     1      -8.607   7.285   5.091  1.00  0.00     0.074 A 
ATOM     46  C   UNL     1     -11.563  10.470   0.480  1.00  0.00     0.029 A 
ATOM     47  N   UNL     1     -10.292   9.063   1.642  1.00  0.00    -0.354 N 
ATOM     48  N   UNL     1      -9.179   7.886   4.074  1.00  0.00    -0.248 NA
ATOM     49  C   UNL     1      -8.895   7.904   6.393  1.00  0.00     0.031 C 
ATOM     50  C   UNL     1     -11.640  10.819   1.832  1.00  0.00     0.029 A 
ATOM     51  C   UNL     1     -10.875   9.922   2.559  1.00  0.00     0.049 A 
ATOM     52  H   UNL     1      -9.685   8.322   1.868  1.00  0.00     0.167 HD
ATOM     53  C   UNL     1      -9.919   8.933   4.619  1.00  0.00     0.074 A 
ATOM     54  C   UNL     1      -9.734   8.873   6.054  1.00  0.00     0.031 C 
ATOM     55  C   UNL     1     -10.686   9.857   3.987  1.00  0.00     0.031 A 
BRANCH  42  56
ATOM     56  C   UNL     1     -10.726   9.281  -2.167  1.00  0.00    -0.014 A 
ATOM     57  C   UNL     1     -11.622   8.554  -2.972  1.00  0.00     0.010 A 
ATOM     58  C   UNL     1     -10.302  10.553  -2.593  1.00  0.00     0.010 A 
ATOM     59  C   UNL     1     -12.053   9.073  -4.197  1.00  0.00     0.020 A 
ATOM     60  C   UNL     1     -10.755  11.088  -3.802  1.00  0.00     0.020 A 
ATOM     61  C   UNL     1     -11.615  10.337  -4.604  1.00  0.00     0.054 A 
BRANCH  61  62
ATOM     62  S   UNL     1     -12.209  10.994  -6.186  1.00  0.00     0.124 S 
ATOM     63  O   UNL     1     -11.502  10.150  -7.147  1.00  0.00    -0.237 OA
ATOM     64  O   UNL     1     -13.651  10.777  -6.102  1.00  0.00    -0.237 OA
ATOM     65  O   UNL     1     -11.789  12.393  -6.162  1.00  0.00    -0.744 OA
ENDBRANCH  61  62
ENDBRANCH  42  56
BRANCH  43  66
ATOM     66  C   UNL     1      -7.185   5.524   6.378  1.00  0.00    -0.014 A 
ATOM     67  C   UNL     1      -8.039   4.947   7.336  1.00  0.00     0.010 A 
ATOM     68  C   UNL     1      -5.807   5.600   6.653  1.00  0.00     0.010 A 
ATOM     69  C   UNL     1      -7.528   4.475   8.549  1.00  0.00     0.020 A 
ATOM     70  C   UNL     1      -5.288   5.100   7.851  1.00  0.00     0.020 A 
ATOM     71  C   UNL     1      -6.154   4.552   8.797  1.00  0.00     0.054 A 
BRANCH  71  72
ATOM     72  S   UNL     1      -5.508   3.892  10.359  1.00  0.00     0.124 S 
ATOM     73  O   UNL     1      -5.987   4.874  11.326  1.00  0.00    -0.237 OA
ATOM     74  O   UNL     1      -6.137   2.576  10.428  1.00  0.00    -0.237 OA
ATOM     75  O   UNL     1      -4.062   3.873  10.150  1.00  0.00    -0.744 OA
ENDBRANCH  71  72
ENDBRANCH  43  66
BRANCH  55  76
ATOM     76  C   UNL     1     -11.420  10.862   4.838  1.00  0.00    -0.014 A 
ATOM     77  C   UNL     1     -10.739  11.886   5.519  1.00  0.00     0.010 A 
ATOM     78  C   UNL     1     -12.826  10.815   4.907  1.00  0.00     0.010 A 
ATOM     79  C   UNL     1     -11.447  12.824   6.278  1.00  0.00     0.020 A 
ATOM     80  C   UNL     1     -13.539  11.769   5.637  1.00  0.00     0.020 A 
ATOM     81  C   UNL     1     -12.843  12.761   6.331  1.00  0.00     0.054 A 
BRANCH  81  82
ATOM     82  S   UNL     1     -13.739  14.016   7.286  1.00  0.00     0.124 S 
ATOM     83  O   UNL     1     -13.428  13.632   8.660  1.00  0.00    -0.237 OA
ATOM     84  O   UNL     1     -13.129  15.262   6.828  1.00  0.00    -0.237 OA
ATOM     85  O   UNL     1     -15.132  13.828   6.888  1.00  0.00    -0.744 OA
ENDBRANCH  81  82
ENDBRANCH  55  76
ENDBRANCH  29  30
ENDBRANCH  22  24
ENDBRANCH  21  22
ENDBRANCH  20  21
ENDBRANCH   1  20
TORSDOF 19
