REMARK SMILES O=C(Nc1ccc2c(c1)[C@@H]1C=CC[C@@H]1[C@H](C(=O)OCCOCCOC(=O)c1ccc(-c3c4nc(c(-c5ccc(S(=O)(=O)[O-])cc5)c5ccc([nH]5)c(-c5ccc(S(=O)(=O)[O-])cc5)c5nc(c(-c6ccc(S(=O)(=O)[O-])cc6)c6ccc3[nH]6)C=C5)C=C4)cc1)N2)c1ccccc1
REMARK SMILES IDX 22 1 21 2 20 3 19 4 18 5 16 6 17 7 15 8 4 9 5 10 9 11 6 12
REMARK SMILES IDX 8 13 7 14 10 15 87 16 11 17 14 18 12 20 13 21 3 22 1 23 2 24
REMARK SMILES IDX 88 26 89 27 93 28 90 29 92 30 91 31 23 32 24 33 25 34 26 35
REMARK SMILES IDX 27 36 28 37 86 38 29 39 85 40 30 41 31 42 32 43 79 44 33 45
REMARK SMILES IDX 84 46 78 47 80 48 34 49 83 50 77 51 76 52 35 54 65 55 46 56
REMARK SMILES IDX 64 57 47 58 50 59 63 60 81 61 48 62 49 63 62 65 82 66 51 67
REMARK SMILES IDX 36 68 37 69 45 70 38 71 44 72 39 73 40 74 41 75 42 76 43 77
REMARK SMILES IDX 66 78 67 79 75 80 68 81 74 82 69 83 70 84 71 85 72 86 73 87
REMARK SMILES IDX 52 88 53 89 61 90 54 91 60 92 55 93 56 94 57 95 58 96 59 97
REMARK H PARENT 87 19 3 25 80 53 50 64
REMARK Flexibility Score: inf
ROOT
ATOM      1  C   UNL     1      12.340  -1.863   1.948  1.00  0.00     0.202 C 
ENDROOT
BRANCH   1   2
ATOM      2  O   UNL     1      13.453  -1.608   1.092  1.00  0.00    -0.374 OA
BRANCH   2   3
ATOM      3  C   UNL     1      13.521  -0.328   0.465  1.00  0.00     0.202 C 
BRANCH   3   4
ATOM      4  C   UNL     1      12.642  -0.115  -0.769  1.00  0.00     0.261 C 
BRANCH   4   5
ATOM      5  O   UNL     1      11.246  -0.216  -0.444  1.00  0.00    -0.462 OA
BRANCH   5   6
ATOM      6  C   UNL     1      10.627  -1.339  -0.889  1.00  0.00     0.328 C 
ATOM      7  O   UNL     1      11.152  -2.190  -1.602  1.00  0.00    -0.250 OA
BRANCH   6   8
ATOM      8  C   UNL     1       9.158  -1.429  -0.472  1.00  0.00     0.194 C 
ATOM      9  C   UNL     1       4.159  -0.844  -1.007  1.00  0.00     0.041 A 
ATOM     10  C   UNL     1       4.716  -0.789  -2.281  1.00  0.00     0.028 A 
ATOM     11  C   UNL     1       4.987  -1.054   0.099  1.00  0.00     0.032 A 
ATOM     12  C   UNL     1       6.101  -0.794  -2.429  1.00  0.00     0.028 A 
ATOM     13  C   UNL     1       6.384  -1.051  -0.037  1.00  0.00    -0.015 A 
ATOM     14  C   UNL     1       6.942  -0.909  -1.318  1.00  0.00     0.039 A 
ATOM     15  C   UNL     1       7.268  -1.200   1.187  1.00  0.00     0.050 C 
ATOM     16  N   UNL     1       8.311  -0.852  -1.504  1.00  0.00    -0.372 N 
ATOM     17  C   UNL     1       6.993  -0.183   2.264  1.00  0.00    -0.023 C 
ATOM     18  C   UNL     1       8.765  -0.925   0.914  1.00  0.00     0.038 C 
ATOM     19  H   UNL     1       8.699  -0.436  -2.308  1.00  0.00     0.161 HD
ATOM     20  C   UNL     1       7.917   0.785   2.288  1.00  0.00    -0.030 C 
ATOM     21  C   UNL     1       8.958   0.567   1.234  1.00  0.00     0.034 C 
BRANCH   9  22
ATOM     22  N   UNL     1       2.777  -0.634  -0.893  1.00  0.00    -0.322 N 
ATOM     23  O   UNL     1       0.842  -0.156   0.179  1.00  0.00    -0.269 OA
ATOM     24  C   UNL     1       2.066  -0.051   0.137  1.00  0.00     0.255 C 
ATOM     25  H   UNL     1       2.237  -0.946  -1.655  1.00  0.00     0.170 HD
BRANCH  24  26
ATOM     26  C   UNL     1       2.757   0.781   1.159  1.00  0.00     0.040 A 
ATOM     27  C   UNL     1       3.754   1.702   0.806  1.00  0.00     0.014 A 
ATOM     28  C   UNL     1       2.393   0.629   2.500  1.00  0.00     0.014 A 
ATOM     29  C   UNL     1       4.444   2.397   1.798  1.00  0.00     0.001 A 
ATOM     30  C   UNL     1       3.076   1.339   3.489  1.00  0.00     0.001 A 
ATOM     31  C   UNL     1       4.111   2.209   3.139  1.00  0.00     0.000 A 
ENDBRANCH  24  26
ENDBRANCH   9  22
ENDBRANCH   6   8
ENDBRANCH   5   6
ENDBRANCH   4   5
ENDBRANCH   3   4
ENDBRANCH   2   3
ENDBRANCH   1   2
BRANCH   1  32
ATOM     32  C   UNL     1      12.349  -1.209   3.336  1.00  0.00     0.261 C 
BRANCH  32  33
ATOM     33  O   UNL     1      12.221   0.223   3.265  1.00  0.00    -0.460 OA
BRANCH  33  34
ATOM     34  C   UNL     1      13.343   0.907   3.591  1.00  0.00     0.338 C 
ATOM     35  O   UNL     1      14.396   0.437   4.003  1.00  0.00    -0.246 OA
BRANCH  34  36
ATOM     36  C   UNL     1      13.218   2.317   3.177  1.00  0.00     0.060 A 
ATOM     37  C   UNL     1      14.235   2.840   2.366  1.00  0.00     0.016 A 
ATOM     38  C   UNL     1      12.175   3.133   3.619  1.00  0.00     0.016 A 
ATOM     39  C   UNL     1      14.244   4.194   2.042  1.00  0.00     0.010 A 
ATOM     40  C   UNL     1      12.192   4.496   3.300  1.00  0.00     0.010 A 
ATOM     41  C   UNL     1      13.247   5.040   2.543  1.00  0.00    -0.014 A 
BRANCH  41  42
ATOM     42  C   UNL     1      13.407   6.508   2.404  1.00  0.00     0.031 A 
ATOM     43  C   UNL     1      13.921   7.301   3.577  1.00  0.00     0.074 A 
ATOM     44  C   UNL     1      13.153   7.124   1.235  1.00  0.00     0.049 A 
ATOM     45  N   UNL     1      14.139   8.586   3.676  1.00  0.00    -0.248 NA
ATOM     46  C   UNL     1      14.230   6.541   4.801  1.00  0.00     0.031 C 
ATOM     47  C   UNL     1      12.701   6.462   0.011  1.00  0.00     0.029 A 
ATOM     48  N   UNL     1      13.242   8.449   0.888  1.00  0.00    -0.354 N 
ATOM     49  C   UNL     1      14.603   8.793   4.971  1.00  0.00     0.074 A 
ATOM     50  C   UNL     1      14.604   7.505   5.630  1.00  0.00     0.031 C 
ATOM     51  C   UNL     1      12.551   7.386  -0.953  1.00  0.00     0.029 A 
ATOM     52  C   UNL     1      12.862   8.707  -0.407  1.00  0.00     0.049 A 
ATOM     53  H   UNL     1      13.550   9.149   1.508  1.00  0.00     0.167 HD
ATOM     54  C   UNL     1      14.998   9.948   5.557  1.00  0.00     0.031 A 
ATOM     55  C   UNL     1      12.757   9.875  -1.072  1.00  0.00     0.031 A 
ATOM     56  C   UNL     1      14.986  11.230   4.904  1.00  0.00     0.049 A 
ATOM     57  C   UNL     1      13.123  11.159  -0.372  1.00  0.00     0.074 A 
ATOM     58  C   UNL     1      15.384  12.456   5.409  1.00  0.00     0.029 A 
ATOM     59  N   UNL     1      14.544  11.456   3.609  1.00  0.00    -0.354 N 
ATOM     60  N   UNL     1      13.586  11.333   0.843  1.00  0.00    -0.248 NA
ATOM     61  C   UNL     1      12.958  12.403  -1.137  1.00  0.00     0.031 C 
ATOM     62  C   UNL     1      15.123  13.432   4.442  1.00  0.00     0.029 A 
ATOM     63  C   UNL     1      14.626  12.806   3.310  1.00  0.00     0.049 A 
ATOM     64  H   UNL     1      14.220  10.759   2.993  1.00  0.00     0.167 HD
ATOM     65  C   UNL     1      13.790  12.703   0.979  1.00  0.00     0.074 A 
ATOM     66  C   UNL     1      13.417  13.308  -0.283  1.00  0.00     0.031 C 
ATOM     67  C   UNL     1      14.245  13.397   2.052  1.00  0.00     0.031 A 
BRANCH  54  68
ATOM     68  C   UNL     1      15.443   9.883   6.995  1.00  0.00    -0.014 A 
ATOM     69  C   UNL     1      16.658   9.275   7.359  1.00  0.00     0.010 A 
ATOM     70  C   UNL     1      14.648  10.473   7.994  1.00  0.00     0.010 A 
ATOM     71  C   UNL     1      17.051   9.226   8.699  1.00  0.00     0.020 A 
ATOM     72  C   UNL     1      15.051  10.451   9.332  1.00  0.00     0.020 A 
ATOM     73  C   UNL     1      16.243   9.812   9.678  1.00  0.00     0.054 A 
BRANCH  73  74
ATOM     74  S   UNL     1      16.787   9.750  11.407  1.00  0.00     0.124 S 
ATOM     75  O   UNL     1      16.588   8.341  11.735  1.00  0.00    -0.237 OA
ATOM     76  O   UNL     1      18.179  10.184  11.320  1.00  0.00    -0.237 OA
ATOM     77  O   UNL     1      15.889  10.680  12.088  1.00  0.00    -0.744 OA
ENDBRANCH  73  74
ENDBRANCH  54  68
BRANCH  55  78
ATOM     78  C   UNL     1      12.257   9.890  -2.474  1.00  0.00    -0.014 A 
ATOM     79  C   UNL     1      13.108  10.232  -3.540  1.00  0.00     0.010 A 
ATOM     80  C   UNL     1      10.916   9.561  -2.750  1.00  0.00     0.010 A 
ATOM     81  C   UNL     1      12.624  10.258  -4.852  1.00  0.00     0.020 A 
ATOM     82  C   UNL     1      10.437   9.557  -4.063  1.00  0.00     0.020 A 
ATOM     83  C   UNL     1      11.293   9.916  -5.105  1.00  0.00     0.054 A 
BRANCH  83  84
ATOM     84  S   UNL     1      10.703   9.902  -6.821  1.00  0.00     0.124 S 
ATOM     85  O   UNL     1      10.628  11.327  -7.128  1.00  0.00    -0.237 OA
ATOM     86  O   UNL     1      11.757   9.160  -7.509  1.00  0.00    -0.237 OA
ATOM     87  O   UNL     1       9.419   9.210  -6.735  1.00  0.00    -0.744 OA
ENDBRANCH  83  84
ENDBRANCH  55  78
BRANCH  67  88
ATOM     88  C   UNL     1      14.390  14.890   1.906  1.00  0.00    -0.014 A 
ATOM     89  C   UNL     1      13.264  15.730   1.845  1.00  0.00     0.010 A 
ATOM     90  C   UNL     1      15.674  15.466   1.889  1.00  0.00     0.010 A 
ATOM     91  C   UNL     1      13.419  17.115   1.739  1.00  0.00     0.020 A 
ATOM     92  C   UNL     1      15.834  16.852   1.814  1.00  0.00     0.020 A 
ATOM     93  C   UNL     1      14.704  17.668   1.725  1.00  0.00     0.054 A 
BRANCH  93  94
ATOM     94  S   UNL     1      14.878  19.471   1.632  1.00  0.00     0.124 S 
ATOM     95  O   UNL     1      14.503  19.742   0.247  1.00  0.00    -0.237 OA
ATOM     96  O   UNL     1      13.930  19.936   2.642  1.00  0.00    -0.237 OA
ATOM     97  O   UNL     1      16.285  19.701   1.953  1.00  0.00    -0.744 OA
ENDBRANCH  93  94
ENDBRANCH  67  88
ENDBRANCH  41  42
ENDBRANCH  34  36
ENDBRANCH  33  34
ENDBRANCH  32  33
ENDBRANCH   1  32
TORSDOF 19
