REMARK SMILES CCOc1cc(/C=C2/C(=O)N(c3cccc(C(=O)OCCOCCOC(=O)c4ccc(-c5c6nc(c(-c7ccc(S(=O)(=O)[O-])cc7)c7ccc([nH]7)c(-c7ccc(S(=O)(=O)[O-])cc7)c7nc(c(-c8ccc(S(=O)(=O)[O-])cc8)c8ccc5[nH]8)C=C7)C=C6)cc4)c3)N=C2C)cc(Cl)c1O
REMARK SMILES IDX 21 1 20 2 19 3 17 4 18 5 16 6 12 7 13 8 88 9 14 10 15 11
REMARK SMILES IDX 11 12 7 13 8 14 9 15 90 16 10 17 89 18 91 19 6 20 4 21 5 22
REMARK SMILES IDX 95 23 93 24 92 25 94 26 3 27 2 28 1 29 96 30 22 32 23 33
REMARK SMILES IDX 24 34 25 35 26 36 27 37 28 38 29 39 87 40 30 41 86 42 31 43
REMARK SMILES IDX 32 44 33 45 80 46 34 47 85 48 79 49 81 50 35 51 84 52 78 53
REMARK SMILES IDX 77 54 36 56 66 57 47 58 65 59 48 60 51 61 64 62 82 63 49 64
REMARK SMILES IDX 50 65 63 67 83 68 52 69 37 70 38 71 46 72 39 73 45 74 40 75
REMARK SMILES IDX 41 76 42 77 43 78 44 79 67 80 68 81 76 82 69 83 75 84 70 85
REMARK SMILES IDX 71 86 72 87 73 88 74 89 53 90 54 91 62 92 55 93 61 94 56 95
REMARK SMILES IDX 57 96 58 97 59 98 60 99
REMARK H PARENT 96 31 81 55 51 66
REMARK Flexibility Score: inf
ROOT
ATOM      1  C   UNL     1       2.533 -14.505   1.053  1.00  0.00     0.202 C 
ENDROOT
BRANCH   1   2
ATOM      2  C   UNL     1       3.817 -13.953   1.686  1.00  0.00     0.261 C 
BRANCH   2   3
ATOM      3  O   UNL     1       4.277 -12.770   1.013  1.00  0.00    -0.460 OA
BRANCH   3   4
ATOM      4  C   UNL     1       5.416 -12.913   0.290  1.00  0.00     0.338 C 
ATOM      5  O   UNL     1       6.143 -13.890   0.246  1.00  0.00    -0.246 OA
BRANCH   4   6
ATOM      6  C   UNL     1       5.539 -11.773  -0.650  1.00  0.00     0.062 A 
ATOM      7  C   UNL     1       5.213  -9.443  -1.245  1.00  0.00     0.070 A 
ATOM      8  C   UNL     1       5.559  -9.757  -2.569  1.00  0.00     0.028 A 
ATOM      9  C   UNL     1       5.200 -10.465  -0.285  1.00  0.00     0.044 A 
ATOM     10  C   UNL     1       5.936 -11.054  -2.923  1.00  0.00     0.003 A 
ATOM     11  C   UNL     1       5.929 -12.061  -1.963  1.00  0.00     0.016 A 
BRANCH   7  12
ATOM     12  N   UNL     1       4.885  -8.114  -0.899  1.00  0.00    -0.196 N 
ATOM     13  C   UNL     1       4.543  -5.241   1.116  1.00  0.00     0.024 C 
ATOM     14  C   UNL     1       4.507  -6.153   0.139  1.00  0.00     0.065 C 
ATOM     15  C   UNL     1       4.982  -7.537   0.371  1.00  0.00     0.280 C 
ATOM     16  C   UNL     1       4.131  -6.128  -1.284  1.00  0.00     0.071 C 
ATOM     17  O   UNL     1       5.396  -7.983   1.429  1.00  0.00    -0.267 OA
ATOM     18  N   UNL     1       4.393  -7.260  -1.883  1.00  0.00    -0.169 NA
ATOM     19  C   UNL     1       3.494  -4.970  -1.974  1.00  0.00     0.069 C 
BRANCH  13  20
ATOM     20  C   UNL     1       4.171  -3.830   1.038  1.00  0.00    -0.019 A 
ATOM     21  C   UNL     1       2.510  -2.079   1.054  1.00  0.00     0.163 A 
ATOM     22  C   UNL     1       2.828  -3.436   1.012  1.00  0.00     0.058 A 
ATOM     23  C   UNL     1       3.514  -1.118   1.189  1.00  0.00     0.176 A 
ATOM     24  C   UNL     1       4.851  -1.503   1.166  1.00  0.00     0.087 A 
ATOM     25  C   UNL     1       5.181  -2.858   1.091  1.00  0.00     0.032 A 
ATOM     26  Cl  UNL     1       6.123  -0.342   1.271  1.00  0.00    -0.080 Cl
BRANCH  21  27
ATOM     27  O   UNL     1       1.197  -1.687   1.077  1.00  0.00    -0.490 OA
BRANCH  27  28
ATOM     28  C   UNL     1       0.690  -1.440  -0.245  1.00  0.00     0.226 C 
ATOM     29  C   UNL     1       0.638   0.056  -0.514  1.00  0.00     0.049 C 
ENDBRANCH  27  28
ENDBRANCH  21  27
BRANCH  23  30
ATOM     30  O   UNL     1       3.167   0.191   1.391  1.00  0.00    -0.503 OA
ATOM     31  H   UNL     1       2.264   0.439   1.405  1.00  0.00     0.293 HD
ENDBRANCH  23  30
ENDBRANCH  13  20
ENDBRANCH   7  12
ENDBRANCH   4   6
ENDBRANCH   3   4
ENDBRANCH   2   3
ENDBRANCH   1   2
BRANCH   1  32
ATOM     32  O   UNL     1       2.611 -14.936  -0.306  1.00  0.00    -0.374 OA
BRANCH  32  33
ATOM     33  C   UNL     1       2.569 -13.928  -1.316  1.00  0.00     0.202 C 
BRANCH  33  34
ATOM     34  C   UNL     1       1.201 -13.328  -1.664  1.00  0.00     0.261 C 
BRANCH  34  35
ATOM     35  O   UNL     1       0.614 -12.609  -0.567  1.00  0.00    -0.460 OA
BRANCH  35  36
ATOM     36  C   UNL     1      -0.398 -13.265   0.053  1.00  0.00     0.338 C 
ATOM     37  O   UNL     1      -0.876 -14.343  -0.258  1.00  0.00    -0.246 OA
BRANCH  36  38
ATOM     38  C   UNL     1      -0.755 -12.570   1.304  1.00  0.00     0.060 A 
ATOM     39  C   UNL     1      -0.801 -13.334   2.477  1.00  0.00     0.016 A 
ATOM     40  C   UNL     1      -1.117 -11.222   1.318  1.00  0.00     0.016 A 
ATOM     41  C   UNL     1      -1.276 -12.769   3.658  1.00  0.00     0.010 A 
ATOM     42  C   UNL     1      -1.596 -10.658   2.504  1.00  0.00     0.010 A 
ATOM     43  C   UNL     1      -1.721 -11.441   3.667  1.00  0.00    -0.014 A 
BRANCH  43  44
ATOM     44  C   UNL     1      -2.470 -10.926   4.840  1.00  0.00     0.031 A 
ATOM     45  C   UNL     1      -3.970 -10.807   4.748  1.00  0.00     0.074 A 
ATOM     46  C   UNL     1      -1.835 -10.603   5.980  1.00  0.00     0.049 A 
ATOM     47  N   UNL     1      -4.821 -10.350   5.629  1.00  0.00    -0.248 NA
ATOM     48  C   UNL     1      -4.591 -11.262   3.492  1.00  0.00     0.031 C 
ATOM     49  C   UNL     1      -0.395 -10.723   6.211  1.00  0.00     0.029 A 
ATOM     50  N   UNL     1      -2.324 -10.105   7.162  1.00  0.00    -0.354 N 
ATOM     51  C   UNL     1      -6.074 -10.453   5.034  1.00  0.00     0.074 A 
ATOM     52  C   UNL     1      -5.868 -10.978   3.702  1.00  0.00     0.031 C 
ATOM     53  C   UNL     1      -0.119 -10.312   7.461  1.00  0.00     0.029 A 
ATOM     54  C   UNL     1      -1.352  -9.862   8.103  1.00  0.00     0.049 A 
ATOM     55  H   UNL     1      -3.281  -9.938   7.321  1.00  0.00     0.167 HD
ATOM     56  C   UNL     1      -7.287 -10.150   5.553  1.00  0.00     0.031 A 
ATOM     57  C   UNL     1      -1.445  -9.320   9.334  1.00  0.00     0.031 A 
ATOM     58  C   UNL     1      -7.487  -9.619   6.876  1.00  0.00     0.049 A 
ATOM     59  C   UNL     1      -2.798  -8.909   9.857  1.00  0.00     0.074 A 
ATOM     60  C   UNL     1      -8.677  -9.281   7.497  1.00  0.00     0.029 A 
ATOM     61  N   UNL     1      -6.472  -9.347   7.782  1.00  0.00    -0.354 N 
ATOM     62  N   UNL     1      -3.974  -9.021   9.285  1.00  0.00    -0.248 NA
ATOM     63  C   UNL     1      -2.837  -8.309  11.198  1.00  0.00     0.031 C 
ATOM     64  C   UNL     1      -8.377  -8.748   8.754  1.00  0.00     0.029 A 
ATOM     65  C   UNL     1      -7.007  -8.824   8.947  1.00  0.00     0.049 A 
ATOM     66  H   UNL     1      -5.514  -9.503   7.620  1.00  0.00     0.167 HD
ATOM     67  C   UNL     1      -4.895  -8.545  10.215  1.00  0.00     0.074 A 
ATOM     68  C   UNL     1      -4.139  -8.153  11.387  1.00  0.00     0.031 C 
ATOM     69  C   UNL     1      -6.244  -8.447  10.111  1.00  0.00     0.031 A 
BRANCH  56  70
ATOM     70  C   UNL     1      -8.495 -10.358   4.675  1.00  0.00    -0.014 A 
ATOM     71  C   UNL     1      -8.932 -11.650   4.328  1.00  0.00     0.010 A 
ATOM     72  C   UNL     1      -9.229  -9.246   4.224  1.00  0.00     0.010 A 
ATOM     73  C   UNL     1     -10.057 -11.823   3.517  1.00  0.00     0.020 A 
ATOM     74  C   UNL     1     -10.373  -9.416   3.440  1.00  0.00     0.020 A 
ATOM     75  C   UNL     1     -10.771 -10.704   3.078  1.00  0.00     0.054 A 
BRANCH  75  76
ATOM     76  S   UNL     1     -12.242 -10.961   2.049  1.00  0.00     0.124 S 
ATOM     77  O   UNL     1     -11.655 -11.420   0.792  1.00  0.00    -0.237 OA
ATOM     78  O   UNL     1     -12.985 -11.970   2.800  1.00  0.00    -0.237 OA
ATOM     79  O   UNL     1     -12.866  -9.641   1.998  1.00  0.00    -0.744 OA
ENDBRANCH  75  76
ENDBRANCH  56  70
BRANCH  57  80
ATOM     80  C   UNL     1      -0.221  -9.121  10.159  1.00  0.00    -0.014 A 
ATOM     81  C   UNL     1      -0.030  -9.849  11.347  1.00  0.00     0.010 A 
ATOM     82  C   UNL     1       0.755  -8.185   9.769  1.00  0.00     0.010 A 
ATOM     83  C   UNL     1       1.098  -9.624  12.143  1.00  0.00     0.020 A 
ATOM     84  C   UNL     1       1.900  -7.982  10.544  1.00  0.00     0.020 A 
ATOM     85  C   UNL     1       2.057  -8.693  11.735  1.00  0.00     0.054 A 
BRANCH  85  86
ATOM     86  S   UNL     1       3.527  -8.442  12.767  1.00  0.00     0.124 S 
ATOM     87  O   UNL     1       2.971  -7.745  13.923  1.00  0.00    -0.237 OA
ATOM     88  O   UNL     1       3.978  -9.811  13.009  1.00  0.00    -0.237 OA
ATOM     89  O   UNL     1       4.409  -7.644  11.919  1.00  0.00    -0.744 OA
ENDBRANCH  85  86
ENDBRANCH  57  80
BRANCH  69  90
ATOM     90  C   UNL     1      -7.004  -7.951  11.315  1.00  0.00    -0.014 A 
ATOM     91  C   UNL     1      -6.931  -6.612  11.736  1.00  0.00     0.010 A 
ATOM     92  C   UNL     1      -7.853  -8.838  12.005  1.00  0.00     0.010 A 
ATOM     93  C   UNL     1      -7.661  -6.178  12.846  1.00  0.00     0.020 A 
ATOM     94  C   UNL     1      -8.611  -8.401  13.094  1.00  0.00     0.020 A 
ATOM     95  C   UNL     1      -8.498  -7.076  13.517  1.00  0.00     0.054 A 
BRANCH  95  96
ATOM     96  S   UNL     1      -9.466  -6.478  14.930  1.00  0.00     0.124 S 
ATOM     97  O   UNL     1      -8.437  -6.296  15.949  1.00  0.00    -0.237 OA
ATOM     98  O   UNL     1     -10.062  -5.249  14.411  1.00  0.00    -0.237 OA
ATOM     99  O   UNL     1     -10.412  -7.562  15.187  1.00  0.00    -0.744 OA
ENDBRANCH  95  96
ENDBRANCH  69  90
ENDBRANCH  43  44
ENDBRANCH  36  38
ENDBRANCH  35  36
ENDBRANCH  34  35
ENDBRANCH  33  34
ENDBRANCH  32  33
ENDBRANCH   1  32
TORSDOF 22
