REMARK SMILES C[C@@H]1CCC[C@@](Cc2ncccn2)(C(=O)OCCOCCOC(=O)c2ccc(-c3c4nc(c(-c5ccc(S(=O)(=O)[O-])cc5)c5ccc([nH]5)c(-c5ccc(S(=O)(=O)[O-])cc5)c5nc(c(-c6ccc(S(=O)(=O)[O-])cc6)c6ccc3[nH]6)C=C5)C=C4)cc2)C1
REMARK SMILES IDX 20 1 19 2 18 3 17 4 16 5 14 6 15 7 6 8 1 9 2 10 3 11 85 12
REMARK SMILES IDX 4 13 5 14 7 15 8 16 9 17 13 18 10 19 12 20 11 21 21 22 22 23
REMARK SMILES IDX 23 24 24 25 25 26 26 27 84 28 27 29 83 30 28 31 29 32 30 33
REMARK SMILES IDX 77 34 31 35 82 36 76 37 78 38 32 39 81 40 75 41 74 42 33 44
REMARK SMILES IDX 63 45 44 46 62 47 45 48 48 49 61 50 79 51 46 52 47 53 60 55
REMARK SMILES IDX 80 56 49 57 34 58 35 59 43 60 36 61 42 62 37 63 38 64 39 65
REMARK SMILES IDX 40 66 41 67 64 68 65 69 73 70 66 71 72 72 67 73 68 74 69 75
REMARK SMILES IDX 70 76 71 77 50 78 51 79 59 80 52 81 58 82 53 83 54 84 55 85
REMARK SMILES IDX 56 86 57 87
REMARK H PARENT 78 43 48 54
REMARK Flexibility Score: inf
ROOT
ATOM      1  C   UNL     1      -1.754  -2.675  -3.067  1.00  0.00     0.202 C 
ENDROOT
BRANCH   1   2
ATOM      2  O   UNL     1      -2.023  -4.067  -2.908  1.00  0.00    -0.374 OA
BRANCH   2   3
ATOM      3  C   UNL     1      -3.150  -4.438  -2.119  1.00  0.00     0.202 C 
BRANCH   3   4
ATOM      4  C   UNL     1      -3.066  -4.213  -0.606  1.00  0.00     0.261 C 
BRANCH   4   5
ATOM      5  O   UNL     1      -2.663  -2.883  -0.245  1.00  0.00    -0.463 OA
BRANCH   5   6
ATOM      6  C   UNL     1      -1.493  -2.810   0.444  1.00  0.00     0.312 C 
ATOM      7  O   UNL     1      -0.788  -3.778   0.720  1.00  0.00    -0.252 OA
BRANCH   6   8
ATOM      8  C   UNL     1      -1.099  -1.380   0.854  1.00  0.00     0.075 C 
ATOM      9  C   UNL     1       1.523   0.474   1.989  1.00  0.00     0.007 C 
ATOM     10  C   UNL     1       1.074   0.108   0.573  1.00  0.00    -0.013 C 
ATOM     11  C   UNL     1       0.208   1.202  -0.060  1.00  0.00     0.003 C 
ATOM     12  C   UNL     1       0.413  -1.276   0.490  1.00  0.00     0.022 C 
ATOM     13  C   UNL     1      -1.259   1.127   0.354  1.00  0.00     0.001 C 
ATOM     14  C   UNL     1      -1.845  -0.261   0.088  1.00  0.00     0.019 C 
BRANCH   8  15
ATOM     15  C   UNL     1      -1.336  -1.317   2.384  1.00  0.00     0.096 C 
BRANCH  15  16
ATOM     16  C   UNL     1      -2.797  -1.308   2.766  1.00  0.00     0.129 A 
ATOM     17  N   UNL     1      -3.334  -0.125   3.125  1.00  0.00    -0.241 NA
ATOM     18  N   UNL     1      -3.489  -2.455   2.641  1.00  0.00    -0.241 NA
ATOM     19  C   UNL     1      -4.658  -0.122   3.375  1.00  0.00     0.115 A 
ATOM     20  C   UNL     1      -4.810  -2.389   2.893  1.00  0.00     0.115 A 
ATOM     21  C   UNL     1      -5.455  -1.235   3.264  1.00  0.00     0.040 A 
ENDBRANCH  15  16
ENDBRANCH   8  15
ENDBRANCH   6   8
ENDBRANCH   5   6
ENDBRANCH   4   5
ENDBRANCH   3   4
ENDBRANCH   2   3
ENDBRANCH   1   2
BRANCH   1  22
ATOM     22  C   UNL     1      -2.798  -1.828  -3.809  1.00  0.00     0.261 C 
BRANCH  22  23
ATOM     23  O   UNL     1      -4.051  -1.718  -3.105  1.00  0.00    -0.460 OA
BRANCH  23  24
ATOM     24  C   UNL     1      -5.129  -2.159  -3.800  1.00  0.00     0.338 C 
ATOM     25  O   UNL     1      -5.140  -2.584  -4.948  1.00  0.00    -0.246 OA
BRANCH  24  26
ATOM     26  C   UNL     1      -6.324  -2.224  -2.942  1.00  0.00     0.060 A 
ATOM     27  C   UNL     1      -6.943  -3.471  -2.781  1.00  0.00     0.016 A 
ATOM     28  C   UNL     1      -6.918  -1.068  -2.432  1.00  0.00     0.016 A 
ATOM     29  C   UNL     1      -8.185  -3.559  -2.153  1.00  0.00     0.010 A 
ATOM     30  C   UNL     1      -8.171  -1.158  -1.811  1.00  0.00     0.010 A 
ATOM     31  C   UNL     1      -8.828  -2.398  -1.704  1.00  0.00    -0.014 A 
BRANCH  31  32
ATOM     32  C   UNL     1     -10.243  -2.473  -1.260  1.00  0.00     0.031 A 
ATOM     33  C   UNL     1     -11.338  -2.116  -2.232  1.00  0.00     0.074 A 
ATOM     34  C   UNL     1     -10.555  -2.897  -0.021  1.00  0.00     0.049 A 
ATOM     35  N   UNL     1     -12.633  -2.104  -2.049  1.00  0.00    -0.248 NA
ATOM     36  C   UNL     1     -10.918  -1.729  -3.589  1.00  0.00     0.031 C 
ATOM     37  C   UNL     1      -9.593  -3.321   0.997  1.00  0.00     0.029 A 
ATOM     38  N   UNL     1     -11.776  -3.043   0.588  1.00  0.00    -0.354 N 
ATOM     39  C   UNL     1     -13.184  -1.710  -3.264  1.00  0.00     0.074 A 
ATOM     40  C   UNL     1     -12.081  -1.467  -4.168  1.00  0.00     0.031 C 
ATOM     41  C   UNL     1     -10.263  -3.672   2.109  1.00  0.00     0.029 A 
ATOM     42  C   UNL     1     -11.695  -3.473   1.891  1.00  0.00     0.049 A 
ATOM     43  H   UNL     1     -12.630  -2.857   0.135  1.00  0.00     0.167 HD
ATOM     44  C   UNL     1     -14.489  -1.571  -3.600  1.00  0.00     0.031 A 
ATOM     45  C   UNL     1     -12.663  -3.668   2.808  1.00  0.00     0.031 A 
ATOM     46  C   UNL     1     -15.588  -1.800  -2.701  1.00  0.00     0.049 A 
ATOM     47  C   UNL     1     -14.103  -3.431   2.433  1.00  0.00     0.074 A 
ATOM     48  C   UNL     1     -16.944  -1.679  -2.953  1.00  0.00     0.029 A 
ATOM     49  N   UNL     1     -15.460  -2.196  -1.380  1.00  0.00    -0.354 N 
ATOM     50  N   UNL     1     -14.603  -3.066   1.277  1.00  0.00    -0.248 NA
ATOM     51  C   UNL     1     -15.108  -3.641   3.485  1.00  0.00     0.031 C 
ATOM     52  C   UNL     1     -17.635  -1.960  -1.769  1.00  0.00     0.029 A 
ATOM     53  C   UNL     1     -16.711  -2.305  -0.797  1.00  0.00     0.049 A 
ATOM     54  H   UNL     1     -14.606  -2.373  -0.923  1.00  0.00     0.167 HD
ATOM     55  C   UNL     1     -15.982  -3.027   1.457  1.00  0.00     0.074 A 
ATOM     56  C   UNL     1     -16.238  -3.418   2.828  1.00  0.00     0.031 C 
ATOM     57  C   UNL     1     -16.951  -2.700   0.567  1.00  0.00     0.031 A 
BRANCH  44  58
ATOM     58  C   UNL     1     -14.803  -1.128  -5.003  1.00  0.00    -0.014 A 
ATOM     59  C   UNL     1     -14.680  -2.015  -6.087  1.00  0.00     0.010 A 
ATOM     60  C   UNL     1     -15.286   0.174  -5.233  1.00  0.00     0.010 A 
ATOM     61  C   UNL     1     -15.011  -1.601  -7.380  1.00  0.00     0.020 A 
ATOM     62  C   UNL     1     -15.637   0.585  -6.522  1.00  0.00     0.020 A 
ATOM     63  C   UNL     1     -15.486  -0.303  -7.590  1.00  0.00     0.054 A 
BRANCH  63  64
ATOM     64  S   UNL     1     -15.945   0.197  -9.272  1.00  0.00     0.124 S 
ATOM     65  O   UNL     1     -14.638   0.366  -9.902  1.00  0.00    -0.237 OA
ATOM     66  O   UNL     1     -16.727  -0.943  -9.744  1.00  0.00    -0.237 OA
ATOM     67  O   UNL     1     -16.704   1.429  -9.073  1.00  0.00    -0.744 OA
ENDBRANCH  63  64
ENDBRANCH  44  58
BRANCH  45  68
ATOM     68  C   UNL     1     -12.306  -4.081   4.193  1.00  0.00    -0.014 A 
ATOM     69  C   UNL     1     -12.628  -5.364   4.668  1.00  0.00     0.010 A 
ATOM     70  C   UNL     1     -11.666  -3.172   5.054  1.00  0.00     0.010 A 
ATOM     71  C   UNL     1     -12.339  -5.722   5.988  1.00  0.00     0.020 A 
ATOM     72  C   UNL     1     -11.352  -3.534   6.365  1.00  0.00     0.020 A 
ATOM     73  C   UNL     1     -11.706  -4.802   6.830  1.00  0.00     0.054 A 
BRANCH  73  74
ATOM     74  S   UNL     1     -11.309  -5.291   8.532  1.00  0.00     0.124 S 
ATOM     75  O   UNL     1     -12.605  -5.164   9.191  1.00  0.00    -0.237 OA
ATOM     76  O   UNL     1     -10.813  -6.654   8.364  1.00  0.00    -0.237 OA
ATOM     77  O   UNL     1     -10.300  -4.314   8.935  1.00  0.00    -0.744 OA
ENDBRANCH  73  74
ENDBRANCH  45  68
BRANCH  57  78
ATOM     78  C   UNL     1     -18.380  -2.783   1.032  1.00  0.00    -0.014 A 
ATOM     79  C   UNL     1     -18.921  -1.818   1.898  1.00  0.00     0.010 A 
ATOM     80  C   UNL     1     -19.207  -3.814   0.550  1.00  0.00     0.010 A 
ATOM     81  C   UNL     1     -20.258  -1.899   2.298  1.00  0.00     0.020 A 
ATOM     82  C   UNL     1     -20.550  -3.885   0.929  1.00  0.00     0.020 A 
ATOM     83  C   UNL     1     -21.064  -2.934   1.812  1.00  0.00     0.054 A 
BRANCH  83  84
ATOM     84  S   UNL     1     -22.807  -2.995   2.311  1.00  0.00     0.124 S 
ATOM     85  O   UNL     1     -22.715  -3.514   3.672  1.00  0.00    -0.237 OA
ATOM     86  O   UNL     1     -23.224  -1.599   2.198  1.00  0.00    -0.237 OA
ATOM     87  O   UNL     1     -23.414  -3.900   1.337  1.00  0.00    -0.744 OA
ENDBRANCH  83  84
ENDBRANCH  57  78
ENDBRANCH  31  32
ENDBRANCH  24  26
ENDBRANCH  23  24
ENDBRANCH  22  23
ENDBRANCH   1  22
TORSDOF 19
