REMARK SMILES Cc1c(-c2nn(-c3ccccc3)cc2/C=N/O)nnn1-c1ccc(C(=O)OCCOCCOC(=O)c2ccc(-c3c4nc(c(-c5ccc(S(=O)(=O)[O-])cc5)c5ccc([nH]5)c(-c5ccc(S(=O)(=O)[O-])cc5)c5nc(c(-c6ccc(S(=O)(=O)[O-])cc6)c6ccc3[nH]6)C=C5)C=C4)cc2)cc1
REMARK SMILES IDX 29 1 28 2 27 3 25 4 26 5 24 6 21 7 22 8 97 9 23 10 96 11
REMARK SMILES IDX 20 12 1 13 2 14 3 15 18 16 19 17 4 18 5 19 14 20 6 21 13 22
REMARK SMILES IDX 15 23 16 24 17 25 7 27 8 28 12 29 9 30 11 31 10 32 30 33
REMARK SMILES IDX 31 34 32 35 33 36 34 37 35 38 36 39 37 40 95 41 38 42 94 43
REMARK SMILES IDX 39 44 40 45 41 46 88 47 42 48 93 49 87 50 89 51 43 52 92 53
REMARK SMILES IDX 86 54 85 55 44 57 74 58 55 59 73 60 56 61 59 62 72 63 90 64
REMARK SMILES IDX 57 65 58 66 71 68 91 69 60 70 45 71 46 72 54 73 47 74 53 75
REMARK SMILES IDX 48 76 49 77 50 78 51 79 52 80 75 81 76 82 84 83 77 84 83 85
REMARK SMILES IDX 78 86 79 87 80 88 81 89 82 90 61 91 62 92 70 93 63 94 69 95
REMARK SMILES IDX 64 96 65 97 66 98 67 99 68 100
REMARK H PARENT 17 26 89 56 59 67
REMARK Flexibility Score: inf
ROOT
ATOM      1  C   UNL     1      -2.642   7.466   3.915  1.00  0.00     0.202 C 
ENDROOT
BRANCH   1   2
ATOM      2  C   UNL     1      -1.866   7.054   2.662  1.00  0.00     0.261 C 
BRANCH   2   3
ATOM      3  O   UNL     1      -1.795   5.630   2.480  1.00  0.00    -0.460 OA
BRANCH   3   4
ATOM      4  C   UNL     1      -0.569   5.105   2.721  1.00  0.00     0.338 C 
ATOM      5  O   UNL     1       0.444   5.715   3.025  1.00  0.00    -0.246 OA
BRANCH   4   6
ATOM      6  C   UNL     1      -0.611   3.629   2.713  1.00  0.00     0.060 A 
ATOM      7  C   UNL     1      -0.214   0.884   2.556  1.00  0.00     0.067 A 
ATOM      8  C   UNL     1       0.282   1.583   3.659  1.00  0.00     0.029 A 
ATOM      9  C   UNL     1      -1.026   1.530   1.608  1.00  0.00     0.029 A 
ATOM     10  C   UNL     1       0.112   2.963   3.714  1.00  0.00     0.018 A 
ATOM     11  C   UNL     1      -1.242   2.909   1.697  1.00  0.00     0.018 A 
BRANCH   7  12
ATOM     12  N   UNL     1       0.206  -0.452   2.362  1.00  0.00    -0.217 N 
ATOM     13  C   UNL     1       1.000  -0.358  -0.070  1.00  0.00     0.069 C 
ATOM     14  C   UNL     1       0.673  -1.045   1.202  1.00  0.00     0.071 A 
ATOM     15  C   UNL     1       0.874  -2.358   1.582  1.00  0.00     0.137 A 
ATOM     16  N   UNL     1       0.679  -2.497   2.924  1.00  0.00    -0.128 NA
ATOM     17  N   UNL     1       0.354  -1.303   3.407  1.00  0.00    -0.061 NA
BRANCH  15  18
ATOM     18  C   UNL     1       1.281  -3.478   0.739  1.00  0.00     0.124 A 
ATOM     19  N   UNL     1       2.535  -3.637   0.292  1.00  0.00    -0.165 NA
ATOM     20  C   UNL     1       0.391  -4.446   0.215  1.00  0.00     0.044 A 
ATOM     21  N   UNL     1       2.437  -4.631  -0.618  1.00  0.00    -0.240 N 
ATOM     22  C   UNL     1       1.160  -5.134  -0.702  1.00  0.00     0.125 A 
BRANCH  20  23
ATOM     23  C   UNL     1      -0.998  -4.714   0.491  1.00  0.00     0.166 C 
ATOM     24  N   UNL     1      -1.652  -3.959   1.309  1.00  0.00    -0.097 NA
BRANCH  24  25
ATOM     25  O   UNL     1      -2.955  -4.450   1.445  1.00  0.00    -0.411 OA
ATOM     26  H   UNL     1      -3.564  -4.014   2.007  1.00  0.00     0.330 HD
ENDBRANCH  24  25
ENDBRANCH  20  23
BRANCH  21  27
ATOM     27  C   UNL     1       3.549  -5.035  -1.388  1.00  0.00     0.065 A 
ATOM     28  C   UNL     1       4.800  -5.170  -0.774  1.00  0.00     0.028 A 
ATOM     29  C   UNL     1       3.396  -5.302  -2.754  1.00  0.00     0.028 A 
ATOM     30  C   UNL     1       5.890  -5.612  -1.525  1.00  0.00     0.002 A 
ATOM     31  C   UNL     1       4.505  -5.684  -3.509  1.00  0.00     0.002 A 
ATOM     32  C   UNL     1       5.746  -5.855  -2.893  1.00  0.00     0.000 A 
ENDBRANCH  21  27
ENDBRANCH  15  18
ENDBRANCH   7  12
ENDBRANCH   4   6
ENDBRANCH   3   4
ENDBRANCH   2   3
ENDBRANCH   1   2
BRANCH   1  33
ATOM     33  O   UNL     1      -2.153   7.043   5.187  1.00  0.00    -0.374 OA
BRANCH  33  34
ATOM     34  C   UNL     1      -2.211   5.667   5.545  1.00  0.00     0.202 C 
BRANCH  34  35
ATOM     35  C   UNL     1      -3.569   5.024   5.782  1.00  0.00     0.261 C 
BRANCH  35  36
ATOM     36  O   UNL     1      -4.426   5.122   4.656  1.00  0.00    -0.460 OA
BRANCH  36  37
ATOM     37  C   UNL     1      -5.390   6.064   4.794  1.00  0.00     0.338 C 
ATOM     38  O   UNL     1      -5.386   7.016   5.551  1.00  0.00    -0.246 OA
BRANCH  37  39
ATOM     39  C   UNL     1      -6.546   5.661   3.989  1.00  0.00     0.060 A 
ATOM     40  C   UNL     1      -7.669   6.487   4.056  1.00  0.00     0.016 A 
ATOM     41  C   UNL     1      -6.602   4.363   3.459  1.00  0.00     0.016 A 
ATOM     42  C   UNL     1      -8.899   5.927   3.799  1.00  0.00     0.010 A 
ATOM     43  C   UNL     1      -7.831   3.802   3.223  1.00  0.00     0.010 A 
ATOM     44  C   UNL     1      -8.964   4.565   3.483  1.00  0.00    -0.014 A 
BRANCH  44  45
ATOM     45  C   UNL     1     -10.266   3.971   3.288  1.00  0.00     0.031 A 
ATOM     46  C   UNL     1     -10.876   4.404   2.012  1.00  0.00     0.074 A 
ATOM     47  C   UNL     1     -10.781   3.044   4.119  1.00  0.00     0.049 A 
ATOM     48  N   UNL     1     -11.860   5.223   1.853  1.00  0.00    -0.248 NA
ATOM     49  C   UNL     1     -10.159   4.069   0.768  1.00  0.00     0.031 C 
ATOM     50  C   UNL     1     -10.132   2.357   5.239  1.00  0.00     0.029 A 
ATOM     51  N   UNL     1     -11.993   2.437   4.060  1.00  0.00    -0.354 N 
ATOM     52  C   UNL     1     -12.044   5.301   0.479  1.00  0.00     0.074 A 
ATOM     53  C   UNL     1     -10.842   4.784  -0.124  1.00  0.00     0.031 C 
ATOM     54  C   UNL     1     -10.866   1.269   5.580  1.00  0.00     0.029 A 
ATOM     55  C   UNL     1     -12.095   1.265   4.802  1.00  0.00     0.049 A 
ATOM     56  H   UNL     1     -12.742   2.799   3.532  1.00  0.00     0.167 HD
ATOM     57  C   UNL     1     -13.283   5.475  -0.055  1.00  0.00     0.031 A 
ATOM     58  C   UNL     1     -13.093   0.345   4.715  1.00  0.00     0.031 A 
ATOM     59  C   UNL     1     -14.220   5.970   0.919  1.00  0.00     0.049 A 
ATOM     60  C   UNL     1     -14.243   1.014   4.053  1.00  0.00     0.074 A 
ATOM     61  C   UNL     1     -14.271   7.091   1.726  1.00  0.00     0.029 A 
ATOM     62  N   UNL     1     -15.076   5.055   1.488  1.00  0.00    -0.354 N 
ATOM     63  N   UNL     1     -14.918   1.983   4.602  1.00  0.00    -0.248 NA
ATOM     64  C   UNL     1     -14.329   0.939   2.602  1.00  0.00     0.031 C 
ATOM     65  C   UNL     1     -14.768   6.623   2.977  1.00  0.00     0.029 A 
ATOM     66  C   UNL     1     -15.078   5.268   2.844  1.00  0.00     0.049 A 
ATOM     67  H   UNL     1     -15.594   4.370   1.007  1.00  0.00     0.167 HD
ATOM     68  C   UNL     1     -15.141   2.888   3.574  1.00  0.00     0.074 A 
ATOM     69  C   UNL     1     -14.827   2.153   2.349  1.00  0.00     0.031 C 
ATOM     70  C   UNL     1     -15.280   4.224   3.827  1.00  0.00     0.031 A 
BRANCH  57  71
ATOM     71  C   UNL     1     -13.707   4.776  -1.322  1.00  0.00    -0.014 A 
ATOM     72  C   UNL     1     -14.957   5.076  -1.888  1.00  0.00     0.010 A 
ATOM     73  C   UNL     1     -13.026   3.649  -1.834  1.00  0.00     0.010 A 
ATOM     74  C   UNL     1     -15.507   4.270  -2.895  1.00  0.00     0.020 A 
ATOM     75  C   UNL     1     -13.539   2.868  -2.866  1.00  0.00     0.020 A 
ATOM     76  C   UNL     1     -14.791   3.170  -3.375  1.00  0.00     0.054 A 
BRANCH  76  77
ATOM     77  S   UNL     1     -15.527   2.106  -4.637  1.00  0.00     0.124 S 
ATOM     78  O   UNL     1     -16.650   1.517  -3.916  1.00  0.00    -0.237 OA
ATOM     79  O   UNL     1     -15.873   3.065  -5.683  1.00  0.00    -0.237 OA
ATOM     80  O   UNL     1     -14.446   1.184  -4.979  1.00  0.00    -0.744 OA
ENDBRANCH  76  77
ENDBRANCH  57  71
BRANCH  58  81
ATOM     81  C   UNL     1     -13.021  -1.137   4.827  1.00  0.00    -0.014 A 
ATOM     82  C   UNL     1     -14.198  -1.910   4.902  1.00  0.00     0.010 A 
ATOM     83  C   UNL     1     -11.818  -1.810   4.534  1.00  0.00     0.010 A 
ATOM     84  C   UNL     1     -14.185  -3.287   4.613  1.00  0.00     0.020 A 
ATOM     85  C   UNL     1     -11.797  -3.183   4.250  1.00  0.00     0.020 A 
ATOM     86  C   UNL     1     -12.986  -3.910   4.261  1.00  0.00     0.054 A 
BRANCH  86  87
ATOM     87  S   UNL     1     -13.008  -5.635   3.681  1.00  0.00     0.124 S 
ATOM     88  O   UNL     1     -13.308  -6.372   4.904  1.00  0.00    -0.237 OA
ATOM     89  O   UNL     1     -14.067  -5.619   2.676  1.00  0.00    -0.237 OA
ATOM     90  O   UNL     1     -11.660  -5.836   3.150  1.00  0.00    -0.744 OA
ENDBRANCH  86  87
ENDBRANCH  58  81
BRANCH  70  91
ATOM     91  C   UNL     1     -15.472   4.663   5.265  1.00  0.00    -0.014 A 
ATOM     92  C   UNL     1     -14.566   4.397   6.313  1.00  0.00     0.010 A 
ATOM     93  C   UNL     1     -16.586   5.474   5.541  1.00  0.00     0.010 A 
ATOM     94  C   UNL     1     -14.804   4.883   7.610  1.00  0.00     0.020 A 
ATOM     95  C   UNL     1     -16.818   5.978   6.822  1.00  0.00     0.020 A 
ATOM     96  C   UNL     1     -15.938   5.663   7.856  1.00  0.00     0.054 A 
BRANCH  96  97
ATOM     97  S   UNL     1     -16.263   6.274   9.535  1.00  0.00     0.124 S 
ATOM     98  O   UNL     1     -16.544   5.045  10.271  1.00  0.00    -0.237 OA
ATOM     99  O   UNL     1     -15.014   6.947   9.884  1.00  0.00    -0.237 OA
ATOM    100  O   UNL     1     -17.410   7.166   9.364  1.00  0.00    -0.744 OA
ENDBRANCH  96  97
ENDBRANCH  70  91
ENDBRANCH  44  45
ENDBRANCH  37  39
ENDBRANCH  36  37
ENDBRANCH  35  36
ENDBRANCH  34  35
ENDBRANCH  33  34
ENDBRANCH   1  33
TORSDOF 22
