REMARK SMILES Cc1ccc(C(=O)OCCOCCOC(=O)c2ccc(-c3c4nc(c(-c5ccc(S(=O)(=O)[O-])cc5)c5ccc([nH]5)c(-c5ccc(S(=O)(=O)[O-])cc5)c5nc(c(-c6ccc(S(=O)(=O)[O-])cc6)c6ccc3[nH]6)C=C5)C=C4)cc2)c(Oc2cccc(F)c2C(N)=O)c1
REMARK SMILES IDX 11 1 10 2 9 3 8 4 6 5 7 6 5 7 1 8 2 9 3 10 89 11 4 12 77 13
REMARK SMILES IDX 78 14 79 15 80 16 85 17 81 18 83 19 82 20 84 21 86 22 87 23
REMARK SMILES IDX 88 24 12 27 13 28 14 29 15 30 16 31 17 32 18 33 76 34 19 35
REMARK SMILES IDX 75 36 20 37 21 38 22 39 69 40 23 41 74 42 68 43 70 44 24 45
REMARK SMILES IDX 73 46 67 47 66 48 25 50 55 51 36 52 54 53 37 54 40 55 53 56
REMARK SMILES IDX 71 57 38 58 39 59 52 61 72 62 41 63 26 64 27 65 35 66 28 67
REMARK SMILES IDX 34 68 29 69 30 70 31 71 32 72 33 73 56 74 57 75 65 76 58 77
REMARK SMILES IDX 64 78 59 79 60 80 61 81 62 82 63 83 42 84 43 85 51 86 44 87
REMARK SMILES IDX 50 88 45 89 46 90 47 91 48 92 49 93
REMARK H PARENT 87 25 87 26 70 49 40 60
REMARK Flexibility Score: inf
ROOT
ATOM      1  O   UNL     1      -3.861  -0.379  -2.333  1.00  0.00    -0.374 OA
ENDROOT
BRANCH   1   2
ATOM      2  C   UNL     1      -3.959   1.026  -2.536  1.00  0.00     0.202 C 
BRANCH   2   3
ATOM      3  C   UNL     1      -3.957   1.595  -1.160  1.00  0.00     0.261 C 
BRANCH   3   4
ATOM      4  O   UNL     1      -2.696   1.326  -0.517  1.00  0.00    -0.460 OA
BRANCH   4   5
ATOM      5  C   UNL     1      -2.438   0.157   0.132  1.00  0.00     0.342 C 
ATOM      6  O   UNL     1      -3.199  -0.739   0.413  1.00  0.00    -0.246 OA
BRANCH   5   7
ATOM      7  C   UNL     1      -0.963   0.069   0.300  1.00  0.00     0.102 A 
ATOM      8  C   UNL     1       3.289  -0.342  -0.039  1.00  0.00     0.044 C 
ATOM      9  C   UNL     1       1.811  -0.194   0.155  1.00  0.00    -0.047 A 
ATOM     10  C   UNL     1       0.996  -1.334   0.196  1.00  0.00     0.004 A 
ATOM     11  C   UNL     1       1.236   1.080   0.275  1.00  0.00     0.051 A 
ATOM     12  C   UNL     1      -0.389  -1.206   0.276  1.00  0.00     0.020 A 
ATOM     13  C   UNL     1      -0.149   1.215   0.348  1.00  0.00     0.142 A 
BRANCH  13  14
ATOM     14  O   UNL     1      -0.802   2.409   0.521  1.00  0.00    -0.455 OA
BRANCH  14  15
ATOM     15  C   UNL     1      -0.262   3.616   0.177  1.00  0.00     0.143 A 
ATOM     16  C   UNL     1      -0.385   4.561   1.208  1.00  0.00     0.048 A 
ATOM     17  C   UNL     1       0.234   3.999  -1.077  1.00  0.00     0.117 A 
ATOM     18  C   UNL     1       0.036   5.873   1.027  1.00  0.00     0.007 A 
ATOM     19  C   UNL     1       0.667   5.321  -1.236  1.00  0.00     0.139 A 
ATOM     20  C   UNL     1       0.574   6.249  -0.197  1.00  0.00     0.040 A 
ATOM     21  F   UNL     1       1.151   5.759  -2.408  1.00  0.00    -0.206 F 
BRANCH  17  22
ATOM     22  C   UNL     1       0.316   3.122  -2.268  1.00  0.00     0.255 C 
ATOM     23  N   UNL     1      -0.715   2.260  -2.479  1.00  0.00    -0.365 N 
ATOM     24  O   UNL     1       1.261   3.168  -3.046  1.00  0.00    -0.269 OA
ATOM     25  H   UNL     1      -1.470   2.232  -1.848  1.00  0.00     0.159 HD
ATOM     26  H   UNL     1      -0.707   1.665  -3.264  1.00  0.00     0.159 HD
ENDBRANCH  17  22
ENDBRANCH  14  15
ENDBRANCH  13  14
ENDBRANCH   5   7
ENDBRANCH   4   5
ENDBRANCH   3   4
ENDBRANCH   2   3
ENDBRANCH   1   2
BRANCH   1  27
ATOM     27  C   UNL     1      -3.636  -1.147  -3.488  1.00  0.00     0.202 C 
BRANCH  27  28
ATOM     28  C   UNL     1      -4.655  -0.866  -4.595  1.00  0.00     0.261 C 
BRANCH  28  29
ATOM     29  O   UNL     1      -5.962  -1.357  -4.219  1.00  0.00    -0.460 OA
BRANCH  29  30
ATOM     30  C   UNL     1      -6.891  -0.417  -3.862  1.00  0.00     0.338 C 
ATOM     31  O   UNL     1      -7.493   0.274  -4.663  1.00  0.00    -0.246 OA
BRANCH  30  32
ATOM     32  C   UNL     1      -7.072  -0.392  -2.378  1.00  0.00     0.060 A 
ATOM     33  C   UNL     1      -7.644   0.712  -1.716  1.00  0.00     0.016 A 
ATOM     34  C   UNL     1      -6.473  -1.399  -1.632  1.00  0.00     0.016 A 
ATOM     35  C   UNL     1      -7.491   0.870  -0.324  1.00  0.00     0.010 A 
ATOM     36  C   UNL     1      -6.232  -1.187  -0.293  1.00  0.00     0.010 A 
ATOM     37  C   UNL     1      -6.720  -0.051   0.378  1.00  0.00    -0.014 A 
BRANCH  37  38
ATOM     38  C   UNL     1      -6.273   0.026   1.778  1.00  0.00     0.031 A 
ATOM     39  C   UNL     1      -6.677  -1.097   2.666  1.00  0.00     0.074 A 
ATOM     40  C   UNL     1      -5.228   0.822   2.128  1.00  0.00     0.049 A 
ATOM     41  N   UNL     1      -6.387  -1.177   3.915  1.00  0.00    -0.248 NA
ATOM     42  C   UNL     1      -7.467  -2.248   2.214  1.00  0.00     0.031 C 
ATOM     43  C   UNL     1      -4.225   0.595   3.172  1.00  0.00     0.029 A 
ATOM     44  N   UNL     1      -4.812   2.044   1.592  1.00  0.00    -0.354 N 
ATOM     45  C   UNL     1      -6.534  -2.496   4.281  1.00  0.00     0.074 A 
ATOM     46  C   UNL     1      -7.351  -3.081   3.252  1.00  0.00     0.031 C 
ATOM     47  C   UNL     1      -3.532   1.729   3.395  1.00  0.00     0.029 A 
ATOM     48  C   UNL     1      -4.145   2.770   2.587  1.00  0.00     0.049 A 
ATOM     49  H   UNL     1      -4.963   2.345   0.666  1.00  0.00     0.167 HD
ATOM     50  C   UNL     1      -5.787  -2.963   5.321  1.00  0.00     0.031 A 
ATOM     51  C   UNL     1      -4.625   3.977   2.990  1.00  0.00     0.031 A 
ATOM     52  C   UNL     1      -5.066  -1.860   5.975  1.00  0.00     0.049 A 
ATOM     53  C   UNL     1      -5.069   3.810   4.414  1.00  0.00     0.074 A 
ATOM     54  C   UNL     1      -3.730  -1.502   6.043  1.00  0.00     0.029 A 
ATOM     55  N   UNL     1      -5.789  -0.748   6.408  1.00  0.00    -0.354 N 
ATOM     56  N   UNL     1      -5.441   2.651   4.892  1.00  0.00    -0.248 NA
ATOM     57  C   UNL     1      -4.961   4.837   5.445  1.00  0.00     0.031 C 
ATOM     58  C   UNL     1      -3.670  -0.123   6.408  1.00  0.00     0.029 A 
ATOM     59  C   UNL     1      -4.965   0.347   6.583  1.00  0.00     0.049 A 
ATOM     60  H   UNL     1      -6.761  -0.744   6.567  1.00  0.00     0.167 HD
ATOM     61  C   UNL     1      -5.437   2.710   6.248  1.00  0.00     0.074 A 
ATOM     62  C   UNL     1      -5.223   4.117   6.553  1.00  0.00     0.031 C 
ATOM     63  C   UNL     1      -5.517   1.614   7.051  1.00  0.00     0.031 A 
BRANCH  50  64
ATOM     64  C   UNL     1      -5.511  -4.429   5.609  1.00  0.00    -0.014 A 
ATOM     65  C   UNL     1      -4.563  -4.767   6.598  1.00  0.00     0.010 A 
ATOM     66  C   UNL     1      -6.088  -5.519   4.924  1.00  0.00     0.010 A 
ATOM     67  C   UNL     1      -4.201  -6.097   6.872  1.00  0.00     0.020 A 
ATOM     68  C   UNL     1      -5.747  -6.856   5.193  1.00  0.00     0.020 A 
ATOM     69  C   UNL     1      -4.799  -7.138   6.167  1.00  0.00     0.054 A 
BRANCH  69  70
ATOM     70  S   UNL     1      -4.338  -8.847   6.547  1.00  0.00     0.124 S 
ATOM     71  O   UNL     1      -2.914  -8.868   6.221  1.00  0.00    -0.237 OA
ATOM     72  O   UNL     1      -4.662  -8.953   7.967  1.00  0.00    -0.237 OA
ATOM     73  O   UNL     1      -5.185  -9.643   5.660  1.00  0.00    -0.744 OA
ENDBRANCH  69  70
ENDBRANCH  50  64
BRANCH  51  74
ATOM     74  C   UNL     1      -5.245   4.742   1.854  1.00  0.00    -0.014 A 
ATOM     75  C   UNL     1      -4.344   5.291   0.905  1.00  0.00     0.010 A 
ATOM     76  C   UNL     1      -6.559   4.470   1.429  1.00  0.00     0.010 A 
ATOM     77  C   UNL     1      -4.683   5.386  -0.453  1.00  0.00     0.020 A 
ATOM     78  C   UNL     1      -6.901   4.563   0.063  1.00  0.00     0.020 A 
ATOM     79  C   UNL     1      -5.943   4.963  -0.875  1.00  0.00     0.054 A 
BRANCH  79  80
ATOM     80  S   UNL     1      -6.208   4.689  -2.662  1.00  0.00     0.124 S 
ATOM     81  O   UNL     1      -6.320   6.050  -3.173  1.00  0.00    -0.237 OA
ATOM     82  O   UNL     1      -4.996   3.968  -3.055  1.00  0.00    -0.237 OA
ATOM     83  O   UNL     1      -7.431   3.894  -2.705  1.00  0.00    -0.744 OA
ENDBRANCH  79  80
ENDBRANCH  51  74
BRANCH  63  84
ATOM     84  C   UNL     1      -6.104   1.683   8.424  1.00  0.00    -0.014 A 
ATOM     85  C   UNL     1      -6.948   2.731   8.824  1.00  0.00     0.010 A 
ATOM     86  C   UNL     1      -5.981   0.570   9.283  1.00  0.00     0.010 A 
ATOM     87  C   UNL     1      -7.569   2.713  10.069  1.00  0.00     0.020 A 
ATOM     88  C   UNL     1      -6.649   0.514  10.502  1.00  0.00     0.020 A 
ATOM     89  C   UNL     1      -7.408   1.607  10.902  1.00  0.00     0.054 A 
BRANCH  89  90
ATOM     90  S   UNL     1      -8.225   1.607  12.508  1.00  0.00     0.124 S 
ATOM     91  O   UNL     1      -7.338   2.468  13.286  1.00  0.00    -0.237 OA
ATOM     92  O   UNL     1      -9.538   2.172  12.201  1.00  0.00    -0.237 OA
ATOM     93  O   UNL     1      -8.232   0.199  12.894  1.00  0.00    -0.744 OA
ENDBRANCH  89  90
ENDBRANCH  63  84
ENDBRANCH  37  38
ENDBRANCH  30  32
ENDBRANCH  29  30
ENDBRANCH  28  29
ENDBRANCH  27  28
ENDBRANCH   1  27
TORSDOF 20
