REMARK SMILES CC(C)C[C@H](CNC(=O)[C@H]1CCO[C@@H]1C)C(=O)OCCOCCOC(=O)c1ccc(-c2c3nc(c(-c4ccc(S(=O)(=O)[O-])cc4)c4ccc([nH]4)c(-c4ccc(S(=O)(=O)[O-])cc4)c4nc(c(-c5ccc(S(=O)(=O)[O-])cc5)c5ccc2[nH]5)C=C4)C=C3)cc1
REMARK SMILES IDX 21 1 20 2 19 3 18 4 16 5 17 6 5 7 4 8 2 9 1 10 3 11 6 12
REMARK SMILES IDX 7 13 8 14 9 16 10 17 11 18 14 19 12 20 13 21 15 22 22 23
REMARK SMILES IDX 23 24 24 25 25 26 26 27 27 28 28 29 86 30 29 31 85 32 30 33
REMARK SMILES IDX 31 34 32 35 79 36 33 37 84 38 78 39 80 40 34 41 83 42 77 43
REMARK SMILES IDX 76 44 35 46 65 47 46 48 64 49 47 50 50 51 63 52 81 53 48 54
REMARK SMILES IDX 49 55 62 57 82 58 51 59 36 60 37 61 45 62 38 63 44 64 39 65
REMARK SMILES IDX 40 66 41 67 42 68 43 69 66 70 67 71 75 72 68 73 74 74 69 75
REMARK SMILES IDX 70 76 71 77 72 78 73 79 52 80 53 81 61 82 54 83 60 84 55 85
REMARK SMILES IDX 56 86 57 87 58 88 59 89
REMARK H PARENT 7 15 80 45 50 56
REMARK Flexibility Score: inf
ROOT
ATOM      1  O   UNL     1      -5.346   0.298  -0.319  1.00  0.00    -0.374 OA
ENDROOT
BRANCH   1   2
ATOM      2  C   UNL     1      -5.763  -0.262   0.923  1.00  0.00     0.202 C 
BRANCH   2   3
ATOM      3  C   UNL     1      -5.052  -1.529   1.410  1.00  0.00     0.261 C 
BRANCH   3   4
ATOM      4  O   UNL     1      -3.655  -1.342   1.690  1.00  0.00    -0.463 OA
BRANCH   4   5
ATOM      5  C   UNL     1      -2.822  -1.691   0.675  1.00  0.00     0.310 C 
ATOM      6  O   UNL     1      -3.185  -2.039  -0.442  1.00  0.00    -0.252 OA
BRANCH   5   7
ATOM      7  C   UNL     1      -1.361  -1.625   1.075  1.00  0.00     0.118 C 
BRANCH   7   8
ATOM      8  C   UNL     1      -0.954  -2.834   1.942  1.00  0.00     0.020 C 
BRANCH   8   9
ATOM      9  C   UNL     1      -1.667  -4.172   1.643  1.00  0.00    -0.017 C 
ATOM     10  C   UNL     1      -1.460  -4.691   0.219  1.00  0.00     0.007 C 
ATOM     11  C   UNL     1      -1.207  -5.237   2.642  1.00  0.00     0.007 C 
ENDBRANCH   8   9
ENDBRANCH   7   8
BRANCH   7  12
ATOM     12  C   UNL     1      -1.011  -0.227   1.646  1.00  0.00     0.131 C 
BRANCH  12  13
ATOM     13  N   UNL     1      -0.311  -0.241   2.920  1.00  0.00    -0.355 N 
ATOM     14  C   UNL     1       1.000  -0.019   3.216  1.00  0.00     0.225 C 
ATOM     15  H   UNL     1      -0.879  -0.444   3.698  1.00  0.00     0.163 HD
ATOM     16  O   UNL     1       1.368  -0.200   4.376  1.00  0.00    -0.275 OA
BRANCH  14  17
ATOM     17  C   UNL     1       1.929   0.490   2.134  1.00  0.00     0.109 C 
ATOM     18  C   UNL     1       1.851   2.001   2.030  1.00  0.00     0.044 C 
ATOM     19  C   UNL     1       3.403   0.271   2.471  1.00  0.00     0.127 C 
ATOM     20  C   UNL     1       3.205   2.372   1.474  1.00  0.00     0.161 C 
ATOM     21  O   UNL     1       4.136   1.393   1.941  1.00  0.00    -0.378 OA
ATOM     22  C   UNL     1       3.957  -1.002   1.849  1.00  0.00     0.039 C 
ENDBRANCH  14  17
ENDBRANCH  12  13
ENDBRANCH   7  12
ENDBRANCH   5   7
ENDBRANCH   4   5
ENDBRANCH   3   4
ENDBRANCH   2   3
ENDBRANCH   1   2
BRANCH   1  23
ATOM     23  C   UNL     1      -4.161   1.091  -0.341  1.00  0.00     0.202 C 
BRANCH  23  24
ATOM     24  C   UNL     1      -4.230   2.481   0.299  1.00  0.00     0.261 C 
BRANCH  24  25
ATOM     25  O   UNL     1      -4.399   2.412   1.726  1.00  0.00    -0.460 OA
BRANCH  25  26
ATOM     26  C   UNL     1      -5.578   2.906   2.173  1.00  0.00     0.338 C 
ATOM     27  O   UNL     1      -6.444   3.459   1.502  1.00  0.00    -0.246 OA
BRANCH  26  28
ATOM     28  C   UNL     1      -5.805   2.523   3.576  1.00  0.00     0.060 A 
ATOM     29  C   UNL     1      -7.014   1.884   3.879  1.00  0.00     0.016 A 
ATOM     30  C   UNL     1      -4.909   2.868   4.591  1.00  0.00     0.016 A 
ATOM     31  C   UNL     1      -7.368   1.650   5.204  1.00  0.00     0.010 A 
ATOM     32  C   UNL     1      -5.271   2.641   5.924  1.00  0.00     0.010 A 
ATOM     33  C   UNL     1      -6.521   2.075   6.236  1.00  0.00    -0.014 A 
BRANCH  33  34
ATOM     34  C   UNL     1      -7.035   2.092   7.626  1.00  0.00     0.031 A 
ATOM     35  C   UNL     1      -7.584   3.380   8.180  1.00  0.00     0.074 A 
ATOM     36  C   UNL     1      -7.068   0.968   8.364  1.00  0.00     0.049 A 
ATOM     37  N   UNL     1      -8.090   3.625   9.361  1.00  0.00    -0.248 NA
ATOM     38  C   UNL     1      -7.564   4.546   7.280  1.00  0.00     0.031 C 
ATOM     39  C   UNL     1      -6.616  -0.350   7.920  1.00  0.00     0.029 A 
ATOM     40  N   UNL     1      -7.506   0.760   9.648  1.00  0.00    -0.354 N 
ATOM     41  C   UNL     1      -8.443   4.970   9.348  1.00  0.00     0.074 A 
ATOM     42  C   UNL     1      -8.068   5.495   8.054  1.00  0.00     0.031 C 
ATOM     43  C   UNL     1      -6.797  -1.231   8.919  1.00  0.00     0.029 A 
ATOM     44  C   UNL     1      -7.348  -0.534  10.080  1.00  0.00     0.049 A 
ATOM     45  H   UNL     1      -7.897   1.471  10.206  1.00  0.00     0.167 HD
ATOM     46  C   UNL     1      -9.032   5.701  10.324  1.00  0.00     0.031 A 
ATOM     47  C   UNL     1      -7.603  -1.089  11.282  1.00  0.00     0.031 A 
ATOM     48  C   UNL     1      -9.391   5.181  11.616  1.00  0.00     0.049 A 
ATOM     49  C   UNL     1      -8.186  -0.237  12.379  1.00  0.00     0.074 A 
ATOM     50  C   UNL     1      -9.996   5.840  12.672  1.00  0.00     0.029 A 
ATOM     51  N   UNL     1      -9.171   3.876  12.031  1.00  0.00    -0.354 N 
ATOM     52  N   UNL     1      -8.528   1.029  12.346  1.00  0.00    -0.248 NA
ATOM     53  C   UNL     1      -8.425  -0.893  13.672  1.00  0.00     0.031 C 
ATOM     54  C   UNL     1     -10.095   4.946  13.744  1.00  0.00     0.029 A 
ATOM     55  C   UNL     1      -9.605   3.716  13.336  1.00  0.00     0.049 A 
ATOM     56  H   UNL     1      -8.767   3.168  11.479  1.00  0.00     0.167 HD
ATOM     57  C   UNL     1      -9.047   1.314  13.605  1.00  0.00     0.074 A 
ATOM     58  C   UNL     1      -8.985   0.086  14.371  1.00  0.00     0.031 C 
ATOM     59  C   UNL     1      -9.534   2.486  14.084  1.00  0.00     0.031 A 
BRANCH  46  60
ATOM     60  C   UNL     1      -9.291   7.156  10.039  1.00  0.00    -0.014 A 
ATOM     61  C   UNL     1     -10.304   7.556   9.148  1.00  0.00     0.010 A 
ATOM     62  C   UNL     1      -8.528   8.140  10.693  1.00  0.00     0.010 A 
ATOM     63  C   UNL     1     -10.523   8.911   8.888  1.00  0.00     0.020 A 
ATOM     64  C   UNL     1      -8.760   9.498  10.455  1.00  0.00     0.020 A 
ATOM     65  C   UNL     1      -9.745   9.874   9.539  1.00  0.00     0.054 A 
BRANCH  65  66
ATOM     66  S   UNL     1     -10.059  11.627   9.195  1.00  0.00     0.124 S 
ATOM     67  O   UNL     1      -9.491  11.777   7.857  1.00  0.00    -0.237 OA
ATOM     68  O   UNL     1     -11.515  11.714   9.272  1.00  0.00    -0.237 OA
ATOM     69  O   UNL     1      -9.339  12.324  10.258  1.00  0.00    -0.744 OA
ENDBRANCH  65  66
ENDBRANCH  46  60
BRANCH  47  70
ATOM     70  C   UNL     1      -7.290  -2.525  11.517  1.00  0.00    -0.014 A 
ATOM     71  C   UNL     1      -8.318  -3.469  11.678  1.00  0.00     0.010 A 
ATOM     72  C   UNL     1      -5.951  -2.954  11.579  1.00  0.00     0.010 A 
ATOM     73  C   UNL     1      -8.013  -4.814  11.911  1.00  0.00     0.020 A 
ATOM     74  C   UNL     1      -5.642  -4.301  11.786  1.00  0.00     0.020 A 
ATOM     75  C   UNL     1      -6.677  -5.221  11.961  1.00  0.00     0.054 A 
BRANCH  75  76
ATOM     76  S   UNL     1      -6.304  -6.980  12.209  1.00  0.00     0.124 S 
ATOM     77  O   UNL     1      -6.591  -7.154  13.629  1.00  0.00    -0.237 OA
ATOM     78  O   UNL     1      -7.234  -7.632  11.290  1.00  0.00    -0.237 OA
ATOM     79  O   UNL     1      -4.895  -7.085  11.836  1.00  0.00    -0.744 OA
ENDBRANCH  75  76
ENDBRANCH  47  70
BRANCH  59  80
ATOM     80  C   UNL     1     -10.070   2.492  15.491  1.00  0.00    -0.014 A 
ATOM     81  C   UNL     1      -9.209   2.433  16.600  1.00  0.00     0.010 A 
ATOM     82  C   UNL     1     -11.456   2.615  15.703  1.00  0.00     0.010 A 
ATOM     83  C   UNL     1      -9.727   2.464  17.898  1.00  0.00     0.020 A 
ATOM     84  C   UNL     1     -11.975   2.673  16.999  1.00  0.00     0.020 A 
ATOM     85  C   UNL     1     -11.108   2.582  18.089  1.00  0.00     0.054 A 
BRANCH  85  86
ATOM     86  S   UNL     1     -11.754   2.662  19.782  1.00  0.00     0.124 S 
ATOM     87  O   UNL     1     -11.639   1.273  20.217  1.00  0.00    -0.237 OA
ATOM     88  O   UNL     1     -10.841   3.601  20.431  1.00  0.00    -0.237 OA
ATOM     89  O   UNL     1     -13.120   3.150  19.609  1.00  0.00    -0.744 OA
ENDBRANCH  85  86
ENDBRANCH  59  80
ENDBRANCH  33  34
ENDBRANCH  26  28
ENDBRANCH  25  26
ENDBRANCH  24  25
ENDBRANCH  23  24
ENDBRANCH   1  23
TORSDOF 22
