REMARK SMILES Cc1ccc2c(c1)C=C(C(=O)OCCOCCOC(=O)c1ccc(-c3c4nc(c(-c5ccc(S(=O)(=O)[O-])cc5)c5ccc([nH]5)c(-c5ccc(S(=O)(=O)[O-])cc5)c5nc(c(-c6ccc(S(=O)(=O)[O-])cc6)c6ccc3[nH]6)C=C5)C=C4)cc1)[C@@H](C(F)(F)F)O2
REMARK SMILES IDX 16 1 15 2 14 3 13 4 12 5 10 6 11 7 9 8 1 9 2 10 3 11 7 12
REMARK SMILES IDX 4 13 6 14 5 15 8 16 86 17 81 18 82 19 83 20 84 21 85 22
REMARK SMILES IDX 17 23 18 24 19 25 20 26 21 27 22 28 80 29 23 30 79 31 24 32
REMARK SMILES IDX 25 33 26 34 73 35 27 36 78 37 72 38 74 39 28 40 77 41 71 42
REMARK SMILES IDX 70 43 29 45 59 46 40 47 58 48 41 49 44 50 57 51 75 52 42 53
REMARK SMILES IDX 43 54 56 56 76 57 45 58 30 59 31 60 39 61 32 62 38 63 33 64
REMARK SMILES IDX 34 65 35 66 36 67 37 68 60 69 61 70 69 71 62 72 68 73 63 74
REMARK SMILES IDX 64 75 65 76 66 77 67 78 46 79 47 80 55 81 48 82 54 83 49 84
REMARK SMILES IDX 50 85 51 86 52 87 53 88
REMARK H PARENT 74 44 44 55
REMARK Flexibility Score: inf
ROOT
ATOM      1  C   UNL     1      -4.290  -4.061   4.810  1.00  0.00     0.202 C 
ENDROOT
BRANCH   1   2
ATOM      2  O   UNL     1      -5.703  -4.226   4.708  1.00  0.00    -0.374 OA
BRANCH   2   3
ATOM      3  C   UNL     1      -6.211  -5.481   4.262  1.00  0.00     0.202 C 
BRANCH   3   4
ATOM      4  C   UNL     1      -6.095  -5.815   2.771  1.00  0.00     0.261 C 
BRANCH   4   5
ATOM      5  O   UNL     1      -4.744  -5.724   2.296  1.00  0.00    -0.460 OA
BRANCH   5   6
ATOM      6  C   UNL     1      -4.511  -4.670   1.479  1.00  0.00     0.338 C 
ATOM      7  O   UNL     1      -5.334  -3.870   1.062  1.00  0.00    -0.246 OA
BRANCH   6   8
ATOM      8  C   UNL     1      -3.060  -4.518   1.260  1.00  0.00     0.087 C 
ATOM      9  C   UNL     1       1.046  -0.113   0.051  1.00  0.00     0.044 C 
ATOM     10  C   UNL     1       0.572  -1.512   0.304  1.00  0.00    -0.050 A 
ATOM     11  C   UNL     1       1.391  -2.613   0.029  1.00  0.00     0.007 A 
ATOM     12  C   UNL     1      -0.738  -1.734   0.744  1.00  0.00     0.015 A 
ATOM     13  C   UNL     1       0.919  -3.914   0.230  1.00  0.00     0.047 A 
ATOM     14  C   UNL     1      -1.223  -3.037   0.906  1.00  0.00     0.017 A 
ATOM     15  C   UNL     1      -0.388  -4.127   0.666  1.00  0.00     0.128 A 
ATOM     16  C   UNL     1      -2.612  -3.256   1.250  1.00  0.00     0.027 C 
ATOM     17  O   UNL     1      -0.772  -5.426   0.835  1.00  0.00    -0.475 OA
ATOM     18  C   UNL     1      -2.185  -5.722   1.038  1.00  0.00     0.316 C 
BRANCH  18  19
ATOM     19  C   UNL     1      -2.672  -6.593  -0.129  1.00  0.00     0.430 C 
ATOM     20  F   UNL     1      -1.828  -7.629  -0.352  1.00  0.00    -0.167 F 
ATOM     21  F   UNL     1      -3.889  -7.128   0.120  1.00  0.00    -0.167 F 
ATOM     22  F   UNL     1      -2.765  -5.888  -1.279  1.00  0.00    -0.167 F 
ENDBRANCH  18  19
ENDBRANCH   6   8
ENDBRANCH   5   6
ENDBRANCH   4   5
ENDBRANCH   3   4
ENDBRANCH   2   3
ENDBRANCH   1   2
BRANCH   1  23
ATOM     23  C   UNL     1      -3.536  -4.815   5.915  1.00  0.00     0.261 C 
BRANCH  23  24
ATOM     24  O   UNL     1      -3.601  -6.243   5.775  1.00  0.00    -0.460 OA
BRANCH  24  25
ATOM     25  C   UNL     1      -4.364  -6.872   6.705  1.00  0.00     0.338 C 
ATOM     26  O   UNL     1      -4.967  -6.357   7.634  1.00  0.00    -0.246 OA
BRANCH  25  27
ATOM     27  C   UNL     1      -4.540  -8.283   6.315  1.00  0.00     0.060 A 
ATOM     28  C   UNL     1      -3.442  -9.126   6.138  1.00  0.00     0.016 A 
ATOM     29  C   UNL     1      -5.845  -8.770   6.163  1.00  0.00     0.016 A 
ATOM     30  C   UNL     1      -3.658 -10.471   5.823  1.00  0.00     0.010 A 
ATOM     31  C   UNL     1      -6.057 -10.112   5.847  1.00  0.00     0.010 A 
ATOM     32  C   UNL     1      -4.965 -10.977   5.689  1.00  0.00    -0.014 A 
BRANCH  32  33
ATOM     33  C   UNL     1      -5.194 -12.431   5.495  1.00  0.00     0.031 A 
ATOM     34  C   UNL     1      -5.657 -12.977   4.176  1.00  0.00     0.074 A 
ATOM     35  C   UNL     1      -4.997 -13.259   6.539  1.00  0.00     0.049 A 
ATOM     36  N   UNL     1      -5.859 -14.223   3.834  1.00  0.00    -0.248 NA
ATOM     37  C   UNL     1      -5.932 -12.007   3.104  1.00  0.00     0.031 C 
ATOM     38  C   UNL     1      -4.567 -12.834   7.873  1.00  0.00     0.029 A 
ATOM     39  N   UNL     1      -5.120 -14.623   6.647  1.00  0.00    -0.354 N 
ATOM     40  C   UNL     1      -6.264 -14.193   2.506  1.00  0.00     0.074 A 
ATOM     41  C   UNL     1      -6.330 -12.801   2.117  1.00  0.00     0.031 C 
ATOM     42  C   UNL     1      -4.425 -13.917   8.652  1.00  0.00     0.029 A 
ATOM     43  C   UNL     1      -4.795 -15.109   7.893  1.00  0.00     0.049 A 
ATOM     44  H   UNL     1      -5.412 -15.198   5.904  1.00  0.00     0.167 HD
ATOM     45  C   UNL     1      -6.531 -15.237   1.685  1.00  0.00     0.031 A 
ATOM     46  C   UNL     1      -4.790 -16.369   8.375  1.00  0.00     0.031 A 
ATOM     47  C   UNL     1      -6.470 -16.619   2.091  1.00  0.00     0.049 A 
ATOM     48  C   UNL     1      -5.146 -17.505   7.456  1.00  0.00     0.074 A 
ATOM     49  C   UNL     1      -6.688 -17.745   1.315  1.00  0.00     0.029 A 
ATOM     50  N   UNL     1      -6.178 -17.069   3.370  1.00  0.00    -0.354 N 
ATOM     51  N   UNL     1      -5.450 -17.464   6.181  1.00  0.00    -0.248 NA
ATOM     52  C   UNL     1      -5.146 -18.858   8.030  1.00  0.00     0.031 C 
ATOM     53  C   UNL     1      -6.613 -18.867   2.141  1.00  0.00     0.029 A 
ATOM     54  C   UNL     1      -6.252 -18.452   3.413  1.00  0.00     0.049 A 
ATOM     55  H   UNL     1      -5.951 -16.491   4.135  1.00  0.00     0.167 HD
ATOM     56  C   UNL     1      -5.654 -18.785   5.795  1.00  0.00     0.074 A 
ATOM     57  C   UNL     1      -5.418 -19.603   6.966  1.00  0.00     0.031 C 
ATOM     58  C   UNL     1      -6.008 -19.268   4.579  1.00  0.00     0.031 A 
BRANCH  45  59
ATOM     59  C   UNL     1      -6.891 -14.954   0.247  1.00  0.00    -0.014 A 
ATOM     60  C   UNL     1      -8.157 -15.324  -0.246  1.00  0.00     0.010 A 
ATOM     61  C   UNL     1      -5.920 -14.481  -0.654  1.00  0.00     0.010 A 
ATOM     62  C   UNL     1      -8.428 -15.276  -1.617  1.00  0.00     0.020 A 
ATOM     63  C   UNL     1      -6.198 -14.400  -2.022  1.00  0.00     0.020 A 
ATOM     64  C   UNL     1      -7.440 -14.828  -2.498  1.00  0.00     0.054 A 
BRANCH  64  65
ATOM     65  S   UNL     1      -7.787 -14.840  -4.279  1.00  0.00     0.124 S 
ATOM     66  O   UNL     1      -7.785 -16.268  -4.584  1.00  0.00    -0.237 OA
ATOM     67  O   UNL     1      -9.087 -14.179  -4.352  1.00  0.00    -0.237 OA
ATOM     68  O   UNL     1      -6.677 -14.079  -4.849  1.00  0.00    -0.744 OA
ENDBRANCH  64  65
ENDBRANCH  45  59
BRANCH  46  69
ATOM     69  C   UNL     1      -4.382 -16.607   9.789  1.00  0.00    -0.014 A 
ATOM     70  C   UNL     1      -5.153 -16.096  10.851  1.00  0.00     0.010 A 
ATOM     71  C   UNL     1      -3.180 -17.274  10.083  1.00  0.00     0.010 A 
ATOM     72  C   UNL     1      -4.700 -16.191  12.170  1.00  0.00     0.020 A 
ATOM     73  C   UNL     1      -2.742 -17.405  11.405  1.00  0.00     0.020 A 
ATOM     74  C   UNL     1      -3.490 -16.834  12.436  1.00  0.00     0.054 A 
BRANCH  74  75
ATOM     75  S   UNL     1      -2.896 -16.891  14.149  1.00  0.00     0.124 S 
ATOM     76  O   UNL     1      -2.484 -15.507  14.369  1.00  0.00    -0.237 OA
ATOM     77  O   UNL     1      -4.083 -17.320  14.883  1.00  0.00    -0.237 OA
ATOM     78  O   UNL     1      -1.809 -17.866  14.104  1.00  0.00    -0.744 OA
ENDBRANCH  74  75
ENDBRANCH  46  69
BRANCH  58  79
ATOM     79  C   UNL     1      -6.172 -20.761   4.415  1.00  0.00    -0.014 A 
ATOM     80  C   UNL     1      -5.326 -21.463   3.534  1.00  0.00     0.010 A 
ATOM     81  C   UNL     1      -7.258 -21.436   5.000  1.00  0.00     0.010 A 
ATOM     82  C   UNL     1      -5.596 -22.791   3.196  1.00  0.00     0.020 A 
ATOM     83  C   UNL     1      -7.510 -22.777   4.692  1.00  0.00     0.020 A 
ATOM     84  C   UNL     1      -6.697 -23.435   3.766  1.00  0.00     0.054 A 
BRANCH  84  85
ATOM     85  S   UNL     1      -7.073 -25.135   3.258  1.00  0.00     0.124 S 
ATOM     86  O   UNL     1      -7.578 -24.947   1.901  1.00  0.00    -0.237 OA
ATOM     87  O   UNL     1      -5.773 -25.794   3.360  1.00  0.00    -0.237 OA
ATOM     88  O   UNL     1      -8.065 -25.576   4.236  1.00  0.00    -0.744 OA
ENDBRANCH  84  85
ENDBRANCH  58  79
ENDBRANCH  32  33
ENDBRANCH  25  27
ENDBRANCH  24  25
ENDBRANCH  23  24
ENDBRANCH   1  23
TORSDOF 18
