REMARK SMILES Cc1nc2nc(CNC(=O)OC(C)(C)C)nn2c(C)c1CCC(=O)OCCOCCOC(=O)c1ccc(-c2c3nc(c(-c4ccc(S(=O)(=O)[O-])cc4)c4ccc([nH]4)c(-c4ccc(S(=O)(=O)[O-])cc4)c4nc(c(-c5ccc(S(=O)(=O)[O-])cc5)c5ccc2[nH]5)C=C4)C=C3)cc1
REMARK SMILES IDX 26 1 25 2 23 3 24 4 22 5 21 6 20 7 1 8 2 9 3 10 4 11 18 12
REMARK SMILES IDX 5 13 17 14 19 15 6 16 16 17 7 18 8 19 9 20 10 22 11 23 12 24
REMARK SMILES IDX 13 25 14 26 15 27 27 28 28 29 29 30 30 31 31 32 32 33 33 34
REMARK SMILES IDX 34 35 35 36 93 37 36 38 92 39 37 40 38 41 39 42 86 43 40 44
REMARK SMILES IDX 91 45 85 46 87 47 41 48 90 49 84 50 83 51 42 53 72 54 53 55
REMARK SMILES IDX 71 56 54 57 57 58 70 59 88 60 55 61 56 62 69 64 89 65 58 66
REMARK SMILES IDX 43 67 44 68 52 69 45 70 51 71 46 72 47 73 48 74 49 75 50 76
REMARK SMILES IDX 73 77 74 78 82 79 75 80 81 81 76 82 77 83 78 84 79 85 80 86
REMARK SMILES IDX 59 87 60 88 68 89 61 90 67 91 62 92 63 93 64 94 65 95 66 96
REMARK H PARENT 8 21 87 52 57 63
REMARK Flexibility Score: inf
ROOT
ATOM      1  C   UNL     1       2.321  -4.903   5.026  1.00  0.00     0.261 C 
ENDROOT
BRANCH   1   2
ATOM      2  O   UNL     1       2.431  -3.880   3.993  1.00  0.00    -0.463 OA
BRANCH   2   3
ATOM      3  C   UNL     1       2.895  -4.184   2.761  1.00  0.00     0.306 C 
ATOM      4  O   UNL     1       3.330  -5.285   2.446  1.00  0.00    -0.252 OA
BRANCH   3   5
ATOM      5  C   UNL     1       2.874  -2.988   1.802  1.00  0.00     0.127 C 
BRANCH   5   6
ATOM      6  C   UNL     1       1.527  -2.362   1.350  1.00  0.00     0.051 C 
BRANCH   6   7
ATOM      7  C   UNL     1       0.960  -1.230   2.194  1.00  0.00    -0.005 A 
ATOM      8  C   UNL     1       1.082   0.526   0.268  1.00  0.00     0.067 C 
ATOM      9  C   UNL     1       0.778   0.217   1.719  1.00  0.00     0.046 A 
ATOM     10  N   UNL     1       0.304   1.209   2.433  1.00  0.00    -0.216 NA
ATOM     11  C   UNL     1      -0.106   0.927   3.706  1.00  0.00     0.252 A 
ATOM     12  C   UNL     1       0.416  -1.415   3.408  1.00  0.00     0.048 A 
ATOM     13  N   UNL     1      -0.745   1.643   4.620  1.00  0.00    -0.192 NA
ATOM     14  N   UNL     1      -0.002  -0.359   4.184  1.00  0.00    -0.201 N 
ATOM     15  C   UNL     1       0.101  -2.702   4.045  1.00  0.00     0.067 C 
ATOM     16  C   UNL     1      -0.954   0.746   5.647  1.00  0.00     0.172 A 
ATOM     17  N   UNL     1      -0.398  -0.441   5.460  1.00  0.00    -0.148 NA
BRANCH  16  18
ATOM     18  C   UNL     1      -1.710   0.970   6.901  1.00  0.00     0.199 C 
BRANCH  18  19
ATOM     19  N   UNL     1      -0.789   1.346   7.951  1.00  0.00    -0.314 N 
ATOM     20  C   UNL     1      -1.141   2.124   9.003  1.00  0.00     0.408 C 
ATOM     21  H   UNL     1       0.139   1.020   7.899  1.00  0.00     0.167 HD
ATOM     22  O   UNL     1      -0.325   2.520   9.821  1.00  0.00    -0.225 OA
BRANCH  20  23
ATOM     23  O   UNL     1      -2.460   2.400   8.975  1.00  0.00    -0.444 OA
BRANCH  23  24
ATOM     24  C   UNL     1      -3.029   3.473   9.752  1.00  0.00     0.106 C 
ATOM     25  C   UNL     1      -2.875   3.232  11.253  1.00  0.00     0.056 C 
ATOM     26  C   UNL     1      -2.421   4.804   9.302  1.00  0.00     0.056 C 
ATOM     27  C   UNL     1      -4.521   3.453   9.388  1.00  0.00     0.056 C 
ENDBRANCH  23  24
ENDBRANCH  20  23
ENDBRANCH  18  19
ENDBRANCH  16  18
ENDBRANCH   6   7
ENDBRANCH   5   6
ENDBRANCH   3   5
ENDBRANCH   2   3
ENDBRANCH   1   2
BRANCH   1  28
ATOM     28  C   UNL     1       0.932  -5.583   5.155  1.00  0.00     0.202 C 
BRANCH  28  29
ATOM     29  O   UNL     1       0.717  -6.678   4.268  1.00  0.00    -0.374 OA
BRANCH  29  30
ATOM     30  C   UNL     1       0.332  -6.364   2.934  1.00  0.00     0.202 C 
BRANCH  30  31
ATOM     31  C   UNL     1      -1.171  -6.290   2.687  1.00  0.00     0.261 C 
BRANCH  31  32
ATOM     32  O   UNL     1      -1.715  -5.043   3.111  1.00  0.00    -0.460 OA
BRANCH  32  33
ATOM     33  C   UNL     1      -2.435  -5.027   4.261  1.00  0.00     0.338 C 
ATOM     34  O   UNL     1      -2.473  -5.881   5.112  1.00  0.00    -0.246 OA
BRANCH  33  35
ATOM     35  C   UNL     1      -3.244  -3.783   4.245  1.00  0.00     0.060 A 
ATOM     36  C   UNL     1      -4.146  -3.553   5.286  1.00  0.00     0.016 A 
ATOM     37  C   UNL     1      -3.168  -2.907   3.144  1.00  0.00     0.016 A 
ATOM     38  C   UNL     1      -5.098  -2.560   5.127  1.00  0.00     0.010 A 
ATOM     39  C   UNL     1      -4.082  -1.896   3.006  1.00  0.00     0.010 A 
ATOM     40  C   UNL     1      -5.101  -1.814   3.942  1.00  0.00    -0.014 A 
BRANCH  40  41
ATOM     41  C   UNL     1      -6.222  -0.961   3.629  1.00  0.00     0.031 A 
ATOM     42  C   UNL     1      -6.223   0.331   4.341  1.00  0.00     0.074 A 
ATOM     43  C   UNL     1      -7.104  -1.296   2.667  1.00  0.00     0.049 A 
ATOM     44  N   UNL     1      -6.942   0.646   5.363  1.00  0.00    -0.248 NA
ATOM     45  C   UNL     1      -5.189   1.320   4.002  1.00  0.00     0.031 C 
ATOM     46  C   UNL     1      -7.049  -2.405   1.707  1.00  0.00     0.029 A 
ATOM     47  N   UNL     1      -8.226  -0.635   2.291  1.00  0.00    -0.354 N 
ATOM     48  C   UNL     1      -6.633   1.970   5.643  1.00  0.00     0.074 A 
ATOM     49  C   UNL     1      -5.412   2.252   4.931  1.00  0.00     0.031 C 
ATOM     50  C   UNL     1      -7.969  -2.204   0.733  1.00  0.00     0.029 A 
ATOM     51  C   UNL     1      -8.775  -1.048   1.084  1.00  0.00     0.049 A 
ATOM     52  H   UNL     1      -8.622   0.085   2.833  1.00  0.00     0.167 HD
ATOM     53  C   UNL     1      -7.551   2.800   6.211  1.00  0.00     0.031 A 
ATOM     54  C   UNL     1      -9.802  -0.452   0.422  1.00  0.00     0.031 A 
ATOM     55  C   UNL     1      -8.676   2.063   6.737  1.00  0.00     0.049 A 
ATOM     56  C   UNL     1     -10.554   0.337   1.434  1.00  0.00     0.074 A 
ATOM     57  C   UNL     1      -8.826   1.078   7.694  1.00  0.00     0.029 A 
ATOM     58  N   UNL     1      -9.809   2.006   5.956  1.00  0.00    -0.354 N 
ATOM     59  N   UNL     1     -11.192  -0.217   2.429  1.00  0.00    -0.248 NA
ATOM     60  C   UNL     1     -10.169   1.726   1.640  1.00  0.00     0.031 C 
ATOM     61  C   UNL     1      -9.788   0.178   7.146  1.00  0.00     0.029 A 
ATOM     62  C   UNL     1     -10.232   0.700   5.929  1.00  0.00     0.049 A 
ATOM     63  H   UNL     1     -10.238   2.765   5.498  1.00  0.00     0.167 HD
ATOM     64  C   UNL     1     -10.912   0.585   3.528  1.00  0.00     0.074 A 
ATOM     65  C   UNL     1     -10.348   1.813   2.963  1.00  0.00     0.031 C 
ATOM     66  C   UNL     1     -10.892   0.076   4.798  1.00  0.00     0.031 A 
BRANCH  53  67
ATOM     67  C   UNL     1      -7.631   4.277   5.920  1.00  0.00    -0.014 A 
ATOM     68  C   UNL     1      -8.601   5.046   6.593  1.00  0.00     0.010 A 
ATOM     69  C   UNL     1      -6.981   4.883   4.825  1.00  0.00     0.010 A 
ATOM     70  C   UNL     1      -8.957   6.322   6.141  1.00  0.00     0.020 A 
ATOM     71  C   UNL     1      -7.298   6.171   4.392  1.00  0.00     0.020 A 
ATOM     72  C   UNL     1      -8.312   6.869   5.031  1.00  0.00     0.054 A 
BRANCH  72  73
ATOM     73  S   UNL     1      -8.863   8.464   4.383  1.00  0.00     0.124 S 
ATOM     74  O   UNL     1     -10.228   8.163   3.966  1.00  0.00    -0.237 OA
ATOM     75  O   UNL     1      -8.732   9.331   5.551  1.00  0.00    -0.237 OA
ATOM     76  O   UNL     1      -7.922   8.738   3.300  1.00  0.00    -0.744 OA
ENDBRANCH  72  73
ENDBRANCH  53  67
BRANCH  54  77
ATOM     77  C   UNL     1      -9.943  -0.250  -1.045  1.00  0.00    -0.014 A 
ATOM     78  C   UNL     1     -11.162   0.147  -1.629  1.00  0.00     0.010 A 
ATOM     79  C   UNL     1      -8.787  -0.185  -1.852  1.00  0.00     0.010 A 
ATOM     80  C   UNL     1     -11.213   0.626  -2.954  1.00  0.00     0.020 A 
ATOM     81  C   UNL     1      -8.829   0.291  -3.169  1.00  0.00     0.020 A 
ATOM     82  C   UNL     1     -10.041   0.711  -3.711  1.00  0.00     0.054 A 
BRANCH  82  83
ATOM     83  S   UNL     1     -10.088   1.457  -5.371  1.00  0.00     0.124 S 
ATOM     84  O   UNL     1     -10.898   0.501  -6.121  1.00  0.00    -0.237 OA
ATOM     85  O   UNL     1     -10.713   2.753  -5.120  1.00  0.00    -0.237 OA
ATOM     86  O   UNL     1      -8.681   1.517  -5.763  1.00  0.00    -0.744 OA
ENDBRANCH  82  83
ENDBRANCH  54  77
BRANCH  66  87
ATOM     87  C   UNL     1     -11.388  -1.340   5.015  1.00  0.00    -0.014 A 
ATOM     88  C   UNL     1     -10.756  -2.480   4.474  1.00  0.00     0.010 A 
ATOM     89  C   UNL     1     -12.419  -1.534   5.950  1.00  0.00     0.010 A 
ATOM     90  C   UNL     1     -11.158  -3.774   4.849  1.00  0.00     0.020 A 
ATOM     91  C   UNL     1     -12.813  -2.818   6.339  1.00  0.00     0.020 A 
ATOM     92  C   UNL     1     -12.184  -3.933   5.785  1.00  0.00     0.054 A 
BRANCH  92  93
ATOM     93  S   UNL     1     -12.666  -5.604   6.310  1.00  0.00     0.124 S 
ATOM     94  O   UNL     1     -13.239  -6.169   5.091  1.00  0.00    -0.237 OA
ATOM     95  O   UNL     1     -11.396  -6.188   6.737  1.00  0.00    -0.237 OA
ATOM     96  O   UNL     1     -13.623  -5.368   7.390  1.00  0.00    -0.744 OA
ENDBRANCH  92  93
ENDBRANCH  66  87
ENDBRANCH  40  41
ENDBRANCH  33  35
ENDBRANCH  32  33
ENDBRANCH  31  32
ENDBRANCH  30  31
ENDBRANCH  29  30
ENDBRANCH  28  29
ENDBRANCH   1  28
TORSDOF 23
