REMARK SMILES CN(C)S(=O)(=O)c1ccc(-n2c(CCC(=O)OCCOCCOC(=O)c3ccc(-c4c5nc(c(-c6ccc(S(=O)(=O)[O-])cc6)c6ccc([nH]6)c(-c6ccc(S(=O)(=O)[O-])cc6)c6nc(c(-c7ccc(S(=O)(=O)[O-])cc7)c7ccc4[nH]7)C=C6)C=C5)cc3)ccc2-c2ccc(F)cc2)cc1
REMARK SMILES IDX 19 1 18 2 17 3 15 4 16 5 14 6 13 7 12 8 11 9 88 10 86 11
REMARK SMILES IDX 87 12 10 13 7 14 8 15 97 16 9 17 96 18 4 19 5 20 6 21 2 22
REMARK SMILES IDX 1 23 3 24 89 25 90 26 95 27 91 28 94 29 92 30 93 31 20 32
REMARK SMILES IDX 21 33 22 34 23 35 24 36 25 37 26 38 27 39 85 40 28 41 84 42
REMARK SMILES IDX 29 43 30 44 31 45 78 46 32 47 83 48 77 49 79 50 33 51 82 52
REMARK SMILES IDX 76 53 75 54 34 56 64 57 45 58 63 59 46 60 49 61 62 62 80 63
REMARK SMILES IDX 47 64 48 65 61 67 81 68 50 69 35 70 36 71 44 72 37 73 43 74
REMARK SMILES IDX 38 75 39 76 40 77 41 78 42 79 65 80 66 81 74 82 67 83 73 84
REMARK SMILES IDX 68 85 69 86 70 87 71 88 72 89 51 90 52 91 60 92 53 93 59 94
REMARK SMILES IDX 54 95 55 96 56 97 57 98 58 99
REMARK H PARENT 79 55 49 66
REMARK Flexibility Score: inf
ROOT
ATOM      1  C   UNL     1      -0.311   2.979  -3.949  1.00  0.00     0.202 C 
ENDROOT
BRANCH   1   2
ATOM      2  C   UNL     1       0.456   1.477  -5.365  1.00  0.00     0.261 C 
BRANCH   2   3
ATOM      3  O   UNL     1      -0.329   1.053  -6.857  1.00  0.00    -0.463 OA
BRANCH   3   4
ATOM      4  C   UNL     1      -1.415   0.237  -7.032  1.00  0.00     0.306 C 
ATOM      5  O   UNL     1      -1.388  -0.953  -6.726  1.00  0.00    -0.252 OA
BRANCH   4   6
ATOM      6  C   UNL     1      -2.748   0.895  -7.576  1.00  0.00     0.129 C 
BRANCH   6   7
ATOM      7  C   UNL     1      -3.155   2.389  -7.458  1.00  0.00     0.066 C 
BRANCH   7   8
ATOM      8  C   UNL     1      -2.136   3.303  -8.001  1.00  0.00     0.024 A 
ATOM      9  N   UNL     1      -0.939   3.570  -7.362  1.00  0.00    -0.314 N 
ATOM     10  C   UNL     1      -0.079   4.115  -8.346  1.00  0.00     0.053 A 
ATOM     11  C   UNL     1      -2.167   3.985  -9.199  1.00  0.00     0.024 A 
ATOM     12  C   UNL     1      -0.870   4.462  -9.431  1.00  0.00     0.029 A 
BRANCH   9  13
ATOM     13  C   UNL     1      -0.595   3.136  -6.026  1.00  0.00     0.046 A 
ATOM     14  C   UNL     1       0.949   1.395  -3.254  1.00  0.00     0.082 A 
ATOM     15  C   UNL     1       1.830   2.668  -4.137  1.00  0.00     0.024 A 
ATOM     16  C   UNL     1      -0.708   0.928  -3.734  1.00  0.00     0.024 A 
ATOM     17  C   UNL     1       1.063   3.548  -5.473  1.00  0.00     0.028 A 
ATOM     18  C   UNL     1      -1.518   1.837  -5.089  1.00  0.00     0.028 A 
BRANCH  14  19
ATOM     19  S   UNL     1       1.513   1.215  -1.563  1.00  0.00     0.242 S 
ATOM     20  O   UNL     1       1.278   2.473  -0.888  1.00  0.00    -0.207 OA
ATOM     21  O   UNL     1       2.852   0.671  -1.662  1.00  0.00    -0.207 OA
BRANCH  19  22
ATOM     22  N   UNL     1       0.520   0.049  -0.811  1.00  0.00    -0.204 NA
ATOM     23  C   UNL     1       1.113  -0.420   0.470  1.00  0.00     0.124 C 
ATOM     24  C   UNL     1      -0.888   0.449  -0.560  1.00  0.00     0.124 C 
ENDBRANCH  19  22
ENDBRANCH  14  19
ENDBRANCH   9  13
BRANCH  10  25
ATOM     25  C   UNL     1       1.389   4.231  -8.319  1.00  0.00    -0.001 A 
ATOM     26  C   UNL     1       1.985   5.496  -8.424  1.00  0.00     0.013 A 
ATOM     27  C   UNL     1       2.218   3.106  -8.159  1.00  0.00     0.013 A 
ATOM     28  C   UNL     1       3.364   5.647  -8.247  1.00  0.00     0.040 A 
ATOM     29  C   UNL     1       3.591   3.262  -7.936  1.00  0.00     0.040 A 
ATOM     30  C   UNL     1       4.147   4.534  -7.969  1.00  0.00     0.123 A 
ATOM     31  F   UNL     1       5.454   4.689  -7.718  1.00  0.00    -0.207 F 
ENDBRANCH  10  25
ENDBRANCH   7   8
ENDBRANCH   6   7
ENDBRANCH   4   6
ENDBRANCH   3   4
ENDBRANCH   2   3
ENDBRANCH   1   2
BRANCH   1  32
ATOM     32  O   UNL     1      -1.581   2.921  -3.000  1.00  0.00    -0.374 OA
BRANCH  32  33
ATOM     33  C   UNL     1      -2.761   3.655  -3.377  1.00  0.00     0.202 C 
BRANCH  33  34
ATOM     34  C   UNL     1      -2.743   5.177  -3.403  1.00  0.00     0.261 C 
BRANCH  34  35
ATOM     35  O   UNL     1      -1.761   5.737  -4.261  1.00  0.00    -0.460 OA
BRANCH  35  36
ATOM     36  C   UNL     1      -0.612   6.098  -3.639  1.00  0.00     0.338 C 
ATOM     37  O   UNL     1      -0.263   5.806  -2.509  1.00  0.00    -0.246 OA
BRANCH  36  38
ATOM     38  C   UNL     1       0.116   7.030  -4.505  1.00  0.00     0.060 A 
ATOM     39  C   UNL     1       1.334   7.518  -4.032  1.00  0.00     0.016 A 
ATOM     40  C   UNL     1      -0.595   7.674  -5.523  1.00  0.00     0.016 A 
ATOM     41  C   UNL     1       1.689   8.803  -4.383  1.00  0.00     0.010 A 
ATOM     42  C   UNL     1      -0.294   8.985  -5.797  1.00  0.00     0.010 A 
ATOM     43  C   UNL     1       0.807   9.566  -5.169  1.00  0.00    -0.014 A 
BRANCH  43  44
ATOM     44  C   UNL     1       1.224  10.923  -5.554  1.00  0.00     0.031 A 
ATOM     45  C   UNL     1       2.188  10.690  -6.780  1.00  0.00     0.074 A 
ATOM     46  C   UNL     1       0.806  11.941  -4.699  1.00  0.00     0.049 A 
ATOM     47  N   UNL     1       3.401  11.096  -6.963  1.00  0.00    -0.248 NA
ATOM     48  C   UNL     1       1.862   9.676  -7.852  1.00  0.00     0.031 C 
ATOM     49  C   UNL     1      -0.293  11.834  -3.689  1.00  0.00     0.029 A 
ATOM     50  N   UNL     1       1.117  13.282  -4.502  1.00  0.00    -0.354 N 
ATOM     51  C   UNL     1       3.771  10.755  -8.285  1.00  0.00     0.074 A 
ATOM     52  C   UNL     1       2.921   9.682  -8.670  1.00  0.00     0.031 C 
ATOM     53  C   UNL     1      -0.428  12.964  -2.937  1.00  0.00     0.029 A 
ATOM     54  C   UNL     1       0.542  13.958  -3.350  1.00  0.00     0.049 A 
ATOM     55  H   UNL     1       1.711  13.760  -5.125  1.00  0.00     0.167 HD
ATOM     56  C   UNL     1       4.521  11.593  -9.063  1.00  0.00     0.031 A 
ATOM     57  C   UNL     1       0.899  15.193  -2.808  1.00  0.00     0.031 A 
ATOM     58  C   UNL     1       4.828  12.755  -8.292  1.00  0.00     0.049 A 
ATOM     59  C   UNL     1       1.841  15.697  -3.818  1.00  0.00     0.074 A 
ATOM     60  C   UNL     1       5.551  12.904  -7.135  1.00  0.00     0.029 A 
ATOM     61  N   UNL     1       3.898  13.769  -8.397  1.00  0.00    -0.354 N 
ATOM     62  N   UNL     1       1.510  16.087  -5.011  1.00  0.00    -0.248 NA
ATOM     63  C   UNL     1       3.271  15.547  -3.539  1.00  0.00     0.031 C 
ATOM     64  C   UNL     1       4.615  13.575  -6.323  1.00  0.00     0.029 A 
ATOM     65  C   UNL     1       3.675  14.227  -7.129  1.00  0.00     0.049 A 
ATOM     66  H   UNL     1       3.477  14.099  -9.223  1.00  0.00     0.167 HD
ATOM     67  C   UNL     1       2.644  15.799  -5.723  1.00  0.00     0.074 A 
ATOM     68  C   UNL     1       3.742  15.761  -4.762  1.00  0.00     0.031 C 
ATOM     69  C   UNL     1       2.555  15.087  -6.881  1.00  0.00     0.031 A 
BRANCH  56  70
ATOM     70  C   UNL     1       4.715  11.726 -10.548  1.00  0.00    -0.014 A 
ATOM     71  C   UNL     1       5.676  12.692 -10.954  1.00  0.00     0.010 A 
ATOM     72  C   UNL     1       3.835  11.241 -11.524  1.00  0.00     0.010 A 
ATOM     73  C   UNL     1       5.688  13.235 -12.235  1.00  0.00     0.020 A 
ATOM     74  C   UNL     1       3.875  11.750 -12.837  1.00  0.00     0.020 A 
ATOM     75  C   UNL     1       4.781  12.762 -13.172  1.00  0.00     0.054 A 
BRANCH  75  76
ATOM     76  S   UNL     1       4.829  13.502 -14.825  1.00  0.00     0.124 S 
ATOM     77  O   UNL     1       4.410  14.876 -14.567  1.00  0.00    -0.237 OA
ATOM     78  O   UNL     1       6.234  13.335 -15.194  1.00  0.00    -0.237 OA
ATOM     79  O   UNL     1       3.890  12.688 -15.593  1.00  0.00    -0.744 OA
ENDBRANCH  75  76
ENDBRANCH  56  70
BRANCH  57  80
ATOM     80  C   UNL     1       0.805  16.126  -1.563  1.00  0.00    -0.014 A 
ATOM     81  C   UNL     1      -0.071  16.058  -0.471  1.00  0.00     0.010 A 
ATOM     82  C   UNL     1       1.812  17.147  -1.415  1.00  0.00     0.010 A 
ATOM     83  C   UNL     1       0.172  16.806   0.735  1.00  0.00     0.020 A 
ATOM     84  C   UNL     1       2.101  17.839  -0.225  1.00  0.00     0.020 A 
ATOM     85  C   UNL     1       1.299  17.630   0.875  1.00  0.00     0.054 A 
BRANCH  85  86
ATOM     86  S   UNL     1       1.812  18.299   2.499  1.00  0.00     0.124 S 
ATOM     87  O   UNL     1       0.853  19.374   2.728  1.00  0.00    -0.237 OA
ATOM     88  O   UNL     1       1.680  17.138   3.376  1.00  0.00    -0.237 OA
ATOM     89  O   UNL     1       3.191  18.737   2.278  1.00  0.00    -0.744 OA
ENDBRANCH  85  86
ENDBRANCH  57  80
BRANCH  69  90
ATOM     90  C   UNL     1       1.202  15.050  -7.604  1.00  0.00    -0.014 A 
ATOM     91  C   UNL     1       0.599  16.265  -7.974  1.00  0.00     0.010 A 
ATOM     92  C   UNL     1       0.468  13.873  -7.890  1.00  0.00     0.010 A 
ATOM     93  C   UNL     1      -0.649  16.317  -8.619  1.00  0.00     0.020 A 
ATOM     94  C   UNL     1      -0.798  13.913  -8.523  1.00  0.00     0.020 A 
ATOM     95  C   UNL     1      -1.341  15.141  -8.903  1.00  0.00     0.054 A 
BRANCH  95  96
ATOM     96  S   UNL     1      -2.925  15.254  -9.798  1.00  0.00     0.124 S 
ATOM     97  O   UNL     1      -3.734  16.099  -8.923  1.00  0.00    -0.237 OA
ATOM     98  O   UNL     1      -2.528  15.865 -11.063  1.00  0.00    -0.237 OA
ATOM     99  O   UNL     1      -3.374  13.865  -9.895  1.00  0.00    -0.744 OA
ENDBRANCH  95  96
ENDBRANCH  69  90
ENDBRANCH  43  44
ENDBRANCH  36  38
ENDBRANCH  35  36
ENDBRANCH  34  35
ENDBRANCH  33  34
ENDBRANCH  32  33
ENDBRANCH   1  32
TORSDOF 23
