REMARK SMILES CCCC[C@@H](C(=O)OCCOCCOC(=O)c1ccc(-c2c3nc(c(-c4ccc(S(=O)(=O)[O-])cc4)c4ccc([nH]4)c(-c4ccc(S(=O)(=O)[O-])cc4)c4nc(c(-c5ccc(S(=O)(=O)[O-])cc5)c5ccc2[nH]5)C=C4)C=C3)cc1)[C@@H](O)c1cccc(C(F)(F)F)c1
REMARK SMILES IDX 11 1 10 2 9 3 8 4 6 5 7 6 5 7 4 8 3 9 2 10 1 11 77 12 78 13
REMARK SMILES IDX 79 15 80 16 88 17 81 18 83 19 82 20 84 21 85 22 86 23 87 24
REMARK SMILES IDX 12 25 13 26 14 27 15 28 16 29 17 30 18 31 76 32 19 33 75 34
REMARK SMILES IDX 20 35 21 36 22 37 69 38 23 39 74 40 68 41 70 42 24 43 73 44
REMARK SMILES IDX 67 45 66 46 25 48 55 49 36 50 54 51 37 52 40 53 53 54 71 55
REMARK SMILES IDX 38 56 39 57 52 59 72 60 41 61 26 62 27 63 35 64 28 65 34 66
REMARK SMILES IDX 29 67 30 68 31 69 32 70 33 71 56 72 57 73 65 74 58 75 64 76
REMARK SMILES IDX 59 77 60 78 61 79 62 80 63 81 42 82 43 83 51 84 44 85 50 86
REMARK SMILES IDX 45 87 46 88 47 89 48 90 49 91
REMARK H PARENT 78 14 70 47 40 58
REMARK Flexibility Score: inf
ROOT
ATOM      1  O   UNL     1      -1.709   5.809   3.286  1.00  0.00    -0.374 OA
ENDROOT
BRANCH   1   2
ATOM      2  C   UNL     1      -1.706   4.708   4.197  1.00  0.00     0.202 C 
BRANCH   2   3
ATOM      3  C   UNL     1      -2.121   3.351   3.629  1.00  0.00     0.261 C 
BRANCH   3   4
ATOM      4  O   UNL     1      -1.319   3.022   2.484  1.00  0.00    -0.463 OA
BRANCH   4   5
ATOM      5  C   UNL     1      -1.987   2.479   1.438  1.00  0.00     0.312 C 
ATOM      6  O   UNL     1      -3.152   2.106   1.509  1.00  0.00    -0.252 OA
BRANCH   5   7
ATOM      7  C   UNL     1      -1.146   2.389   0.159  1.00  0.00     0.132 C 
BRANCH   7   8
ATOM      8  C   UNL     1       0.386   2.550   0.345  1.00  0.00     0.018 C 
BRANCH   8   9
ATOM      9  C   UNL     1       1.076   1.647   1.374  1.00  0.00     0.001 C 
BRANCH   9  10
ATOM     10  C   UNL     1       0.730   0.163   1.287  1.00  0.00    -0.003 C 
ATOM     11  C   UNL     1       1.130  -0.465  -0.038  1.00  0.00     0.004 C 
ENDBRANCH   9  10
ENDBRANCH   8   9
ENDBRANCH   7   8
BRANCH   7  12
ATOM     12  C   UNL     1      -1.634   3.398  -0.926  1.00  0.00     0.158 C 
BRANCH  12  13
ATOM     13  O   UNL     1      -1.108   3.026  -2.207  1.00  0.00    -0.388 OA
ATOM     14  H   UNL     1      -1.468   2.164  -2.466  1.00  0.00     0.211 HD
ENDBRANCH  12  13
BRANCH  12  15
ATOM     15  C   UNL     1      -3.132   3.504  -1.109  1.00  0.00    -0.018 A 
ATOM     16  C   UNL     1      -3.769   4.751  -1.044  1.00  0.00     0.006 A 
ATOM     17  C   UNL     1      -3.919   2.348  -1.225  1.00  0.00     0.019 A 
ATOM     18  C   UNL     1      -5.161   4.832  -0.995  1.00  0.00     0.001 A 
ATOM     19  C   UNL     1      -5.312   2.412  -1.088  1.00  0.00     0.056 A 
ATOM     20  C   UNL     1      -5.928   3.667  -0.985  1.00  0.00     0.013 A 
BRANCH  19  21
ATOM     21  C   UNL     1      -6.123   1.149  -0.944  1.00  0.00     0.416 C 
ATOM     22  F   UNL     1      -6.825   1.109   0.224  1.00  0.00    -0.166 F 
ATOM     23  F   UNL     1      -7.049   1.010  -1.935  1.00  0.00    -0.166 F 
ATOM     24  F   UNL     1      -5.379   0.007  -0.972  1.00  0.00    -0.166 F 
ENDBRANCH  19  21
ENDBRANCH  12  15
ENDBRANCH   7  12
ENDBRANCH   5   7
ENDBRANCH   4   5
ENDBRANCH   3   4
ENDBRANCH   2   3
ENDBRANCH   1   2
BRANCH   1  25
ATOM     25  C   UNL     1      -0.717   5.833   2.261  1.00  0.00     0.202 C 
BRANCH  25  26
ATOM     26  C   UNL     1       0.742   6.066   2.679  1.00  0.00     0.261 C 
BRANCH  26  27
ATOM     27  O   UNL     1       1.251   5.055   3.567  1.00  0.00    -0.460 OA
BRANCH  27  28
ATOM     28  C   UNL     1       1.577   5.514   4.800  1.00  0.00     0.338 C 
ATOM     29  O   UNL     1       1.565   6.683   5.173  1.00  0.00    -0.246 OA
BRANCH  28  30
ATOM     30  C   UNL     1       1.773   4.403   5.747  1.00  0.00     0.060 A 
ATOM     31  C   UNL     1       1.003   4.426   6.917  1.00  0.00     0.016 A 
ATOM     32  C   UNL     1       2.752   3.424   5.562  1.00  0.00     0.016 A 
ATOM     33  C   UNL     1       1.255   3.514   7.936  1.00  0.00     0.010 A 
ATOM     34  C   UNL     1       3.009   2.510   6.595  1.00  0.00     0.010 A 
ATOM     35  C   UNL     1       2.293   2.583   7.804  1.00  0.00    -0.014 A 
BRANCH  35  36
ATOM     36  C   UNL     1       2.708   1.821   9.009  1.00  0.00     0.031 A 
ATOM     37  C   UNL     1       3.885   2.306   9.814  1.00  0.00     0.074 A 
ATOM     38  C   UNL     1       1.978   0.778   9.445  1.00  0.00     0.049 A 
ATOM     39  N   UNL     1       4.335   1.876  10.965  1.00  0.00    -0.248 NA
ATOM     40  C   UNL     1       4.652   3.430   9.251  1.00  0.00     0.031 C 
ATOM     41  C   UNL     1       0.796   0.235   8.776  1.00  0.00     0.029 A 
ATOM     42  N   UNL     1       2.113   0.005  10.571  1.00  0.00    -0.354 N 
ATOM     43  C   UNL     1       5.431   2.677  11.267  1.00  0.00     0.074 A 
ATOM     44  C   UNL     1       5.602   3.594  10.161  1.00  0.00     0.031 C 
ATOM     45  C   UNL     1       0.303  -0.775   9.514  1.00  0.00     0.029 A 
ATOM     46  C   UNL     1       1.142  -0.960  10.697  1.00  0.00     0.049 A 
ATOM     47  H   UNL     1       2.836   0.130  11.227  1.00  0.00     0.167 HD
ATOM     48  C   UNL     1       6.217   2.663  12.370  1.00  0.00     0.031 A 
ATOM     49  C   UNL     1       0.948  -1.884  11.658  1.00  0.00     0.031 A 
ATOM     50  C   UNL     1       6.058   1.742  13.465  1.00  0.00     0.049 A 
ATOM     51  C   UNL     1       1.865  -1.912  12.852  1.00  0.00     0.074 A 
ATOM     52  C   UNL     1       6.800   1.654  14.631  1.00  0.00     0.029 A 
ATOM     53  N   UNL     1       5.095   0.747  13.529  1.00  0.00    -0.354 N 
ATOM     54  N   UNL     1       2.877  -1.127  13.135  1.00  0.00    -0.248 NA
ATOM     55  C   UNL     1       1.597  -2.941  13.867  1.00  0.00     0.031 C 
ATOM     56  C   UNL     1       6.317   0.572  15.376  1.00  0.00     0.029 A 
ATOM     57  C   UNL     1       5.237   0.024  14.701  1.00  0.00     0.049 A 
ATOM     58  H   UNL     1       4.411   0.579  12.841  1.00  0.00     0.167 HD
ATOM     59  C   UNL     1       3.352  -1.552  14.372  1.00  0.00     0.074 A 
ATOM     60  C   UNL     1       2.504  -2.650  14.790  1.00  0.00     0.031 C 
ATOM     61  C   UNL     1       4.394  -1.075  15.098  1.00  0.00     0.031 A 
BRANCH  48  62
ATOM     62  C   UNL     1       7.345   3.659  12.430  1.00  0.00    -0.014 A 
ATOM     63  C   UNL     1       7.099   5.029  12.634  1.00  0.00     0.010 A 
ATOM     64  C   UNL     1       8.674   3.214  12.309  1.00  0.00     0.010 A 
ATOM     65  C   UNL     1       8.158   5.940  12.678  1.00  0.00     0.020 A 
ATOM     66  C   UNL     1       9.738   4.118  12.377  1.00  0.00     0.020 A 
ATOM     67  C   UNL     1       9.471   5.479  12.544  1.00  0.00     0.054 A 
BRANCH  67  68
ATOM     68  S   UNL     1      10.829   6.679  12.619  1.00  0.00     0.124 S 
ATOM     69  O   UNL     1      10.714   7.346  11.325  1.00  0.00    -0.237 OA
ATOM     70  O   UNL     1      10.474   7.494  13.778  1.00  0.00    -0.237 OA
ATOM     71  O   UNL     1      12.018   5.848  12.787  1.00  0.00    -0.744 OA
ENDBRANCH  67  68
ENDBRANCH  48  62
BRANCH  49  72
ATOM     72  C   UNL     1      -0.168  -2.861  11.532  1.00  0.00    -0.014 A 
ATOM     73  C   UNL     1      -1.285  -2.796  12.382  1.00  0.00     0.010 A 
ATOM     74  C   UNL     1      -0.114  -3.867  10.550  1.00  0.00     0.010 A 
ATOM     75  C   UNL     1      -2.321  -3.728  12.263  1.00  0.00     0.020 A 
ATOM     76  C   UNL     1      -1.158  -4.784  10.410  1.00  0.00     0.020 A 
ATOM     77  C   UNL     1      -2.251  -4.716  11.276  1.00  0.00     0.054 A 
BRANCH  77  78
ATOM     78  S   UNL     1      -3.629  -5.883  11.102  1.00  0.00     0.124 S 
ATOM     79  O   UNL     1      -3.420  -6.772  12.240  1.00  0.00    -0.237 OA
ATOM     80  O   UNL     1      -4.796  -5.008  11.187  1.00  0.00    -0.237 OA
ATOM     81  O   UNL     1      -3.404  -6.481   9.788  1.00  0.00    -0.744 OA
ENDBRANCH  77  78
ENDBRANCH  49  72
BRANCH  61  82
ATOM     82  C   UNL     1       4.655  -1.723  16.433  1.00  0.00    -0.014 A 
ATOM     83  C   UNL     1       5.174  -3.027  16.525  1.00  0.00     0.010 A 
ATOM     84  C   UNL     1       4.391  -1.007  17.616  1.00  0.00     0.010 A 
ATOM     85  C   UNL     1       5.373  -3.623  17.774  1.00  0.00     0.020 A 
ATOM     86  C   UNL     1       4.615  -1.589  18.866  1.00  0.00     0.020 A 
ATOM     87  C   UNL     1       5.083  -2.902  18.936  1.00  0.00     0.054 A 
BRANCH  87  88
ATOM     88  S   UNL     1       5.349  -3.694  20.547  1.00  0.00     0.124 S 
ATOM     89  O   UNL     1       4.200  -4.590  20.637  1.00  0.00    -0.237 OA
ATOM     90  O   UNL     1       6.644  -4.348  20.375  1.00  0.00    -0.237 OA
ATOM     91  O   UNL     1       5.343  -2.575  21.487  1.00  0.00    -0.744 OA
ENDBRANCH  87  88
ENDBRANCH  61  82
ENDBRANCH  35  36
ENDBRANCH  28  30
ENDBRANCH  27  28
ENDBRANCH  26  27
ENDBRANCH  25  26
ENDBRANCH   1  25
TORSDOF 24
