REMARK SMILES Cc1ccccc1OCC(=O)Nc1ccc2c(c1)C(=O)N(CC(=O)OCCOCCOC(=O)c1ccc(-c3c4nc(c(-c5ccc(S(=O)(=O)[O-])cc5)c5ccc([nH]5)c(-c5ccc(S(=O)(=O)[O-])cc5)c5nc(c(-c6ccc(S(=O)(=O)[O-])cc6)c6ccc3[nH]6)C=C5)C=C4)cc1)C2=O
REMARK SMILES IDX 27 1 26 2 25 3 23 4 24 5 22 6 21 7 13 8 14 9 18 10 15 11
REMARK SMILES IDX 17 12 16 13 19 14 94 15 20 16 95 17 12 18 10 19 11 20 9 22
REMARK SMILES IDX 8 23 7 24 1 25 2 26 3 27 4 28 6 29 5 30 28 31 29 32 30 33
REMARK SMILES IDX 31 34 32 35 33 36 34 37 35 38 93 39 36 40 92 41 37 42 38 43
REMARK SMILES IDX 39 44 86 45 40 46 91 47 85 48 87 49 41 50 90 51 84 52 83 53
REMARK SMILES IDX 42 55 72 56 53 57 71 58 54 59 57 60 70 61 88 62 55 63 56 64
REMARK SMILES IDX 69 66 89 67 58 68 43 69 44 70 52 71 45 72 51 73 46 74 47 75
REMARK SMILES IDX 48 76 49 77 50 78 73 79 74 80 82 81 75 82 81 83 76 84 77 85
REMARK SMILES IDX 78 86 79 87 80 88 59 89 60 90 68 91 61 92 67 93 62 94 63 95
REMARK SMILES IDX 64 96 65 97 66 98
REMARK H PARENT 12 21 87 54 57 65
REMARK Flexibility Score: inf
ROOT
ATOM      1  C   UNL     1       0.927   5.940   6.904  1.00  0.00     0.202 C 
ENDROOT
BRANCH   1   2
ATOM      2  C   UNL     1       0.012   7.112   7.091  1.00  0.00     0.261 C 
BRANCH   2   3
ATOM      3  O   UNL     1      -0.020   7.912   5.903  1.00  0.00    -0.462 OA
BRANCH   3   4
ATOM      4  C   UNL     1       0.816   8.985   5.803  1.00  0.00     0.326 C 
ATOM      5  O   UNL     1       1.241   9.649   6.736  1.00  0.00    -0.250 OA
BRANCH   4   6
ATOM      6  C   UNL     1       1.066   9.320   4.339  1.00  0.00     0.251 C 
BRANCH   6   7
ATOM      7  N   UNL     1       1.047   8.062   3.619  1.00  0.00    -0.263 N 
ATOM      8  C   UNL     1       1.600   3.637   2.664  1.00  0.00     0.042 A 
ATOM      9  C   UNL     1       0.245   3.753   2.298  1.00  0.00     0.027 A 
ATOM     10  C   UNL     1       2.310   4.728   3.154  1.00  0.00     0.040 A 
ATOM     11  C   UNL     1      -0.427   4.978   2.417  1.00  0.00     0.017 A 
ATOM     12  C   UNL     1       1.641   5.930   3.196  1.00  0.00     0.055 A 
ATOM     13  C   UNL     1       0.306   6.059   2.862  1.00  0.00     0.053 A 
ATOM     14  C   UNL     1       2.133   7.232   3.620  1.00  0.00     0.262 C 
ATOM     15  C   UNL     1      -0.075   7.448   3.134  1.00  0.00     0.262 C 
ATOM     16  O   UNL     1       3.285   7.462   3.905  1.00  0.00    -0.269 OA
ATOM     17  O   UNL     1      -1.189   7.910   2.960  1.00  0.00    -0.269 OA
BRANCH   8  18
ATOM     18  N   UNL     1       2.287   2.426   2.564  1.00  0.00    -0.323 N 
ATOM     19  C   UNL     1       2.824   1.938   1.402  1.00  0.00     0.262 C 
ATOM     20  O   UNL     1       3.776   1.157   1.487  1.00  0.00    -0.271 OA
ATOM     21  H   UNL     1       2.392   1.888   3.381  1.00  0.00     0.170 HD
BRANCH  19  22
ATOM     22  C   UNL     1       2.342   2.465   0.039  1.00  0.00     0.329 C 
BRANCH  22  23
ATOM     23  O   UNL     1       1.057   2.201  -0.477  1.00  0.00    -0.483 OA
BRANCH  23  24
ATOM     24  C   UNL     1       0.456   0.989  -0.316  1.00  0.00     0.122 A 
ATOM     25  C   UNL     1       2.471  -0.630  -0.502  1.00  0.00     0.048 C 
ATOM     26  C   UNL     1       1.024  -0.291  -0.300  1.00  0.00    -0.009 A 
ATOM     27  C   UNL     1       0.172  -1.399  -0.087  1.00  0.00     0.007 A 
ATOM     28  C   UNL     1      -1.208  -1.253   0.040  1.00  0.00     0.001 A 
ATOM     29  C   UNL     1      -0.943   1.116  -0.225  1.00  0.00     0.047 A 
ATOM     30  C   UNL     1      -1.771   0.010  -0.045  1.00  0.00     0.004 A 
ENDBRANCH  23  24
ENDBRANCH  22  23
ENDBRANCH  19  22
ENDBRANCH   8  18
ENDBRANCH   6   7
ENDBRANCH   4   6
ENDBRANCH   3   4
ENDBRANCH   2   3
ENDBRANCH   1   2
BRANCH   1  31
ATOM     31  O   UNL     1       2.242   6.490   6.989  1.00  0.00    -0.374 OA
BRANCH  31  32
ATOM     32  C   UNL     1       3.324   5.614   6.747  1.00  0.00     0.202 C 
BRANCH  32  33
ATOM     33  C   UNL     1       3.183   4.182   7.282  1.00  0.00     0.261 C 
BRANCH  33  34
ATOM     34  O   UNL     1       3.569   4.057   8.669  1.00  0.00    -0.460 OA
BRANCH  34  35
ATOM     35  C   UNL     1       2.559   3.904   9.578  1.00  0.00     0.338 C 
ATOM     36  O   UNL     1       2.157   2.820   9.961  1.00  0.00    -0.246 OA
BRANCH  35  37
ATOM     37  C   UNL     1       2.127   5.226  10.109  1.00  0.00     0.060 A 
ATOM     38  C   UNL     1       0.872   5.418  10.709  1.00  0.00     0.016 A 
ATOM     39  C   UNL     1       2.933   6.321   9.831  1.00  0.00     0.016 A 
ATOM     40  C   UNL     1       0.372   6.718  10.894  1.00  0.00     0.010 A 
ATOM     41  C   UNL     1       2.375   7.576   9.855  1.00  0.00     0.010 A 
ATOM     42  C   UNL     1       1.104   7.795  10.403  1.00  0.00    -0.014 A 
BRANCH  42  43
ATOM     43  C   UNL     1       0.740   9.212  10.444  1.00  0.00     0.031 A 
ATOM     44  C   UNL     1       1.591  10.075  11.306  1.00  0.00     0.074 A 
ATOM     45  C   UNL     1      -0.116   9.765   9.547  1.00  0.00     0.049 A 
ATOM     46  N   UNL     1       1.282  11.272  11.653  1.00  0.00    -0.248 NA
ATOM     47  C   UNL     1       2.873   9.650  11.883  1.00  0.00     0.031 C 
ATOM     48  C   UNL     1      -0.214  11.164   9.127  1.00  0.00     0.029 A 
ATOM     49  N   UNL     1      -1.131   9.163   8.792  1.00  0.00    -0.354 N 
ATOM     50  C   UNL     1       2.427  11.870  12.130  1.00  0.00     0.074 A 
ATOM     51  C   UNL     1       3.352  10.797  12.367  1.00  0.00     0.031 C 
ATOM     52  C   UNL     1      -1.384  11.358   8.486  1.00  0.00     0.029 A 
ATOM     53  C   UNL     1      -2.135  10.114   8.572  1.00  0.00     0.049 A 
ATOM     54  H   UNL     1      -1.137   8.232   8.470  1.00  0.00     0.167 HD
ATOM     55  C   UNL     1       2.509  13.227  12.102  1.00  0.00     0.031 A 
ATOM     56  C   UNL     1      -3.391   9.914   9.056  1.00  0.00     0.031 A 
ATOM     57  C   UNL     1       1.250  13.802  11.613  1.00  0.00     0.049 A 
ATOM     58  C   UNL     1      -3.651  10.971  10.090  1.00  0.00     0.074 A 
ATOM     59  C   UNL     1       0.871  14.340  10.395  1.00  0.00     0.029 A 
ATOM     60  N   UNL     1       0.071  13.508  12.294  1.00  0.00    -0.354 N 
ATOM     61  N   UNL     1      -2.683  11.586  10.716  1.00  0.00    -0.248 NA
ATOM     62  C   UNL     1      -4.963  11.508  10.423  1.00  0.00     0.031 C 
ATOM     63  C   UNL     1      -0.552  14.293  10.323  1.00  0.00     0.029 A 
ATOM     64  C   UNL     1      -1.037  13.750  11.504  1.00  0.00     0.049 A 
ATOM     65  H   UNL     1       0.031  13.171  13.219  1.00  0.00     0.167 HD
ATOM     66  C   UNL     1      -3.185  12.640  11.410  1.00  0.00     0.074 A 
ATOM     67  C   UNL     1      -4.625  12.521  11.245  1.00  0.00     0.031 C 
ATOM     68  C   UNL     1      -2.382  13.546  12.038  1.00  0.00     0.031 A 
BRANCH  55  69
ATOM     69  C   UNL     1       3.796  14.007  12.255  1.00  0.00    -0.014 A 
ATOM     70  C   UNL     1       3.865  15.322  11.752  1.00  0.00     0.010 A 
ATOM     71  C   UNL     1       4.973  13.516  12.857  1.00  0.00     0.010 A 
ATOM     72  C   UNL     1       5.041  16.085  11.810  1.00  0.00     0.020 A 
ATOM     73  C   UNL     1       6.167  14.257  12.898  1.00  0.00     0.020 A 
ATOM     74  C   UNL     1       6.191  15.544  12.379  1.00  0.00     0.054 A 
BRANCH  74  75
ATOM     75  S   UNL     1       7.690  16.556  12.469  1.00  0.00     0.124 S 
ATOM     76  O   UNL     1       7.931  16.891  11.068  1.00  0.00    -0.237 OA
ATOM     77  O   UNL     1       7.265  17.666  13.318  1.00  0.00    -0.237 OA
ATOM     78  O   UNL     1       8.679  15.662  13.068  1.00  0.00    -0.744 OA
ENDBRANCH  74  75
ENDBRANCH  55  69
BRANCH  56  79
ATOM     79  C   UNL     1      -3.786   8.463   9.050  1.00  0.00    -0.014 A 
ATOM     80  C   UNL     1      -4.043   7.875   7.785  1.00  0.00     0.010 A 
ATOM     81  C   UNL     1      -3.418   7.610  10.107  1.00  0.00     0.010 A 
ATOM     82  C   UNL     1      -3.770   6.519   7.541  1.00  0.00     0.020 A 
ATOM     83  C   UNL     1      -3.136   6.250   9.862  1.00  0.00     0.020 A 
ATOM     84  C   UNL     1      -3.259   5.727   8.569  1.00  0.00     0.054 A 
BRANCH  84  85
ATOM     85  S   UNL     1      -2.466   4.135   8.134  1.00  0.00     0.124 S 
ATOM     86  O   UNL     1      -3.601   3.222   8.073  1.00  0.00    -0.237 OA
ATOM     87  O   UNL     1      -1.821   4.424   6.851  1.00  0.00    -0.237 OA
ATOM     88  O   UNL     1      -1.530   3.914   9.231  1.00  0.00    -0.744 OA
ENDBRANCH  84  85
ENDBRANCH  56  79
BRANCH  68  89
ATOM     89  C   UNL     1      -2.830  14.387  13.197  1.00  0.00    -0.014 A 
ATOM     90  C   UNL     1      -4.004  14.134  13.919  1.00  0.00     0.010 A 
ATOM     91  C   UNL     1      -1.959  15.380  13.703  1.00  0.00     0.010 A 
ATOM     92  C   UNL     1      -4.342  14.897  15.036  1.00  0.00     0.020 A 
ATOM     93  C   UNL     1      -2.250  16.097  14.861  1.00  0.00     0.020 A 
ATOM     94  C   UNL     1      -3.464  15.877  15.495  1.00  0.00     0.054 A 
BRANCH  94  95
ATOM     95  S   UNL     1      -3.922  16.842  16.946  1.00  0.00     0.124 S 
ATOM     96  O   UNL     1      -4.889  17.779  16.381  1.00  0.00    -0.237 OA
ATOM     97  O   UNL     1      -4.477  15.830  17.842  1.00  0.00    -0.237 OA
ATOM     98  O   UNL     1      -2.659  17.430  17.385  1.00  0.00    -0.744 OA
ENDBRANCH  94  95
ENDBRANCH  68  89
ENDBRANCH  42  43
ENDBRANCH  35  37
ENDBRANCH  34  35
ENDBRANCH  33  34
ENDBRANCH  32  33
ENDBRANCH  31  32
ENDBRANCH   1  31
TORSDOF 22
