REMARK SMILES O=C(OCCOCCOC(=O)c1cc(-c2ccccc2)nc(Nc2nc3ccccc3s2)n1)c1ccc(-c2c3nc(c(-c4ccc(S(=O)(=O)[O-])cc4)c4ccc([nH]4)c(-c4ccc(S(=O)(=O)[O-])cc4)c4nc(c(-c5ccc(S(=O)(=O)[O-])cc5)c5ccc2[nH]5)C=C4)C=C3)cc1
REMARK SMILES IDX 5 1 4 2 3 3 2 4 1 5 34 6 35 7 93 8 36 9 92 10 37 11 38 12
REMARK SMILES IDX 39 13 86 14 40 15 91 16 85 17 87 18 41 19 90 20 84 21 83 22
REMARK SMILES IDX 42 24 72 25 53 26 71 27 54 28 57 29 70 30 88 31 55 32 56 33
REMARK SMILES IDX 69 35 89 36 58 37 43 38 44 39 52 40 45 41 51 42 46 43 47 44
REMARK SMILES IDX 48 45 49 46 50 47 73 48 74 49 82 50 75 51 81 52 76 53 77 54
REMARK SMILES IDX 78 55 79 56 80 57 59 58 60 59 68 60 61 61 67 62 62 63 63 64
REMARK SMILES IDX 64 65 65 66 66 67 6 68 7 69 8 70 9 71 10 72 11 73 12 74
REMARK SMILES IDX 13 75 33 76 14 77 22 78 21 79 15 80 16 81 20 82 17 83 19 84
REMARK SMILES IDX 18 85 23 86 24 88 25 89 32 90 26 91 31 92 27 93 30 94 28 95
REMARK SMILES IDX 29 96
REMARK H PARENT 87 23 57 34 23 87
REMARK Flexibility Score: inf
ROOT
ATOM      1  C   UNL     1       4.172  -1.419   0.559  1.00  0.00     0.202 C 
ENDROOT
BRANCH   1   2
ATOM      2  C   UNL     1       3.889  -0.078   1.227  1.00  0.00     0.261 C 
BRANCH   2   3
ATOM      3  O   UNL     1       2.504   0.258   1.097  1.00  0.00    -0.460 OA
BRANCH   3   4
ATOM      4  C   UNL     1       1.950   1.054   0.154  1.00  0.00     0.338 C 
ATOM      5  O   UNL     1       0.728   1.202   0.171  1.00  0.00    -0.246 OA
BRANCH   4   6
ATOM      6  C   UNL     1       2.724   1.779  -0.906  1.00  0.00     0.060 A 
ATOM      7  C   UNL     1       3.931   1.361  -1.479  1.00  0.00     0.016 A 
ATOM      8  C   UNL     1       2.116   2.928  -1.436  1.00  0.00     0.016 A 
ATOM      9  C   UNL     1       4.515   2.032  -2.542  1.00  0.00     0.010 A 
ATOM     10  C   UNL     1       2.691   3.613  -2.506  1.00  0.00     0.010 A 
ATOM     11  C   UNL     1       3.892   3.157  -3.059  1.00  0.00    -0.014 A 
BRANCH  11  12
ATOM     12  C   UNL     1       4.585   3.916  -4.105  1.00  0.00     0.031 A 
ATOM     13  C   UNL     1       5.320   5.147  -3.694  1.00  0.00     0.074 A 
ATOM     14  C   UNL     1       4.586   3.461  -5.368  1.00  0.00     0.049 A 
ATOM     15  N   UNL     1       5.874   6.062  -4.436  1.00  0.00    -0.248 NA
ATOM     16  C   UNL     1       5.446   5.375  -2.243  1.00  0.00     0.031 C 
ATOM     17  C   UNL     1       4.004   2.191  -5.808  1.00  0.00     0.029 A 
ATOM     18  N   UNL     1       5.090   4.016  -6.511  1.00  0.00    -0.354 N 
ATOM     19  C   UNL     1       6.373   7.003  -3.546  1.00  0.00     0.074 A 
ATOM     20  C   UNL     1       6.065   6.544  -2.210  1.00  0.00     0.031 C 
ATOM     21  C   UNL     1       4.165   2.076  -7.136  1.00  0.00     0.029 A 
ATOM     22  C   UNL     1       4.794   3.292  -7.640  1.00  0.00     0.049 A 
ATOM     23  H   UNL     1       5.612   4.850  -6.524  1.00  0.00     0.167 HD
ATOM     24  C   UNL     1       7.005   8.162  -3.837  1.00  0.00     0.031 A 
ATOM     25  C   UNL     1       4.961   3.615  -8.936  1.00  0.00     0.031 A 
ATOM     26  C   UNL     1       7.251   8.588  -5.187  1.00  0.00     0.049 A 
ATOM     27  C   UNL     1       5.584   4.948  -9.247  1.00  0.00     0.074 A 
ATOM     28  C   UNL     1       7.831   9.758  -5.634  1.00  0.00     0.029 A 
ATOM     29  N   UNL     1       6.912   7.845  -6.313  1.00  0.00    -0.354 N 
ATOM     30  N   UNL     1       6.006   5.869  -8.410  1.00  0.00    -0.248 NA
ATOM     31  C   UNL     1       5.749   5.295 -10.662  1.00  0.00     0.031 C 
ATOM     32  C   UNL     1       7.789   9.747  -7.032  1.00  0.00     0.029 A 
ATOM     33  C   UNL     1       7.250   8.540  -7.458  1.00  0.00     0.049 A 
ATOM     34  H   UNL     1       6.491   6.955  -6.297  1.00  0.00     0.167 HD
ATOM     35  C   UNL     1       6.511   6.897  -9.194  1.00  0.00     0.074 A 
ATOM     36  C   UNL     1       6.341   6.481 -10.575  1.00  0.00     0.031 C 
ATOM     37  C   UNL     1       7.069   8.073  -8.813  1.00  0.00     0.031 A 
BRANCH  24  38
ATOM     38  C   UNL     1       7.344   9.059  -2.679  1.00  0.00    -0.014 A 
ATOM     39  C   UNL     1       8.318   8.707  -1.726  1.00  0.00     0.010 A 
ATOM     40  C   UNL     1       6.609  10.245  -2.497  1.00  0.00     0.010 A 
ATOM     41  C   UNL     1       8.495   9.483  -0.576  1.00  0.00     0.020 A 
ATOM     42  C   UNL     1       6.805  11.040  -1.365  1.00  0.00     0.020 A 
ATOM     43  C   UNL     1       7.725  10.636  -0.396  1.00  0.00     0.054 A 
BRANCH  43  44
ATOM     44  S   UNL     1       7.932  11.595   1.130  1.00  0.00     0.124 S 
ATOM     45  O   UNL     1       7.272  10.739   2.113  1.00  0.00    -0.237 OA
ATOM     46  O   UNL     1       9.384  11.689   1.256  1.00  0.00    -0.237 OA
ATOM     47  O   UNL     1       7.251  12.855   0.844  1.00  0.00    -0.744 OA
ENDBRANCH  43  44
ENDBRANCH  24  38
BRANCH  25  48
ATOM     48  C   UNL     1       4.472   2.687  -9.993  1.00  0.00    -0.014 A 
ATOM     49  C   UNL     1       5.369   1.971 -10.803  1.00  0.00     0.010 A 
ATOM     50  C   UNL     1       3.090   2.452 -10.138  1.00  0.00     0.010 A 
ATOM     51  C   UNL     1       4.894   1.032 -11.728  1.00  0.00     0.020 A 
ATOM     52  C   UNL     1       2.613   1.498 -11.041  1.00  0.00     0.020 A 
ATOM     53  C   UNL     1       3.520   0.794 -11.833  1.00  0.00     0.054 A 
BRANCH  53  54
ATOM     54  S   UNL     1       2.936  -0.493 -12.973  1.00  0.00     0.124 S 
ATOM     55  O   UNL     1       3.172   0.122 -14.275  1.00  0.00    -0.237 OA
ATOM     56  O   UNL     1       3.800  -1.624 -12.641  1.00  0.00    -0.237 OA
ATOM     57  O   UNL     1       1.531  -0.665 -12.608  1.00  0.00    -0.744 OA
ENDBRANCH  53  54
ENDBRANCH  25  48
BRANCH  37  58
ATOM     58  C   UNL     1       7.588   8.975  -9.897  1.00  0.00    -0.014 A 
ATOM     59  C   UNL     1       6.717   9.759 -10.671  1.00  0.00     0.010 A 
ATOM     60  C   UNL     1       8.979   9.137 -10.036  1.00  0.00     0.010 A 
ATOM     61  C   UNL     1       7.233  10.699 -11.566  1.00  0.00     0.020 A 
ATOM     62  C   UNL     1       9.496  10.093 -10.909  1.00  0.00     0.020 A 
ATOM     63  C   UNL     1       8.618  10.868 -11.669  1.00  0.00     0.054 A 
BRANCH  63  64
ATOM     64  S   UNL     1       9.258  12.175 -12.750  1.00  0.00     0.124 S 
ATOM     65  O   UNL     1       9.019  11.616 -14.077  1.00  0.00    -0.237 OA
ATOM     66  O   UNL     1       8.427  13.322 -12.391  1.00  0.00    -0.237 OA
ATOM     67  O   UNL     1      10.663  12.287 -12.364  1.00  0.00    -0.744 OA
ENDBRANCH  63  64
ENDBRANCH  37  58
ENDBRANCH  11  12
ENDBRANCH   4   6
ENDBRANCH   3   4
ENDBRANCH   2   3
ENDBRANCH   1   2
BRANCH   1  68
ATOM     68  O   UNL     1       3.821  -1.458  -0.823  1.00  0.00    -0.374 OA
BRANCH  68  69
ATOM     69  C   UNL     1       2.510  -1.911  -1.148  1.00  0.00     0.202 C 
BRANCH  69  70
ATOM     70  C   UNL     1       2.632  -3.129  -2.064  1.00  0.00     0.261 C 
BRANCH  70  71
ATOM     71  O   UNL     1       3.298  -4.165  -1.328  1.00  0.00    -0.459 OA
BRANCH  71  72
ATOM     72  C   UNL     1       4.663  -4.069  -1.334  1.00  0.00     0.357 C 
ATOM     73  O   UNL     1       5.360  -3.588  -2.196  1.00  0.00    -0.244 OA
BRANCH  72  74
ATOM     74  C   UNL     1       5.133  -4.575  -0.017  1.00  0.00     0.154 A 
ATOM     75  C   UNL     1       4.510  -5.653   0.532  1.00  0.00     0.065 A 
ATOM     76  N   UNL     1       6.162  -3.935   0.567  1.00  0.00    -0.206 NA
ATOM     77  C   UNL     1       5.093  -6.160   1.666  1.00  0.00     0.077 A 
ATOM     78  C   UNL     1       6.588  -4.398   1.747  1.00  0.00     0.230 A 
ATOM     79  N   UNL     1       6.122  -5.541   2.294  1.00  0.00    -0.213 NA
BRANCH  77  80
ATOM     80  C   UNL     1       4.645  -7.481   2.129  1.00  0.00     0.000 A 
ATOM     81  C   UNL     1       4.273  -7.748   3.450  1.00  0.00     0.010 A 
ATOM     82  C   UNL     1       4.477  -8.510   1.173  1.00  0.00     0.010 A 
ATOM     83  C   UNL     1       3.709  -8.986   3.787  1.00  0.00     0.001 A 
ATOM     84  C   UNL     1       3.908  -9.735   1.504  1.00  0.00     0.001 A 
ATOM     85  C   UNL     1       3.516  -9.970   2.814  1.00  0.00     0.000 A 
ENDBRANCH  77  80
BRANCH  78  86
ATOM     86  N   UNL     1       7.628  -3.745   2.404  1.00  0.00    -0.300 N 
ATOM     87  H   UNL     1       8.103  -4.242   3.109  1.00  0.00     0.172 HD
BRANCH  86  88
ATOM     88  C   UNL     1       8.037  -2.481   2.152  1.00  0.00     0.190 A 
ATOM     89  N   UNL     1       7.257  -1.423   2.070  1.00  0.00    -0.220 NA
ATOM     90  S   UNL     1       9.722  -2.127   2.003  1.00  0.00    -0.097 S 
ATOM     91  C   UNL     1       7.993  -0.286   1.759  1.00  0.00     0.084 A 
ATOM     92  C   UNL     1       9.365  -0.486   1.620  1.00  0.00     0.056 A 
ATOM     93  C   UNL     1       7.482   1.016   1.570  1.00  0.00     0.030 A 
ATOM     94  C   UNL     1      10.230   0.557   1.241  1.00  0.00     0.021 A 
ATOM     95  C   UNL     1       8.328   2.058   1.179  1.00  0.00     0.002 A 
ATOM     96  C   UNL     1       9.686   1.825   1.005  1.00  0.00     0.002 A 
ENDBRANCH  86  88
ENDBRANCH  78  86
ENDBRANCH  72  74
ENDBRANCH  71  72
ENDBRANCH  70  71
ENDBRANCH  69  70
ENDBRANCH  68  69
ENDBRANCH   1  68
TORSDOF 20
