REMARK SMILES O=C(Cn1nc(C(=O)OCCOCCOC(=O)c2ccc(-c3c4nc(c(-c5ccc(S(=O)(=O)[O-])cc5)c5ccc([nH]5)c(-c5ccc(S(=O)(=O)[O-])cc5)c5nc(c(-c6ccc(S(=O)(=O)[O-])cc6)c6ccc3[nH]6)C=C5)C=C4)cc2)c2ccccc2c1=O)Nc1ccc2c(c1)C(=O)c1ccccc1C2=O
REMARK SMILES IDX 12 1 11 2 10 3 9 4 7 5 8 6 6 7 4 8 5 9 84 10 83 11 85 12
REMARK SMILES IDX 78 13 82 14 79 15 81 16 80 17 3 18 2 19 1 20 86 21 87 23
REMARK SMILES IDX 88 24 92 25 89 26 91 27 90 28 93 29 101 30 94 31 95 32
REMARK SMILES IDX 100 33 102 34 96 35 99 36 97 37 98 38 13 39 14 40 15 41
REMARK SMILES IDX 16 42 17 43 18 44 19 45 77 46 20 47 76 48 21 49 22 50 23 51
REMARK SMILES IDX 70 52 24 53 75 54 69 55 71 56 25 57 74 58 68 59 67 60 26 62
REMARK SMILES IDX 56 63 37 64 55 65 38 66 41 67 54 68 72 69 39 70 40 71 53 73
REMARK SMILES IDX 73 74 42 75 27 76 28 77 36 78 29 79 35 80 30 81 31 82 32 83
REMARK SMILES IDX 33 84 34 85 57 86 58 87 66 88 59 89 65 90 60 91 61 92 62 93
REMARK SMILES IDX 63 94 64 95 43 96 44 97 52 98 45 99 51 100 46 101 47 102
REMARK SMILES IDX 48 103 49 104 50 105
REMARK H PARENT 86 22 71 61 41 72
REMARK Flexibility Score: inf
ROOT
ATOM      1  O   UNL     1       9.333   2.514   1.865  1.00  0.00    -0.374 OA
ENDROOT
BRANCH   1   2
ATOM      2  C   UNL     1       9.250   1.163   2.322  1.00  0.00     0.202 C 
BRANCH   2   3
ATOM      3  C   UNL     1       7.928   0.773   2.989  1.00  0.00     0.261 C 
BRANCH   3   4
ATOM      4  O   UNL     1       6.832   0.969   2.083  1.00  0.00    -0.458 OA
BRANCH   4   5
ATOM      5  C   UNL     1       5.864   1.798   2.512  1.00  0.00     0.359 C 
ATOM      6  O   UNL     1       5.718   2.279   3.621  1.00  0.00    -0.244 OA
BRANCH   5   7
ATOM      7  C   UNL     1       4.974   2.209   1.345  1.00  0.00     0.176 A 
ATOM      8  N   UNL     1       3.476   1.643  -0.327  1.00  0.00    -0.219 N 
ATOM      9  N   UNL     1       4.356   1.270   0.681  1.00  0.00    -0.161 NA
ATOM     10  C   UNL     1       3.100   2.964  -0.573  1.00  0.00     0.275 A 
ATOM     11  C   UNL     1       3.866   4.010   0.129  1.00  0.00     0.051 A 
ATOM     12  O   UNL     1       2.228   3.298  -1.369  1.00  0.00    -0.267 OA
ATOM     13  C   UNL     1       4.845   3.647   1.043  1.00  0.00     0.022 A 
ATOM     14  C   UNL     1       3.656   5.361  -0.181  1.00  0.00     0.014 A 
ATOM     15  C   UNL     1       5.662   4.634   1.614  1.00  0.00     0.011 A 
ATOM     16  C   UNL     1       4.458   6.344   0.398  1.00  0.00     0.001 A 
ATOM     17  C   UNL     1       5.471   5.979   1.283  1.00  0.00     0.001 A 
BRANCH   8  18
ATOM     18  C   UNL     1       2.876   0.576  -1.149  1.00  0.00     0.248 C 
BRANCH  18  19
ATOM     19  C   UNL     1       1.856  -0.254  -0.371  1.00  0.00     0.246 C 
ATOM     20  O   UNL     1       0.734  -0.512  -0.791  1.00  0.00    -0.273 OA
ATOM     21  N   UNL     1       2.409  -0.780   0.777  1.00  0.00    -0.324 N 
ATOM     22  H   UNL     1       3.389  -0.767   0.868  1.00  0.00     0.169 HD
BRANCH  21  23
ATOM     23  C   UNL     1       1.658  -1.329   1.819  1.00  0.00     0.042 A 
ATOM     24  C   UNL     1       1.662  -2.718   1.999  1.00  0.00     0.027 A 
ATOM     25  C   UNL     1       1.352  -0.473   2.872  1.00  0.00     0.039 A 
ATOM     26  C   UNL     1       1.558  -3.248   3.289  1.00  0.00     0.015 A 
ATOM     27  C   UNL     1       1.232  -1.006   4.146  1.00  0.00     0.036 A 
ATOM     28  C   UNL     1       1.482  -2.360   4.364  1.00  0.00     0.034 A 
ATOM     29  C   UNL     1       1.321  -0.070   5.276  1.00  0.00     0.194 C 
ATOM     30  C   UNL     1       2.146  -2.720   5.644  1.00  0.00     0.194 C 
ATOM     31  O   UNL     1       0.603   0.905   5.384  1.00  0.00    -0.289 OA
ATOM     32  C   UNL     1       2.497  -0.310   6.122  1.00  0.00     0.034 A 
ATOM     33  C   UNL     1       2.942  -1.626   6.265  1.00  0.00     0.034 A 
ATOM     34  O   UNL     1       2.190  -3.861   6.062  1.00  0.00    -0.289 OA
ATOM     35  C   UNL     1       3.285   0.775   6.497  1.00  0.00     0.013 A 
ATOM     36  C   UNL     1       4.215  -1.869   6.775  1.00  0.00     0.013 A 
ATOM     37  C   UNL     1       4.573   0.533   6.966  1.00  0.00     0.001 A 
ATOM     38  C   UNL     1       5.037  -0.782   7.100  1.00  0.00     0.001 A 
ENDBRANCH  21  23
ENDBRANCH  18  19
ENDBRANCH   8  18
ENDBRANCH   5   7
ENDBRANCH   4   5
ENDBRANCH   3   4
ENDBRANCH   2   3
ENDBRANCH   1   2
BRANCH   1  39
ATOM     39  C   UNL     1       8.722   2.825   0.611  1.00  0.00     0.202 C 
BRANCH  39  40
ATOM     40  C   UNL     1       9.434   2.350  -0.662  1.00  0.00     0.261 C 
BRANCH  40  41
ATOM     41  O   UNL     1       9.356   0.924  -0.822  1.00  0.00    -0.460 OA
BRANCH  41  42
ATOM     42  C   UNL     1      10.533   0.264  -0.678  1.00  0.00     0.338 C 
ATOM     43  O   UNL     1      11.631   0.756  -0.482  1.00  0.00    -0.246 OA
BRANCH  42  44
ATOM     44  C   UNL     1      10.265  -1.185  -0.570  1.00  0.00     0.060 A 
ATOM     45  C   UNL     1       9.468  -1.856  -1.498  1.00  0.00     0.016 A 
ATOM     46  C   UNL     1      10.856  -1.880   0.494  1.00  0.00     0.016 A 
ATOM     47  C   UNL     1       9.288  -3.236  -1.374  1.00  0.00     0.010 A 
ATOM     48  C   UNL     1      10.675  -3.257   0.616  1.00  0.00     0.010 A 
ATOM     49  C   UNL     1       9.904  -3.949  -0.328  1.00  0.00    -0.014 A 
BRANCH  49  50
ATOM     50  C   UNL     1       9.860  -5.431  -0.304  1.00  0.00     0.031 A 
ATOM     51  C   UNL     1       9.005  -6.176   0.676  1.00  0.00     0.074 A 
ATOM     52  C   UNL     1      10.631  -6.106  -1.180  1.00  0.00     0.049 A 
ATOM     53  N   UNL     1       8.805  -7.465   0.770  1.00  0.00    -0.248 NA
ATOM     54  C   UNL     1       8.286  -5.380   1.682  1.00  0.00     0.031 C 
ATOM     55  C   UNL     1      11.524  -5.481  -2.157  1.00  0.00     0.029 A 
ATOM     56  N   UNL     1      10.782  -7.451  -1.401  1.00  0.00    -0.354 N 
ATOM     57  C   UNL     1       7.922  -7.639   1.827  1.00  0.00     0.074 A 
ATOM     58  C   UNL     1       7.663  -6.325   2.378  1.00  0.00     0.031 C 
ATOM     59  C   UNL     1      12.098  -6.439  -2.899  1.00  0.00     0.029 A 
ATOM     60  C   UNL     1      11.645  -7.746  -2.430  1.00  0.00     0.049 A 
ATOM     61  H   UNL     1      10.316  -8.140  -0.874  1.00  0.00     0.167 HD
ATOM     62  C   UNL     1       7.368  -8.789   2.279  1.00  0.00     0.031 A 
ATOM     63  C   UNL     1      12.025  -8.930  -2.950  1.00  0.00     0.031 A 
ATOM     64  C   UNL     1       7.654 -10.093   1.732  1.00  0.00     0.049 A 
ATOM     65  C   UNL     1      11.426 -10.195  -2.404  1.00  0.00     0.074 A 
ATOM     66  C   UNL     1       7.108 -11.311   2.099  1.00  0.00     0.029 A 
ATOM     67  N   UNL     1       8.565 -10.356   0.718  1.00  0.00    -0.354 N 
ATOM     68  N   UNL     1      10.530 -10.335  -1.456  1.00  0.00    -0.248 NA
ATOM     69  C   UNL     1      11.873 -11.460  -3.003  1.00  0.00     0.031 C 
ATOM     70  C   UNL     1       7.744 -12.316   1.367  1.00  0.00     0.029 A 
ATOM     71  C   UNL     1       8.624 -11.720   0.477  1.00  0.00     0.049 A 
ATOM     72  H   UNL     1       9.091  -9.675   0.241  1.00  0.00     0.167 HD
ATOM     73  C   UNL     1      10.291 -11.701  -1.358  1.00  0.00     0.074 A 
ATOM     74  C   UNL     1      11.120 -12.342  -2.358  1.00  0.00     0.031 C 
ATOM     75  C   UNL     1       9.460 -12.359  -0.512  1.00  0.00     0.031 A 
BRANCH  62  76
ATOM     76  C   UNL     1       6.375  -8.713   3.413  1.00  0.00    -0.014 A 
ATOM     77  C   UNL     1       6.666  -9.336   4.641  1.00  0.00     0.010 A 
ATOM     78  C   UNL     1       5.095  -8.163   3.213  1.00  0.00     0.010 A 
ATOM     79  C   UNL     1       5.683  -9.454   5.627  1.00  0.00     0.020 A 
ATOM     80  C   UNL     1       4.119  -8.251   4.211  1.00  0.00     0.020 A 
ATOM     81  C   UNL     1       4.411  -8.923   5.399  1.00  0.00     0.054 A 
BRANCH  81  82
ATOM     82  S   UNL     1       3.131  -9.168   6.662  1.00  0.00     0.124 S 
ATOM     83  O   UNL     1       2.913 -10.610   6.604  1.00  0.00    -0.237 OA
ATOM     84  O   UNL     1       3.789  -8.678   7.872  1.00  0.00    -0.237 OA
ATOM     85  O   UNL     1       2.017  -8.352   6.186  1.00  0.00    -0.744 OA
ENDBRANCH  81  82
ENDBRANCH  62  76
BRANCH  63  86
ATOM     86  C   UNL     1      12.981  -8.943  -4.092  1.00  0.00    -0.014 A 
ATOM     87  C   UNL     1      14.309  -8.507  -3.917  1.00  0.00     0.010 A 
ATOM     88  C   UNL     1      12.543  -9.294  -5.381  1.00  0.00     0.010 A 
ATOM     89  C   UNL     1      15.158  -8.358  -5.016  1.00  0.00     0.020 A 
ATOM     90  C   UNL     1      13.401  -9.179  -6.479  1.00  0.00     0.020 A 
ATOM     91  C   UNL     1      14.692  -8.680  -6.293  1.00  0.00     0.054 A 
BRANCH  91  92
ATOM     92  S   UNL     1      15.789  -8.408  -7.712  1.00  0.00     0.124 S 
ATOM     93  O   UNL     1      15.763  -6.953  -7.835  1.00  0.00    -0.237 OA
ATOM     94  O   UNL     1      17.052  -8.978  -7.251  1.00  0.00    -0.237 OA
ATOM     95  O   UNL     1      15.136  -9.139  -8.795  1.00  0.00    -0.744 OA
ENDBRANCH  91  92
ENDBRANCH  63  86
BRANCH  75  96
ATOM     96  C   UNL     1       9.395 -13.864  -0.605  1.00  0.00    -0.014 A 
ATOM     97  C   UNL     1       8.195 -14.490  -0.995  1.00  0.00     0.010 A 
ATOM     98  C   UNL     1      10.474 -14.661  -0.185  1.00  0.00     0.010 A 
ATOM     99  C   UNL     1       8.063 -15.880  -0.926  1.00  0.00     0.020 A 
ATOM    100  C   UNL     1      10.357 -16.054  -0.148  1.00  0.00     0.020 A 
ATOM    101  C   UNL     1       9.143 -16.652  -0.493  1.00  0.00     0.054 A 
BRANCH 101 102
ATOM    102  S   UNL     1       8.940 -18.451  -0.378  1.00  0.00     0.124 S 
ATOM    103  O   UNL     1       8.123 -18.593   0.823  1.00  0.00    -0.237 OA
ATOM    104  O   UNL     1       8.275 -18.781  -1.636  1.00  0.00    -0.237 OA
ATOM    105  O   UNL     1      10.311 -18.944  -0.261  1.00  0.00    -0.744 OA
ENDBRANCH 101 102
ENDBRANCH  75  96
ENDBRANCH  49  50
ENDBRANCH  42  44
ENDBRANCH  41  42
ENDBRANCH  40  41
ENDBRANCH  39  40
ENDBRANCH   1  39
TORSDOF 20
