REMARK SMILES Nc1ncccc1C[N@@H+]1CC2(CC[NH2+]CC2)C[C@H]1C(=O)OCCOCCOC(=O)c1ccc(-c2c3nc(c(-c4ccc(S(=O)(=O)[O-])cc4)c4ccc([nH]4)c(-c4ccc(S(=O)(=O)[O-])cc4)c4nc(c(-c5ccc(S(=O)(=O)[O-])cc5)c5ccc2[nH]5)C=C4)C=C3)cc1
REMARK SMILES IDX 24 1 23 2 22 3 21 4 19 5 20 6 18 7 9 8 10 9 11 11 17 12
REMARK SMILES IDX 12 13 16 14 13 15 15 16 14 17 8 20 7 21 2 22 3 23 4 24 6 25
REMARK SMILES IDX 5 26 1 27 25 30 26 31 27 32 28 33 29 34 30 35 31 36 89 37
REMARK SMILES IDX 32 38 88 39 33 40 34 41 35 42 82 43 36 44 87 45 81 46 83 47
REMARK SMILES IDX 37 48 86 49 80 50 79 51 38 53 68 54 49 55 67 56 50 57 53 58
REMARK SMILES IDX 66 59 84 60 51 61 52 62 65 64 85 65 54 66 39 67 40 68 48 69
REMARK SMILES IDX 41 70 47 71 42 72 43 73 44 74 45 75 46 76 69 77 70 78 78 79
REMARK SMILES IDX 71 80 77 81 72 82 73 83 74 84 75 85 76 86 55 87 56 88 64 89
REMARK SMILES IDX 57 90 63 91 58 92 59 93 60 94 61 95 62 96
REMARK H PARENT 9 10 14 18 14 19 1 28 1 29 83 52 53 63
REMARK Flexibility Score: inf
ROOT
ATOM      1  O   UNL     1       2.230  -4.504   5.393  1.00  0.00    -0.374 OA
ENDROOT
BRANCH   1   2
ATOM      2  C   UNL     1       0.919  -4.716   5.911  1.00  0.00     0.202 C 
BRANCH   2   3
ATOM      3  C   UNL     1      -0.073  -3.561   5.770  1.00  0.00     0.261 C 
BRANCH   3   4
ATOM      4  O   UNL     1      -0.260  -3.162   4.403  1.00  0.00    -0.459 OA
BRANCH   4   5
ATOM      5  C   UNL     1       0.133  -1.894   4.108  1.00  0.00     0.365 C 
ATOM      6  O   UNL     1       0.567  -1.093   4.934  1.00  0.00    -0.245 OA
BRANCH   5   7
ATOM      7  C   UNL     1      -0.074  -1.496   2.644  1.00  0.00     0.296 C 
ATOM      8  N   UNL     1       0.034  -2.604   1.667  1.00  0.00    -0.319 N 
ATOM      9  C   UNL     1      -1.325  -3.048   1.328  1.00  0.00     0.270 C 
ATOM     10  H   UNL     1       0.532  -3.380   2.103  1.00  0.00     0.349 HD
ATOM     11  C   UNL     1      -2.337  -2.010   1.866  1.00  0.00     0.036 C 
ATOM     12  C   UNL     1      -1.455  -0.890   2.447  1.00  0.00     0.091 C 
ATOM     13  C   UNL     1      -3.257  -2.618   2.953  1.00  0.00     0.074 C 
ATOM     14  C   UNL     1      -3.258  -1.441   0.765  1.00  0.00     0.074 C 
ATOM     15  C   UNL     1      -4.287  -3.596   2.373  1.00  0.00     0.261 C 
ATOM     16  C   UNL     1      -4.248  -2.474   0.236  1.00  0.00     0.261 C 
ATOM     17  N   UNL     1      -5.087  -2.993   1.308  1.00  0.00    -0.346 N 
ATOM     18  H   UNL     1      -5.636  -2.227   1.698  1.00  0.00     0.346 HD
ATOM     19  H   UNL     1      -5.694  -3.713   0.917  1.00  0.00     0.346 HD
BRANCH   8  20
ATOM     20  C   UNL     1       0.910  -2.326   0.505  1.00  0.00     0.303 C 
BRANCH  20  21
ATOM     21  C   UNL     1       0.752  -0.982  -0.177  1.00  0.00     0.048 A 
ATOM     22  C   UNL     1       1.576   0.111   0.110  1.00  0.00     0.132 A 
ATOM     23  N   UNL     1       1.286   1.369  -0.277  1.00  0.00    -0.239 NA
ATOM     24  C   UNL     1       0.179   1.557  -1.024  1.00  0.00     0.113 A 
ATOM     25  C   UNL     1      -0.310  -0.762  -1.061  1.00  0.00     0.015 A 
ATOM     26  C   UNL     1      -0.622   0.528  -1.472  1.00  0.00     0.021 A 
BRANCH  22  27
ATOM     27  N   UNL     1       2.731  -0.002   0.859  1.00  0.00    -0.383 N 
ATOM     28  H   UNL     1       3.282   0.795   1.037  1.00  0.00     0.158 HD
ATOM     29  H   UNL     1       3.003  -0.878   1.214  1.00  0.00     0.158 HD
ENDBRANCH  22  27
ENDBRANCH  20  21
ENDBRANCH   8  20
ENDBRANCH   5   7
ENDBRANCH   4   5
ENDBRANCH   3   4
ENDBRANCH   2   3
ENDBRANCH   1   2
BRANCH   1  30
ATOM     30  C   UNL     1       2.390  -4.558   3.974  1.00  0.00     0.202 C 
BRANCH  30  31
ATOM     31  C   UNL     1       2.318  -5.944   3.320  1.00  0.00     0.261 C 
BRANCH  31  32
ATOM     32  O   UNL     1       1.008  -6.536   3.398  1.00  0.00    -0.460 OA
BRANCH  32  33
ATOM     33  C   UNL     1       0.933  -7.654   4.165  1.00  0.00     0.338 C 
ATOM     34  O   UNL     1       1.851  -8.215   4.738  1.00  0.00    -0.246 OA
BRANCH  33  35
ATOM     35  C   UNL     1      -0.477  -8.041   4.368  1.00  0.00     0.060 A 
ATOM     36  C   UNL     1      -0.916  -8.222   5.686  1.00  0.00     0.016 A 
ATOM     37  C   UNL     1      -1.325  -8.318   3.294  1.00  0.00     0.016 A 
ATOM     38  C   UNL     1      -2.189  -8.732   5.935  1.00  0.00     0.010 A 
ATOM     39  C   UNL     1      -2.600  -8.839   3.546  1.00  0.00     0.010 A 
ATOM     40  C   UNL     1      -3.024  -9.082   4.865  1.00  0.00    -0.014 A 
BRANCH  40  41
ATOM     41  C   UNL     1      -4.277  -9.831   5.128  1.00  0.00     0.031 A 
ATOM     42  C   UNL     1      -4.282 -11.329   4.972  1.00  0.00     0.074 A 
ATOM     43  C   UNL     1      -5.389  -9.192   5.534  1.00  0.00     0.049 A 
ATOM     44  N   UNL     1      -5.266 -12.175   5.136  1.00  0.00    -0.248 NA
ATOM     45  C   UNL     1      -3.007 -11.954   4.583  1.00  0.00     0.031 C 
ATOM     46  C   UNL     1      -5.500  -7.752   5.768  1.00  0.00     0.029 A 
ATOM     47  N   UNL     1      -6.641  -9.678   5.821  1.00  0.00    -0.354 N 
ATOM     48  C   UNL     1      -4.733 -13.431   4.869  1.00  0.00     0.074 A 
ATOM     49  C   UNL     1      -3.346 -13.233   4.505  1.00  0.00     0.031 C 
ATOM     50  C   UNL     1      -6.756  -7.471   6.159  1.00  0.00     0.029 A 
ATOM     51  C   UNL     1      -7.542  -8.703   6.174  1.00  0.00     0.049 A 
ATOM     52  H   UNL     1      -6.870 -10.634   5.777  1.00  0.00     0.167 HD
ATOM     53  C   UNL     1      -5.339 -14.641   4.926  1.00  0.00     0.031 A 
ATOM     54  C   UNL     1      -8.857  -8.791   6.460  1.00  0.00     0.031 A 
ATOM     55  C   UNL     1      -6.722 -14.837   5.271  1.00  0.00     0.049 A 
ATOM     56  C   UNL     1      -9.529 -10.139   6.439  1.00  0.00     0.074 A 
ATOM     57  C   UNL     1      -7.428 -16.025   5.357  1.00  0.00     0.029 A 
ATOM     58  N   UNL     1      -7.612 -13.820   5.579  1.00  0.00    -0.354 N 
ATOM     59  N   UNL     1      -9.007 -11.318   6.197  1.00  0.00    -0.248 NA
ATOM     60  C   UNL     1     -10.969 -10.167   6.736  1.00  0.00     0.031 C 
ATOM     61  C   UNL     1      -8.757 -15.721   5.672  1.00  0.00     0.029 A 
ATOM     62  C   UNL     1      -8.866 -14.349   5.835  1.00  0.00     0.049 A 
ATOM     63  H   UNL     1      -7.386 -12.862   5.612  1.00  0.00     0.167 HD
ATOM     64  C   UNL     1     -10.049 -12.230   6.340  1.00  0.00     0.074 A 
ATOM     65  C   UNL     1     -11.227 -11.468   6.698  1.00  0.00     0.031 C 
ATOM     66  C   UNL     1     -10.029 -13.578   6.191  1.00  0.00     0.031 A 
BRANCH  53  67
ATOM     67  C   UNL     1      -4.510 -15.848   4.578  1.00  0.00    -0.014 A 
ATOM     68  C   UNL     1      -3.520 -16.327   5.455  1.00  0.00     0.010 A 
ATOM     69  C   UNL     1      -4.744 -16.530   3.370  1.00  0.00     0.010 A 
ATOM     70  C   UNL     1      -2.753 -17.444   5.113  1.00  0.00     0.020 A 
ATOM     71  C   UNL     1      -3.995 -17.662   3.036  1.00  0.00     0.020 A 
ATOM     72  C   UNL     1      -2.992 -18.101   3.902  1.00  0.00     0.054 A 
BRANCH  72  73
ATOM     73  S   UNL     1      -1.991 -19.556   3.487  1.00  0.00     0.124 S 
ATOM     74  O   UNL     1      -0.713 -18.948   3.124  1.00  0.00    -0.237 OA
ATOM     75  O   UNL     1      -1.993 -20.315   4.735  1.00  0.00    -0.237 OA
ATOM     76  O   UNL     1      -2.721 -20.175   2.383  1.00  0.00    -0.744 OA
ENDBRANCH  72  73
ENDBRANCH  53  67
BRANCH  54  77
ATOM     77  C   UNL     1      -9.633  -7.562   6.776  1.00  0.00    -0.014 A 
ATOM     78  C   UNL     1     -10.104  -7.326   8.079  1.00  0.00     0.010 A 
ATOM     79  C   UNL     1      -9.910  -6.621   5.767  1.00  0.00     0.010 A 
ATOM     80  C   UNL     1     -10.852  -6.180   8.365  1.00  0.00     0.020 A 
ATOM     81  C   UNL     1     -10.636  -5.462   6.055  1.00  0.00     0.020 A 
ATOM     82  C   UNL     1     -11.113  -5.255   7.350  1.00  0.00     0.054 A 
BRANCH  82  83
ATOM     83  S   UNL     1     -12.042  -3.749   7.752  1.00  0.00     0.124 S 
ATOM     84  O   UNL     1     -13.408  -4.253   7.851  1.00  0.00    -0.237 OA
ATOM     85  O   UNL     1     -11.430  -3.325   9.009  1.00  0.00    -0.237 OA
ATOM     86  O   UNL     1     -11.777  -2.871   6.614  1.00  0.00    -0.744 OA
ENDBRANCH  82  83
ENDBRANCH  54  77
BRANCH  66  87
ATOM     87  C   UNL     1     -11.311 -14.323   6.450  1.00  0.00    -0.014 A 
ATOM     88  C   UNL     1     -12.377 -14.283   5.535  1.00  0.00     0.010 A 
ATOM     89  C   UNL     1     -11.428 -15.122   7.604  1.00  0.00     0.010 A 
ATOM     90  C   UNL     1     -13.549 -15.004   5.782  1.00  0.00     0.020 A 
ATOM     91  C   UNL     1     -12.588 -15.864   7.842  1.00  0.00     0.020 A 
ATOM     92  C   UNL     1     -13.647 -15.789   6.935  1.00  0.00     0.054 A 
BRANCH  92  93
ATOM     93  S   UNL     1     -15.159 -16.752   7.213  1.00  0.00     0.124 S 
ATOM     94  O   UNL     1     -16.100 -15.722   7.646  1.00  0.00    -0.237 OA
ATOM     95  O   UNL     1     -15.421 -17.329   5.896  1.00  0.00    -0.237 OA
ATOM     96  O   UNL     1     -14.772 -17.715   8.242  1.00  0.00    -0.744 OA
ENDBRANCH  92  93
ENDBRANCH  66  87
ENDBRANCH  40  41
ENDBRANCH  33  35
ENDBRANCH  32  33
ENDBRANCH  31  32
ENDBRANCH  30  31
ENDBRANCH   1  30
TORSDOF 20
