REMARK SMILES CN(CC(N)=O)C(=O)c1csc(/C=C/C(=O)OCCOCCOC(=O)c2ccc(-c3c4nc(c(-c5ccc(S(=O)(=O)[O-])cc5)c5ccc([nH]5)c(-c5ccc(S(=O)(=O)[O-])cc5)c5nc(c(-c6ccc(S(=O)(=O)[O-])cc6)c6ccc3[nH]6)C=C5)C=C4)cc2)c1
REMARK SMILES IDX 19 1 18 2 17 3 15 4 16 5 14 6 13 7 12 8 9 9 10 10 86 11
REMARK SMILES IDX 11 12 7 13 8 14 2 15 1 16 3 17 4 18 5 19 6 20 20 23 21 24
REMARK SMILES IDX 22 25 23 26 24 27 25 28 26 29 27 30 85 31 28 32 84 33 29 34
REMARK SMILES IDX 30 35 31 36 78 37 32 38 83 39 77 40 79 41 33 42 82 43 76 44
REMARK SMILES IDX 75 45 34 47 64 48 45 49 63 50 46 51 49 52 62 53 80 54 47 55
REMARK SMILES IDX 48 56 61 58 81 59 50 60 35 61 36 62 44 63 37 64 43 65 38 66
REMARK SMILES IDX 39 67 40 68 41 69 42 70 65 71 66 72 74 73 67 74 73 75 68 76
REMARK SMILES IDX 69 77 70 78 71 79 72 80 51 81 52 82 60 83 53 84 59 85 54 86
REMARK SMILES IDX 55 87 56 88 57 89 58 90
REMARK H PARENT 5 21 5 22 79 46 49 57
REMARK Flexibility Score: inf
ROOT
ATOM      1  C   UNL     1       3.146  -9.695   6.729  1.00  0.00     0.202 C 
ENDROOT
BRANCH   1   2
ATOM      2  C   UNL     1       2.840 -10.109   5.288  1.00  0.00     0.261 C 
BRANCH   2   3
ATOM      3  O   UNL     1       2.365  -8.993   4.516  1.00  0.00    -0.460 OA
BRANCH   3   4
ATOM      4  C   UNL     1       1.062  -9.055   4.161  1.00  0.00     0.330 C 
ATOM      5  O   UNL     1       0.290  -9.978   4.375  1.00  0.00    -0.247 OA
BRANCH   4   6
ATOM      6  C   UNL     1       0.589  -7.815   3.515  1.00  0.00     0.095 C 
ATOM      7  C   UNL     1       1.328  -6.744   3.184  1.00  0.00     0.026 C 
BRANCH   7   8
ATOM      8  C   UNL     1       0.774  -5.592   2.531  1.00  0.00     0.028 A 
ATOM      9  C   UNL     1       0.607  -3.556   1.324  1.00  0.00     0.051 A 
ATOM     10  C   UNL     1      -0.711  -3.955   1.393  1.00  0.00     0.079 A 
ATOM     11  C   UNL     1       1.458  -4.525   1.963  1.00  0.00     0.033 A 
ATOM     12  S   UNL     1      -0.926  -5.350   2.337  1.00  0.00    -0.144 S 
BRANCH   9  13
ATOM     13  C   UNL     1       1.054  -2.385   0.572  1.00  0.00     0.254 C 
ATOM     14  O   UNL     1       1.866  -2.513  -0.340  1.00  0.00    -0.269 OA
BRANCH  13  15
ATOM     15  N   UNL     1       0.529  -1.143   0.927  1.00  0.00    -0.332 N 
ATOM     16  C   UNL     1       0.799  -0.025   0.042  1.00  0.00     0.147 C 
BRANCH  15  17
ATOM     17  C   UNL     1      -0.152  -0.855   2.190  1.00  0.00     0.219 C 
BRANCH  17  18
ATOM     18  C   UNL     1      -1.676  -0.969   2.082  1.00  0.00     0.237 C 
ATOM     19  N   UNL     1      -2.293  -1.592   3.131  1.00  0.00    -0.368 N 
ATOM     20  O   UNL     1      -2.337  -0.535   1.143  1.00  0.00    -0.273 OA
ATOM     21  H   UNL     1      -1.758  -1.938   3.881  1.00  0.00     0.159 HD
ATOM     22  H   UNL     1      -3.272  -1.695   3.135  1.00  0.00     0.159 HD
ENDBRANCH  17  18
ENDBRANCH  15  17
ENDBRANCH  13  15
ENDBRANCH   9  13
ENDBRANCH   7   8
ENDBRANCH   4   6
ENDBRANCH   3   4
ENDBRANCH   2   3
ENDBRANCH   1   2
BRANCH   1  23
ATOM     23  O   UNL     1       2.020  -9.254   7.489  1.00  0.00    -0.374 OA
BRANCH  23  24
ATOM     24  C   UNL     1       1.651  -7.881   7.344  1.00  0.00     0.202 C 
BRANCH  24  25
ATOM     25  C   UNL     1       2.478  -6.885   8.166  1.00  0.00     0.261 C 
BRANCH  25  26
ATOM     26  O   UNL     1       3.814  -6.751   7.646  1.00  0.00    -0.460 OA
BRANCH  26  27
ATOM     27  C   UNL     1       4.789  -7.270   8.430  1.00  0.00     0.338 C 
ATOM     28  O   UNL     1       4.658  -7.742   9.551  1.00  0.00    -0.246 OA
BRANCH  27  29
ATOM     29  C   UNL     1       6.050  -7.365   7.670  1.00  0.00     0.060 A 
ATOM     30  C   UNL     1       6.727  -8.591   7.693  1.00  0.00     0.016 A 
ATOM     31  C   UNL     1       6.590  -6.270   6.990  1.00  0.00     0.016 A 
ATOM     32  C   UNL     1       7.972  -8.714   7.080  1.00  0.00     0.010 A 
ATOM     33  C   UNL     1       7.844  -6.393   6.381  1.00  0.00     0.010 A 
ATOM     34  C   UNL     1       8.555  -7.605   6.453  1.00  0.00    -0.014 A 
BRANCH  34  35
ATOM     35  C   UNL     1       9.964  -7.678   5.997  1.00  0.00     0.031 A 
ATOM     36  C   UNL     1      11.046  -7.099   6.865  1.00  0.00     0.074 A 
ATOM     37  C   UNL     1      10.280  -8.270   4.832  1.00  0.00     0.049 A 
ATOM     38  N   UNL     1      12.337  -7.049   6.657  1.00  0.00    -0.248 NA
ATOM     39  C   UNL     1      10.614  -6.491   8.133  1.00  0.00     0.031 C 
ATOM     40  C   UNL     1       9.326  -8.893   3.915  1.00  0.00     0.029 A 
ATOM     41  N   UNL     1      11.496  -8.435   4.219  1.00  0.00    -0.354 N 
ATOM     42  C   UNL     1      12.872  -6.398   7.763  1.00  0.00     0.074 A 
ATOM     43  C   UNL     1      11.762  -6.045   8.623  1.00  0.00     0.031 C 
ATOM     44  C   UNL     1       9.994  -9.362   2.847  1.00  0.00     0.029 A 
ATOM     45  C   UNL     1      11.415  -9.050   2.994  1.00  0.00     0.049 A 
ATOM     46  H   UNL     1      12.346  -8.140   4.620  1.00  0.00     0.167 HD
ATOM     47  C   UNL     1      14.168  -6.120   8.040  1.00  0.00     0.031 A 
ATOM     48  C   UNL     1      12.373  -9.314   2.083  1.00  0.00     0.031 A 
ATOM     49  C   UNL     1      15.268  -6.450   7.174  1.00  0.00     0.049 A 
ATOM     50  C   UNL     1      13.802  -8.950   2.382  1.00  0.00     0.074 A 
ATOM     51  C   UNL     1      16.620  -6.234   7.377  1.00  0.00     0.029 A 
ATOM     52  N   UNL     1      15.143  -7.052   5.930  1.00  0.00    -0.354 N 
ATOM     53  N   UNL     1      14.297  -8.373   3.451  1.00  0.00    -0.248 NA
ATOM     54  C   UNL     1      14.801  -9.285   1.359  1.00  0.00     0.031 C 
ATOM     55  C   UNL     1      17.306  -6.655   6.231  1.00  0.00     0.029 A 
ATOM     56  C   UNL     1      16.388  -7.187   5.340  1.00  0.00     0.049 A 
ATOM     57  H   UNL     1      14.292  -7.341   5.527  1.00  0.00     0.167 HD
ATOM     58  C   UNL     1      15.669  -8.290   3.237  1.00  0.00     0.074 A 
ATOM     59  C   UNL     1      15.925  -8.889   1.942  1.00  0.00     0.031 C 
ATOM     60  C   UNL     1      16.629  -7.770   4.043  1.00  0.00     0.031 A 
BRANCH  47  61
ATOM     61  C   UNL     1      14.449  -5.376   9.319  1.00  0.00    -0.014 A 
ATOM     62  C   UNL     1      14.288  -5.990  10.574  1.00  0.00     0.010 A 
ATOM     63  C   UNL     1      14.867  -4.034   9.263  1.00  0.00     0.010 A 
ATOM     64  C   UNL     1      14.477  -5.258  11.750  1.00  0.00     0.020 A 
ATOM     65  C   UNL     1      15.084  -3.306  10.436  1.00  0.00     0.020 A 
ATOM     66  C   UNL     1      14.861  -3.916  11.672  1.00  0.00     0.054 A 
BRANCH  66  67
ATOM     67  S   UNL     1      15.070  -2.977  13.210  1.00  0.00     0.124 S 
ATOM     68  O   UNL     1      13.684  -2.738  13.605  1.00  0.00    -0.237 OA
ATOM     69  O   UNL     1      15.813  -3.905  14.057  1.00  0.00    -0.237 OA
ATOM     70  O   UNL     1      15.811  -1.789  12.792  1.00  0.00    -0.744 OA
ENDBRANCH  66  67
ENDBRANCH  47  61
BRANCH  48  71
ATOM     71  C   UNL     1      11.992  -9.954   0.796  1.00  0.00    -0.014 A 
ATOM     72  C   UNL     1      12.291 -11.304   0.548  1.00  0.00     0.010 A 
ATOM     73  C   UNL     1      11.270  -9.223  -0.166  1.00  0.00     0.010 A 
ATOM     74  C   UNL     1      11.865 -11.915  -0.635  1.00  0.00     0.020 A 
ATOM     75  C   UNL     1      10.823  -9.837  -1.339  1.00  0.00     0.020 A 
ATOM     76  C   UNL     1      11.124 -11.181  -1.566  1.00  0.00     0.054 A 
BRANCH  76  77
ATOM     77  S   UNL     1      10.490 -12.024  -3.042  1.00  0.00     0.124 S 
ATOM     78  O   UNL     1      11.696 -12.171  -3.851  1.00  0.00    -0.237 OA
ATOM     79  O   UNL     1       9.945 -13.261  -2.488  1.00  0.00    -0.237 OA
ATOM     80  O   UNL     1       9.492 -11.094  -3.565  1.00  0.00    -0.744 OA
ENDBRANCH  76  77
ENDBRANCH  48  71
BRANCH  60  81
ATOM     81  C   UNL     1      18.054  -7.838   3.559  1.00  0.00    -0.014 A 
ATOM     82  C   UNL     1      18.515  -7.000   2.529  1.00  0.00     0.010 A 
ATOM     83  C   UNL     1      18.960  -8.713   4.188  1.00  0.00     0.010 A 
ATOM     84  C   UNL     1      19.850  -7.055   2.116  1.00  0.00     0.020 A 
ATOM     85  C   UNL     1      20.300  -8.753   3.796  1.00  0.00     0.020 A 
ATOM     86  C   UNL     1      20.734  -7.933   2.752  1.00  0.00     0.054 A 
BRANCH  86  87
ATOM     87  S   UNL     1      22.472  -7.954   2.232  1.00  0.00     0.124 S 
ATOM     88  O   UNL     1      22.400  -8.674   0.963  1.00  0.00    -0.237 OA
ATOM     89  O   UNL     1      22.796  -6.533   2.131  1.00  0.00    -0.237 OA
ATOM     90  O   UNL     1      23.149  -8.665   3.314  1.00  0.00    -0.744 OA
ENDBRANCH  86  87
ENDBRANCH  60  81
ENDBRANCH  34  35
ENDBRANCH  27  29
ENDBRANCH  26  27
ENDBRANCH  25  26
ENDBRANCH  24  25
ENDBRANCH  23  24
ENDBRANCH   1  23
TORSDOF 22
