REMARK SMILES O=C(OCCOCCOC(=O)c1[nH]c2ccc(Cl)cc2c1-c1ccccc1)c1ccc(-c2c3nc(c(-c4ccc(S(=O)(=O)[O-])cc4)c4ccc([nH]4)c(-c4ccc(S(=O)(=O)[O-])cc4)c4nc(c(-c5ccc(S(=O)(=O)[O-])cc5)c5ccc2[nH]5)C=C4)C=C3)cc1
REMARK SMILES IDX 5 1 4 2 3 3 2 4 1 5 28 6 29 7 87 8 30 9 86 10 31 11 32 12
REMARK SMILES IDX 33 13 80 14 34 15 85 16 79 17 81 18 35 19 84 20 78 21 77 22
REMARK SMILES IDX 36 24 66 25 47 26 65 27 48 28 51 29 64 30 82 31 49 32 50 33
REMARK SMILES IDX 63 35 83 36 52 37 37 38 38 39 46 40 39 41 45 42 40 43 41 44
REMARK SMILES IDX 42 45 43 46 44 47 67 48 68 49 76 50 69 51 75 52 70 53 71 54
REMARK SMILES IDX 72 55 73 56 74 57 53 58 54 59 62 60 55 61 61 62 56 63 57 64
REMARK SMILES IDX 58 65 59 66 60 67 6 68 7 69 8 70 9 71 10 72 11 73 12 74
REMARK SMILES IDX 13 75 21 76 14 77 20 79 15 80 19 81 16 82 17 83 18 84 22 85
REMARK SMILES IDX 23 86 27 87 24 88 26 89 25 90
REMARK H PARENT 81 23 51 34 13 78
REMARK Flexibility Score: inf
ROOT
ATOM      1  C   UNL     1       4.208  -1.574  -0.808  1.00  0.00     0.202 C 
ENDROOT
BRANCH   1   2
ATOM      2  C   UNL     1       3.912  -1.448   0.686  1.00  0.00     0.261 C 
BRANCH   2   3
ATOM      3  O   UNL     1       2.550  -1.028   0.878  1.00  0.00    -0.460 OA
BRANCH   3   4
ATOM      4  C   UNL     1       2.060   0.190   1.201  1.00  0.00     0.338 C 
ATOM      5  O   UNL     1       0.842   0.302   1.335  1.00  0.00    -0.246 OA
BRANCH   4   6
ATOM      6  C   UNL     1       2.896   1.415   1.410  1.00  0.00     0.060 A 
ATOM      7  C   UNL     1       4.156   1.650   0.855  1.00  0.00     0.016 A 
ATOM      8  C   UNL     1       2.310   2.453   2.159  1.00  0.00     0.016 A 
ATOM      9  C   UNL     1       4.840   2.842   1.078  1.00  0.00     0.010 A 
ATOM     10  C   UNL     1       2.975   3.666   2.365  1.00  0.00     0.010 A 
ATOM     11  C   UNL     1       4.257   3.852   1.841  1.00  0.00    -0.014 A 
BRANCH  11  12
ATOM     12  C   UNL     1       5.064   5.042   2.163  1.00  0.00     0.031 A 
ATOM     13  C   UNL     1       5.747   5.101   3.496  1.00  0.00     0.074 A 
ATOM     14  C   UNL     1       5.271   5.985   1.227  1.00  0.00     0.049 A 
ATOM     15  N   UNL     1       6.544   6.016   3.976  1.00  0.00    -0.248 NA
ATOM     16  C   UNL     1       5.515   3.962   4.401  1.00  0.00     0.031 C 
ATOM     17  C   UNL     1       4.728   5.956  -0.133  1.00  0.00     0.029 A 
ATOM     18  N   UNL     1       6.023   7.129   1.264  1.00  0.00    -0.354 N 
ATOM     19  C   UNL     1       6.899   5.573   5.244  1.00  0.00     0.074 A 
ATOM     20  C   UNL     1       6.226   4.311   5.462  1.00  0.00     0.031 C 
ATOM     21  C   UNL     1       5.194   7.018  -0.811  1.00  0.00     0.029 A 
ATOM     22  C   UNL     1       6.029   7.822   0.077  1.00  0.00     0.049 A 
ATOM     23  H   UNL     1       6.513   7.426   2.064  1.00  0.00     0.167 HD
ATOM     24  C   UNL     1       7.705   6.173   6.150  1.00  0.00     0.031 A 
ATOM     25  C   UNL     1       6.636   8.979  -0.246  1.00  0.00     0.031 A 
ATOM     26  C   UNL     1       8.332   7.446   5.931  1.00  0.00     0.049 A 
ATOM     27  C   UNL     1       7.460   9.671   0.806  1.00  0.00     0.074 A 
ATOM     28  C   UNL     1       9.102   8.195   6.801  1.00  0.00     0.029 A 
ATOM     29  N   UNL     1       8.251   8.162   4.744  1.00  0.00    -0.354 N 
ATOM     30  N   UNL     1       7.743   9.269   2.024  1.00  0.00    -0.248 NA
ATOM     31  C   UNL     1       8.036  10.973   0.449  1.00  0.00     0.031 C 
ATOM     32  C   UNL     1       9.455   9.384   6.149  1.00  0.00     0.029 A 
ATOM     33  C   UNL     1       8.943   9.352   4.860  1.00  0.00     0.049 A 
ATOM     34  H   UNL     1       7.770   7.865   3.937  1.00  0.00     0.167 HD
ATOM     35  C   UNL     1       8.539  10.264   2.576  1.00  0.00     0.074 A 
ATOM     36  C   UNL     1       8.706  11.279   1.553  1.00  0.00     0.031 C 
ATOM     37  C   UNL     1       9.082  10.338   3.817  1.00  0.00     0.031 A 
BRANCH  24  38
ATOM     38  C   UNL     1       7.859   5.477   7.473  1.00  0.00    -0.014 A 
ATOM     39  C   UNL     1       8.643   4.316   7.602  1.00  0.00     0.010 A 
ATOM     40  C   UNL     1       7.137   5.946   8.585  1.00  0.00     0.010 A 
ATOM     41  C   UNL     1       8.649   3.599   8.802  1.00  0.00     0.020 A 
ATOM     42  C   UNL     1       7.157   5.242   9.793  1.00  0.00     0.020 A 
ATOM     43  C   UNL     1       7.889   4.056   9.883  1.00  0.00     0.054 A 
BRANCH  43  44
ATOM     44  S   UNL     1       7.856   3.077  11.410  1.00  0.00     0.124 S 
ATOM     45  O   UNL     1       6.935   1.999  11.053  1.00  0.00    -0.237 OA
ATOM     46  O   UNL     1       9.252   2.680  11.572  1.00  0.00    -0.237 OA
ATOM     47  O   UNL     1       7.357   4.016  12.411  1.00  0.00    -0.744 OA
ENDBRANCH  43  44
ENDBRANCH  24  38
BRANCH  25  48
ATOM     48  C   UNL     1       6.469   9.554  -1.609  1.00  0.00    -0.014 A 
ATOM     49  C   UNL     1       7.543   9.581  -2.515  1.00  0.00     0.010 A 
ATOM     50  C   UNL     1       5.218  10.050  -2.021  1.00  0.00     0.010 A 
ATOM     51  C   UNL     1       7.370  10.094  -3.806  1.00  0.00     0.020 A 
ATOM     52  C   UNL     1       5.035  10.542  -3.317  1.00  0.00     0.020 A 
ATOM     53  C   UNL     1       6.115  10.567  -4.200  1.00  0.00     0.054 A 
BRANCH  53  54
ATOM     54  S   UNL     1       5.890  11.161  -5.901  1.00  0.00     0.124 S 
ATOM     55  O   UNL     1       6.507  12.482  -5.846  1.00  0.00    -0.237 OA
ATOM     56  O   UNL     1       6.607  10.159  -6.686  1.00  0.00    -0.237 OA
ATOM     57  O   UNL     1       4.439  11.152  -6.075  1.00  0.00    -0.744 OA
ENDBRANCH  53  54
ENDBRANCH  25  48
BRANCH  37  58
ATOM     58  C   UNL     1       9.917  11.548   4.123  1.00  0.00    -0.014 A 
ATOM     59  C   UNL     1       9.317  12.786   4.410  1.00  0.00     0.010 A 
ATOM     60  C   UNL     1      11.316  11.424   4.187  1.00  0.00     0.010 A 
ATOM     61  C   UNL     1      10.107  13.890   4.735  1.00  0.00     0.020 A 
ATOM     62  C   UNL     1      12.108  12.521   4.530  1.00  0.00     0.020 A 
ATOM     63  C   UNL     1      11.498  13.751   4.791  1.00  0.00     0.054 A 
BRANCH  63  64
ATOM     64  S   UNL     1      12.504  15.182   5.270  1.00  0.00     0.124 S 
ATOM     65  O   UNL     1      12.550  15.948   4.028  1.00  0.00    -0.237 OA
ATOM     66  O   UNL     1      11.723  15.781   6.350  1.00  0.00    -0.237 OA
ATOM     67  O   UNL     1      13.772  14.586   5.685  1.00  0.00    -0.744 OA
ENDBRANCH  63  64
ENDBRANCH  37  58
ENDBRANCH  11  12
ENDBRANCH   4   6
ENDBRANCH   3   4
ENDBRANCH   2   3
ENDBRANCH   1   2
BRANCH   1  68
ATOM     68  O   UNL     1       4.139  -0.328  -1.499  1.00  0.00    -0.374 OA
BRANCH  68  69
ATOM     69  C   UNL     1       2.865   0.003  -2.066  1.00  0.00     0.202 C 
BRANCH  69  70
ATOM     70  C   UNL     1       3.079   0.496  -3.499  1.00  0.00     0.261 C 
BRANCH  70  71
ATOM     71  O   UNL     1       3.611  -0.592  -4.265  1.00  0.00    -0.459 OA
BRANCH  71  72
ATOM     72  C   UNL     1       4.957  -0.762  -4.193  1.00  0.00     0.355 C 
ATOM     73  O   UNL     1       5.776   0.089  -3.868  1.00  0.00    -0.244 OA
BRANCH  72  74
ATOM     74  C   UNL     1       5.274  -2.160  -4.360  1.00  0.00     0.134 A 
ATOM     75  N   UNL     1       6.330  -2.721  -3.681  1.00  0.00    -0.349 N 
ATOM     76  C   UNL     1       4.659  -3.183  -5.073  1.00  0.00     0.022 A 
ATOM     77  C   UNL     1       6.305  -4.089  -3.786  1.00  0.00     0.047 A 
ATOM     78  H   UNL     1       7.012  -2.211  -3.187  1.00  0.00     0.167 HD
ATOM     79  C   UNL     1       5.292  -4.410  -4.692  1.00  0.00     0.010 A 
ATOM     80  C   UNL     1       7.099  -5.051  -3.151  1.00  0.00     0.028 A 
ATOM     81  C   UNL     1       5.091  -5.769  -5.015  1.00  0.00     0.031 A 
ATOM     82  C   UNL     1       6.864  -6.391  -3.469  1.00  0.00     0.022 A 
ATOM     83  C   UNL     1       5.883  -6.740  -4.395  1.00  0.00     0.041 A 
ATOM     84  Cl  UNL     1       5.636  -8.402  -4.777  1.00  0.00    -0.084 Cl
BRANCH  76  85
ATOM     85  C   UNL     1       3.510  -2.949  -5.937  1.00  0.00    -0.015 A 
ATOM     86  C   UNL     1       3.592  -2.006  -6.973  1.00  0.00     0.009 A 
ATOM     87  C   UNL     1       2.283  -3.563  -5.665  1.00  0.00     0.009 A 
ATOM     88  C   UNL     1       2.451  -1.641  -7.688  1.00  0.00     0.001 A 
ATOM     89  C   UNL     1       1.145  -3.206  -6.391  1.00  0.00     0.001 A 
ATOM     90  C   UNL     1       1.226  -2.236  -7.391  1.00  0.00     0.000 A 
ENDBRANCH  76  85
ENDBRANCH  72  74
ENDBRANCH  71  72
ENDBRANCH  70  71
ENDBRANCH  69  70
ENDBRANCH  68  69
ENDBRANCH   1  68
TORSDOF 18
