REMARK SMILES CC[C@H](C(=O)OCCOCCOC(=O)c1ccc(-c2c3nc(c(-c4ccc(S(=O)(=O)[O-])cc4)c4ccc([nH]4)c(-c4ccc(S(=O)(=O)[O-])cc4)c4nc(c(-c5ccc(S(=O)(=O)[O-])cc5)c5ccc2[nH]5)C=C4)C=C3)cc1)n1cnc2scc(-c3cccc([N+](=O)[O-])c3)c2c1=O
REMARK SMILES IDX 9 1 8 2 7 3 6 4 4 5 5 6 3 7 2 8 1 9 75 10 76 11 92 12 77 13
REMARK SMILES IDX 91 14 93 15 78 16 81 17 79 18 80 19 82 20 83 21 90 22 84 23
REMARK SMILES IDX 86 24 85 25 87 26 88 27 89 28 10 29 11 30 12 31 13 32 14 33
REMARK SMILES IDX 15 34 16 35 74 36 17 37 73 38 18 39 19 40 20 41 67 42 21 43
REMARK SMILES IDX 72 44 66 45 68 46 22 47 71 48 65 49 64 50 23 52 53 53 34 54
REMARK SMILES IDX 52 55 35 56 38 57 51 58 69 59 36 60 37 61 50 63 70 64 39 65
REMARK SMILES IDX 24 66 25 67 33 68 26 69 32 70 27 71 28 72 29 73 30 74 31 75
REMARK SMILES IDX 54 76 55 77 63 78 56 79 62 80 57 81 58 82 59 83 60 84 61 85
REMARK SMILES IDX 40 86 41 87 49 88 42 89 48 90 43 91 44 92 45 93 46 94 47 95
REMARK H PARENT 68 51 38 62
REMARK Flexibility Score: inf
ROOT
ATOM      1  O   UNL     1       1.786  -1.147  -2.976  1.00  0.00    -0.374 OA
ENDROOT
BRANCH   1   2
ATOM      2  C   UNL     1       0.820  -0.162  -2.622  1.00  0.00     0.202 C 
BRANCH   2   3
ATOM      3  C   UNL     1      -0.144  -0.507  -1.484  1.00  0.00     0.261 C 
BRANCH   3   4
ATOM      4  O   UNL     1       0.514  -0.752  -0.228  1.00  0.00    -0.462 OA
BRANCH   4   5
ATOM      5  C   UNL     1       0.577  -2.051   0.153  1.00  0.00     0.329 C 
ATOM      6  O   UNL     1       0.198  -2.994  -0.539  1.00  0.00    -0.250 OA
BRANCH   5   7
ATOM      7  C   UNL     1       1.044  -2.261   1.606  1.00  0.00     0.201 C 
BRANCH   7   8
ATOM      8  C   UNL     1       2.082  -1.249   2.131  1.00  0.00     0.034 C 
ATOM      9  C   UNL     1       1.704   0.222   2.304  1.00  0.00     0.007 C 
ENDBRANCH   7   8
BRANCH   7  10
ATOM     10  N   UNL     1      -0.194  -2.513   2.340  1.00  0.00    -0.284 N 
ATOM     11  C   UNL     1      -0.914  -3.656   2.025  1.00  0.00     0.204 A 
ATOM     12  C   UNL     1      -0.863  -1.472   2.947  1.00  0.00     0.263 A 
ATOM     13  N   UNL     1      -2.199  -3.689   1.863  1.00  0.00    -0.227 NA
ATOM     14  C   UNL     1      -2.204  -1.314   2.434  1.00  0.00     0.085 A 
ATOM     15  O   UNL     1      -0.388  -0.813   3.864  1.00  0.00    -0.268 OA
ATOM     16  C   UNL     1      -2.774  -2.456   1.906  1.00  0.00     0.131 A 
ATOM     17  C   UNL     1      -3.023  -0.150   2.286  1.00  0.00     0.008 A 
ATOM     18  S   UNL     1      -4.275  -2.135   1.178  1.00  0.00    -0.123 S 
ATOM     19  C   UNL     1      -4.169  -0.475   1.574  1.00  0.00     0.076 A 
BRANCH  17  20
ATOM     20  C   UNL     1      -2.785   1.230   2.716  1.00  0.00    -0.010 A 
ATOM     21  C   UNL     1      -2.263   1.524   3.985  1.00  0.00     0.009 A 
ATOM     22  C   UNL     1      -3.185   2.292   1.900  1.00  0.00     0.094 A 
ATOM     23  C   UNL     1      -2.158   2.845   4.442  1.00  0.00     0.008 A 
ATOM     24  C   UNL     1      -3.152   3.599   2.397  1.00  0.00     0.270 A 
ATOM     25  C   UNL     1      -2.628   3.894   3.656  1.00  0.00     0.085 A 
BRANCH  24  26
ATOM     26  N   UNL     1      -3.776   4.645   1.602  1.00  0.00     0.062 N 
ATOM     27  O   UNL     1      -4.327   5.565   2.210  1.00  0.00    -0.258 OA
ATOM     28  O   UNL     1      -3.713   4.530   0.368  1.00  0.00    -0.258 OA
ENDBRANCH  24  26
ENDBRANCH  17  20
ENDBRANCH   7  10
ENDBRANCH   5   7
ENDBRANCH   4   5
ENDBRANCH   3   4
ENDBRANCH   2   3
ENDBRANCH   1   2
BRANCH   1  29
ATOM     29  C   UNL     1       2.879  -1.378  -2.092  1.00  0.00     0.202 C 
BRANCH  29  30
ATOM     30  C   UNL     1       3.922  -0.268  -1.934  1.00  0.00     0.261 C 
BRANCH  30  31
ATOM     31  O   UNL     1       3.391   0.943  -1.363  1.00  0.00    -0.460 OA
BRANCH  31  32
ATOM     32  C   UNL     1       3.459   2.016  -2.192  1.00  0.00     0.338 C 
ATOM     33  O   UNL     1       3.917   2.034  -3.324  1.00  0.00    -0.246 OA
BRANCH  32  34
ATOM     34  C   UNL     1       2.781   3.195  -1.620  1.00  0.00     0.060 A 
ATOM     35  C   UNL     1       1.822   3.833  -2.417  1.00  0.00     0.016 A 
ATOM     36  C   UNL     1       3.200   3.771  -0.419  1.00  0.00     0.016 A 
ATOM     37  C   UNL     1       1.332   5.087  -2.054  1.00  0.00     0.010 A 
ATOM     38  C   UNL     1       2.713   5.037  -0.062  1.00  0.00     0.010 A 
ATOM     39  C   UNL     1       1.815   5.721  -0.902  1.00  0.00    -0.014 A 
BRANCH  39  40
ATOM     40  C   UNL     1       1.498   7.152  -0.668  1.00  0.00     0.031 A 
ATOM     41  C   UNL     1       2.470   8.210  -1.113  1.00  0.00     0.074 A 
ATOM     42  C   UNL     1       0.333   7.529  -0.114  1.00  0.00     0.049 A 
ATOM     43  N   UNL     1       2.374   9.511  -1.008  1.00  0.00    -0.248 NA
ATOM     44  C   UNL     1       3.697   7.745  -1.777  1.00  0.00     0.031 C 
ATOM     45  C   UNL     1      -0.740   6.625   0.286  1.00  0.00     0.029 A 
ATOM     46  N   UNL     1      -0.139   8.781   0.200  1.00  0.00    -0.354 N 
ATOM     47  C   UNL     1       3.513  10.024  -1.611  1.00  0.00     0.074 A 
ATOM     48  C   UNL     1       4.307   8.892  -2.044  1.00  0.00     0.031 C 
ATOM     49  C   UNL     1      -1.734   7.358   0.811  1.00  0.00     0.029 A 
ATOM     50  C   UNL     1      -1.363   8.764   0.820  1.00  0.00     0.049 A 
ATOM     51  H   UNL     1       0.353   9.610   0.000  1.00  0.00     0.167 HD
ATOM     52  C   UNL     1       3.862  11.318  -1.806  1.00  0.00     0.031 A 
ATOM     53  C   UNL     1      -2.110   9.747   1.357  1.00  0.00     0.031 A 
ATOM     54  C   UNL     1       3.095  12.452  -1.364  1.00  0.00     0.049 A 
ATOM     55  C   UNL     1      -1.641  11.165   1.258  1.00  0.00     0.074 A 
ATOM     56  C   UNL     1       3.375  13.798  -1.533  1.00  0.00     0.029 A 
ATOM     57  N   UNL     1       1.906  12.378  -0.657  1.00  0.00    -0.354 N 
ATOM     58  N   UNL     1      -0.561  11.629   0.679  1.00  0.00    -0.248 NA
ATOM     59  C   UNL     1      -2.494  12.192   1.870  1.00  0.00     0.031 C 
ATOM     60  C   UNL     1       2.374  14.538  -0.891  1.00  0.00     0.029 A 
ATOM     61  C   UNL     1       1.454  13.653  -0.355  1.00  0.00     0.049 A 
ATOM     62  H   UNL     1       1.449  11.543  -0.407  1.00  0.00     0.167 HD
ATOM     63  C   UNL     1      -0.620  13.008   0.830  1.00  0.00     0.074 A 
ATOM     64  C   UNL     1      -1.837  13.302   1.559  1.00  0.00     0.031 C 
ATOM     65  C   UNL     1       0.254  13.942   0.386  1.00  0.00     0.031 A 
BRANCH  52  66
ATOM     66  C   UNL     1       5.158  11.567  -2.521  1.00  0.00    -0.014 A 
ATOM     67  C   UNL     1       5.249  11.416  -3.916  1.00  0.00     0.010 A 
ATOM     68  C   UNL     1       6.293  11.964  -1.794  1.00  0.00     0.010 A 
ATOM     69  C   UNL     1       6.466  11.622  -4.569  1.00  0.00     0.020 A 
ATOM     70  C   UNL     1       7.508  12.187  -2.445  1.00  0.00     0.020 A 
ATOM     71  C   UNL     1       7.591  11.995  -3.827  1.00  0.00     0.054 A 
BRANCH  71  72
ATOM     72  S   UNL     1       9.164  12.258  -4.692  1.00  0.00     0.124 S 
ATOM     73  O   UNL     1       9.623  10.886  -4.899  1.00  0.00    -0.237 OA
ATOM     74  O   UNL     1       8.755  12.972  -5.899  1.00  0.00    -0.237 OA
ATOM     75  O   UNL     1       9.951  13.043  -3.745  1.00  0.00    -0.744 OA
ENDBRANCH  71  72
ENDBRANCH  52  66
BRANCH  53  76
ATOM     76  C   UNL     1      -3.367   9.411   2.079  1.00  0.00    -0.014 A 
ATOM     77  C   UNL     1      -4.623   9.633   1.492  1.00  0.00     0.010 A 
ATOM     78  C   UNL     1      -3.300   8.845   3.366  1.00  0.00     0.010 A 
ATOM     79  C   UNL     1      -5.794   9.299   2.182  1.00  0.00     0.020 A 
ATOM     80  C   UNL     1      -4.466   8.497   4.052  1.00  0.00     0.020 A 
ATOM     81  C   UNL     1      -5.708   8.734   3.459  1.00  0.00     0.054 A 
BRANCH  81  82
ATOM     82  S   UNL     1      -7.230   8.255   4.325  1.00  0.00     0.124 S 
ATOM     83  O   UNL     1      -7.669   9.528   4.889  1.00  0.00    -0.237 OA
ATOM     84  O   UNL     1      -8.067   7.720   3.253  1.00  0.00    -0.237 OA
ATOM     85  O   UNL     1      -6.772   7.266   5.300  1.00  0.00    -0.744 OA
ENDBRANCH  81  82
ENDBRANCH  53  76
BRANCH  65  86
ATOM     86  C   UNL     1      -0.090  15.378   0.658  1.00  0.00    -0.014 A 
ATOM     87  C   UNL     1       0.093  15.936   1.935  1.00  0.00     0.010 A 
ATOM     88  C   UNL     1      -0.587  16.183  -0.382  1.00  0.00     0.010 A 
ATOM     89  C   UNL     1      -0.244  17.271   2.175  1.00  0.00     0.020 A 
ATOM     90  C   UNL     1      -0.908  17.522  -0.150  1.00  0.00     0.020 A 
ATOM     91  C   UNL     1      -0.748  18.054   1.131  1.00  0.00     0.054 A 
BRANCH  91  92
ATOM     92  S   UNL     1      -1.149  19.794   1.452  1.00  0.00     0.124 S 
ATOM     93  O   UNL     1      -2.461  19.691   2.084  1.00  0.00    -0.237 OA
ATOM     94  O   UNL     1      -0.061  20.223   2.328  1.00  0.00    -0.237 OA
ATOM     95  O   UNL     1      -1.141  20.398   0.121  1.00  0.00    -0.744 OA
ENDBRANCH  91  92
ENDBRANCH  65  86
ENDBRANCH  39  40
ENDBRANCH  32  34
ENDBRANCH  31  32
ENDBRANCH  30  31
ENDBRANCH  29  30
ENDBRANCH   1  29
TORSDOF 21
