REMARK SMILES Cc1ccccc1-c1c(Cl)ccc2c1C=C(C(=O)OCCOCCOC(=O)c1ccc(-c3c4nc(c(-c5ccc(S(=O)(=O)[O-])cc5)c5ccc([nH]5)c(-c5ccc(S(=O)(=O)[O-])cc5)c5nc(c(-c6ccc(S(=O)(=O)[O-])cc6)c6ccc3[nH]6)C=C5)C=C4)cc1)[C@@H](C(F)(F)F)O2
REMARK SMILES IDX 23 1 22 2 21 3 20 4 19 5 17 6 18 7 16 8 8 9 9 10 14 11 10 12
REMARK SMILES IDX 11 13 13 14 15 15 12 16 93 17 88 18 7 19 1 20 2 21 3 22 4 23
REMARK SMILES IDX 6 24 5 25 89 26 90 27 91 28 92 29 24 30 25 31 26 32 27 33
REMARK SMILES IDX 28 34 29 35 87 36 30 37 86 38 31 39 32 40 33 41 80 42 34 43
REMARK SMILES IDX 85 44 79 45 81 46 35 47 84 48 78 49 77 50 36 52 66 53 47 54
REMARK SMILES IDX 65 55 48 56 51 57 64 58 82 59 49 60 50 61 63 63 83 64 52 65
REMARK SMILES IDX 37 66 38 67 46 68 39 69 45 70 40 71 41 72 42 73 43 74 44 75
REMARK SMILES IDX 67 76 68 77 76 78 69 79 75 80 70 81 71 82 72 83 73 84 74 85
REMARK SMILES IDX 53 86 54 87 62 88 55 89 61 90 56 91 57 92 58 93 59 94 60 95
REMARK H PARENT 81 51 51 62
REMARK Flexibility Score: inf
ROOT
ATOM      1  C   UNL     1       7.587   2.524  -5.102  1.00  0.00     0.202 C 
ENDROOT
BRANCH   1   2
ATOM      2  O   UNL     1       6.901   2.044  -3.955  1.00  0.00    -0.374 OA
BRANCH   2   3
ATOM      3  C   UNL     1       6.704   0.625  -3.916  1.00  0.00     0.202 C 
BRANCH   3   4
ATOM      4  C   UNL     1       5.670   0.331  -2.846  1.00  0.00     0.261 C 
BRANCH   4   5
ATOM      5  O   UNL     1       4.380   0.881  -3.199  1.00  0.00    -0.460 OA
BRANCH   5   6
ATOM      6  C   UNL     1       4.163   2.115  -2.694  1.00  0.00     0.338 C 
ATOM      7  O   UNL     1       4.893   2.744  -1.941  1.00  0.00    -0.246 OA
BRANCH   6   8
ATOM      8  C   UNL     1       2.889   2.707  -3.158  1.00  0.00     0.087 C 
ATOM      9  C   UNL     1       0.446   2.658  -0.406  1.00  0.00     0.012 A 
ATOM     10  C   UNL     1       0.256   3.540   0.695  1.00  0.00     0.049 A 
ATOM     11  C   UNL     1       1.262   3.128  -1.479  1.00  0.00     0.027 A 
ATOM     12  Cl  UNL     1      -0.623   3.072   2.119  1.00  0.00    -0.084 Cl
ATOM     13  C   UNL     1       0.783   4.837   0.708  1.00  0.00     0.025 A 
ATOM     14  C   UNL     1       1.753   4.457  -1.453  1.00  0.00     0.128 A 
ATOM     15  C   UNL     1       1.811   2.224  -2.519  1.00  0.00     0.028 C 
ATOM     16  C   UNL     1       1.510   5.301  -0.375  1.00  0.00     0.049 A 
ATOM     17  O   UNL     1       2.535   5.024  -2.427  1.00  0.00    -0.475 OA
ATOM     18  C   UNL     1       3.018   4.165  -3.473  1.00  0.00     0.316 C 
BRANCH   9  19
ATOM     19  C   UNL     1      -0.274   1.345  -0.438  1.00  0.00    -0.013 A 
ATOM     20  C   UNL     1       1.802  -0.180  -0.268  1.00  0.00     0.045 C 
ATOM     21  C   UNL     1       0.326   0.066  -0.376  1.00  0.00    -0.043 A 
ATOM     22  C   UNL     1      -0.478  -1.094  -0.393  1.00  0.00     0.004 A 
ATOM     23  C   UNL     1      -1.865  -1.012  -0.425  1.00  0.00     0.000 A 
ATOM     24  C   UNL     1      -1.688   1.388  -0.489  1.00  0.00     0.009 A 
ATOM     25  C   UNL     1      -2.473   0.233  -0.462  1.00  0.00     0.001 A 
ENDBRANCH   9  19
BRANCH  18  26
ATOM     26  C   UNL     1       2.321   4.482  -4.800  1.00  0.00     0.430 C 
ATOM     27  F   UNL     1       2.590   5.743  -5.216  1.00  0.00    -0.167 F 
ATOM     28  F   UNL     1       2.740   3.654  -5.792  1.00  0.00    -0.167 F 
ATOM     29  F   UNL     1       0.974   4.362  -4.729  1.00  0.00    -0.167 F 
ENDBRANCH  18  26
ENDBRANCH   6   8
ENDBRANCH   5   6
ENDBRANCH   4   5
ENDBRANCH   3   4
ENDBRANCH   2   3
ENDBRANCH   1   2
BRANCH   1  30
ATOM     30  C   UNL     1       9.000   1.958  -5.299  1.00  0.00     0.261 C 
BRANCH  30  31
ATOM     31  O   UNL     1       9.956   2.632  -4.460  1.00  0.00    -0.460 OA
BRANCH  31  32
ATOM     32  C   UNL     1      10.506   1.852  -3.489  1.00  0.00     0.338 C 
ATOM     33  O   UNL     1      11.513   1.180  -3.648  1.00  0.00    -0.246 OA
BRANCH  32  34
ATOM     34  C   UNL     1       9.776   2.024  -2.210  1.00  0.00     0.060 A 
ATOM     35  C   UNL     1       9.821   1.040  -1.212  1.00  0.00     0.016 A 
ATOM     36  C   UNL     1       8.962   3.145  -2.050  1.00  0.00     0.016 A 
ATOM     37  C   UNL     1       8.992   1.146  -0.085  1.00  0.00     0.010 A 
ATOM     38  C   UNL     1       8.097   3.207  -0.981  1.00  0.00     0.010 A 
ATOM     39  C   UNL     1       8.111   2.222   0.014  1.00  0.00    -0.014 A 
BRANCH  39  40
ATOM     40  C   UNL     1       7.117   2.434   1.064  1.00  0.00     0.031 A 
ATOM     41  C   UNL     1       7.192   3.633   1.938  1.00  0.00     0.074 A 
ATOM     42  C   UNL     1       5.967   1.729   1.037  1.00  0.00     0.049 A 
ATOM     43  N   UNL     1       6.430   3.841   2.959  1.00  0.00    -0.248 NA
ATOM     44  C   UNL     1       8.168   4.702   1.749  1.00  0.00     0.031 C 
ATOM     45  C   UNL     1       4.684   2.129   1.595  1.00  0.00     0.029 A 
ATOM     46  N   UNL     1       5.775   0.409   0.649  1.00  0.00    -0.354 N 
ATOM     47  C   UNL     1       6.522   5.175   3.278  1.00  0.00     0.074 A 
ATOM     48  C   UNL     1       7.710   5.629   2.596  1.00  0.00     0.031 C 
ATOM     49  C   UNL     1       3.935   1.038   1.787  1.00  0.00     0.029 A 
ATOM     50  C   UNL     1       4.739  -0.115   1.420  1.00  0.00     0.049 A 
ATOM     51  H   UNL     1       6.281  -0.070  -0.047  1.00  0.00     0.167 HD
ATOM     52  C   UNL     1       5.485   5.771   3.939  1.00  0.00     0.031 A 
ATOM     53  C   UNL     1       4.878  -1.261   2.136  1.00  0.00     0.031 A 
ATOM     54  C   UNL     1       4.464   4.788   4.338  1.00  0.00     0.049 A 
ATOM     55  C   UNL     1       4.609  -0.949   3.575  1.00  0.00     0.074 A 
ATOM     56  C   UNL     1       3.169   4.543   3.911  1.00  0.00     0.029 A 
ATOM     57  N   UNL     1       4.825   3.692   5.129  1.00  0.00    -0.354 N 
ATOM     58  N   UNL     1       4.854   0.229   4.087  1.00  0.00    -0.248 NA
ATOM     59  C   UNL     1       3.889  -1.832   4.485  1.00  0.00     0.031 C 
ATOM     60  C   UNL     1       2.790   3.253   4.374  1.00  0.00     0.029 A 
ATOM     61  C   UNL     1       3.840   2.724   5.110  1.00  0.00     0.049 A 
ATOM     62  H   UNL     1       5.669   3.621   5.631  1.00  0.00     0.167 HD
ATOM     63  C   UNL     1       4.179   0.332   5.265  1.00  0.00     0.074 A 
ATOM     64  C   UNL     1       3.668  -1.007   5.524  1.00  0.00     0.031 C 
ATOM     65  C   UNL     1       3.945   1.510   5.908  1.00  0.00     0.031 A 
BRANCH  52  66
ATOM     66  C   UNL     1       5.256   7.278   3.990  1.00  0.00    -0.014 A 
ATOM     67  C   UNL     1       3.985   7.793   4.330  1.00  0.00     0.010 A 
ATOM     68  C   UNL     1       6.229   8.245   3.671  1.00  0.00     0.010 A 
ATOM     69  C   UNL     1       3.694   9.171   4.296  1.00  0.00     0.020 A 
ATOM     70  C   UNL     1       5.953   9.621   3.615  1.00  0.00     0.020 A 
ATOM     71  C   UNL     1       4.681  10.079   3.924  1.00  0.00     0.054 A 
BRANCH  71  72
ATOM     72  S   UNL     1       4.300  11.850   3.869  1.00  0.00     0.124 S 
ATOM     73  O   UNL     1       3.231  11.911   2.876  1.00  0.00    -0.237 OA
ATOM     74  O   UNL     1       3.901  12.130   5.245  1.00  0.00    -0.237 OA
ATOM     75  O   UNL     1       5.561  12.464   3.455  1.00  0.00    -0.744 OA
ENDBRANCH  71  72
ENDBRANCH  52  66
BRANCH  53  76
ATOM     76  C   UNL     1       5.804  -2.246   1.508  1.00  0.00    -0.014 A 
ATOM     77  C   UNL     1       5.296  -2.920   0.371  1.00  0.00     0.010 A 
ATOM     78  C   UNL     1       7.199  -2.119   1.640  1.00  0.00     0.010 A 
ATOM     79  C   UNL     1       6.137  -3.283  -0.686  1.00  0.00     0.020 A 
ATOM     80  C   UNL     1       8.047  -2.487   0.578  1.00  0.00     0.020 A 
ATOM     81  C   UNL     1       7.502  -3.008  -0.601  1.00  0.00     0.054 A 
BRANCH  81  82
ATOM     82  S   UNL     1       8.486  -3.083  -2.133  1.00  0.00     0.124 S 
ATOM     83  O   UNL     1       8.696  -4.517  -2.299  1.00  0.00    -0.237 OA
ATOM     84  O   UNL     1       7.593  -2.460  -3.111  1.00  0.00    -0.237 OA
ATOM     85  O   UNL     1       9.676  -2.300  -1.816  1.00  0.00    -0.744 OA
ENDBRANCH  81  82
ENDBRANCH  53  76
BRANCH  65  86
ATOM     86  C   UNL     1       3.655   1.576   7.375  1.00  0.00    -0.014 A 
ATOM     87  C   UNL     1       4.093   0.577   8.261  1.00  0.00     0.010 A 
ATOM     88  C   UNL     1       3.120   2.758   7.928  1.00  0.00     0.010 A 
ATOM     89  C   UNL     1       3.961   0.729   9.640  1.00  0.00     0.020 A 
ATOM     90  C   UNL     1       3.022   2.937   9.307  1.00  0.00     0.020 A 
ATOM     91  C   UNL     1       3.430   1.911  10.155  1.00  0.00     0.054 A 
BRANCH  91  92
ATOM     92  S   UNL     1       3.365   2.131  11.946  1.00  0.00     0.124 S 
ATOM     93  O   UNL     1       2.117   1.452  12.284  1.00  0.00    -0.237 OA
ATOM     94  O   UNL     1       4.584   1.463  12.400  1.00  0.00    -0.237 OA
ATOM     95  O   UNL     1       3.359   3.581  12.115  1.00  0.00    -0.744 OA
ENDBRANCH  91  92
ENDBRANCH  65  86
ENDBRANCH  39  40
ENDBRANCH  32  34
ENDBRANCH  31  32
ENDBRANCH  30  31
ENDBRANCH   1  30
TORSDOF 19
