REMARK SMILES COc1cc2c(cc1OC)C1=C(C#N)C[N@H+](CC(=O)OCCOCCOC(=O)c3ccc(-c4c5nc(c(-c6ccc(S(=O)(=O)[O-])cc6)c6ccc([nH]6)c(-c6ccc(S(=O)(=O)[O-])cc6)c6nc(c(-c7ccc(S(=O)(=O)[O-])cc7)c7ccc4[nH]7)C=C6)C=C5)cc3)CN1CC2
REMARK SMILES IDX 24 1 23 2 22 3 21 4 20 5 18 6 19 7 17 8 16 9 3 10 4 11 8 12
REMARK SMILES IDX 5 13 7 14 6 15 92 16 11 17 91 18 12 19 90 20 15 21 89 22
REMARK SMILES IDX 2 24 1 25 9 26 10 27 13 28 14 29 25 30 26 31 27 32 28 33
REMARK SMILES IDX 29 34 30 35 88 36 31 37 87 38 32 39 33 40 34 41 81 42 35 43
REMARK SMILES IDX 86 44 80 45 82 46 36 47 85 48 79 49 78 50 37 52 67 53 48 54
REMARK SMILES IDX 66 55 49 56 52 57 65 58 83 59 50 60 51 61 64 63 84 64 53 65
REMARK SMILES IDX 38 66 39 67 47 68 40 69 46 70 41 71 42 72 43 73 44 74 45 75
REMARK SMILES IDX 68 76 69 77 77 78 70 79 76 80 71 81 72 82 73 83 74 84 75 85
REMARK SMILES IDX 54 86 55 87 63 88 56 89 62 90 57 91 58 92 59 93 60 94 61 95
REMARK H PARENT 16 23 82 51 52 62
REMARK Flexibility Score: inf
ROOT
ATOM      1  C   UNL     1       4.529  -7.241   2.458  1.00  0.00     0.202 C 
ENDROOT
BRANCH   1   2
ATOM      2  O   UNL     1       4.169  -8.187   1.460  1.00  0.00    -0.374 OA
BRANCH   2   3
ATOM      3  C   UNL     1       2.786  -8.330   1.156  1.00  0.00     0.202 C 
BRANCH   3   4
ATOM      4  C   UNL     1       1.863  -8.915   2.236  1.00  0.00     0.261 C 
BRANCH   4   5
ATOM      5  O   UNL     1       1.955  -8.247   3.504  1.00  0.00    -0.459 OA
BRANCH   5   6
ATOM      6  C   UNL     1       2.536  -8.932   4.534  1.00  0.00     0.361 C 
ATOM      7  O   UNL     1       2.898 -10.102   4.479  1.00  0.00    -0.245 OA
BRANCH   6   8
ATOM      8  C   UNL     1       2.786  -8.056   5.780  1.00  0.00     0.388 C 
BRANCH   8   9
ATOM      9  N   UNL     1       2.465  -6.654   5.521  1.00  0.00    -0.304 N 
ATOM     10  C   UNL     1       1.067  -0.570   2.617  1.00  0.00     0.161 A 
ATOM     11  C   UNL     1       2.341  -1.113   2.799  1.00  0.00     0.055 A 
ATOM     12  C   UNL     1       0.046  -0.939   3.500  1.00  0.00     0.161 A 
ATOM     13  C   UNL     1       2.578  -2.092   3.782  1.00  0.00    -0.033 A 
ATOM     14  C   UNL     1       0.293  -1.933   4.473  1.00  0.00     0.061 A 
ATOM     15  C   UNL     1       1.517  -2.613   4.551  1.00  0.00     0.006 A 
ATOM     16  C   UNL     1       3.976  -2.621   3.944  1.00  0.00     0.058 C 
ATOM     17  C   UNL     1       1.714  -3.944   5.239  1.00  0.00     0.068 C 
ATOM     18  C   UNL     1       4.160  -3.356   5.276  1.00  0.00     0.127 C 
ATOM     19  C   UNL     1       0.745  -4.885   5.422  1.00  0.00     0.108 C 
ATOM     20  N   UNL     1       3.058  -4.287   5.519  1.00  0.00    -0.323 N 
ATOM     21  C   UNL     1       1.106  -6.280   5.897  1.00  0.00     0.314 C 
ATOM     22  C   UNL     1       3.381  -5.637   5.993  1.00  0.00     0.390 C 
ATOM     23  H   UNL     1       2.572  -6.654   4.507  1.00  0.00     0.350 HD
BRANCH  10  24
ATOM     24  O   UNL     1       0.871   0.390   1.661  1.00  0.00    -0.493 OA
ATOM     25  C   UNL     1       1.232  -0.021   0.340  1.00  0.00     0.278 C 
ENDBRANCH  10  24
BRANCH  12  26
ATOM     26  O   UNL     1      -1.250  -0.498   3.530  1.00  0.00    -0.493 OA
ATOM     27  C   UNL     1      -1.727   0.292   2.450  1.00  0.00     0.278 C 
ENDBRANCH  12  26
BRANCH  19  28
ATOM     28  C   UNL     1      -0.629  -4.746   5.086  1.00  0.00     0.103 C 
ATOM     29  N   UNL     1      -1.767  -4.715   4.844  1.00  0.00    -0.192 NA
ENDBRANCH  19  28
ENDBRANCH   8   9
ENDBRANCH   6   8
ENDBRANCH   5   6
ENDBRANCH   4   5
ENDBRANCH   3   4
ENDBRANCH   2   3
ENDBRANCH   1   2
BRANCH   1  30
ATOM     30  C   UNL     1       4.112  -5.781   2.268  1.00  0.00     0.261 C 
BRANCH  30  31
ATOM     31  O   UNL     1       2.699  -5.562   2.109  1.00  0.00    -0.460 OA
BRANCH  31  32
ATOM     32  C   UNL     1       2.329  -4.922   0.967  1.00  0.00     0.338 C 
ATOM     33  O   UNL     1       3.068  -4.482   0.102  1.00  0.00    -0.246 OA
BRANCH  32  34
ATOM     34  C   UNL     1       0.857  -4.902   0.838  1.00  0.00     0.060 A 
ATOM     35  C   UNL     1       0.110  -4.142   1.724  1.00  0.00     0.016 A 
ATOM     36  C   UNL     1       0.214  -5.535  -0.225  1.00  0.00     0.016 A 
ATOM     37  C   UNL     1      -1.266  -3.994   1.574  1.00  0.00     0.010 A 
ATOM     38  C   UNL     1      -1.172  -5.383  -0.392  1.00  0.00     0.010 A 
ATOM     39  C   UNL     1      -1.923  -4.596   0.500  1.00  0.00    -0.014 A 
BRANCH  39  40
ATOM     40  C   UNL     1      -3.386  -4.386   0.329  1.00  0.00     0.031 A 
ATOM     41  C   UNL     1      -4.339  -5.520   0.555  1.00  0.00     0.074 A 
ATOM     42  C   UNL     1      -3.862  -3.163   0.016  1.00  0.00     0.049 A 
ATOM     43  N   UNL     1      -5.634  -5.550   0.387  1.00  0.00    -0.248 NA
ATOM     44  C   UNL     1      -3.760  -6.792   1.017  1.00  0.00     0.031 C 
ATOM     45  C   UNL     1      -3.035  -1.971  -0.163  1.00  0.00     0.029 A 
ATOM     46  N   UNL     1      -5.145  -2.704  -0.175  1.00  0.00    -0.354 N 
ATOM     47  C   UNL     1      -6.024  -6.848   0.689  1.00  0.00     0.074 A 
ATOM     48  C   UNL     1      -4.824  -7.583   1.028  1.00  0.00     0.031 C 
ATOM     49  C   UNL     1      -3.829  -0.910  -0.371  1.00  0.00     0.029 A 
ATOM     50  C   UNL     1      -5.219  -1.353  -0.434  1.00  0.00     0.049 A 
ATOM     51  H   UNL     1      -5.936  -3.287  -0.131  1.00  0.00     0.167 HD
ATOM     52  C   UNL     1      -7.272  -7.370   0.684  1.00  0.00     0.031 A 
ATOM     53  C   UNL     1      -6.277  -0.558  -0.710  1.00  0.00     0.031 A 
ATOM     54  C   UNL     1      -8.458  -6.611   0.376  1.00  0.00     0.049 A 
ATOM     55  C   UNL     1      -7.649  -1.177  -0.765  1.00  0.00     0.074 A 
ATOM     56  C   UNL     1      -9.769  -7.055   0.349  1.00  0.00     0.029 A 
ATOM     57  N   UNL     1      -8.488  -5.261   0.056  1.00  0.00    -0.354 N 
ATOM     58  N   UNL     1      -8.001  -2.413  -0.502  1.00  0.00    -0.248 NA
ATOM     59  C   UNL     1      -8.764  -0.308  -1.166  1.00  0.00     0.031 C 
ATOM     60  C   UNL     1     -10.576  -6.002  -0.082  1.00  0.00     0.029 A 
ATOM     61  C   UNL     1      -9.789  -4.868  -0.216  1.00  0.00     0.049 A 
ATOM     62  H   UNL     1      -7.701  -4.669   0.026  1.00  0.00     0.167 HD
ATOM     63  C   UNL     1      -9.377  -2.468  -0.691  1.00  0.00     0.074 A 
ATOM     64  C   UNL     1      -9.800  -1.133  -1.064  1.00  0.00     0.031 C 
ATOM     65  C   UNL     1     -10.208  -3.533  -0.577  1.00  0.00     0.031 A 
BRANCH  52  66
ATOM     66  C   UNL     1      -7.438  -8.838   0.991  1.00  0.00    -0.014 A 
ATOM     67  C   UNL     1      -7.949  -9.694  -0.003  1.00  0.00     0.010 A 
ATOM     68  C   UNL     1      -7.210  -9.351   2.280  1.00  0.00     0.010 A 
ATOM     69  C   UNL     1      -8.278 -11.017   0.296  1.00  0.00     0.020 A 
ATOM     70  C   UNL     1      -7.499 -10.688   2.573  1.00  0.00     0.020 A 
ATOM     71  C   UNL     1      -8.061 -11.503   1.587  1.00  0.00     0.054 A 
BRANCH  71  72
ATOM     72  S   UNL     1      -8.550 -13.207   1.968  1.00  0.00     0.124 S 
ATOM     73  O   UNL     1     -10.007 -13.122   1.947  1.00  0.00    -0.237 OA
ATOM     74  O   UNL     1      -7.946 -13.963   0.873  1.00  0.00    -0.237 OA
ATOM     75  O   UNL     1      -7.957 -13.449   3.281  1.00  0.00    -0.744 OA
ENDBRANCH  71  72
ENDBRANCH  52  66
BRANCH  53  76
ATOM     76  C   UNL     1      -6.064   0.903  -0.947  1.00  0.00    -0.014 A 
ATOM     77  C   UNL     1      -5.249   1.347  -2.008  1.00  0.00     0.010 A 
ATOM     78  C   UNL     1      -6.600   1.861  -0.066  1.00  0.00     0.010 A 
ATOM     79  C   UNL     1      -4.898   2.695  -2.127  1.00  0.00     0.020 A 
ATOM     80  C   UNL     1      -6.289   3.219  -0.209  1.00  0.00     0.020 A 
ATOM     81  C   UNL     1      -5.406   3.620  -1.213  1.00  0.00     0.054 A 
BRANCH  81  82
ATOM     82  S   UNL     1      -4.853   5.345  -1.333  1.00  0.00     0.124 S 
ATOM     83  O   UNL     1      -3.461   5.242  -0.904  1.00  0.00    -0.237 OA
ATOM     84  O   UNL     1      -5.055   5.645  -2.748  1.00  0.00    -0.237 OA
ATOM     85  O   UNL     1      -5.738   6.055  -0.414  1.00  0.00    -0.744 OA
ENDBRANCH  81  82
ENDBRANCH  53  76
BRANCH  65  86
ATOM     86  C   UNL     1     -11.681  -3.334  -0.852  1.00  0.00    -0.014 A 
ATOM     87  C   UNL     1     -12.618  -3.564   0.174  1.00  0.00     0.010 A 
ATOM     88  C   UNL     1     -12.147  -3.092  -2.157  1.00  0.00     0.010 A 
ATOM     89  C   UNL     1     -13.984  -3.622  -0.109  1.00  0.00     0.020 A 
ATOM     90  C   UNL     1     -13.517  -3.107  -2.436  1.00  0.00     0.020 A 
ATOM     91  C   UNL     1     -14.424  -3.407  -1.417  1.00  0.00     0.054 A 
BRANCH  91  92
ATOM     92  S   UNL     1     -16.195  -3.564  -1.776  1.00  0.00     0.124 S 
ATOM     93  O   UNL     1     -16.410  -5.003  -1.647  1.00  0.00    -0.237 OA
ATOM     94  O   UNL     1     -16.806  -2.740  -0.736  1.00  0.00    -0.237 OA
ATOM     95  O   UNL     1     -16.320  -3.036  -3.133  1.00  0.00    -0.744 OA
ENDBRANCH  91  92
ENDBRANCH  65  86
ENDBRANCH  39  40
ENDBRANCH  32  34
ENDBRANCH  31  32
ENDBRANCH  30  31
ENDBRANCH   1  30
TORSDOF 21
