REMARK SMILES O=C(OCCOCCOC(=O)c1ccccc1/N=C/c1coc2ccccc2c1=O)c1ccc(-c2c3nc(c(-c4ccc(S(=O)(=O)[O-])cc4)c4ccc([nH]4)c(-c4ccc(S(=O)(=O)[O-])cc4)c4nc(c(-c5ccc(S(=O)(=O)[O-])cc5)c5ccc2[nH]5)C=C4)C=C3)cc1
REMARK SMILES IDX 5 1 4 2 3 3 2 4 1 5 31 6 32 7 90 8 33 9 89 10 34 11 35 12
REMARK SMILES IDX 36 13 83 14 37 15 88 16 82 17 84 18 38 19 87 20 81 21 80 22
REMARK SMILES IDX 39 24 69 25 50 26 68 27 51 28 54 29 67 30 85 31 52 32 53 33
REMARK SMILES IDX 66 35 86 36 55 37 40 38 41 39 49 40 42 41 48 42 43 43 44 44
REMARK SMILES IDX 45 45 46 46 47 47 70 48 71 49 79 50 72 51 78 52 73 53 74 54
REMARK SMILES IDX 75 55 76 56 77 57 56 58 57 59 65 60 58 61 64 62 59 63 60 64
REMARK SMILES IDX 61 65 62 66 63 67 6 68 7 69 8 70 9 71 10 72 11 73 12 74
REMARK SMILES IDX 13 75 17 76 14 77 16 78 15 79 18 80 19 81 20 82 21 83 29 84
REMARK SMILES IDX 22 85 28 86 30 87 23 88 27 89 24 90 26 91 25 92
REMARK H PARENT 84 23 54 34
REMARK Flexibility Score: inf
ROOT
ATOM      1  C   UNL     1       4.409  -0.832  -1.119  1.00  0.00     0.202 C 
ENDROOT
BRANCH   1   2
ATOM      2  C   UNL     1       3.976  -1.492   0.191  1.00  0.00     0.261 C 
BRANCH   2   3
ATOM      3  O   UNL     1       2.583  -1.248   0.447  1.00  0.00    -0.460 OA
BRANCH   3   4
ATOM      4  C   UNL     1       2.037  -0.326   1.279  1.00  0.00     0.338 C 
ATOM      5  O   UNL     1       0.814  -0.290   1.397  1.00  0.00    -0.246 OA
BRANCH   4   6
ATOM      6  C   UNL     1       2.843   0.658   2.064  1.00  0.00     0.060 A 
ATOM      7  C   UNL     1       4.088   1.147   1.672  1.00  0.00     0.016 A 
ATOM      8  C   UNL     1       2.277   1.186   3.234  1.00  0.00     0.016 A 
ATOM      9  C   UNL     1       4.777   2.087   2.400  1.00  0.00     0.010 A 
ATOM     10  C   UNL     1       2.965   2.142   3.991  1.00  0.00     0.010 A 
ATOM     11  C   UNL     1       4.229   2.573   3.573  1.00  0.00    -0.014 A 
BRANCH  11  12
ATOM     12  C   UNL     1       5.155   3.337   4.414  1.00  0.00     0.031 A 
ATOM     13  C   UNL     1       5.821   2.595   5.530  1.00  0.00     0.074 A 
ATOM     14  C   UNL     1       5.564   4.551   4.004  1.00  0.00     0.049 A 
ATOM     15  N   UNL     1       6.689   3.020   6.401  1.00  0.00    -0.248 NA
ATOM     16  C   UNL     1       5.481   1.164   5.666  1.00  0.00     0.031 C 
ATOM     17  C   UNL     1       5.112   5.227   2.780  1.00  0.00     0.029 A 
ATOM     18  N   UNL     1       6.495   5.402   4.526  1.00  0.00    -0.354 N 
ATOM     19  C   UNL     1       6.954   1.931   7.222  1.00  0.00     0.074 A 
ATOM     20  C   UNL     1       6.171   0.819   6.740  1.00  0.00     0.031 C 
ATOM     21  C   UNL     1       5.790   6.377   2.638  1.00  0.00     0.029 A 
ATOM     22  C   UNL     1       6.655   6.555   3.796  1.00  0.00     0.049 A 
ATOM     23  H   UNL     1       7.003   5.208   5.347  1.00  0.00     0.167 HD
ATOM     24  C   UNL     1       7.767   1.888   8.299  1.00  0.00     0.031 A 
ATOM     25  C   UNL     1       7.394   7.644   4.072  1.00  0.00     0.031 A 
ATOM     26  C   UNL     1       8.520   3.030   8.735  1.00  0.00     0.049 A 
ATOM     27  C   UNL     1       8.192   7.617   5.348  1.00  0.00     0.074 A 
ATOM     28  C   UNL     1       9.314   3.170   9.854  1.00  0.00     0.029 A 
ATOM     29  N   UNL     1       8.566   4.239   8.048  1.00  0.00    -0.354 N 
ATOM     30  N   UNL     1       8.345   6.628   6.200  1.00  0.00    -0.248 NA
ATOM     31  C   UNL     1       8.903   8.846   5.709  1.00  0.00     0.031 C 
ATOM     32  C   UNL     1       9.789   4.486   9.877  1.00  0.00     0.029 A 
ATOM     33  C   UNL     1       9.356   5.140   8.730  1.00  0.00     0.049 A 
ATOM     34  H   UNL     1       8.102   4.423   7.200  1.00  0.00     0.167 HD
ATOM     35  C   UNL     1       9.195   7.105   7.188  1.00  0.00     0.074 A 
ATOM     36  C   UNL     1       9.533   8.467   6.813  1.00  0.00     0.031 C 
ATOM     37  C   UNL     1       9.660   6.485   8.302  1.00  0.00     0.031 A 
BRANCH  24  38
ATOM     38  C   UNL     1       7.758   0.624   9.114  1.00  0.00    -0.014 A 
ATOM     39  C   UNL     1       8.319  -0.577   8.644  1.00  0.00     0.010 A 
ATOM     40  C   UNL     1       7.113   0.633  10.364  1.00  0.00     0.010 A 
ATOM     41  C   UNL     1       8.195  -1.754   9.390  1.00  0.00     0.020 A 
ATOM     42  C   UNL     1       7.012  -0.533  11.126  1.00  0.00     0.020 A 
ATOM     43  C   UNL     1       7.538  -1.724  10.625  1.00  0.00     0.054 A 
BRANCH  43  44
ATOM     44  S   UNL     1       7.394  -3.262  11.576  1.00  0.00     0.124 S 
ATOM     45  O   UNL     1       6.417  -4.013  10.791  1.00  0.00    -0.237 OA
ATOM     46  O   UNL     1       8.758  -3.785  11.546  1.00  0.00    -0.237 OA
ATOM     47  O   UNL     1       6.929  -2.818  12.888  1.00  0.00    -0.744 OA
ENDBRANCH  43  44
ENDBRANCH  24  38
BRANCH  25  48
ATOM     48  C   UNL     1       7.351   8.843   3.186  1.00  0.00    -0.014 A 
ATOM     49  C   UNL     1       8.503   9.306   2.528  1.00  0.00     0.010 A 
ATOM     50  C   UNL     1       6.142   9.544   3.005  1.00  0.00     0.010 A 
ATOM     51  C   UNL     1       8.453  10.456   1.730  1.00  0.00     0.020 A 
ATOM     52  C   UNL     1       6.079  10.674   2.183  1.00  0.00     0.020 A 
ATOM     53  C   UNL     1       7.241  11.133   1.563  1.00  0.00     0.054 A 
BRANCH  53  54
ATOM     54  S   UNL     1       7.196  12.611   0.511  1.00  0.00     0.124 S 
ATOM     55  O   UNL     1       7.937  13.579   1.314  1.00  0.00    -0.237 OA
ATOM     56  O   UNL     1       7.864  12.153  -0.705  1.00  0.00    -0.237 OA
ATOM     57  O   UNL     1       5.768  12.884   0.363  1.00  0.00    -0.744 OA
ENDBRANCH  53  54
ENDBRANCH  25  48
BRANCH  37  58
ATOM     58  C   UNL     1      10.629   7.259   9.148  1.00  0.00    -0.014 A 
ATOM     59  C   UNL     1      10.213   8.350   9.928  1.00  0.00     0.010 A 
ATOM     60  C   UNL     1      11.970   6.839   9.198  1.00  0.00     0.010 A 
ATOM     61  C   UNL     1      11.137   9.037  10.715  1.00  0.00     0.020 A 
ATOM     62  C   UNL     1      12.887   7.500  10.012  1.00  0.00     0.020 A 
ATOM     63  C   UNL     1      12.468   8.607  10.751  1.00  0.00     0.054 A 
BRANCH  63  64
ATOM     64  S   UNL     1      13.641   9.492  11.810  1.00  0.00     0.124 S 
ATOM     65  O   UNL     1      13.842  10.732  11.066  1.00  0.00    -0.237 OA
ATOM     66  O   UNL     1      12.903   9.622  13.064  1.00  0.00    -0.237 OA
ATOM     67  O   UNL     1      14.798   8.601  11.864  1.00  0.00    -0.744 OA
ENDBRANCH  63  64
ENDBRANCH  37  58
ENDBRANCH  11  12
ENDBRANCH   4   6
ENDBRANCH   3   4
ENDBRANCH   2   3
ENDBRANCH   1   2
BRANCH   1  68
ATOM     68  O   UNL     1       4.207   0.575  -1.141  1.00  0.00    -0.374 OA
BRANCH  68  69
ATOM     69  C   UNL     1       2.913   1.037  -1.535  1.00  0.00     0.202 C 
BRANCH  69  70
ATOM     70  C   UNL     1       3.133   2.019  -2.665  1.00  0.00     0.261 C 
BRANCH  70  71
ATOM     71  O   UNL     1       3.894   1.318  -3.656  1.00  0.00    -0.460 OA
BRANCH  71  72
ATOM     72  C   UNL     1       5.241   1.502  -3.611  1.00  0.00     0.340 C 
ATOM     73  O   UNL     1       5.873   2.277  -2.932  1.00  0.00    -0.246 OA
BRANCH  72  74
ATOM     74  C   UNL     1       5.849   0.517  -4.514  1.00  0.00     0.085 A 
ATOM     75  C   UNL     1       6.709  -0.421  -3.912  1.00  0.00     0.018 A 
ATOM     76  C   UNL     1       5.512   0.436  -5.873  1.00  0.00     0.077 A 
ATOM     77  C   UNL     1       7.204  -1.492  -4.649  1.00  0.00     0.001 A 
ATOM     78  C   UNL     1       6.091  -0.613  -6.607  1.00  0.00     0.029 A 
ATOM     79  C   UNL     1       6.907  -1.579  -6.004  1.00  0.00     0.002 A 
BRANCH  76  80
ATOM     80  N   UNL     1       4.408   1.050  -6.490  1.00  0.00    -0.255 NA
ATOM     81  C   UNL     1       3.871   2.176  -6.150  1.00  0.00     0.127 C 
BRANCH  81  82
ATOM     82  C   UNL     1       2.368   2.378  -6.276  1.00  0.00     0.076 A 
ATOM     83  C   UNL     1       1.931   2.534  -7.541  1.00  0.00     0.209 A 
ATOM     84  C   UNL     1       1.567   1.198  -5.755  1.00  0.00     0.201 A 
ATOM     85  O   UNL     1       1.904   1.456  -8.457  1.00  0.00    -0.463 OA
ATOM     86  C   UNL     1       1.810  -0.026  -6.542  1.00  0.00     0.065 A 
ATOM     87  O   UNL     1       0.811   1.244  -4.797  1.00  0.00    -0.288 OA
ATOM     88  C   UNL     1       2.062   0.196  -7.903  1.00  0.00     0.137 A 
ATOM     89  C   UNL     1       2.120  -1.240  -5.928  1.00  0.00     0.016 A 
ATOM     90  C   UNL     1       2.638  -0.803  -8.673  1.00  0.00     0.048 A 
ATOM     91  C   UNL     1       2.741  -2.226  -6.697  1.00  0.00     0.001 A 
ATOM     92  C   UNL     1       3.002  -2.006  -8.059  1.00  0.00     0.004 A 
ENDBRANCH  81  82
ENDBRANCH  76  80
ENDBRANCH  72  74
ENDBRANCH  71  72
ENDBRANCH  70  71
ENDBRANCH  69  70
ENDBRANCH  68  69
ENDBRANCH   1  68
TORSDOF 19
