REMARK SMILES C[C@@H]1C(=O)NC(=O)CN1C(=O)NC1(CC(=O)OCCOCCOC(=O)c2ccc(-c3c4nc(c(-c5ccc(S(=O)(=O)[O-])cc5)c5ccc([nH]5)c(-c5ccc(S(=O)(=O)[O-])cc5)c5nc(c(-c6ccc(S(=O)(=O)[O-])cc6)c6ccc3[nH]6)C=C5)C=C4)cc2)CCC1
REMARK SMILES IDX 20 1 19 2 18 3 17 4 15 5 16 6 14 7 13 8 86 9 88 10 87 11
REMARK SMILES IDX 12 12 10 13 11 14 9 16 1 17 2 18 3 19 4 20 5 21 8 22 6 23
REMARK SMILES IDX 7 25 21 26 22 27 23 28 24 29 25 30 26 31 27 32 85 33 28 34
REMARK SMILES IDX 84 35 29 36 30 37 31 38 78 39 32 40 83 41 77 42 79 43 33 44
REMARK SMILES IDX 82 45 76 46 75 47 34 49 64 50 45 51 63 52 46 53 49 54 62 55
REMARK SMILES IDX 80 56 47 57 48 58 61 60 81 61 50 62 35 63 36 64 44 65 37 66
REMARK SMILES IDX 43 67 38 68 39 69 40 70 41 71 42 72 65 73 66 74 74 75 67 76
REMARK SMILES IDX 73 77 68 78 69 79 70 80 71 81 72 82 51 83 52 84 60 85 53 86
REMARK SMILES IDX 59 87 54 88 55 89 56 90 57 91 58 92
REMARK H PARENT 12 15 5 24 79 48 49 59
REMARK Flexibility Score: inf
ROOT
ATOM      1  O   UNL     1      -6.069  -0.018  -3.331  1.00  0.00    -0.374 OA
ENDROOT
BRANCH   1   2
ATOM      2  C   UNL     1      -5.797  -1.312  -3.875  1.00  0.00     0.202 C 
BRANCH   2   3
ATOM      3  C   UNL     1      -4.819  -1.339  -5.056  1.00  0.00     0.261 C 
BRANCH   3   4
ATOM      4  O   UNL     1      -3.457  -1.111  -4.636  1.00  0.00    -0.463 OA
BRANCH   4   5
ATOM      5  C   UNL     1      -2.905   0.092  -4.930  1.00  0.00     0.308 C 
ATOM      6  O   UNL     1      -3.462   0.984  -5.557  1.00  0.00    -0.252 OA
BRANCH   5   7
ATOM      7  C   UNL     1      -1.478   0.206  -4.443  1.00  0.00     0.151 C 
BRANCH   7   8
ATOM      8  C   UNL     1      -1.151  -0.112  -2.951  1.00  0.00     0.052 C 
ATOM      9  C   UNL     1       0.276  -0.727  -2.858  1.00  0.00     0.029 C 
ATOM     10  C   UNL     1      -1.611  -1.495  -2.348  1.00  0.00     0.029 C 
ATOM     11  C   UNL     1      -0.379  -2.112  -3.044  1.00  0.00     0.005 C 
BRANCH   8  12
ATOM     12  N   UNL     1      -1.593   1.055  -2.138  1.00  0.00    -0.332 N 
ATOM     13  C   UNL     1      -1.390   1.800  -1.042  1.00  0.00     0.318 C 
ATOM     14  O   UNL     1      -2.372   2.506  -0.772  1.00  0.00    -0.249 OA
ATOM     15  H   UNL     1      -2.366   1.446  -2.605  1.00  0.00     0.165 HD
BRANCH  13  16
ATOM     16  N   UNL     1      -0.282   1.853  -0.267  1.00  0.00    -0.304 N 
ATOM     17  C   UNL     1       1.548   0.304   0.303  1.00  0.00     0.042 C 
ATOM     18  C   UNL     1       1.071   1.430  -0.615  1.00  0.00     0.174 C 
ATOM     19  C   UNL     1       2.082   2.585  -0.557  1.00  0.00     0.249 C 
ATOM     20  O   UNL     1       3.212   2.494  -1.038  1.00  0.00    -0.272 OA
ATOM     21  N   UNL     1       1.736   3.687   0.179  1.00  0.00    -0.293 N 
ATOM     22  C   UNL     1      -0.361   2.657   0.967  1.00  0.00     0.222 C 
ATOM     23  C   UNL     1       0.617   3.830   0.959  1.00  0.00     0.246 C 
ATOM     24  H   UNL     1       2.353   4.453   0.144  1.00  0.00     0.173 HD
ATOM     25  O   UNL     1       0.530   4.782   1.734  1.00  0.00    -0.273 OA
ENDBRANCH  13  16
ENDBRANCH   8  12
ENDBRANCH   7   8
ENDBRANCH   5   7
ENDBRANCH   4   5
ENDBRANCH   3   4
ENDBRANCH   2   3
ENDBRANCH   1   2
BRANCH   1  26
ATOM     26  C   UNL     1      -5.096   0.498  -2.425  1.00  0.00     0.202 C 
BRANCH  26  27
ATOM     27  C   UNL     1      -5.260   0.084  -0.960  1.00  0.00     0.261 C 
BRANCH  27  28
ATOM     28  O   UNL     1      -4.979  -1.317  -0.790  1.00  0.00    -0.460 OA
BRANCH  28  29
ATOM     29  C   UNL     1      -6.078  -2.086  -0.596  1.00  0.00     0.338 C 
ATOM     30  O   UNL     1      -7.226  -1.706  -0.451  1.00  0.00    -0.246 OA
BRANCH  29  31
ATOM     31  C   UNL     1      -5.731  -3.511  -0.769  1.00  0.00     0.060 A 
ATOM     32  C   UNL     1      -6.592  -4.279  -1.562  1.00  0.00     0.016 A 
ATOM     33  C   UNL     1      -4.637  -4.101  -0.130  1.00  0.00     0.016 A 
ATOM     34  C   UNL     1      -6.409  -5.654  -1.660  1.00  0.00     0.010 A 
ATOM     35  C   UNL     1      -4.455  -5.485  -0.229  1.00  0.00     0.010 A 
ATOM     36  C   UNL     1      -5.367  -6.272  -0.956  1.00  0.00    -0.014 A 
BRANCH  36  37
ATOM     37  C   UNL     1      -5.343  -7.751  -0.859  1.00  0.00     0.031 A 
ATOM     38  C   UNL     1      -5.853  -8.405   0.398  1.00  0.00     0.074 A 
ATOM     39  C   UNL     1      -4.933  -8.500  -1.898  1.00  0.00     0.049 A 
ATOM     40  N   UNL     1      -5.939  -9.676   0.693  1.00  0.00    -0.248 NA
ATOM     41  C   UNL     1      -6.329  -7.507   1.463  1.00  0.00     0.031 C 
ATOM     42  C   UNL     1      -4.465  -7.979  -3.183  1.00  0.00     0.029 A 
ATOM     43  N   UNL     1      -4.850  -9.862  -2.037  1.00  0.00    -0.354 N 
ATOM     44  C   UNL     1      -6.470  -9.731   1.977  1.00  0.00     0.074 A 
ATOM     45  C   UNL     1      -6.654  -8.366   2.418  1.00  0.00     0.031 C 
ATOM     46  C   UNL     1      -4.146  -9.012  -3.981  1.00  0.00     0.029 A 
ATOM     47  C   UNL     1      -4.353 -10.263  -3.254  1.00  0.00     0.049 A 
ATOM     48  H   UNL     1      -5.120 -10.493  -1.331  1.00  0.00     0.167 HD
ATOM     49  C   UNL     1      -6.782 -10.820   2.720  1.00  0.00     0.031 A 
ATOM     50  C   UNL     1      -4.082 -11.497  -3.722  1.00  0.00     0.031 A 
ATOM     51  C   UNL     1      -6.586 -12.175   2.278  1.00  0.00     0.049 A 
ATOM     52  C   UNL     1      -4.371 -12.691  -2.851  1.00  0.00     0.074 A 
ATOM     53  C   UNL     1      -6.881 -13.350   2.947  1.00  0.00     0.029 A 
ATOM     54  N   UNL     1      -6.038 -12.538   1.056  1.00  0.00    -0.354 N 
ATOM     55  N   UNL     1      -4.892 -12.727  -1.647  1.00  0.00    -0.248 NA
ATOM     56  C   UNL     1      -4.044 -14.012  -3.406  1.00  0.00     0.031 C 
ATOM     57  C   UNL     1      -6.455 -14.421   2.156  1.00  0.00     0.029 A 
ATOM     58  C   UNL     1      -5.957 -13.917   0.964  1.00  0.00     0.049 A 
ATOM     59  H   UNL     1      -5.749 -11.907   0.357  1.00  0.00     0.167 HD
ATOM     60  C   UNL     1      -4.981 -14.074  -1.312  1.00  0.00     0.074 A 
ATOM     61  C   UNL     1      -4.474 -14.820  -2.446  1.00  0.00     0.031 C 
ATOM     62  C   UNL     1      -5.444 -14.643  -0.171  1.00  0.00     0.031 A 
BRANCH  49  63
ATOM     63  C   UNL     1      -7.331 -10.587   4.104  1.00  0.00    -0.014 A 
ATOM     64  C   UNL     1      -8.621 -10.062   4.302  1.00  0.00     0.010 A 
ATOM     65  C   UNL     1      -6.553 -10.928   5.225  1.00  0.00     0.010 A 
ATOM     66  C   UNL     1      -9.106  -9.846   5.596  1.00  0.00     0.020 A 
ATOM     67  C   UNL     1      -7.045 -10.741   6.520  1.00  0.00     0.020 A 
ATOM     68  C   UNL     1      -8.313 -10.185   6.697  1.00  0.00     0.054 A 
BRANCH  68  69
ATOM     69  S   UNL     1      -8.974  -9.910   8.364  1.00  0.00     0.124 S 
ATOM     70  O   UNL     1      -8.930  -8.453   8.468  1.00  0.00    -0.237 OA
ATOM     71  O   UNL     1     -10.310 -10.493   8.278  1.00  0.00    -0.237 OA
ATOM     72  O   UNL     1      -8.040 -10.624   9.230  1.00  0.00    -0.744 OA
ENDBRANCH  68  69
ENDBRANCH  49  63
BRANCH  50  73
ATOM     73  C   UNL     1      -3.488 -11.662  -5.078  1.00  0.00    -0.014 A 
ATOM     74  C   UNL     1      -4.226 -12.240  -6.124  1.00  0.00     0.010 A 
ATOM     75  C   UNL     1      -2.174 -11.225  -5.330  1.00  0.00     0.010 A 
ATOM     76  C   UNL     1      -3.658 -12.390  -7.394  1.00  0.00     0.020 A 
ATOM     77  C   UNL     1      -1.613 -11.346  -6.604  1.00  0.00     0.020 A 
ATOM     78  C   UNL     1      -2.356 -11.937  -7.626  1.00  0.00     0.054 A 
BRANCH  78  79
ATOM     79  S   UNL     1      -1.661 -12.086  -9.296  1.00  0.00     0.124 S 
ATOM     80  O   UNL     1      -1.419 -13.521  -9.397  1.00  0.00    -0.237 OA
ATOM     81  O   UNL     1      -2.740 -11.564 -10.132  1.00  0.00    -0.237 OA
ATOM     82  O   UNL     1      -0.464 -11.249  -9.243  1.00  0.00    -0.744 OA
ENDBRANCH  78  79
ENDBRANCH  50  73
BRANCH  62  83
ATOM     83  C   UNL     1      -5.457 -16.148  -0.100  1.00  0.00    -0.014 A 
ATOM     84  C   UNL     1      -4.266 -16.884   0.024  1.00  0.00     0.010 A 
ATOM     85  C   UNL     1      -6.688 -16.830  -0.101  1.00  0.00     0.010 A 
ATOM     86  C   UNL     1      -4.304 -18.279   0.114  1.00  0.00     0.020 A 
ATOM     87  C   UNL     1      -6.731 -18.221   0.019  1.00  0.00     0.020 A 
ATOM     88  C   UNL     1      -5.537 -18.938   0.111  1.00  0.00     0.054 A 
BRANCH  88  89
ATOM     89  S   UNL     1      -5.561 -20.745   0.270  1.00  0.00     0.124 S 
ATOM     90  O   UNL     1      -5.082 -21.172  -1.042  1.00  0.00    -0.237 OA
ATOM     91  O   UNL     1      -4.643 -20.980   1.382  1.00  0.00    -0.237 OA
ATOM     92  O   UNL     1      -6.962 -21.050   0.551  1.00  0.00    -0.744 OA
ENDBRANCH  88  89
ENDBRANCH  62  83
ENDBRANCH  36  37
ENDBRANCH  29  31
ENDBRANCH  28  29
ENDBRANCH  27  28
ENDBRANCH  26  27
ENDBRANCH   1  26
TORSDOF 20
