REMARK SMILES Cc1ccc(NC(=O)[C@H]2CC=CC[C@H]2C(=O)OCCOCCOC(=O)c2ccc(-c3c4nc(c(-c5ccc(S(=O)(=O)[O-])cc5)c5ccc([nH]5)c(-c5ccc(S(=O)(=O)[O-])cc5)c5nc(c(-c6ccc(S(=O)(=O)[O-])cc6)c6ccc3[nH]6)C=C5)C=C4)cc2)cc1F
REMARK SMILES IDX 21 1 20 2 19 3 18 4 17 5 15 6 16 7 14 8 9 9 10 10 11 11
REMARK SMILES IDX 13 12 12 13 7 14 6 15 8 17 5 18 1 19 2 20 3 21 87 22 4 23
REMARK SMILES IDX 86 24 88 25 22 26 23 27 24 28 25 29 26 30 27 31 85 32 28 33
REMARK SMILES IDX 84 34 29 35 30 36 31 37 78 38 32 39 83 40 77 41 79 42 33 43
REMARK SMILES IDX 82 44 76 45 75 46 34 48 64 49 45 50 63 51 46 52 49 53 62 54
REMARK SMILES IDX 80 55 47 56 48 57 61 59 81 60 50 61 35 62 36 63 44 64 37 65
REMARK SMILES IDX 43 66 38 67 39 68 40 69 41 70 42 71 65 72 66 73 74 74 67 75
REMARK SMILES IDX 73 76 68 77 69 78 70 79 71 80 72 81 51 82 52 83 60 84 53 85
REMARK SMILES IDX 59 86 54 87 55 88 56 89 57 90 58 91
REMARK H PARENT 6 16 79 47 49 58
REMARK Flexibility Score: inf
ROOT
ATOM      1  C   UNL     1      -0.447   0.023  -0.845  1.00  0.00     0.202 C 
ENDROOT
BRANCH   1   2
ATOM      2  O   UNL     1      -1.062   0.652  -2.206  1.00  0.00    -0.374 OA
BRANCH   2   3
ATOM      3  C   UNL     1      -2.270   0.197  -2.869  1.00  0.00     0.202 C 
BRANCH   3   4
ATOM      4  C   UNL     1      -2.360  -1.137  -3.607  1.00  0.00     0.261 C 
BRANCH   4   5
ATOM      5  O   UNL     1      -2.297  -2.289  -2.756  1.00  0.00    -0.463 OA
BRANCH   5   6
ATOM      6  C   UNL     1      -1.091  -2.890  -2.680  1.00  0.00     0.310 C 
ATOM      7  O   UNL     1      -0.091  -2.507  -3.279  1.00  0.00    -0.252 OA
BRANCH   6   8
ATOM      8  C   UNL     1      -1.085  -4.159  -1.850  1.00  0.00     0.116 C 
ATOM      9  C   UNL     1      -1.682  -4.187  -0.432  1.00  0.00     0.097 C 
ATOM     10  C   UNL     1      -1.623  -5.588   0.216  1.00  0.00     0.041 C 
ATOM     11  C   UNL     1      -1.551  -6.744  -0.732  1.00  0.00    -0.030 C 
ATOM     12  C   UNL     1      -1.640  -5.273  -2.735  1.00  0.00     0.043 C 
ATOM     13  C   UNL     1      -1.573  -6.607  -2.063  1.00  0.00    -0.030 C 
BRANCH   9  14
ATOM     14  C   UNL     1      -2.978  -3.419  -0.222  1.00  0.00     0.228 C 
ATOM     15  N   UNL     1      -2.966  -2.047  -0.128  1.00  0.00    -0.326 N 
ATOM     16  H   UNL     1      -3.860  -1.635  -0.170  1.00  0.00     0.169 HD
ATOM     17  O   UNL     1      -4.063  -4.001  -0.178  1.00  0.00    -0.274 OA
BRANCH  15  18
ATOM     18  C   UNL     1      -1.914  -1.117   0.018  1.00  0.00     0.044 A 
ATOM     19  C   UNL     1       1.876   2.268   0.426  1.00  0.00     0.047 C 
ATOM     20  C   UNL     1       0.674   1.371   0.457  1.00  0.00    -0.015 A 
ATOM     21  C   UNL     1      -0.944   1.904  -0.076  1.00  0.00     0.008 A 
ATOM     22  C   UNL     1       0.999  -0.336   0.744  1.00  0.00     0.128 A 
ATOM     23  C   UNL     1      -2.264   0.670  -0.267  1.00  0.00     0.026 A 
ATOM     24  C   UNL     1      -0.254  -1.568   0.562  1.00  0.00     0.065 A 
ATOM     25  F   UNL     1       2.246  -0.732   1.037  1.00  0.00    -0.207 F 
ENDBRANCH  15  18
ENDBRANCH   9  14
ENDBRANCH   6   8
ENDBRANCH   5   6
ENDBRANCH   4   5
ENDBRANCH   3   4
ENDBRANCH   2   3
ENDBRANCH   1   2
BRANCH   1  26
ATOM     26  C   UNL     1      -1.027   0.283   1.249  1.00  0.00     0.261 C 
BRANCH  26  27
ATOM     27  O   UNL     1      -2.596  -0.079   1.881  1.00  0.00    -0.460 OA
BRANCH  27  28
ATOM     28  C   UNL     1      -3.577   0.869   2.038  1.00  0.00     0.338 C 
ATOM     29  O   UNL     1      -3.354   2.051   2.255  1.00  0.00    -0.246 OA
BRANCH  28  30
ATOM     30  C   UNL     1      -4.941   0.422   1.519  1.00  0.00     0.060 A 
ATOM     31  C   UNL     1      -5.510   1.141   0.441  1.00  0.00     0.016 A 
ATOM     32  C   UNL     1      -5.721  -0.578   2.100  1.00  0.00     0.016 A 
ATOM     33  C   UNL     1      -6.816   0.909  -0.024  1.00  0.00     0.010 A 
ATOM     34  C   UNL     1      -7.065  -0.769   1.675  1.00  0.00     0.010 A 
ATOM     35  C   UNL     1      -7.641   0.007   0.644  1.00  0.00    -0.014 A 
BRANCH  35  36
ATOM     36  C   UNL     1      -9.131   0.101   0.461  1.00  0.00     0.031 A 
ATOM     37  C   UNL     1      -9.931   0.845   1.513  1.00  0.00     0.074 A 
ATOM     38  C   UNL     1      -9.780  -0.372  -0.624  1.00  0.00     0.049 A 
ATOM     39  N   UNL     1     -11.226   0.988   1.642  1.00  0.00    -0.248 NA
ATOM     40  C   UNL     1      -9.151   1.522   2.563  1.00  0.00     0.031 C 
ATOM     41  C   UNL     1      -9.150  -1.010  -1.779  1.00  0.00     0.029 A 
ATOM     42  N   UNL     1     -11.126  -0.396  -0.928  1.00  0.00    -0.354 N 
ATOM     43  C   UNL     1     -11.416   1.731   2.806  1.00  0.00     0.074 A 
ATOM     44  C   UNL     1     -10.104   2.000   3.350  1.00  0.00     0.031 C 
ATOM     45  C   UNL     1     -10.106  -1.383  -2.650  1.00  0.00     0.029 A 
ATOM     46  C   UNL     1     -11.422  -1.058  -2.100  1.00  0.00     0.049 A 
ATOM     47  H   UNL     1     -11.812   0.022  -0.359  1.00  0.00     0.167 HD
ATOM     48  C   UNL     1     -12.573   2.148   3.377  1.00  0.00     0.031 A 
ATOM     49  C   UNL     1     -12.609  -1.399  -2.649  1.00  0.00     0.031 A 
ATOM     50  C   UNL     1     -13.882   1.882   2.836  1.00  0.00     0.049 A 
ATOM     51  C   UNL     1     -13.891  -1.013  -1.948  1.00  0.00     0.074 A 
ATOM     52  C   UNL     1     -15.114   2.266   3.336  1.00  0.00     0.029 A 
ATOM     53  N   UNL     1     -14.129   1.163   1.676  1.00  0.00    -0.354 N 
ATOM     54  N   UNL     1     -14.052  -0.329  -0.840  1.00  0.00    -0.248 NA
ATOM     55  C   UNL     1     -15.152  -1.441  -2.575  1.00  0.00     0.031 C 
ATOM     56  C   UNL     1     -16.108   1.714   2.522  1.00  0.00     0.029 A 
ATOM     57  C   UNL     1     -15.495   1.062   1.465  1.00  0.00     0.049 A 
ATOM     58  H   UNL     1     -13.437   0.781   1.090  1.00  0.00     0.167 HD
ATOM     59  C   UNL     1     -15.428  -0.217  -0.657  1.00  0.00     0.074 A 
ATOM     60  C   UNL     1     -16.054  -0.890  -1.776  1.00  0.00     0.031 C 
ATOM     61  C   UNL     1     -16.111   0.391   0.346  1.00  0.00     0.031 A 
BRANCH  48  62
ATOM     62  C   UNL     1     -12.486   2.890   4.692  1.00  0.00    -0.014 A 
ATOM     63  C   UNL     1     -11.946   4.186   4.780  1.00  0.00     0.010 A 
ATOM     64  C   UNL     1     -12.999   2.289   5.859  1.00  0.00     0.010 A 
ATOM     65  C   UNL     1     -11.883   4.847   6.012  1.00  0.00     0.020 A 
ATOM     66  C   UNL     1     -12.970   2.961   7.085  1.00  0.00     0.020 A 
ATOM     67  C   UNL     1     -12.397   4.230   7.157  1.00  0.00     0.054 A 
BRANCH  67  68
ATOM     68  S   UNL     1     -12.324   5.123   8.735  1.00  0.00     0.124 S 
ATOM     69  O   UNL     1     -10.890   5.128   9.014  1.00  0.00    -0.237 OA
ATOM     70  O   UNL     1     -12.901   6.421   8.392  1.00  0.00    -0.237 OA
ATOM     71  O   UNL     1     -13.131   4.305   9.637  1.00  0.00    -0.744 OA
ENDBRANCH  67  68
ENDBRANCH  48  62
BRANCH  49  72
ATOM     72  C   UNL     1     -12.652  -2.190  -3.917  1.00  0.00    -0.014 A 
ATOM     73  C   UNL     1     -13.182  -1.641  -5.099  1.00  0.00     0.010 A 
ATOM     74  C   UNL     1     -12.170  -3.513  -3.945  1.00  0.00     0.010 A 
ATOM     75  C   UNL     1     -13.233  -2.396  -6.277  1.00  0.00     0.020 A 
ATOM     76  C   UNL     1     -12.186  -4.260  -5.128  1.00  0.00     0.020 A 
ATOM     77  C   UNL     1     -12.725  -3.698  -6.286  1.00  0.00     0.054 A 
BRANCH  77  78
ATOM     78  S   UNL     1     -12.737  -4.631  -7.843  1.00  0.00     0.124 S 
ATOM     79  O   UNL     1     -14.162  -4.883  -8.038  1.00  0.00    -0.237 OA
ATOM     80  O   UNL     1     -12.127  -3.689  -8.777  1.00  0.00    -0.237 OA
ATOM     81  O   UNL     1     -11.929  -5.811  -7.543  1.00  0.00    -0.744 OA
ENDBRANCH  77  78
ENDBRANCH  49  72
BRANCH  61  82
ATOM     82  C   UNL     1     -17.617   0.407   0.263  1.00  0.00    -0.014 A 
ATOM     83  C   UNL     1     -18.380  -0.763   0.429  1.00  0.00     0.010 A 
ATOM     84  C   UNL     1     -18.284   1.632   0.070  1.00  0.00     0.010 A 
ATOM     85  C   UNL     1     -19.776  -0.713   0.367  1.00  0.00     0.020 A 
ATOM     86  C   UNL     1     -19.680   1.692   0.043  1.00  0.00     0.020 A 
ATOM     87  C   UNL     1     -20.417   0.515   0.178  1.00  0.00     0.054 A 
BRANCH  87  88
ATOM     88  S   UNL     1     -22.230   0.557   0.144  1.00  0.00     0.124 S 
ATOM     89  O   UNL     1     -22.527  -0.107  -1.122  1.00  0.00    -0.237 OA
ATOM     90  O   UNL     1     -22.588  -0.192   1.346  1.00  0.00    -0.237 OA
ATOM     91  O   UNL     1     -22.547   1.983   0.188  1.00  0.00    -0.744 OA
ENDBRANCH  87  88
ENDBRANCH  61  82
ENDBRANCH  35  36
ENDBRANCH  28  30
ENDBRANCH  27  28
ENDBRANCH  26  27
ENDBRANCH   1  26
TORSDOF 19
