REMARK SMILES CSC[C@H](C(=O)OCCOCCOC(=O)c1ccc(-c2c3nc(c(-c4ccc(S(=O)(=O)[O-])cc4)c4ccc([nH]4)c(-c4ccc(S(=O)(=O)[O-])cc4)c4nc(c(-c5ccc(S(=O)(=O)[O-])cc5)c5ccc2[nH]5)C=C4)C=C3)cc1)c1ccccc1
REMARK SMILES IDX 11 1 10 2 9 3 8 4 7 5 5 6 6 7 4 8 3 9 2 10 1 11 76 12 77 13
REMARK SMILES IDX 81 14 78 15 80 16 79 17 12 18 13 19 14 20 15 21 16 22 17 23
REMARK SMILES IDX 75 24 18 25 74 26 19 27 20 28 21 29 68 30 22 31 73 32 67 33
REMARK SMILES IDX 69 34 23 35 72 36 66 37 65 38 24 40 54 41 35 42 53 43 36 44
REMARK SMILES IDX 39 45 52 46 70 47 37 48 38 49 51 51 71 52 40 53 25 54 26 55
REMARK SMILES IDX 34 56 27 57 33 58 28 59 29 60 30 61 31 62 32 63 55 64 56 65
REMARK SMILES IDX 64 66 57 67 63 68 58 69 59 70 60 71 61 72 62 73 41 74 42 75
REMARK SMILES IDX 50 76 43 77 49 78 44 79 45 80 46 81 47 82 48 83
REMARK H PARENT 69 39 39 50
REMARK Flexibility Score: inf
ROOT
ATOM      1  C   UNL     1      -0.576   3.598   2.148  1.00  0.00     0.202 C 
ENDROOT
BRANCH   1   2
ATOM      2  O   UNL     1       0.370   4.502   1.577  1.00  0.00    -0.374 OA
BRANCH   2   3
ATOM      3  C   UNL     1       1.210   4.010   0.527  1.00  0.00     0.202 C 
BRANCH   3   4
ATOM      4  C   UNL     1       2.338   3.071   0.962  1.00  0.00     0.261 C 
BRANCH   4   5
ATOM      5  O   UNL     1       1.744   1.844   1.400  1.00  0.00    -0.463 OA
BRANCH   5   6
ATOM      6  C   UNL     1       2.286   1.249   2.498  1.00  0.00     0.314 C 
ATOM      7  O   UNL     1       3.373   1.533   2.980  1.00  0.00    -0.252 OA
BRANCH   6   8
ATOM      8  C   UNL     1       1.260   0.277   3.091  1.00  0.00     0.139 C 
BRANCH   8   9
ATOM      9  C   UNL     1       1.429  -1.130   2.493  1.00  0.00     0.089 C 
BRANCH   9  10
ATOM     10  S   UNL     1       1.654  -1.287   0.676  1.00  0.00    -0.164 SA
ATOM     11  C   UNL     1       0.125  -0.552   0.041  1.00  0.00     0.085 C 
ENDBRANCH   9  10
ENDBRANCH   8   9
BRANCH   8  12
ATOM     12  C   UNL     1       1.263   0.369   4.626  1.00  0.00    -0.033 A 
ATOM     13  C   UNL     1       1.395  -0.748   5.463  1.00  0.00     0.004 A 
ATOM     14  C   UNL     1       1.145   1.636   5.237  1.00  0.00     0.004 A 
ATOM     15  C   UNL     1       1.468  -0.598   6.852  1.00  0.00     0.000 A 
ATOM     16  C   UNL     1       1.223   1.784   6.623  1.00  0.00     0.000 A 
ATOM     17  C   UNL     1       1.395   0.667   7.431  1.00  0.00     0.000 A 
ENDBRANCH   8  12
ENDBRANCH   6   8
ENDBRANCH   5   6
ENDBRANCH   4   5
ENDBRANCH   3   4
ENDBRANCH   2   3
ENDBRANCH   1   2
BRANCH   1  18
ATOM     18  C   UNL     1      -1.872   3.345   1.367  1.00  0.00     0.261 C 
BRANCH  18  19
ATOM     19  O   UNL     1      -1.648   2.725   0.090  1.00  0.00    -0.460 OA
BRANCH  19  20
ATOM     20  C   UNL     1      -1.764   3.565  -0.967  1.00  0.00     0.338 C 
ATOM     21  O   UNL     1      -2.075   4.748  -0.937  1.00  0.00    -0.246 OA
BRANCH  20  22
ATOM     22  C   UNL     1      -1.273   2.905  -2.188  1.00  0.00     0.060 A 
ATOM     23  C   UNL     1      -0.255   3.544  -2.906  1.00  0.00     0.016 A 
ATOM     24  C   UNL     1      -1.843   1.722  -2.663  1.00  0.00     0.016 A 
ATOM     25  C   UNL     1       0.173   3.024  -4.125  1.00  0.00     0.010 A 
ATOM     26  C   UNL     1      -1.417   1.206  -3.892  1.00  0.00     0.010 A 
ATOM     27  C   UNL     1      -0.433   1.873  -4.644  1.00  0.00    -0.014 A 
BRANCH  27  28
ATOM     28  C   UNL     1      -0.138   1.458  -6.038  1.00  0.00     0.031 A 
ATOM     29  C   UNL     1      -1.132   1.782  -7.121  1.00  0.00     0.074 A 
ATOM     30  C   UNL     1       1.013   0.832  -6.341  1.00  0.00     0.049 A 
ATOM     31  N   UNL     1      -1.091   1.492  -8.396  1.00  0.00    -0.248 NA
ATOM     32  C   UNL     1      -2.332   2.531  -6.713  1.00  0.00     0.031 C 
ATOM     33  C   UNL     1       2.075   0.505  -5.390  1.00  0.00     0.029 A 
ATOM     34  N   UNL     1       1.478   0.356  -7.542  1.00  0.00    -0.354 N 
ATOM     35  C   UNL     1      -2.262   2.009  -8.939  1.00  0.00     0.074 A 
ATOM     36  C   UNL     1      -3.006   2.606  -7.851  1.00  0.00     0.031 C 
ATOM     37  C   UNL     1       3.067  -0.123  -6.045  1.00  0.00     0.029 A 
ATOM     38  C   UNL     1       2.695  -0.276  -7.450  1.00  0.00     0.049 A 
ATOM     39  H   UNL     1       0.987   0.459  -8.389  1.00  0.00     0.167 HD
ATOM     40  C   UNL     1      -2.677   1.994 -10.228  1.00  0.00     0.031 A 
ATOM     41  C   UNL     1       3.416  -0.925  -8.387  1.00  0.00     0.031 A 
ATOM     42  C   UNL     1      -1.938   1.392 -11.306  1.00  0.00     0.049 A 
ATOM     43  C   UNL     1       2.897  -0.994  -9.800  1.00  0.00     0.074 A 
ATOM     44  C   UNL     1      -2.266   1.342 -12.650  1.00  0.00     0.029 A 
ATOM     45  N   UNL     1      -0.728   0.729 -11.165  1.00  0.00    -0.354 N 
ATOM     46  N   UNL     1       1.801  -0.476 -10.304  1.00  0.00    -0.248 NA
ATOM     47  C   UNL     1       3.719  -1.727 -10.774  1.00  0.00     0.031 C 
ATOM     48  C   UNL     1      -1.287   0.593 -13.311  1.00  0.00     0.029 A 
ATOM     49  C   UNL     1      -0.312   0.239 -12.392  1.00  0.00     0.049 A 
ATOM     50  H   UNL     1      -0.237   0.623 -10.319  1.00  0.00     0.167 HD
ATOM     51  C   UNL     1       1.818  -0.796 -11.658  1.00  0.00     0.074 A 
ATOM     52  C   UNL     1       3.038  -1.538 -11.897  1.00  0.00     0.031 C 
ATOM     53  C   UNL     1       0.906  -0.498 -12.618  1.00  0.00     0.031 A 
BRANCH  40  54
ATOM     54  C   UNL     1      -4.013   2.616 -10.539  1.00  0.00    -0.014 A 
ATOM     55  C   UNL     1      -4.205   4.008 -10.484  1.00  0.00     0.010 A 
ATOM     56  C   UNL     1      -5.085   1.794 -10.937  1.00  0.00     0.010 A 
ATOM     57  C   UNL     1      -5.452   4.564 -10.785  1.00  0.00     0.020 A 
ATOM     58  C   UNL     1      -6.324   2.348 -11.268  1.00  0.00     0.020 A 
ATOM     59  C   UNL     1      -6.504   3.729 -11.174  1.00  0.00     0.054 A 
BRANCH  59  60
ATOM     60  S   UNL     1      -8.104   4.480 -11.585  1.00  0.00     0.124 S 
ATOM     61  O   UNL     1      -8.584   4.901 -10.271  1.00  0.00    -0.237 OA
ATOM     62  O   UNL     1      -7.726   5.561 -12.492  1.00  0.00    -0.237 OA
ATOM     63  O   UNL     1      -8.854   3.387 -12.199  1.00  0.00    -0.744 OA
ENDBRANCH  59  60
ENDBRANCH  40  54
BRANCH  41  64
ATOM     64  C   UNL     1       4.699  -1.584  -8.014  1.00  0.00    -0.014 A 
ATOM     65  C   UNL     1       5.926  -1.100  -8.501  1.00  0.00     0.010 A 
ATOM     66  C   UNL     1       4.696  -2.709  -7.169  1.00  0.00     0.010 A 
ATOM     67  C   UNL     1       7.123  -1.740  -8.165  1.00  0.00     0.020 A 
ATOM     68  C   UNL     1       5.893  -3.333  -6.806  1.00  0.00     0.020 A 
ATOM     69  C   UNL     1       7.099  -2.851  -7.317  1.00  0.00     0.054 A 
BRANCH  69  70
ATOM     70  S   UNL     1       8.669  -3.637  -6.861  1.00  0.00     0.124 S 
ATOM     71  O   UNL     1       9.052  -4.298  -8.105  1.00  0.00    -0.237 OA
ATOM     72  O   UNL     1       9.491  -2.494  -6.471  1.00  0.00    -0.237 OA
ATOM     73  O   UNL     1       8.299  -4.531  -5.766  1.00  0.00    -0.744 OA
ENDBRANCH  69  70
ENDBRANCH  41  64
BRANCH  53  74
ATOM     74  C   UNL     1       1.207  -0.937 -14.028  1.00  0.00    -0.014 A 
ATOM     75  C   UNL     1       1.152  -2.291 -14.403  1.00  0.00     0.010 A 
ATOM     76  C   UNL     1       1.488   0.033 -15.009  1.00  0.00     0.010 A 
ATOM     77  C   UNL     1       1.404  -2.670 -15.726  1.00  0.00     0.020 A 
ATOM     78  C   UNL     1       1.709  -0.338 -16.338  1.00  0.00     0.020 A 
ATOM     79  C   UNL     1       1.679  -1.690 -16.685  1.00  0.00     0.054 A 
BRANCH  79  80
ATOM     80  S   UNL     1       1.956  -2.203 -18.403  1.00  0.00     0.124 S 
ATOM     81  O   UNL     1       3.274  -2.827 -18.326  1.00  0.00    -0.237 OA
ATOM     82  O   UNL     1       0.842  -3.116 -18.647  1.00  0.00    -0.237 OA
ATOM     83  O   UNL     1       1.903  -0.950 -19.153  1.00  0.00    -0.744 OA
ENDBRANCH  79  80
ENDBRANCH  53  74
ENDBRANCH  27  28
ENDBRANCH  20  22
ENDBRANCH  19  20
ENDBRANCH  18  19
ENDBRANCH   1  18
TORSDOF 20
