REMARK SMILES CC(C)(C)C(=O)NCC(=O)Nc1cc(Cl)ccc1C(=O)OCCOCCOC(=O)c1ccc(-c2c3nc(c(-c4ccc(S(=O)(=O)[O-])cc4)c4ccc([nH]4)c(-c4ccc(S(=O)(=O)[O-])cc4)c4nc(c(-c5ccc(S(=O)(=O)[O-])cc5)c5ccc2[nH]5)C=C4)C=C3)cc1
REMARK SMILES IDX 23 1 22 2 21 3 19 4 20 5 18 6 12 7 13 8 14 9 17 10 15 11
REMARK SMILES IDX 16 12 11 13 9 14 10 15 8 17 7 18 5 19 6 20 2 22 1 23 3 24
REMARK SMILES IDX 4 25 24 26 25 27 26 28 27 29 28 30 29 31 30 32 31 33 89 34
REMARK SMILES IDX 32 35 88 36 33 37 34 38 35 39 82 40 36 41 87 42 81 43 83 44
REMARK SMILES IDX 37 45 86 46 80 47 79 48 38 50 68 51 49 52 67 53 50 54 53 55
REMARK SMILES IDX 66 56 84 57 51 58 52 59 65 61 85 62 54 63 39 64 40 65 48 66
REMARK SMILES IDX 41 67 47 68 42 69 43 70 44 71 45 72 46 73 69 74 70 75 78 76
REMARK SMILES IDX 71 77 77 78 72 79 73 80 74 81 75 82 76 83 55 84 56 85 64 86
REMARK SMILES IDX 57 87 63 88 58 89 59 90 60 91 61 92 62 93
REMARK H PARENT 11 16 7 21 83 49 53 60
REMARK Flexibility Score: inf
ROOT
ATOM      1  C   UNL     1      -6.551   2.099   1.816  1.00  0.00     0.202 C 
ENDROOT
BRANCH   1   2
ATOM      2  C   UNL     1      -6.244   1.471   3.178  1.00  0.00     0.261 C 
BRANCH   2   3
ATOM      3  O   UNL     1      -4.857   1.097   3.285  1.00  0.00    -0.460 OA
BRANCH   3   4
ATOM      4  C   UNL     1      -4.627  -0.226   3.121  1.00  0.00     0.340 C 
ATOM      5  O   UNL     1      -5.483  -1.093   3.014  1.00  0.00    -0.246 OA
BRANCH   4   6
ATOM      6  C   UNL     1      -3.177  -0.549   3.002  1.00  0.00     0.083 A 
ATOM      7  C   UNL     1      -2.099   0.225   3.485  1.00  0.00     0.057 A 
ATOM      8  C   UNL     1      -0.843  -0.383   3.536  1.00  0.00     0.047 A 
ATOM      9  C   UNL     1      -0.610  -1.623   2.932  1.00  0.00     0.043 A 
ATOM     10  C   UNL     1      -2.920  -1.771   2.347  1.00  0.00     0.019 A 
ATOM     11  Cl  UNL     1       0.948  -2.346   3.003  1.00  0.00    -0.084 Cl
ATOM     12  C   UNL     1      -1.634  -2.291   2.280  1.00  0.00     0.021 A 
BRANCH   7  13
ATOM     13  N   UNL     1      -2.303   1.530   3.970  1.00  0.00    -0.324 N 
ATOM     14  C   UNL     1      -1.552   2.668   4.037  1.00  0.00     0.243 C 
ATOM     15  O   UNL     1      -2.095   3.617   4.625  1.00  0.00    -0.273 OA
ATOM     16  H   UNL     1      -3.202   1.651   4.352  1.00  0.00     0.170 HD
BRANCH  14  17
ATOM     17  C   UNL     1      -0.283   2.980   3.206  1.00  0.00     0.216 C 
BRANCH  17  18
ATOM     18  N   UNL     1       0.786   2.022   3.033  1.00  0.00    -0.347 N 
ATOM     19  C   UNL     1       1.292   1.347   1.973  1.00  0.00     0.225 C 
ATOM     20  O   UNL     1       2.275   0.642   2.233  1.00  0.00    -0.275 OA
ATOM     21  H   UNL     1       1.251   1.813   3.876  1.00  0.00     0.164 HD
BRANCH  19  22
ATOM     22  C   UNL     1       0.778   1.478   0.525  1.00  0.00     0.041 C 
ATOM     23  C   UNL     1       1.393   0.319  -0.299  1.00  0.00     0.021 C 
ATOM     24  C   UNL     1       1.300   2.802  -0.046  1.00  0.00     0.021 C 
ATOM     25  C   UNL     1      -0.740   1.370   0.343  1.00  0.00     0.021 C 
ENDBRANCH  19  22
ENDBRANCH  17  18
ENDBRANCH  14  17
ENDBRANCH   7  13
ENDBRANCH   4   6
ENDBRANCH   3   4
ENDBRANCH   2   3
ENDBRANCH   1   2
BRANCH   1  26
ATOM     26  O   UNL     1      -6.276   1.282   0.678  1.00  0.00    -0.374 OA
BRANCH  26  27
ATOM     27  C   UNL     1      -4.939   1.311   0.172  1.00  0.00     0.202 C 
BRANCH  27  28
ATOM     28  C   UNL     1      -4.573   2.526  -0.689  1.00  0.00     0.261 C 
BRANCH  28  29
ATOM     29  O   UNL     1      -4.430   3.713   0.112  1.00  0.00    -0.460 OA
BRANCH  29  30
ATOM     30  C   UNL     1      -5.408   4.634  -0.056  1.00  0.00     0.338 C 
ATOM     31  O   UNL     1      -6.320   4.595  -0.875  1.00  0.00    -0.246 OA
BRANCH  30  32
ATOM     32  C   UNL     1      -5.361   5.632   1.030  1.00  0.00     0.060 A 
ATOM     33  C   UNL     1      -6.562   5.922   1.692  1.00  0.00     0.016 A 
ATOM     34  C   UNL     1      -4.188   6.312   1.362  1.00  0.00     0.016 A 
ATOM     35  C   UNL     1      -6.607   6.936   2.646  1.00  0.00     0.010 A 
ATOM     36  C   UNL     1      -4.237   7.334   2.316  1.00  0.00     0.010 A 
ATOM     37  C   UNL     1      -5.454   7.677   2.932  1.00  0.00    -0.014 A 
BRANCH  37  38
ATOM     38  C   UNL     1      -5.561   8.905   3.758  1.00  0.00     0.031 A 
ATOM     39  C   UNL     1      -5.596  10.244   3.070  1.00  0.00     0.074 A 
ATOM     40  C   UNL     1      -5.661   8.830   5.098  1.00  0.00     0.049 A 
ATOM     41  N   UNL     1      -5.668  11.442   3.591  1.00  0.00    -0.248 NA
ATOM     42  C   UNL     1      -5.541  10.231   1.599  1.00  0.00     0.031 C 
ATOM     43  C   UNL     1      -5.683   7.593   5.876  1.00  0.00     0.029 A 
ATOM     44  N   UNL     1      -5.761   9.823   6.040  1.00  0.00    -0.354 N 
ATOM     45  C   UNL     1      -5.654  12.324   2.516  1.00  0.00     0.074 A 
ATOM     46  C   UNL     1      -5.540  11.525   1.315  1.00  0.00     0.031 C 
ATOM     47  C   UNL     1      -5.790   7.901   7.181  1.00  0.00     0.029 A 
ATOM     48  C   UNL     1      -5.808   9.354   7.331  1.00  0.00     0.049 A 
ATOM     49  H   UNL     1      -5.797  10.780   5.812  1.00  0.00     0.167 HD
ATOM     50  C   UNL     1      -5.734  13.676   2.527  1.00  0.00     0.031 A 
ATOM     51  C   UNL     1      -5.843  10.022   8.502  1.00  0.00     0.031 A 
ATOM     52  C   UNL     1      -5.838  14.467   3.724  1.00  0.00     0.049 A 
ATOM     53  C   UNL     1      -5.862  11.529   8.491  1.00  0.00     0.074 A 
ATOM     54  C   UNL     1      -5.941  15.843   3.839  1.00  0.00     0.029 A 
ATOM     55  N   UNL     1      -5.848  13.957   5.013  1.00  0.00    -0.354 N 
ATOM     56  N   UNL     1      -5.870  12.348   7.465  1.00  0.00    -0.248 NA
ATOM     57  C   UNL     1      -5.888  12.202   9.798  1.00  0.00     0.031 C 
ATOM     58  C   UNL     1      -5.956  16.167   5.199  1.00  0.00     0.029 A 
ATOM     59  C   UNL     1      -5.930  14.990   5.931  1.00  0.00     0.049 A 
ATOM     60  H   UNL     1      -5.804  13.000   5.242  1.00  0.00     0.167 HD
ATOM     61  C   UNL     1      -5.938  13.629   8.003  1.00  0.00     0.074 A 
ATOM     62  C   UNL     1      -5.977  13.477   9.443  1.00  0.00     0.031 C 
ATOM     63  C   UNL     1      -5.973  14.824   7.362  1.00  0.00     0.031 A 
BRANCH  50  64
ATOM     64  C   UNL     1      -5.672  14.388   1.202  1.00  0.00    -0.014 A 
ATOM     65  C   UNL     1      -6.742  14.333   0.290  1.00  0.00     0.010 A 
ATOM     66  C   UNL     1      -4.539  15.158   0.880  1.00  0.00     0.010 A 
ATOM     67  C   UNL     1      -6.663  15.002  -0.934  1.00  0.00     0.020 A 
ATOM     68  C   UNL     1      -4.468  15.852  -0.331  1.00  0.00     0.020 A 
ATOM     69  C   UNL     1      -5.525  15.756  -1.238  1.00  0.00     0.054 A 
BRANCH  69  70
ATOM     70  S   UNL     1      -5.457  16.631  -2.825  1.00  0.00     0.124 S 
ATOM     71  O   UNL     1      -5.262  15.532  -3.767  1.00  0.00    -0.237 OA
ATOM     72  O   UNL     1      -6.762  17.285  -2.886  1.00  0.00    -0.237 OA
ATOM     73  O   UNL     1      -4.318  17.533  -2.677  1.00  0.00    -0.744 OA
ENDBRANCH  69  70
ENDBRANCH  50  64
BRANCH  51  74
ATOM     74  C   UNL     1      -5.850   9.271   9.787  1.00  0.00    -0.014 A 
ATOM     75  C   UNL     1      -6.991   9.267  10.609  1.00  0.00     0.010 A 
ATOM     76  C   UNL     1      -4.710   8.557  10.198  1.00  0.00     0.010 A 
ATOM     77  C   UNL     1      -6.985   8.578  11.826  1.00  0.00     0.020 A 
ATOM     78  C   UNL     1      -4.710   7.843  11.399  1.00  0.00     0.020 A 
ATOM     79  C   UNL     1      -5.844   7.868  12.212  1.00  0.00     0.054 A 
BRANCH  79  80
ATOM     80  S   UNL     1      -5.876   6.940  13.771  1.00  0.00     0.124 S 
ATOM     81  O   UNL     1      -5.800   8.009  14.762  1.00  0.00    -0.237 OA
ATOM     82  O   UNL     1      -7.155   6.238  13.694  1.00  0.00    -0.237 OA
ATOM     83  O   UNL     1      -4.697   6.082  13.683  1.00  0.00    -0.744 OA
ENDBRANCH  79  80
ENDBRANCH  51  74
BRANCH  63  84
ATOM     84  C   UNL     1      -6.110  16.065   8.206  1.00  0.00    -0.014 A 
ATOM     85  C   UNL     1      -5.046  16.541   8.992  1.00  0.00     0.010 A 
ATOM     86  C   UNL     1      -7.311  16.798   8.163  1.00  0.00     0.010 A 
ATOM     87  C   UNL     1      -5.194  17.709   9.746  1.00  0.00     0.020 A 
ATOM     88  C   UNL     1      -7.452  17.981   8.892  1.00  0.00     0.020 A 
ATOM     89  C   UNL     1      -6.396  18.421   9.692  1.00  0.00     0.054 A 
BRANCH  89  90
ATOM     90  S   UNL     1      -6.548  19.956  10.648  1.00  0.00     0.124 S 
ATOM     91  O   UNL     1      -6.680  19.452  12.012  1.00  0.00    -0.237 OA
ATOM     92  O   UNL     1      -5.295  20.645  10.350  1.00  0.00    -0.237 OA
ATOM     93  O   UNL     1      -7.746  20.588  10.099  1.00  0.00    -0.744 OA
ENDBRANCH  89  90
ENDBRANCH  63  84
ENDBRANCH  37  38
ENDBRANCH  30  32
ENDBRANCH  29  30
ENDBRANCH  28  29
ENDBRANCH  27  28
ENDBRANCH  26  27
ENDBRANCH   1  26
TORSDOF 21
