REMARK SMILES CCC[C@H](Nc1cc(C)c(N)c(C(=O)OCCOCCOC(=O)c2ccc(-c3c4nc(c(-c5ccc(S(=O)(=O)[O-])cc5)c5ccc([nH]5)c(-c5ccc(S(=O)(=O)[O-])cc5)c5nc(c(-c6ccc(S(=O)(=O)[O-])cc6)c6ccc3[nH]6)C=C5)C=C4)cc2)c1)c1cccs1
REMARK SMILES IDX 17 1 16 2 15 3 13 4 14 5 12 6 6 7 7 8 84 9 8 10 9 11 10 12
REMARK SMILES IDX 5 13 4 15 3 16 2 17 1 18 85 19 86 20 89 21 87 22 88 23 11 24
REMARK SMILES IDX 18 27 19 28 20 29 21 30 22 31 23 32 24 33 25 34 83 35 26 36
REMARK SMILES IDX 82 37 27 38 28 39 29 40 76 41 30 42 81 43 75 44 77 45 31 46
REMARK SMILES IDX 80 47 74 48 73 49 32 51 62 52 43 53 61 54 44 55 47 56 60 57
REMARK SMILES IDX 78 58 45 59 46 60 59 62 79 63 48 64 33 65 34 66 42 67 35 68
REMARK SMILES IDX 41 69 36 70 37 71 38 72 39 73 40 74 63 75 64 76 72 77 65 78
REMARK SMILES IDX 71 79 66 80 67 81 68 82 69 83 70 84 49 85 50 86 58 87 51 88
REMARK SMILES IDX 57 89 52 90 53 91 54 92 55 93 56 94
REMARK H PARENT 5 14 11 25 11 26 77 50 47 61
REMARK Flexibility Score: inf
ROOT
ATOM      1  C   UNL     1      -2.927   2.688  -5.890  1.00  0.00     0.202 C 
ENDROOT
BRANCH   1   2
ATOM      2  C   UNL     1      -1.399   2.785  -5.839  1.00  0.00     0.261 C 
BRANCH   2   3
ATOM      3  O   UNL     1      -0.853   1.984  -4.778  1.00  0.00    -0.460 OA
BRANCH   3   4
ATOM      4  C   UNL     1      -0.341   2.692  -3.739  1.00  0.00     0.340 C 
ATOM      5  O   UNL     1      -0.180   3.904  -3.703  1.00  0.00    -0.246 OA
BRANCH   4   6
ATOM      6  C   UNL     1      -0.152   1.821  -2.549  1.00  0.00     0.085 A 
ATOM      7  C   UNL     1       0.429  -0.345  -1.580  1.00  0.00     0.036 A 
ATOM      8  C   UNL     1       0.219   0.214  -0.316  1.00  0.00     0.031 A 
ATOM      9  C   UNL     1       0.282   0.492  -2.694  1.00  0.00     0.043 A 
ATOM     10  C   UNL     1      -0.225   1.540  -0.147  1.00  0.00    -0.025 A 
ATOM     11  C   UNL     1      -0.497   2.043   1.245  1.00  0.00     0.047 C 
ATOM     12  C   UNL     1      -0.438   2.355  -1.272  1.00  0.00     0.049 A 
BRANCH   7  13
ATOM     13  N   UNL     1       0.732  -1.684  -1.773  1.00  0.00    -0.377 N 
ATOM     14  H   UNL     1       1.232  -1.924  -2.587  1.00  0.00     0.161 HD
BRANCH  13  15
ATOM     15  C   UNL     1       0.362  -2.783  -0.850  1.00  0.00     0.119 C 
BRANCH  15  16
ATOM     16  C   UNL     1      -1.195  -2.855  -0.823  1.00  0.00     0.030 C 
BRANCH  16  17
ATOM     17  C   UNL     1      -1.892  -3.651   0.289  1.00  0.00    -0.001 C 
ATOM     18  C   UNL     1      -1.387  -3.374   1.697  1.00  0.00     0.004 C 
ENDBRANCH  16  17
ENDBRANCH  15  16
BRANCH  15  19
ATOM     19  C   UNL     1       1.014  -4.114  -1.262  1.00  0.00     0.027 A 
ATOM     20  C   UNL     1       1.913  -4.360  -2.290  1.00  0.00     0.017 A 
ATOM     21  S   UNL     1       0.764  -5.559  -0.356  1.00  0.00    -0.147 S 
ATOM     22  C   UNL     1       2.267  -5.736  -2.412  1.00  0.00     0.012 A 
ATOM     23  C   UNL     1       1.669  -6.506  -1.444  1.00  0.00     0.065 A 
ENDBRANCH  15  19
ENDBRANCH  13  15
ENDBRANCH   7  13
BRANCH  12  24
ATOM     24  N   UNL     1      -1.101   3.580  -1.135  1.00  0.00    -0.398 N 
ATOM     25  H   UNL     1      -1.293   3.938  -0.239  1.00  0.00     0.156 HD
ATOM     26  H   UNL     1      -1.376   4.083  -1.936  1.00  0.00     0.156 HD
ENDBRANCH  12  24
ENDBRANCH   4   6
ENDBRANCH   3   4
ENDBRANCH   2   3
ENDBRANCH   1   2
BRANCH   1  27
ATOM     27  O   UNL     1      -3.630   3.101  -4.718  1.00  0.00    -0.374 OA
BRANCH  27  28
ATOM     28  C   UNL     1      -3.731   2.144  -3.659  1.00  0.00     0.202 C 
BRANCH  28  29
ATOM     29  C   UNL     1      -4.788   1.045  -3.833  1.00  0.00     0.261 C 
BRANCH  29  30
ATOM     30  O   UNL     1      -4.458   0.140  -4.904  1.00  0.00    -0.460 OA
BRANCH  30  31
ATOM     31  C   UNL     1      -5.263   0.214  -5.990  1.00  0.00     0.338 C 
ATOM     32  O   UNL     1      -6.276   0.892  -6.115  1.00  0.00    -0.246 OA
BRANCH  31  33
ATOM     33  C   UNL     1      -4.644  -0.506  -7.118  1.00  0.00     0.060 A 
ATOM     34  C   UNL     1      -4.465   0.195  -8.318  1.00  0.00     0.016 A 
ATOM     35  C   UNL     1      -4.278  -1.850  -7.022  1.00  0.00     0.016 A 
ATOM     36  C   UNL     1      -3.943  -0.454  -9.437  1.00  0.00     0.010 A 
ATOM     37  C   UNL     1      -3.766  -2.502  -8.149  1.00  0.00     0.010 A 
ATOM     38  C   UNL     1      -3.616  -1.815  -9.367  1.00  0.00    -0.014 A 
BRANCH  38  39
ATOM     39  C   UNL     1      -3.202  -2.541 -10.592  1.00  0.00     0.031 A 
ATOM     40  C   UNL     1      -4.206  -3.393 -11.320  1.00  0.00     0.074 A 
ATOM     41  C   UNL     1      -1.943  -2.435 -11.056  1.00  0.00     0.049 A 
ATOM     42  N   UNL     1      -4.039  -4.146 -12.376  1.00  0.00    -0.248 NA
ATOM     43  C   UNL     1      -5.578  -3.396 -10.787  1.00  0.00     0.031 C 
ATOM     44  C   UNL     1      -0.892  -1.608 -10.464  1.00  0.00     0.029 A 
ATOM     45  N   UNL     1      -1.335  -3.036 -12.129  1.00  0.00    -0.354 N 
ATOM     46  C   UNL     1      -5.280  -4.718 -12.633  1.00  0.00     0.074 A 
ATOM     47  C   UNL     1      -6.183  -4.244 -11.606  1.00  0.00     0.031 C 
ATOM     48  C   UNL     1       0.237  -1.763 -11.177  1.00  0.00     0.029 A 
ATOM     49  C   UNL     1      -0.001  -2.726 -12.250  1.00  0.00     0.049 A 
ATOM     50  H   UNL     1      -1.808  -3.633 -12.753  1.00  0.00     0.167 HD
ATOM     51  C   UNL     1      -5.634  -5.560 -13.633  1.00  0.00     0.031 A 
ATOM     52  C   UNL     1       0.928  -3.185 -13.111  1.00  0.00     0.031 A 
ATOM     53  C   UNL     1      -4.728  -6.044 -14.642  1.00  0.00     0.049 A 
ATOM     54  C   UNL     1       0.530  -4.186 -14.163  1.00  0.00     0.074 A 
ATOM     55  C   UNL     1      -4.997  -6.887 -15.706  1.00  0.00     0.029 A 
ATOM     56  N   UNL     1      -3.377  -5.740 -14.705  1.00  0.00    -0.354 N 
ATOM     57  N   UNL     1      -0.653  -4.698 -14.408  1.00  0.00    -0.248 NA
ATOM     58  C   UNL     1       1.592  -4.670 -15.057  1.00  0.00     0.031 C 
ATOM     59  C   UNL     1      -3.796  -7.140 -16.378  1.00  0.00     0.029 A 
ATOM     60  C   UNL     1      -2.791  -6.405 -15.770  1.00  0.00     0.049 A 
ATOM     61  H   UNL     1      -2.903  -5.140 -14.085  1.00  0.00     0.167 HD
ATOM     62  C   UNL     1      -0.481  -5.547 -15.497  1.00  0.00     0.074 A 
ATOM     63  C   UNL     1       0.915  -5.466 -15.873  1.00  0.00     0.031 C 
ATOM     64  C   UNL     1      -1.397  -6.323 -16.128  1.00  0.00     0.031 A 
BRANCH  51  65
ATOM     65  C   UNL     1      -7.060  -6.043 -13.665  1.00  0.00    -0.014 A 
ATOM     66  C   UNL     1      -8.113  -5.185 -14.030  1.00  0.00     0.010 A 
ATOM     67  C   UNL     1      -7.346  -7.389 -13.370  1.00  0.00     0.010 A 
ATOM     68  C   UNL     1      -9.429  -5.655 -14.066  1.00  0.00     0.020 A 
ATOM     69  C   UNL     1      -8.657  -7.869 -13.429  1.00  0.00     0.020 A 
ATOM     70  C   UNL     1      -9.692  -6.995 -13.762  1.00  0.00     0.054 A 
BRANCH  70  71
ATOM     71  S   UNL     1     -11.406  -7.584 -13.841  1.00  0.00     0.124 S 
ATOM     72  O   UNL     1     -11.994  -6.959 -12.659  1.00  0.00    -0.237 OA
ATOM     73  O   UNL     1     -11.867  -7.059 -15.124  1.00  0.00    -0.237 OA
ATOM     74  O   UNL     1     -11.277  -9.038 -13.776  1.00  0.00    -0.744 OA
ENDBRANCH  70  71
ENDBRANCH  51  65
BRANCH  52  75
ATOM     75  C   UNL     1       2.340  -2.726 -12.995  1.00  0.00    -0.014 A 
ATOM     76  C   UNL     1       2.911  -1.900 -13.978  1.00  0.00     0.010 A 
ATOM     77  C   UNL     1       3.122  -3.117 -11.892  1.00  0.00     0.010 A 
ATOM     78  C   UNL     1       4.242  -1.485 -13.868  1.00  0.00     0.020 A 
ATOM     79  C   UNL     1       4.443  -2.682 -11.764  1.00  0.00     0.020 A 
ATOM     80  C   UNL     1       4.999  -1.877 -12.760  1.00  0.00     0.054 A 
BRANCH  80  81
ATOM     81  S   UNL     1       6.707  -1.284 -12.610  1.00  0.00     0.124 S 
ATOM     82  O   UNL     1       7.397  -2.091 -13.611  1.00  0.00    -0.237 OA
ATOM     83  O   UNL     1       6.575   0.137 -12.922  1.00  0.00    -0.237 OA
ATOM     84  O   UNL     1       7.049  -1.580 -11.220  1.00  0.00    -0.744 OA
ENDBRANCH  80  81
ENDBRANCH  52  75
BRANCH  64  85
ATOM     85  C   UNL     1      -0.926  -7.132 -17.308  1.00  0.00    -0.014 A 
ATOM     86  C   UNL     1      -0.108  -8.263 -17.136  1.00  0.00     0.010 A 
ATOM     87  C   UNL     1      -1.350  -6.785 -18.604  1.00  0.00     0.010 A 
ATOM     88  C   UNL     1       0.303  -9.013 -18.242  1.00  0.00     0.020 A 
ATOM     89  C   UNL     1      -0.964  -7.548 -19.709  1.00  0.00     0.020 A 
ATOM     90  C   UNL     1      -0.127  -8.650 -19.522  1.00  0.00     0.054 A 
BRANCH  90  91
ATOM     91  S   UNL     1       0.387  -9.663 -20.936  1.00  0.00     0.124 S 
ATOM     92  O   UNL     1       1.790  -9.288 -21.084  1.00  0.00    -0.237 OA
ATOM     93  O   UNL     1       0.146 -11.024 -20.461  1.00  0.00    -0.237 OA
ATOM     94  O   UNL     1      -0.493  -9.223 -22.017  1.00  0.00    -0.744 OA
ENDBRANCH  90  91
ENDBRANCH  64  85
ENDBRANCH  38  39
ENDBRANCH  31  33
ENDBRANCH  30  31
ENDBRANCH  29  30
ENDBRANCH  28  29
ENDBRANCH  27  28
ENDBRANCH   1  27
TORSDOF 23
