REMARK SMILES COc1ccc(OCCNc2c(Cl)cccc2C(=O)OCCOCCOC(=O)c2ccc(-c3c4nc(c(-c5ccc(S(=O)(=O)[O-])cc5)c5ccc([nH]5)c(-c5ccc(S(=O)(=O)[O-])cc5)c5nc(c(-c6ccc(S(=O)(=O)[O-])cc6)c6ccc3[nH]6)C=C5)C=C4)cc2)cc1
REMARK SMILES IDX 21 1 20 2 18 3 19 4 17 5 11 6 12 7 13 8 14 9 16 10 15 11
REMARK SMILES IDX 10 12 9 14 8 15 7 16 6 17 3 18 4 19 90 20 5 21 89 22 2 23
REMARK SMILES IDX 1 24 22 25 23 26 24 27 25 28 26 29 27 30 28 31 29 32 30 33
REMARK SMILES IDX 88 34 31 35 87 36 32 37 33 38 34 39 81 40 35 41 86 42 80 43
REMARK SMILES IDX 82 44 36 45 85 46 79 47 78 48 37 50 67 51 48 52 66 53 49 54
REMARK SMILES IDX 52 55 65 56 83 57 50 58 51 59 64 61 84 62 53 63 38 64 39 65
REMARK SMILES IDX 47 66 40 67 46 68 41 69 42 70 43 71 44 72 45 73 68 74 69 75
REMARK SMILES IDX 77 76 70 77 76 78 71 79 72 80 73 81 74 82 75 83 54 84 55 85
REMARK SMILES IDX 63 86 56 87 62 88 57 89 58 90 59 91 60 92 61 93
REMARK H PARENT 10 13 82 49 52 60
REMARK Flexibility Score: inf
ROOT
ATOM      1  C   UNL     1       4.945  -8.536   1.788  1.00  0.00     0.261 C 
ENDROOT
BRANCH   1   2
ATOM      2  O   UNL     1       4.936  -7.106   1.660  1.00  0.00    -0.460 OA
BRANCH   2   3
ATOM      3  C   UNL     1       6.148  -6.516   1.653  1.00  0.00     0.340 C 
ATOM      4  O   UNL     1       7.223  -7.064   1.868  1.00  0.00    -0.246 OA
BRANCH   3   5
ATOM      5  C   UNL     1       6.073  -5.144   1.113  1.00  0.00     0.084 A 
ATOM      6  C   UNL     1       5.266  -4.099   1.588  1.00  0.00     0.068 A 
ATOM      7  C   UNL     1       5.563  -2.817   1.034  1.00  0.00     0.065 A 
ATOM      8  Cl  UNL     1       4.893  -1.363   1.701  1.00  0.00    -0.082 Cl
ATOM      9  C   UNL     1       6.450  -2.617  -0.029  1.00  0.00     0.023 A 
ATOM     10  C   UNL     1       6.952  -4.942   0.016  1.00  0.00     0.018 A 
ATOM     11  C   UNL     1       7.116  -3.695  -0.574  1.00  0.00     0.003 A 
BRANCH   6  12
ATOM     12  N   UNL     1       4.273  -4.154   2.552  1.00  0.00    -0.380 N 
ATOM     13  H   UNL     1       3.724  -3.339   2.599  1.00  0.00     0.160 HD
BRANCH  12  14
ATOM     14  C   UNL     1       3.881  -5.181   3.511  1.00  0.00     0.154 C 
BRANCH  14  15
ATOM     15  C   UNL     1       3.149  -4.564   4.732  1.00  0.00     0.250 C 
BRANCH  15  16
ATOM     16  O   UNL     1       1.742  -4.353   4.530  1.00  0.00    -0.492 OA
BRANCH  16  17
ATOM     17  C   UNL     1       1.300  -3.231   3.891  1.00  0.00     0.119 A 
ATOM     18  C   UNL     1       0.254  -1.220   2.235  1.00  0.00     0.119 A 
ATOM     19  C   UNL     1      -0.581  -2.216   2.732  1.00  0.00     0.050 A 
ATOM     20  C   UNL     1       1.567  -1.148   2.684  1.00  0.00     0.050 A 
ATOM     21  C   UNL     1      -0.054  -3.228   3.545  1.00  0.00     0.050 A 
ATOM     22  C   UNL     1       2.074  -2.132   3.540  1.00  0.00     0.050 A 
BRANCH  18  23
ATOM     23  O   UNL     1      -0.287  -0.309   1.370  1.00  0.00    -0.497 OA
ATOM     24  C   UNL     1       0.501  -0.122   0.193  1.00  0.00     0.278 C 
ENDBRANCH  18  23
ENDBRANCH  16  17
ENDBRANCH  15  16
ENDBRANCH  14  15
ENDBRANCH  12  14
ENDBRANCH   6  12
ENDBRANCH   3   5
ENDBRANCH   2   3
ENDBRANCH   1   2
BRANCH   1  25
ATOM     25  C   UNL     1       4.019  -9.154   0.742  1.00  0.00     0.202 C 
BRANCH  25  26
ATOM     26  O   UNL     1       4.411  -8.964  -0.619  1.00  0.00    -0.374 OA
BRANCH  26  27
ATOM     27  C   UNL     1       4.198  -7.673  -1.189  1.00  0.00     0.202 C 
BRANCH  27  28
ATOM     28  C   UNL     1       2.766  -7.330  -1.620  1.00  0.00     0.261 C 
BRANCH  28  29
ATOM     29  O   UNL     1       1.837  -7.276  -0.524  1.00  0.00    -0.460 OA
BRANCH  29  30
ATOM     30  C   UNL     1       0.996  -8.334  -0.449  1.00  0.00     0.338 C 
ATOM     31  O   UNL     1       0.947  -9.292  -1.210  1.00  0.00    -0.246 OA
BRANCH  30  32
ATOM     32  C   UNL     1       0.209  -8.279   0.795  1.00  0.00     0.060 A 
ATOM     33  C   UNL     1       0.245  -9.398   1.638  1.00  0.00     0.016 A 
ATOM     34  C   UNL     1      -0.635  -7.203   1.078  1.00  0.00     0.016 A 
ATOM     35  C   UNL     1      -0.603  -9.467   2.740  1.00  0.00     0.010 A 
ATOM     36  C   UNL     1      -1.492  -7.280   2.181  1.00  0.00     0.010 A 
ATOM     37  C   UNL     1      -1.506  -8.427   2.995  1.00  0.00    -0.014 A 
BRANCH  37  38
ATOM     38  C   UNL     1      -2.552  -8.601   4.032  1.00  0.00     0.031 A 
ATOM     39  C   UNL     1      -3.950  -8.973   3.613  1.00  0.00     0.074 A 
ATOM     40  C   UNL     1      -2.253  -8.458   5.336  1.00  0.00     0.049 A 
ATOM     41  N   UNL     1      -5.016  -9.148   4.351  1.00  0.00    -0.248 NA
ATOM     42  C   UNL     1      -4.176  -9.174   2.172  1.00  0.00     0.031 C 
ATOM     43  C   UNL     1      -0.929  -8.139   5.869  1.00  0.00     0.029 A 
ATOM     44  N   UNL     1      -3.049  -8.559   6.449  1.00  0.00    -0.354 N 
ATOM     45  C   UNL     1      -6.040  -9.467   3.466  1.00  0.00     0.074 A 
ATOM     46  C   UNL     1      -5.474  -9.438   2.135  1.00  0.00     0.031 C 
ATOM     47  C   UNL     1      -1.005  -8.066   7.209  1.00  0.00     0.029 A 
ATOM     48  C   UNL     1      -2.388  -8.296   7.624  1.00  0.00     0.049 A 
ATOM     49  H   UNL     1      -4.003  -8.798   6.410  1.00  0.00     0.167 HD
ATOM     50  C   UNL     1      -7.335  -9.759   3.739  1.00  0.00     0.031 A 
ATOM     51  C   UNL     1      -2.848  -8.225   8.889  1.00  0.00     0.031 A 
ATOM     52  C   UNL     1      -7.897  -9.778   5.064  1.00  0.00     0.049 A 
ATOM     53  C   UNL     1      -4.306  -8.489   9.159  1.00  0.00     0.074 A 
ATOM     54  C   UNL     1      -9.194 -10.082   5.443  1.00  0.00     0.029 A 
ATOM     55  N   UNL     1      -7.202  -9.475   6.224  1.00  0.00    -0.354 N 
ATOM     56  N   UNL     1      -5.256  -8.815   8.315  1.00  0.00    -0.248 NA
ATOM     57  C   UNL     1      -4.753  -8.384  10.556  1.00  0.00     0.031 C 
ATOM     58  C   UNL     1      -9.296  -9.906   6.827  1.00  0.00     0.029 A 
ATOM     59  C   UNL     1      -8.048  -9.557   7.317  1.00  0.00     0.049 A 
ATOM     60  H   UNL     1      -6.247  -9.237   6.265  1.00  0.00     0.167 HD
ATOM     61  C   UNL     1      -6.406  -8.980   9.082  1.00  0.00     0.074 A 
ATOM     62  C   UNL     1      -6.028  -8.733  10.459  1.00  0.00     0.031 C 
ATOM     63  C   UNL     1      -7.659  -9.309   8.683  1.00  0.00     0.031 A 
BRANCH  50  64
ATOM     64  C   UNL     1      -8.246 -10.052   2.575  1.00  0.00    -0.014 A 
ATOM     65  C   UNL     1      -8.142 -11.252   1.849  1.00  0.00     0.010 A 
ATOM     66  C   UNL     1      -9.255  -9.132   2.236  1.00  0.00     0.010 A 
ATOM     67  C   UNL     1      -9.011 -11.512   0.785  1.00  0.00     0.020 A 
ATOM     68  C   UNL     1     -10.143  -9.400   1.190  1.00  0.00     0.020 A 
ATOM     69  C   UNL     1     -10.005 -10.583   0.461  1.00  0.00     0.054 A 
BRANCH  69  70
ATOM     70  S   UNL     1     -11.137 -10.961  -0.905  1.00  0.00     0.124 S 
ATOM     71  O   UNL     1     -10.272 -10.789  -2.070  1.00  0.00    -0.237 OA
ATOM     72  O   UNL     1     -11.538 -12.336  -0.619  1.00  0.00    -0.237 OA
ATOM     73  O   UNL     1     -12.196  -9.964  -0.764  1.00  0.00    -0.744 OA
ENDBRANCH  69  70
ENDBRANCH  50  64
BRANCH  51  74
ATOM     74  C   UNL     1      -1.922  -7.864   9.998  1.00  0.00    -0.014 A 
ATOM     75  C   UNL     1      -1.566  -8.811  10.974  1.00  0.00     0.010 A 
ATOM     76  C   UNL     1      -1.393  -6.563  10.082  1.00  0.00     0.010 A 
ATOM     77  C   UNL     1      -0.713  -8.458  12.024  1.00  0.00     0.020 A 
ATOM     78  C   UNL     1      -0.517  -6.215  11.113  1.00  0.00     0.020 A 
ATOM     79  C   UNL     1      -0.192  -7.162  12.085  1.00  0.00     0.054 A 
BRANCH  79  80
ATOM     80  S   UNL     1       0.953  -6.741  13.428  1.00  0.00     0.124 S 
ATOM     81  O   UNL     1       0.054  -6.644  14.574  1.00  0.00    -0.237 OA
ATOM     82  O   UNL     1       1.866  -7.881  13.434  1.00  0.00    -0.237 OA
ATOM     83  O   UNL     1       1.547  -5.481  12.988  1.00  0.00    -0.744 OA
ENDBRANCH  79  80
ENDBRANCH  51  74
BRANCH  63  84
ATOM     84  C   UNL     1      -8.712  -9.461   9.750  1.00  0.00    -0.014 A 
ATOM     85  C   UNL     1      -9.239  -8.345  10.423  1.00  0.00     0.010 A 
ATOM     86  C   UNL     1      -9.222 -10.741  10.042  1.00  0.00     0.010 A 
ATOM     87  C   UNL     1     -10.233  -8.509  11.393  1.00  0.00     0.020 A 
ATOM     88  C   UNL     1     -10.235 -10.905  10.990  1.00  0.00     0.020 A 
ATOM     89  C   UNL     1     -10.724  -9.789  11.671  1.00  0.00     0.054 A 
BRANCH  89  90
ATOM     90  S   UNL     1     -12.042  -9.971  12.903  1.00  0.00     0.124 S 
ATOM     91  O   UNL     1     -11.319  -9.762  14.155  1.00  0.00    -0.237 OA
ATOM     92  O   UNL     1     -12.977  -8.912  12.533  1.00  0.00    -0.237 OA
ATOM     93  O   UNL     1     -12.534 -11.330  12.687  1.00  0.00    -0.744 OA
ENDBRANCH  89  90
ENDBRANCH  63  84
ENDBRANCH  37  38
ENDBRANCH  30  32
ENDBRANCH  29  30
ENDBRANCH  28  29
ENDBRANCH  27  28
ENDBRANCH  26  27
ENDBRANCH  25  26
ENDBRANCH   1  25
TORSDOF 23
