REMARK SMILES NS(=O)(=O)c1ccc(-n2nc(C(F)F)cc2-c2ccc(C(=O)OCCOCCOC(=O)c3ccc(-c4c5nc(c(-c6ccc(S(=O)(=O)[O-])cc6)c6ccc([nH]6)c(-c6ccc(S(=O)(=O)[O-])cc6)c6nc(c(-c7ccc(S(=O)(=O)[O-])cc7)c7ccc4[nH]7)C=C6)C=C5)cc3)cc2)cc1
REMARK SMILES IDX 25 1 24 2 23 3 21 4 22 5 20 6 17 7 18 8 93 9 19 10 92 11
REMARK SMILES IDX 16 12 9 13 10 14 11 15 15 16 8 17 5 18 6 19 95 20 7 21 94 22
REMARK SMILES IDX 2 23 3 24 4 25 1 26 12 29 13 30 14 31 26 32 27 33 28 34
REMARK SMILES IDX 29 35 30 36 31 37 32 38 33 39 91 40 34 41 90 42 35 43 36 44
REMARK SMILES IDX 37 45 84 46 38 47 89 48 83 49 85 50 39 51 88 52 82 53 81 54
REMARK SMILES IDX 40 56 70 57 51 58 69 59 52 60 55 61 68 62 86 63 53 64 54 65
REMARK SMILES IDX 67 67 87 68 56 69 41 70 42 71 50 72 43 73 49 74 44 75 45 76
REMARK SMILES IDX 46 77 47 78 48 79 71 80 72 81 80 82 73 83 79 84 74 85 75 86
REMARK SMILES IDX 76 87 77 88 78 89 57 90 58 91 66 92 59 93 65 94 60 95 61 96
REMARK SMILES IDX 62 97 63 98 64 99
REMARK H PARENT 1 27 1 28 85 55 55 66
REMARK Flexibility Score: inf
ROOT
ATOM      1  C   UNL     1       7.456  -5.776   0.227  1.00  0.00     0.202 C 
ENDROOT
BRANCH   1   2
ATOM      2  C   UNL     1       7.564  -6.342   1.643  1.00  0.00     0.261 C 
BRANCH   2   3
ATOM      3  O   UNL     1       6.470  -5.951   2.486  1.00  0.00    -0.460 OA
BRANCH   3   4
ATOM      4  C   UNL     1       6.803  -5.038   3.429  1.00  0.00     0.338 C 
ATOM      5  O   UNL     1       7.911  -4.574   3.645  1.00  0.00    -0.246 OA
BRANCH   4   6
ATOM      6  C   UNL     1       5.594  -4.521   4.100  1.00  0.00     0.060 A 
ATOM      7  C   UNL     1       3.523  -3.468   5.646  1.00  0.00     0.000 A 
ATOM      8  C   UNL     1       4.538  -2.629   5.167  1.00  0.00     0.011 A 
ATOM      9  C   UNL     1       3.513  -4.821   5.283  1.00  0.00     0.011 A 
ATOM     10  C   UNL     1       5.574  -3.155   4.402  1.00  0.00     0.016 A 
ATOM     11  C   UNL     1       4.541  -5.349   4.496  1.00  0.00     0.016 A 
BRANCH   7  12
ATOM     12  C   UNL     1       2.576  -2.949   6.628  1.00  0.00     0.075 A 
ATOM     13  N   UNL     1       1.793  -1.810   6.486  1.00  0.00    -0.233 N 
ATOM     14  N   UNL     1       1.365  -1.345   7.689  1.00  0.00    -0.166 NA
ATOM     15  C   UNL     1       1.651  -2.330   8.559  1.00  0.00     0.129 A 
ATOM     16  C   UNL     1       2.432  -3.336   7.945  1.00  0.00     0.060 A 
BRANCH  13  17
ATOM     17  C   UNL     1       1.449  -1.142   5.282  1.00  0.00     0.065 A 
ATOM     18  C   UNL     1       0.861   0.161   2.893  1.00  0.00     0.082 A 
ATOM     19  C   UNL     1       0.892  -1.234   2.925  1.00  0.00     0.024 A 
ATOM     20  C   UNL     1       1.099   0.909   4.053  1.00  0.00     0.024 A 
ATOM     21  C   UNL     1       1.203  -1.886   4.118  1.00  0.00     0.030 A 
ATOM     22  C   UNL     1       1.361   0.255   5.260  1.00  0.00     0.030 A 
BRANCH  18  23
ATOM     23  S   UNL     1       0.555   1.002   1.367  1.00  0.00     0.238 S 
ATOM     24  O   UNL     1       1.360   2.212   1.346  1.00  0.00    -0.207 OA
ATOM     25  O   UNL     1      -0.856   1.000   1.113  1.00  0.00    -0.207 OA
BRANCH  23  26
ATOM     26  N   UNL     1       1.259   0.001   0.212  1.00  0.00    -0.225 NA
ATOM     27  H   UNL     1       1.132   0.408  -0.714  1.00  0.00     0.137 HD
ATOM     28  H   UNL     1       0.816  -0.918   0.243  1.00  0.00     0.137 HD
ENDBRANCH  23  26
ENDBRANCH  18  23
ENDBRANCH  13  17
BRANCH  15  29
ATOM     29  C   UNL     1       1.227  -2.303   9.997  1.00  0.00     0.393 C 
ATOM     30  F   UNL     1       1.516  -1.121  10.607  1.00  0.00    -0.203 F 
ATOM     31  F   UNL     1      -0.113  -2.499  10.133  1.00  0.00    -0.203 F 
ENDBRANCH  15  29
ENDBRANCH   7  12
ENDBRANCH   4   6
ENDBRANCH   3   4
ENDBRANCH   2   3
ENDBRANCH   1   2
BRANCH   1  32
ATOM     32  O   UNL     1       7.466  -4.360   0.048  1.00  0.00    -0.374 OA
BRANCH  32  33
ATOM     33  C   UNL     1       6.370  -3.566   0.488  1.00  0.00     0.202 C 
BRANCH  33  34
ATOM     34  C   UNL     1       5.034  -3.680  -0.232  1.00  0.00     0.261 C 
BRANCH  34  35
ATOM     35  O   UNL     1       4.524  -5.001  -0.186  1.00  0.00    -0.460 OA
BRANCH  35  36
ATOM     36  C   UNL     1       4.725  -5.700  -1.326  1.00  0.00     0.338 C 
ATOM     37  O   UNL     1       5.452  -5.399  -2.258  1.00  0.00    -0.246 OA
BRANCH  36  38
ATOM     38  C   UNL     1       3.810  -6.844  -1.334  1.00  0.00     0.060 A 
ATOM     39  C   UNL     1       3.757  -7.557  -2.532  1.00  0.00     0.016 A 
ATOM     40  C   UNL     1       2.794  -6.910  -0.370  1.00  0.00     0.016 A 
ATOM     41  C   UNL     1       2.541  -8.067  -2.910  1.00  0.00     0.010 A 
ATOM     42  C   UNL     1       1.578  -7.408  -0.755  1.00  0.00     0.010 A 
ATOM     43  C   UNL     1       1.448  -7.864  -2.062  1.00  0.00    -0.014 A 
BRANCH  43  44
ATOM     44  C   UNL     1       0.139  -8.221  -2.551  1.00  0.00     0.031 A 
ATOM     45  C   UNL     1      -0.070  -9.679  -2.493  1.00  0.00     0.074 A 
ATOM     46  C   UNL     1      -0.779  -7.301  -2.898  1.00  0.00     0.049 A 
ATOM     47  N   UNL     1       0.015 -10.524  -3.464  1.00  0.00    -0.248 NA
ATOM     48  C   UNL     1      -0.102 -10.294  -1.153  1.00  0.00     0.031 C 
ATOM     49  C   UNL     1      -0.755  -5.849  -2.689  1.00  0.00     0.029 A 
ATOM     50  N   UNL     1      -2.005  -7.500  -3.438  1.00  0.00    -0.354 N 
ATOM     51  C   UNL     1      -0.219 -11.759  -2.876  1.00  0.00     0.074 A 
ATOM     52  C   UNL     1       0.009 -11.584  -1.466  1.00  0.00     0.031 C 
ATOM     53  C   UNL     1      -2.006  -5.355  -2.860  1.00  0.00     0.029 A 
ATOM     54  C   UNL     1      -2.874  -6.422  -3.331  1.00  0.00     0.049 A 
ATOM     55  H   UNL     1      -2.260  -8.345  -3.874  1.00  0.00     0.167 HD
ATOM     56  C   UNL     1      -0.923 -12.726  -3.525  1.00  0.00     0.031 A 
ATOM     57  C   UNL     1      -4.218  -6.461  -3.538  1.00  0.00     0.031 A 
ATOM     58  C   UNL     1      -1.027 -12.448  -4.934  1.00  0.00     0.049 A 
ATOM     59  C   UNL     1      -4.492  -7.700  -4.319  1.00  0.00     0.074 A 
ATOM     60  C   UNL     1      -0.124 -12.294  -5.966  1.00  0.00     0.029 A 
ATOM     61  N   UNL     1      -2.200 -11.867  -5.359  1.00  0.00    -0.354 N 
ATOM     62  N   UNL     1      -4.055  -7.897  -5.533  1.00  0.00    -0.248 NA
ATOM     63  C   UNL     1      -4.821  -8.906  -3.573  1.00  0.00     0.031 C 
ATOM     64  C   UNL     1      -0.656 -11.243  -6.769  1.00  0.00     0.029 A 
ATOM     65  C   UNL     1      -1.888 -10.859  -6.234  1.00  0.00     0.049 A 
ATOM     66  H   UNL     1      -3.108 -12.130  -5.082  1.00  0.00     0.167 HD
ATOM     67  C   UNL     1      -3.660  -9.229  -5.563  1.00  0.00     0.074 A 
ATOM     68  C   UNL     1      -4.222  -9.816  -4.347  1.00  0.00     0.031 C 
ATOM     69  C   UNL     1      -2.681  -9.658  -6.413  1.00  0.00     0.031 A 
BRANCH  56  70
ATOM     70  C   UNL     1      -1.892 -13.634  -2.808  1.00  0.00    -0.014 A 
ATOM     71  C   UNL     1      -2.544 -14.641  -3.542  1.00  0.00     0.010 A 
ATOM     72  C   UNL     1      -2.385 -13.369  -1.512  1.00  0.00     0.010 A 
ATOM     73  C   UNL     1      -3.663 -15.304  -3.024  1.00  0.00     0.020 A 
ATOM     74  C   UNL     1      -3.468 -14.054  -0.967  1.00  0.00     0.020 A 
ATOM     75  C   UNL     1      -4.121 -14.998  -1.740  1.00  0.00     0.054 A 
BRANCH  75  76
ATOM     76  S   UNL     1      -5.612 -15.798  -1.109  1.00  0.00     0.124 S 
ATOM     77  O   UNL     1      -6.636 -15.273  -2.008  1.00  0.00    -0.237 OA
ATOM     78  O   UNL     1      -5.290 -17.213  -1.267  1.00  0.00    -0.237 OA
ATOM     79  O   UNL     1      -5.691 -15.332   0.273  1.00  0.00    -0.744 OA
ENDBRANCH  75  76
ENDBRANCH  56  70
BRANCH  57  80
ATOM     80  C   UNL     1      -5.275  -5.774  -2.743  1.00  0.00    -0.014 A 
ATOM     81  C   UNL     1      -6.614  -5.735  -3.183  1.00  0.00     0.010 A 
ATOM     82  C   UNL     1      -5.024  -5.414  -1.403  1.00  0.00     0.010 A 
ATOM     83  C   UNL     1      -7.662  -5.404  -2.302  1.00  0.00     0.020 A 
ATOM     84  C   UNL     1      -6.061  -5.080  -0.521  1.00  0.00     0.020 A 
ATOM     85  C   UNL     1      -7.379  -5.098  -0.968  1.00  0.00     0.054 A 
BRANCH  85  86
ATOM     86  S   UNL     1      -8.744  -4.843   0.209  1.00  0.00     0.124 S 
ATOM     87  O   UNL     1      -9.294  -3.562  -0.225  1.00  0.00    -0.237 OA
ATOM     88  O   UNL     1      -9.592  -6.008  -0.029  1.00  0.00    -0.237 OA
ATOM     89  O   UNL     1      -8.077  -4.823   1.509  1.00  0.00    -0.744 OA
ENDBRANCH  85  86
ENDBRANCH  57  80
BRANCH  69  90
ATOM     90  C   UNL     1      -2.238  -8.741  -7.531  1.00  0.00    -0.014 A 
ATOM     91  C   UNL     1      -1.546  -7.528  -7.339  1.00  0.00     0.010 A 
ATOM     92  C   UNL     1      -2.367  -9.239  -8.839  1.00  0.00     0.010 A 
ATOM     93  C   UNL     1      -0.998  -6.837  -8.434  1.00  0.00     0.020 A 
ATOM     94  C   UNL     1      -1.812  -8.566  -9.928  1.00  0.00     0.020 A 
ATOM     95  C   UNL     1      -1.130  -7.367  -9.723  1.00  0.00     0.054 A 
BRANCH  95  96
ATOM     96  S   UNL     1      -0.354  -6.523 -11.132  1.00  0.00     0.124 S 
ATOM     97  O   UNL     1      -1.157  -5.310 -11.257  1.00  0.00    -0.237 OA
ATOM     98  O   UNL     1       1.020  -6.325 -10.675  1.00  0.00    -0.237 OA
ATOM     99  O   UNL     1      -0.498  -7.476 -12.232  1.00  0.00    -0.744 OA
ENDBRANCH  95  96
ENDBRANCH  69  90
ENDBRANCH  43  44
ENDBRANCH  36  38
ENDBRANCH  35  36
ENDBRANCH  34  35
ENDBRANCH  33  34
ENDBRANCH  32  33
ENDBRANCH   1  32
TORSDOF 22
