REMARK SMILES Cc1cc(C)cc(CSc2cc(C(=O)OCCOCCOC(=O)c3ccc(-c4c5nc(c(-c6ccc(S(=O)(=O)[O-])cc6)c6ccc([nH]6)c(-c6ccc(S(=O)(=O)[O-])cc6)c6nc(c(-c7ccc(S(=O)(=O)[O-])cc7)c7ccc4[nH]7)C=C6)C=C5)cc3)cc(Cl)n2)c1
REMARK SMILES IDX 18 1 17 2 16 3 15 4 13 5 14 6 12 7 10 8 11 9 87 10 85 11
REMARK SMILES IDX 84 12 86 13 9 14 8 15 7 16 1 17 2 18 3 19 88 20 4 21 5 22
REMARK SMILES IDX 6 23 19 24 20 25 21 26 22 27 23 28 24 29 25 30 83 31 26 32
REMARK SMILES IDX 82 33 27 34 28 35 29 36 76 37 30 38 81 39 75 40 77 41 31 42
REMARK SMILES IDX 80 43 74 44 73 45 32 47 62 48 43 49 61 50 44 51 47 52 60 53
REMARK SMILES IDX 78 54 45 55 46 56 59 58 79 59 48 60 33 61 34 62 42 63 35 64
REMARK SMILES IDX 41 65 36 66 37 67 38 68 39 69 40 70 63 71 64 72 72 73 65 74
REMARK SMILES IDX 71 75 66 76 67 77 68 78 69 79 70 80 49 81 50 82 58 83 51 84
REMARK SMILES IDX 57 85 52 86 53 87 54 88 55 89 56 90
REMARK H PARENT 77 46 47 57
REMARK Flexibility Score: inf
ROOT
ATOM      1  O   UNL     1       1.632  -6.782   7.214  1.00  0.00    -0.374 OA
ENDROOT
BRANCH   1   2
ATOM      2  C   UNL     1       2.632  -6.055   7.929  1.00  0.00     0.202 C 
BRANCH   2   3
ATOM      3  C   UNL     1       3.591  -5.192   7.101  1.00  0.00     0.261 C 
BRANCH   3   4
ATOM      4  O   UNL     1       2.893  -4.161   6.384  1.00  0.00    -0.460 OA
BRANCH   4   5
ATOM      5  C   UNL     1       2.880  -4.304   5.039  1.00  0.00     0.338 C 
ATOM      6  O   UNL     1       3.496  -5.120   4.371  1.00  0.00    -0.246 OA
BRANCH   5   7
ATOM      7  C   UNL     1       1.826  -3.449   4.462  1.00  0.00     0.065 A 
ATOM      8  C   UNL     1       0.043  -3.240   2.895  1.00  0.00     0.099 A 
ATOM      9  C   UNL     1       1.078  -3.991   3.415  1.00  0.00     0.051 A 
ATOM     10  N   UNL     1      -0.272  -2.015   3.356  1.00  0.00    -0.230 NA
ATOM     11  C   UNL     1       0.485  -1.515   4.352  1.00  0.00     0.131 A 
ATOM     12  C   UNL     1       1.532  -2.182   4.953  1.00  0.00     0.056 A 
ATOM     13  Cl  UNL     1       0.050   0.069   4.845  1.00  0.00    -0.062 Cl
BRANCH   8  14
ATOM     14  S   UNL     1      -0.964  -3.909   1.593  1.00  0.00    -0.102 SA
BRANCH  14  15
ATOM     15  C   UNL     1      -0.045  -3.260   0.159  1.00  0.00     0.112 C 
BRANCH  15  16
ATOM     16  C   UNL     1      -0.032  -1.754   0.064  1.00  0.00    -0.037 A 
ATOM     17  C   UNL     1       2.507   1.094   0.008  1.00  0.00     0.044 C 
ATOM     18  C   UNL     1       1.209   0.343  -0.006  1.00  0.00    -0.051 A 
ATOM     19  C   UNL     1      -0.001   1.046  -0.049  1.00  0.00     0.006 A 
ATOM     20  C   UNL     1       1.185  -1.056   0.052  1.00  0.00     0.008 A 
ATOM     21  C   UNL     1      -1.226   0.369  -0.046  1.00  0.00    -0.051 A 
ATOM     22  C   UNL     1      -2.512   1.140  -0.051  1.00  0.00     0.044 C 
ATOM     23  C   UNL     1      -1.231  -1.029  -0.005  1.00  0.00     0.008 A 
ENDBRANCH  15  16
ENDBRANCH  14  15
ENDBRANCH   8  14
ENDBRANCH   5   7
ENDBRANCH   4   5
ENDBRANCH   3   4
ENDBRANCH   2   3
ENDBRANCH   1   2
BRANCH   1  24
ATOM     24  C   UNL     1       0.482  -6.067   6.766  1.00  0.00     0.202 C 
BRANCH  24  25
ATOM     25  C   UNL     1      -0.586  -5.694   7.804  1.00  0.00     0.261 C 
BRANCH  25  26
ATOM     26  O   UNL     1      -0.089  -4.814   8.825  1.00  0.00    -0.460 OA
BRANCH  26  27
ATOM     27  C   UNL     1       0.097  -5.416  10.026  1.00  0.00     0.338 C 
ATOM     28  O   UNL     1      -0.158  -6.574  10.312  1.00  0.00    -0.246 OA
BRANCH  27  29
ATOM     29  C   UNL     1       0.839  -4.528  10.940  1.00  0.00     0.060 A 
ATOM     30  C   UNL     1       1.956  -5.071  11.586  1.00  0.00     0.016 A 
ATOM     31  C   UNL     1       0.400  -3.237  11.242  1.00  0.00     0.016 A 
ATOM     32  C   UNL     1       2.586  -4.360  12.601  1.00  0.00     0.010 A 
ATOM     33  C   UNL     1       1.038  -2.522  12.263  1.00  0.00     0.010 A 
ATOM     34  C   UNL     1       2.097  -3.105  12.984  1.00  0.00    -0.014 A 
BRANCH  34  35
ATOM     35  C   UNL     1       2.586  -2.505  14.251  1.00  0.00     0.031 A 
ATOM     36  C   UNL     1       1.721  -2.595  15.483  1.00  0.00     0.074 A 
ATOM     37  C   UNL     1       3.812  -1.958  14.325  1.00  0.00     0.049 A 
ATOM     38  N   UNL     1       1.973  -2.193  16.702  1.00  0.00    -0.248 NA
ATOM     39  C   UNL     1       0.399  -3.221  15.318  1.00  0.00     0.031 C 
ATOM     40  C   UNL     1       4.757  -1.847  13.214  1.00  0.00     0.029 A 
ATOM     41  N   UNL     1       4.478  -1.404  15.389  1.00  0.00    -0.354 N 
ATOM     42  C   UNL     1       0.840  -2.508  17.446  1.00  0.00     0.074 A 
ATOM     43  C   UNL     1      -0.114  -3.099  16.534  1.00  0.00     0.031 C 
ATOM     44  C   UNL     1       5.885  -1.267  13.657  1.00  0.00     0.029 A 
ATOM     45  C   UNL     1       5.732  -0.941  15.074  1.00  0.00     0.049 A 
ATOM     46  H   UNL     1       4.093  -1.344  16.293  1.00  0.00     0.167 HD
ATOM     47  C   UNL     1       0.617  -2.333  18.771  1.00  0.00     0.031 A 
ATOM     48  C   UNL     1       6.651  -0.318  15.838  1.00  0.00     0.031 A 
ATOM     49  C   UNL     1       1.565  -1.738  19.675  1.00  0.00     0.049 A 
ATOM     50  C   UNL     1       6.360  -0.086  17.298  1.00  0.00     0.074 A 
ATOM     51  C   UNL     1       1.442  -1.533  21.039  1.00  0.00     0.029 A 
ATOM     52  N   UNL     1       2.809  -1.246  19.309  1.00  0.00    -0.354 N 
ATOM     53  N   UNL     1       5.296  -0.417  17.991  1.00  0.00    -0.248 NA
ATOM     54  C   UNL     1       7.405   0.585  18.082  1.00  0.00     0.031 C 
ATOM     55  C   UNL     1       2.586  -0.861  21.484  1.00  0.00     0.029 A 
ATOM     56  C   UNL     1       3.453  -0.714  20.414  1.00  0.00     0.049 A 
ATOM     57  H   UNL     1       3.180  -1.272  18.397  1.00  0.00     0.167 HD
ATOM     58  C   UNL     1       5.558  -0.022  19.300  1.00  0.00     0.074 A 
ATOM     59  C   UNL     1       6.887   0.555  19.302  1.00  0.00     0.031 C 
ATOM     60  C   UNL     1       4.773  -0.134  20.401  1.00  0.00     0.031 A 
BRANCH  47  61
ATOM     61  C   UNL     1      -0.724  -2.759  19.314  1.00  0.00    -0.014 A 
ATOM     62  C   UNL     1      -1.083  -4.117  19.403  1.00  0.00     0.010 A 
ATOM     63  C   UNL     1      -1.629  -1.783  19.770  1.00  0.00     0.010 A 
ATOM     64  C   UNL     1      -2.337  -4.487  19.898  1.00  0.00     0.020 A 
ATOM     65  C   UNL     1      -2.871  -2.151  20.295  1.00  0.00     0.020 A 
ATOM     66  C   UNL     1      -3.224  -3.501  20.339  1.00  0.00     0.054 A 
BRANCH  66  67
ATOM     67  S   UNL     1      -4.837  -4.011  20.993  1.00  0.00     0.124 S 
ATOM     68  O   UNL     1      -5.529  -4.447  19.783  1.00  0.00    -0.237 OA
ATOM     69  O   UNL     1      -4.481  -5.073  21.930  1.00  0.00    -0.237 OA
ATOM     70  O   UNL     1      -5.364  -2.794  21.606  1.00  0.00    -0.744 OA
ENDBRANCH  66  67
ENDBRANCH  47  61
BRANCH  48  71
ATOM     71  C   UNL     1       7.935   0.134  15.233  1.00  0.00    -0.014 A 
ATOM     72  C   UNL     1       9.152  -0.476  15.582  1.00  0.00     0.010 A 
ATOM     73  C   UNL     1       7.941   1.182  14.294  1.00  0.00     0.010 A 
ATOM     74  C   UNL     1      10.353  -0.036  15.015  1.00  0.00     0.020 A 
ATOM     75  C   UNL     1       9.134   1.604  13.703  1.00  0.00     0.020 A 
ATOM     76  C   UNL     1      10.335   0.998  14.075  1.00  0.00     0.054 A 
BRANCH  76  77
ATOM     77  S   UNL     1      11.897   1.513  13.310  1.00  0.00     0.124 S 
ATOM     78  O   UNL     1      12.560   2.209  14.408  1.00  0.00    -0.237 OA
ATOM     79  O   UNL     1      12.490   0.237  12.918  1.00  0.00    -0.237 OA
ATOM     80  O   UNL     1      11.470   2.359  12.198  1.00  0.00    -0.744 OA
ENDBRANCH  76  77
ENDBRANCH  48  71
BRANCH  60  81
ATOM     81  C   UNL     1       5.348   0.339  21.713  1.00  0.00    -0.014 A 
ATOM     82  C   UNL     1       5.572   1.703  21.971  1.00  0.00     0.010 A 
ATOM     83  C   UNL     1       5.646  -0.603  22.715  1.00  0.00     0.010 A 
ATOM     84  C   UNL     1       6.133   2.111  23.185  1.00  0.00     0.020 A 
ATOM     85  C   UNL     1       6.173  -0.197  23.944  1.00  0.00     0.020 A 
ATOM     86  C   UNL     1       6.435   1.156  24.162  1.00  0.00     0.054 A 
BRANCH  86  87
ATOM     87  S   UNL     1       7.154   1.710  25.732  1.00  0.00     0.124 S 
ATOM     88  O   UNL     1       8.517   2.053  25.337  1.00  0.00    -0.237 OA
ATOM     89  O   UNL     1       6.301   2.839  26.095  1.00  0.00    -0.237 OA
ATOM     90  O   UNL     1       7.032   0.541  26.601  1.00  0.00    -0.744 OA
ENDBRANCH  86  87
ENDBRANCH  60  81
ENDBRANCH  34  35
ENDBRANCH  27  29
ENDBRANCH  26  27
ENDBRANCH  25  26
ENDBRANCH  24  25
ENDBRANCH   1  24
TORSDOF 20
