REMARK SMILES CC1(C)[C@H](C(=O)OCCOCCOC(=O)c2ccc(-c3c4nc(c(-c5ccc(S(=O)(=O)[O-])cc5)c5ccc([nH]5)c(-c5ccc(S(=O)(=O)[O-])cc5)c5nc(c(-c6ccc(S(=O)(=O)[O-])cc6)c6ccc3[nH]6)C=C5)C=C4)cc2)[C@@H]1C(=O)Nc1ccc(NC(=O)C2CCC2)cc1
REMARK SMILES IDX 9 1 8 2 7 3 5 4 6 5 4 6 1 7 2 8 3 9 76 10 77 11 78 12 79 13
REMARK SMILES IDX 80 15 81 16 92 17 82 18 91 19 83 20 84 21 85 22 86 24 87 25
REMARK SMILES IDX 88 26 90 27 89 28 10 29 11 30 12 31 13 32 14 33 15 34 16 35
REMARK SMILES IDX 17 36 75 37 18 38 74 39 19 40 20 41 21 42 68 43 22 44 73 45
REMARK SMILES IDX 67 46 69 47 23 48 72 49 66 50 65 51 24 53 54 54 35 55 53 56
REMARK SMILES IDX 36 57 39 58 52 59 70 60 37 61 38 62 51 64 71 65 40 66 25 67
REMARK SMILES IDX 26 68 34 69 27 70 33 71 28 72 29 73 30 74 31 75 32 76 55 77
REMARK SMILES IDX 56 78 64 79 57 80 63 81 58 82 59 83 60 84 61 85 62 86 41 87
REMARK SMILES IDX 42 88 50 89 43 90 49 91 44 92 45 93 46 94 47 95 48 96
REMARK H PARENT 79 14 84 23 69 52 39 63
REMARK Flexibility Score: inf
ROOT
ATOM      1  C   UNL     1      -1.909   2.536  -3.882  1.00  0.00     0.202 C 
ENDROOT
BRANCH   1   2
ATOM      2  C   UNL     1      -1.690   2.801  -2.378  1.00  0.00     0.261 C 
BRANCH   2   3
ATOM      3  O   UNL     1      -1.117   1.805  -1.535  1.00  0.00    -0.463 OA
BRANCH   3   4
ATOM      4  C   UNL     1      -1.713   0.594  -1.499  1.00  0.00     0.310 C 
ATOM      5  O   UNL     1      -2.604   0.231  -2.238  1.00  0.00    -0.252 OA
BRANCH   4   6
ATOM      6  C   UNL     1      -1.055  -0.381  -0.596  1.00  0.00     0.118 C 
ATOM      7  C   UNL     1       1.212  -1.271   0.205  1.00  0.00     0.013 C 
ATOM      8  C   UNL     1       0.193  -0.158   0.234  1.00  0.00    -0.009 C 
ATOM      9  C   UNL     1       0.839   1.212   0.315  1.00  0.00     0.013 C 
ATOM     10  C   UNL     1      -1.172  -0.434   0.906  1.00  0.00     0.100 C 
BRANCH  10  11
ATOM     11  C   UNL     1      -1.696   0.567   1.867  1.00  0.00     0.228 C 
ATOM     12  O   UNL     1      -0.974   0.926   2.794  1.00  0.00    -0.274 OA
ATOM     13  N   UNL     1      -2.957   1.093   1.774  1.00  0.00    -0.326 N 
ATOM     14  H   UNL     1      -3.236   1.654   2.534  1.00  0.00     0.169 HD
BRANCH  13  15
ATOM     15  C   UNL     1      -3.901   0.949   0.762  1.00  0.00     0.041 A 
ATOM     16  C   UNL     1      -4.346   2.138   0.208  1.00  0.00     0.028 A 
ATOM     17  C   UNL     1      -4.331  -0.261   0.226  1.00  0.00     0.028 A 
ATOM     18  C   UNL     1      -5.040   2.119  -0.996  1.00  0.00     0.028 A 
ATOM     19  C   UNL     1      -5.128  -0.258  -0.937  1.00  0.00     0.028 A 
ATOM     20  C   UNL     1      -5.426   0.944  -1.607  1.00  0.00     0.041 A 
BRANCH  20  21
ATOM     21  N   UNL     1      -6.021   0.865  -2.873  1.00  0.00    -0.326 N 
ATOM     22  C   UNL     1      -6.349   1.730  -3.897  1.00  0.00     0.227 C 
ATOM     23  H   UNL     1      -6.274  -0.061  -3.092  1.00  0.00     0.169 HD
ATOM     24  O   UNL     1      -6.849   1.145  -4.884  1.00  0.00    -0.274 OA
BRANCH  22  25
ATOM     25  C   UNL     1      -6.128   3.256  -3.985  1.00  0.00     0.079 C 
ATOM     26  C   UNL     1      -7.343   4.010  -4.648  1.00  0.00     0.013 C 
ATOM     27  C   UNL     1      -6.275   4.320  -2.867  1.00  0.00     0.013 C 
ATOM     28  C   UNL     1      -6.915   5.265  -3.884  1.00  0.00     0.002 C 
ENDBRANCH  22  25
ENDBRANCH  20  21
ENDBRANCH  13  15
ENDBRANCH  10  11
ENDBRANCH   4   6
ENDBRANCH   3   4
ENDBRANCH   2   3
ENDBRANCH   1   2
BRANCH   1  29
ATOM     29  O   UNL     1      -1.296   1.496  -4.626  1.00  0.00    -0.374 OA
BRANCH  29  30
ATOM     30  C   UNL     1      -0.082   0.889  -4.242  1.00  0.00     0.202 C 
BRANCH  30  31
ATOM     31  C   UNL     1       1.197   1.715  -4.319  1.00  0.00     0.261 C 
BRANCH  31  32
ATOM     32  O   UNL     1       1.112   2.966  -3.630  1.00  0.00    -0.460 OA
BRANCH  32  33
ATOM     33  C   UNL     1       0.958   4.032  -4.451  1.00  0.00     0.338 C 
ATOM     34  O   UNL     1       0.882   4.020  -5.668  1.00  0.00    -0.246 OA
BRANCH  33  35
ATOM     35  C   UNL     1       0.755   5.258  -3.660  1.00  0.00     0.060 A 
ATOM     36  C   UNL     1      -0.275   6.116  -4.062  1.00  0.00     0.016 A 
ATOM     37  C   UNL     1       1.603   5.605  -2.604  1.00  0.00     0.016 A 
ATOM     38  C   UNL     1      -0.414   7.362  -3.461  1.00  0.00     0.010 A 
ATOM     39  C   UNL     1       1.468   6.862  -2.008  1.00  0.00     0.010 A 
ATOM     40  C   UNL     1       0.493   7.763  -2.472  1.00  0.00    -0.014 A 
BRANCH  40  41
ATOM     41  C   UNL     1       0.545   9.194  -2.092  1.00  0.00     0.031 A 
ATOM     42  C   UNL     1       1.568  10.076  -2.758  1.00  0.00     0.074 A 
ATOM     43  C   UNL     1      -0.342   9.713  -1.226  1.00  0.00     0.049 A 
ATOM     44  N   UNL     1       1.775  11.359  -2.612  1.00  0.00    -0.248 NA
ATOM     45  C   UNL     1       2.474   9.425  -3.720  1.00  0.00     0.031 C 
ATOM     46  C   UNL     1      -1.407   8.969  -0.555  1.00  0.00     0.029 A 
ATOM     47  N   UNL     1      -0.489  10.998  -0.770  1.00  0.00    -0.354 N 
ATOM     48  C   UNL     1       2.835  11.667  -3.458  1.00  0.00     0.074 A 
ATOM     49  C   UNL     1       3.250  10.433  -4.088  1.00  0.00     0.031 C 
ATOM     50  C   UNL     1      -2.099   9.813   0.230  1.00  0.00     0.029 A 
ATOM     51  C   UNL     1      -1.510  11.148   0.137  1.00  0.00     0.049 A 
ATOM     52  H   UNL     1       0.084  11.743  -1.064  1.00  0.00     0.167 HD
ATOM     53  C   UNL     1       3.407  12.871  -3.696  1.00  0.00     0.031 A 
ATOM     54  C   UNL     1      -1.913  12.236   0.822  1.00  0.00     0.031 A 
ATOM     55  C   UNL     1       3.002  14.094  -3.058  1.00  0.00     0.049 A 
ATOM     56  C   UNL     1      -1.214  13.551   0.594  1.00  0.00     0.074 A 
ATOM     57  C   UNL     1       3.510  15.368  -3.239  1.00  0.00     0.029 A 
ATOM     58  N   UNL     1       1.995  14.195  -2.111  1.00  0.00    -0.354 N 
ATOM     59  N   UNL     1      -0.231  13.832  -0.228  1.00  0.00    -0.248 NA
ATOM     60  C   UNL     1      -1.688  14.699   1.380  1.00  0.00     0.031 C 
ATOM     61  C   UNL     1       2.848  16.230  -2.358  1.00  0.00     0.029 A 
ATOM     62  C   UNL     1       1.885  15.504  -1.675  1.00  0.00     0.049 A 
ATOM     63  H   UNL     1       1.440  13.446  -1.794  1.00  0.00     0.167 HD
ATOM     64  C   UNL     1       0.013  15.193  -0.077  1.00  0.00     0.074 A 
ATOM     65  C   UNL     1      -0.936  15.681   0.902  1.00  0.00     0.031 C 
ATOM     66  C   UNL     1       0.937  15.972  -0.695  1.00  0.00     0.031 A 
BRANCH  53  67
ATOM     67  C   UNL     1       4.560  12.912  -4.664  1.00  0.00    -0.014 A 
ATOM     68  C   UNL     1       4.361  12.731  -6.045  1.00  0.00     0.010 A 
ATOM     69  C   UNL     1       5.859  13.162  -4.187  1.00  0.00     0.010 A 
ATOM     70  C   UNL     1       5.446  12.762  -6.926  1.00  0.00     0.020 A 
ATOM     71  C   UNL     1       6.942  13.221  -5.067  1.00  0.00     0.020 A 
ATOM     72  C   UNL     1       6.731  13.004  -6.430  1.00  0.00     0.054 A 
BRANCH  72  73
ATOM     73  S   UNL     1       8.118  13.059  -7.597  1.00  0.00     0.124 S 
ATOM     74  O   UNL     1       8.273  11.649  -7.947  1.00  0.00    -0.237 OA
ATOM     75  O   UNL     1       7.607  13.918  -8.662  1.00  0.00    -0.237 OA
ATOM     76  O   UNL     1       9.210  13.628  -6.811  1.00  0.00    -0.744 OA
ENDBRANCH  72  73
ENDBRANCH  53  67
BRANCH  54  77
ATOM     77  C   UNL     1      -3.028  12.125   1.802  1.00  0.00    -0.014 A 
ATOM     78  C   UNL     1      -4.268  12.739   1.556  1.00  0.00     0.010 A 
ATOM     79  C   UNL     1      -2.848  11.402   2.996  1.00  0.00     0.010 A 
ATOM     80  C   UNL     1      -5.303  12.644   2.492  1.00  0.00     0.020 A 
ATOM     81  C   UNL     1      -3.888  11.282   3.921  1.00  0.00     0.020 A 
ATOM     82  C   UNL     1      -5.107  11.913   3.667  1.00  0.00     0.054 A 
BRANCH  82  83
ATOM     83  S   UNL     1      -6.481  11.758   4.842  1.00  0.00     0.124 S 
ATOM     84  O   UNL     1      -6.522  13.088   5.440  1.00  0.00    -0.237 OA
ATOM     85  O   UNL     1      -7.603  11.418   3.971  1.00  0.00    -0.237 OA
ATOM     86  O   UNL     1      -6.047  10.683   5.733  1.00  0.00    -0.744 OA
ENDBRANCH  82  83
ENDBRANCH  54  77
BRANCH  66  87
ATOM     87  C   UNL     1       0.949  17.439  -0.354  1.00  0.00    -0.014 A 
ATOM     88  C   UNL     1       1.409  17.895   0.894  1.00  0.00     0.010 A 
ATOM     89  C   UNL     1       0.539  18.378  -1.318  1.00  0.00     0.010 A 
ATOM     90  C   UNL     1       1.424  19.262   1.184  1.00  0.00     0.020 A 
ATOM     91  C   UNL     1       0.581  19.747  -1.043  1.00  0.00     0.020 A 
ATOM     92  C   UNL     1       1.007  20.180   0.214  1.00  0.00     0.054 A 
BRANCH  92  93
ATOM     93  S   UNL     1       1.067  21.950   0.603  1.00  0.00     0.124 S 
ATOM     94  O   UNL     1      -0.067  22.100   1.510  1.00  0.00    -0.237 OA
ATOM     95  O   UNL     1       2.386  22.101   1.214  1.00  0.00    -0.237 OA
ATOM     96  O   UNL     1       0.914  22.596  -0.699  1.00  0.00    -0.744 OA
ENDBRANCH  92  93
ENDBRANCH  66  87
ENDBRANCH  40  41
ENDBRANCH  33  35
ENDBRANCH  32  33
ENDBRANCH  31  32
ENDBRANCH  30  31
ENDBRANCH  29  30
ENDBRANCH   1  29
TORSDOF 21
