REMARK SMILES Cc1nn(C(C)C)cc1-c1cnccc1C(=O)OCCOCCOC(=O)c1ccc(-c2c3nc(c(-c4ccc(S(=O)(=O)[O-])cc4)c4ccc([nH]4)c(-c4ccc(S(=O)(=O)[O-])cc4)c4nc(c(-c5ccc(S(=O)(=O)[O-])cc5)c5ccc2[nH]5)C=C4)C=C3)cc1
REMARK SMILES IDX 22 1 21 2 20 3 19 4 18 5 16 6 17 7 15 8 10 9 11 10 12 11
REMARK SMILES IDX 14 12 13 13 9 14 1 15 2 16 3 17 4 18 8 19 5 20 6 21 7 22
REMARK SMILES IDX 23 23 24 24 25 25 26 26 27 27 28 28 86 29 29 30 85 31 30 32
REMARK SMILES IDX 31 33 32 34 79 35 33 36 84 37 78 38 80 39 34 40 83 41 77 42
REMARK SMILES IDX 76 43 35 45 65 46 46 47 64 48 47 49 50 50 63 51 81 52 48 53
REMARK SMILES IDX 49 54 62 56 82 57 51 58 36 59 37 60 45 61 38 62 44 63 39 64
REMARK SMILES IDX 40 65 41 66 42 67 43 68 66 69 67 70 75 71 68 72 74 73 69 74
REMARK SMILES IDX 70 75 71 76 72 77 73 78 52 79 53 80 61 81 54 82 60 83 55 84
REMARK SMILES IDX 56 85 57 86 58 87 59 88
REMARK H PARENT 80 44 50 55
REMARK Flexibility Score: inf
ROOT
ATOM      1  C   UNL     1      -5.072   0.390  -1.494  1.00  0.00     0.202 C 
ENDROOT
BRANCH   1   2
ATOM      2  O   UNL     1      -5.757  -0.844  -1.685  1.00  0.00    -0.374 OA
BRANCH   2   3
ATOM      3  C   UNL     1      -5.032  -2.070  -1.586  1.00  0.00     0.202 C 
BRANCH   3   4
ATOM      4  C   UNL     1      -3.967  -2.343  -2.645  1.00  0.00     0.261 C 
BRANCH   4   5
ATOM      5  O   UNL     1      -2.912  -1.370  -2.599  1.00  0.00    -0.460 OA
BRANCH   5   6
ATOM      6  C   UNL     1      -2.706  -0.681  -3.745  1.00  0.00     0.338 C 
ATOM      7  O   UNL     1      -3.307  -0.824  -4.799  1.00  0.00    -0.246 OA
BRANCH   6   8
ATOM      8  C   UNL     1      -1.760   0.438  -3.542  1.00  0.00     0.071 A 
ATOM      9  C   UNL     1      -0.506   0.333  -2.928  1.00  0.00     0.018 A 
ATOM     10  C   UNL     1       0.270   1.491  -2.928  1.00  0.00     0.120 A 
ATOM     11  N   UNL     1      -0.121   2.693  -3.420  1.00  0.00    -0.264 NA
ATOM     12  C   UNL     1      -2.195   1.673  -4.048  1.00  0.00     0.036 A 
ATOM     13  C   UNL     1      -1.354   2.763  -3.950  1.00  0.00     0.112 A 
BRANCH   9  14
ATOM     14  C   UNL     1       0.010  -0.860  -2.283  1.00  0.00     0.025 A 
ATOM     15  C   UNL     1       1.043  -0.010  -0.011  1.00  0.00     0.069 C 
ATOM     16  C   UNL     1       0.662  -1.028  -1.025  1.00  0.00     0.067 A 
ATOM     17  N   UNL     1       0.941  -2.314  -0.785  1.00  0.00    -0.177 NA
ATOM     18  N   UNL     1       0.481  -2.964  -1.867  1.00  0.00    -0.269 N 
ATOM     19  C   UNL     1      -0.034  -2.130  -2.818  1.00  0.00     0.118 A 
BRANCH  18  20
ATOM     20  C   UNL     1       0.582  -4.417  -1.948  1.00  0.00     0.101 C 
ATOM     21  C   UNL     1       2.041  -4.864  -1.964  1.00  0.00     0.033 C 
ATOM     22  C   UNL     1      -0.205  -5.101  -0.830  1.00  0.00     0.033 C 
ENDBRANCH  18  20
ENDBRANCH   9  14
ENDBRANCH   6   8
ENDBRANCH   5   6
ENDBRANCH   4   5
ENDBRANCH   3   4
ENDBRANCH   2   3
ENDBRANCH   1   2
BRANCH   1  23
ATOM     23  C   UNL     1      -4.570   0.736  -0.099  1.00  0.00     0.261 C 
BRANCH  23  24
ATOM     24  O   UNL     1      -3.684  -0.236   0.431  1.00  0.00    -0.460 OA
BRANCH  24  25
ATOM     25  C   UNL     1      -4.264  -1.051   1.348  1.00  0.00     0.338 C 
ATOM     26  O   UNL     1      -5.451  -1.275   1.482  1.00  0.00    -0.246 OA
BRANCH  25  27
ATOM     27  C   UNL     1      -3.236  -1.485   2.299  1.00  0.00     0.060 A 
ATOM     28  C   UNL     1      -3.691  -2.177   3.421  1.00  0.00     0.016 A 
ATOM     29  C   UNL     1      -1.947  -0.939   2.232  1.00  0.00     0.016 A 
ATOM     30  C   UNL     1      -2.933  -2.114   4.566  1.00  0.00     0.010 A 
ATOM     31  C   UNL     1      -1.196  -0.867   3.379  1.00  0.00     0.010 A 
ATOM     32  C   UNL     1      -1.742  -1.376   4.551  1.00  0.00    -0.014 A 
BRANCH  32  33
ATOM     33  C   UNL     1      -0.997  -1.279   5.785  1.00  0.00     0.031 A 
ATOM     34  C   UNL     1      -0.390  -2.574   6.148  1.00  0.00     0.074 A 
ATOM     35  C   UNL     1      -0.828  -0.133   6.468  1.00  0.00     0.049 A 
ATOM     36  N   UNL     1      -0.809  -3.397   7.049  1.00  0.00    -0.248 NA
ATOM     37  C   UNL     1       0.640  -3.127   5.252  1.00  0.00     0.031 C 
ATOM     38  C   UNL     1      -1.173   1.231   6.061  1.00  0.00     0.029 A 
ATOM     39  N   UNL     1      -0.205   0.056   7.660  1.00  0.00    -0.354 N 
ATOM     40  C   UNL     1       0.082  -4.458   7.009  1.00  0.00     0.074 A 
ATOM     41  C   UNL     1       0.776  -4.356   5.751  1.00  0.00     0.031 C 
ATOM     42  C   UNL     1      -0.537   2.111   6.873  1.00  0.00     0.029 A 
ATOM     43  C   UNL     1       0.139   1.376   7.930  1.00  0.00     0.049 A 
ATOM     44  H   UNL     1      -0.013  -0.682   8.283  1.00  0.00     0.167 HD
ATOM     45  C   UNL     1       0.415  -5.122   8.148  1.00  0.00     0.031 A 
ATOM     46  C   UNL     1       0.974   1.806   8.913  1.00  0.00     0.031 A 
ATOM     47  C   UNL     1      -0.529  -4.867   9.208  1.00  0.00     0.049 A 
ATOM     48  C   UNL     1       1.039   0.726   9.930  1.00  0.00     0.074 A 
ATOM     49  C   UNL     1      -1.892  -5.036   9.360  1.00  0.00     0.029 A 
ATOM     50  N   UNL     1      -0.146  -3.965  10.173  1.00  0.00    -0.354 N 
ATOM     51  N   UNL     1       0.020   0.376  10.665  1.00  0.00    -0.248 NA
ATOM     52  C   UNL     1       2.082  -0.280   9.796  1.00  0.00     0.031 C 
ATOM     53  C   UNL     1      -2.327  -3.897  10.098  1.00  0.00     0.029 A 
ATOM     54  C   UNL     1      -1.205  -3.134  10.426  1.00  0.00     0.049 A 
ATOM     55  H   UNL     1       0.737  -3.924  10.607  1.00  0.00     0.167 HD
ATOM     56  C   UNL     1       0.072  -1.010  10.706  1.00  0.00     0.074 A 
ATOM     57  C   UNL     1       1.414  -1.351  10.234  1.00  0.00     0.031 C 
ATOM     58  C   UNL     1      -1.067  -1.753  10.844  1.00  0.00     0.031 A 
BRANCH  45  59
ATOM     59  C   UNL     1       1.828  -5.575   8.425  1.00  0.00    -0.014 A 
ATOM     60  C   UNL     1       2.090  -6.266   9.622  1.00  0.00     0.010 A 
ATOM     61  C   UNL     1       2.944  -5.094   7.706  1.00  0.00     0.010 A 
ATOM     62  C   UNL     1       3.396  -6.399  10.109  1.00  0.00     0.020 A 
ATOM     63  C   UNL     1       4.251  -5.260   8.157  1.00  0.00     0.020 A 
ATOM     64  C   UNL     1       4.466  -5.884   9.375  1.00  0.00     0.054 A 
BRANCH  64  65
ATOM     65  S   UNL     1       6.137  -5.982  10.053  1.00  0.00     0.124 S 
ATOM     66  O   UNL     1       6.038  -5.110  11.219  1.00  0.00    -0.237 OA
ATOM     67  O   UNL     1       6.269  -7.409  10.334  1.00  0.00    -0.237 OA
ATOM     68  O   UNL     1       6.976  -5.486   8.965  1.00  0.00    -0.744 OA
ENDBRANCH  64  65
ENDBRANCH  45  59
BRANCH  46  69
ATOM     69  C   UNL     1       1.981   2.900   8.849  1.00  0.00    -0.014 A 
ATOM     70  C   UNL     1       2.664   3.330  10.005  1.00  0.00     0.010 A 
ATOM     71  C   UNL     1       2.489   3.318   7.603  1.00  0.00     0.010 A 
ATOM     72  C   UNL     1       3.846   4.088   9.913  1.00  0.00     0.020 A 
ATOM     73  C   UNL     1       3.662   4.078   7.503  1.00  0.00     0.020 A 
ATOM     74  C   UNL     1       4.351   4.439   8.658  1.00  0.00     0.054 A 
BRANCH  74  75
ATOM     75  S   UNL     1       5.973   5.254   8.534  1.00  0.00     0.124 S 
ATOM     76  O   UNL     1       5.691   6.589   9.052  1.00  0.00    -0.237 OA
ATOM     77  O   UNL     1       6.819   4.414   9.377  1.00  0.00    -0.237 OA
ATOM     78  O   UNL     1       6.277   5.196   7.104  1.00  0.00    -0.744 OA
ENDBRANCH  74  75
ENDBRANCH  46  69
BRANCH  58  79
ATOM     79  C   UNL     1      -2.335  -1.054  11.278  1.00  0.00    -0.014 A 
ATOM     80  C   UNL     1      -2.969  -0.027  10.551  1.00  0.00     0.010 A 
ATOM     81  C   UNL     1      -2.982  -1.565  12.416  1.00  0.00     0.010 A 
ATOM     82  C   UNL     1      -4.203   0.494  10.975  1.00  0.00     0.020 A 
ATOM     83  C   UNL     1      -4.217  -1.065  12.833  1.00  0.00     0.020 A 
ATOM     84  C   UNL     1      -4.817  -0.030  12.118  1.00  0.00     0.054 A 
BRANCH  84  85
ATOM     85  S   UNL     1      -6.423   0.624  12.656  1.00  0.00     0.124 S 
ATOM     86  O   UNL     1      -6.088   1.980  13.082  1.00  0.00    -0.237 OA
ATOM     87  O   UNL     1      -7.236   0.526  11.447  1.00  0.00    -0.237 OA
ATOM     88  O   UNL     1      -6.824  -0.280  13.735  1.00  0.00    -0.744 OA
ENDBRANCH  84  85
ENDBRANCH  58  79
ENDBRANCH  32  33
ENDBRANCH  25  27
ENDBRANCH  24  25
ENDBRANCH  23  24
ENDBRANCH   1  23
TORSDOF 19
