REMARK SMILES O=C(OCCOCCOC(=O)c1ccc(-c2ccn(C(F)F)c(=O)c2)cc1O)c1ccc(-c2c3nc(c(-c4ccc(S(=O)(=O)[O-])cc4)c4ccc([nH]4)c(-c4ccc(S(=O)(=O)[O-])cc4)c4nc(c(-c5ccc(S(=O)(=O)[O-])cc5)c5ccc2[nH]5)C=C4)C=C3)cc1
REMARK SMILES IDX 5 1 4 2 3 3 2 4 1 5 29 6 30 7 88 8 31 9 87 10 32 11 33 12
REMARK SMILES IDX 34 13 81 14 35 15 86 16 80 17 82 18 36 19 85 20 79 21 78 22
REMARK SMILES IDX 37 24 67 25 48 26 66 27 49 28 52 29 65 30 83 31 50 32 51 33
REMARK SMILES IDX 64 35 84 36 53 37 38 38 39 39 47 40 40 41 46 42 41 43 42 44
REMARK SMILES IDX 43 45 44 46 45 47 68 48 69 49 77 50 70 51 76 52 71 53 72 54
REMARK SMILES IDX 73 55 74 56 75 57 54 58 55 59 63 60 56 61 62 62 57 63 58 64
REMARK SMILES IDX 59 65 60 66 61 67 6 68 7 69 8 70 9 71 10 72 11 73 12 74
REMARK SMILES IDX 13 75 27 76 14 77 26 78 15 79 28 80 16 82 17 83 25 84 18 85
REMARK SMILES IDX 23 86 19 87 24 88 20 89 21 90 22 91
REMARK H PARENT 82 23 52 34 28 81
REMARK Flexibility Score: inf
ROOT
ATOM      1  C   UNL     1       4.662   1.291  -0.378  1.00  0.00     0.202 C 
ENDROOT
BRANCH   1   2
ATOM      2  C   UNL     1       4.278   0.220  -1.398  1.00  0.00     0.261 C 
BRANCH   2   3
ATOM      3  O   UNL     1       2.925  -0.235  -1.280  1.00  0.00    -0.460 OA
BRANCH   3   4
ATOM      4  C   UNL     1       2.510  -1.359  -0.641  1.00  0.00     0.338 C 
ATOM      5  O   UNL     1       1.454  -1.886  -0.984  1.00  0.00    -0.246 OA
BRANCH   4   6
ATOM      6  C   UNL     1       3.174  -1.827   0.612  1.00  0.00     0.060 A 
ATOM      7  C   UNL     1       2.332  -2.321   1.625  1.00  0.00     0.016 A 
ATOM      8  C   UNL     1       4.549  -1.802   0.848  1.00  0.00     0.016 A 
ATOM      9  C   UNL     1       2.855  -2.723   2.858  1.00  0.00     0.010 A 
ATOM     10  C   UNL     1       5.067  -2.117   2.096  1.00  0.00     0.010 A 
ATOM     11  C   UNL     1       4.227  -2.603   3.097  1.00  0.00    -0.014 A 
BRANCH  11  12
ATOM     12  C   UNL     1       4.875  -3.222   4.263  1.00  0.00     0.031 A 
ATOM     13  C   UNL     1       5.182  -2.449   5.500  1.00  0.00     0.074 A 
ATOM     14  C   UNL     1       5.319  -4.479   4.086  1.00  0.00     0.049 A 
ATOM     15  N   UNL     1       5.691  -2.886   6.620  1.00  0.00    -0.248 NA
ATOM     16  C   UNL     1       4.901  -1.006   5.481  1.00  0.00     0.031 C 
ATOM     17  C   UNL     1       5.153  -5.251   2.849  1.00  0.00     0.029 A 
ATOM     18  N   UNL     1       6.026  -5.307   4.908  1.00  0.00    -0.354 N 
ATOM     19  C   UNL     1       5.741  -1.788   7.466  1.00  0.00     0.074 A 
ATOM     20  C   UNL     1       5.280  -0.646   6.703  1.00  0.00     0.031 C 
ATOM     21  C   UNL     1       5.762  -6.434   2.988  1.00  0.00     0.029 A 
ATOM     22  C   UNL     1       6.333  -6.512   4.327  1.00  0.00     0.049 A 
ATOM     23  H   UNL     1       6.290  -5.065   5.825  1.00  0.00     0.167 HD
ATOM     24  C   UNL     1       6.113  -1.766   8.768  1.00  0.00     0.031 A 
ATOM     25  C   UNL     1       6.976  -7.580   4.829  1.00  0.00     0.031 A 
ATOM     26  C   UNL     1       6.638  -2.922   9.457  1.00  0.00     0.049 A 
ATOM     27  C   UNL     1       7.365  -7.545   6.273  1.00  0.00     0.074 A 
ATOM     28  C   UNL     1       6.994  -3.046  10.787  1.00  0.00     0.029 A 
ATOM     29  N   UNL     1       6.902  -4.151   8.860  1.00  0.00    -0.354 N 
ATOM     30  N   UNL     1       7.260  -6.548   7.123  1.00  0.00    -0.248 NA
ATOM     31  C   UNL     1       7.904  -8.780   6.845  1.00  0.00     0.031 C 
ATOM     32  C   UNL     1       7.542  -4.320  10.976  1.00  0.00     0.029 A 
ATOM     33  C   UNL     1       7.451  -5.025   9.785  1.00  0.00     0.049 A 
ATOM     34  H   UNL     1       6.725  -4.368   7.916  1.00  0.00     0.167 HD
ATOM     35  C   UNL     1       7.713  -7.038   8.338  1.00  0.00     0.074 A 
ATOM     36  C   UNL     1       8.058  -8.431   8.116  1.00  0.00     0.031 C 
ATOM     37  C   UNL     1       7.835  -6.395   9.527  1.00  0.00     0.031 A 
BRANCH  24  38
ATOM     38  C   UNL     1       5.925  -0.486   9.548  1.00  0.00    -0.014 A 
ATOM     39  C   UNL     1       7.021   0.160  10.150  1.00  0.00     0.010 A 
ATOM     40  C   UNL     1       4.629   0.007   9.801  1.00  0.00     0.010 A 
ATOM     41  C   UNL     1       6.825   1.243  11.016  1.00  0.00     0.020 A 
ATOM     42  C   UNL     1       4.431   1.108  10.642  1.00  0.00     0.020 A 
ATOM     43  C   UNL     1       5.529   1.702  11.265  1.00  0.00     0.054 A 
BRANCH  43  44
ATOM     44  S   UNL     1       5.288   3.075  12.428  1.00  0.00     0.124 S 
ATOM     45  O   UNL     1       5.565   2.443  13.714  1.00  0.00    -0.237 OA
ATOM     46  O   UNL     1       6.278   4.051  11.978  1.00  0.00    -0.237 OA
ATOM     47  O   UNL     1       3.897   3.468  12.213  1.00  0.00    -0.744 OA
ENDBRANCH  43  44
ENDBRANCH  24  38
BRANCH  25  48
ATOM     48  C   UNL     1       7.121  -8.778   3.963  1.00  0.00    -0.014 A 
ATOM     49  C   UNL     1       7.976  -8.746   2.843  1.00  0.00     0.010 A 
ATOM     50  C   UNL     1       6.253  -9.870   4.132  1.00  0.00     0.010 A 
ATOM     51  C   UNL     1       7.906  -9.749   1.873  1.00  0.00     0.020 A 
ATOM     52  C   UNL     1       6.201 -10.889   3.177  1.00  0.00     0.020 A 
ATOM     53  C   UNL     1       7.002 -10.802   2.036  1.00  0.00     0.054 A 
BRANCH  53  54
ATOM     54  S   UNL     1       6.847 -12.028   0.709  1.00  0.00     0.124 S 
ATOM     55  O   UNL     1       6.144 -11.267  -0.321  1.00  0.00    -0.237 OA
ATOM     56  O   UNL     1       8.239 -12.353   0.411  1.00  0.00    -0.237 OA
ATOM     57  O   UNL     1       6.075 -13.105   1.325  1.00  0.00    -0.744 OA
ENDBRANCH  53  54
ENDBRANCH  25  48
BRANCH  37  58
ATOM     58  C   UNL     1       8.422  -7.181  10.671  1.00  0.00    -0.014 A 
ATOM     59  C   UNL     1       7.642  -7.469  11.805  1.00  0.00     0.010 A 
ATOM     60  C   UNL     1       9.774  -7.569  10.652  1.00  0.00     0.010 A 
ATOM     61  C   UNL     1       8.207  -8.114  12.907  1.00  0.00     0.020 A 
ATOM     62  C   UNL     1      10.333  -8.247  11.737  1.00  0.00     0.020 A 
ATOM     63  C   UNL     1       9.550  -8.497  12.867  1.00  0.00     0.054 A 
BRANCH  63  64
ATOM     64  S   UNL     1      10.265  -9.340  14.304  1.00  0.00     0.124 S 
ATOM     65  O   UNL     1      10.449  -8.240  15.245  1.00  0.00    -0.237 OA
ATOM     66  O   UNL     1       9.227 -10.306  14.657  1.00  0.00    -0.237 OA
ATOM     67  O   UNL     1      11.496  -9.926  13.779  1.00  0.00    -0.744 OA
ENDBRANCH  63  64
ENDBRANCH  37  58
ENDBRANCH  11  12
ENDBRANCH   4   6
ENDBRANCH   3   4
ENDBRANCH   2   3
ENDBRANCH   1   2
BRANCH   1  68
ATOM     68  O   UNL     1       4.406   1.015   0.995  1.00  0.00    -0.374 OA
BRANCH  68  69
ATOM     69  C   UNL     1       3.128   1.442   1.479  1.00  0.00     0.202 C 
BRANCH  69  70
ATOM     70  C   UNL     1       3.094   2.896   1.966  1.00  0.00     0.261 C 
BRANCH  70  71
ATOM     71  O   UNL     1       3.402   3.806   0.900  1.00  0.00    -0.460 OA
BRANCH  71  72
ATOM     72  C   UNL     1       4.683   4.262   0.871  1.00  0.00     0.341 C 
ATOM     73  O   UNL     1       5.566   4.059   1.676  1.00  0.00    -0.246 OA
BRANCH  72  74
ATOM     74  C   UNL     1       4.929   4.847  -0.463  1.00  0.00     0.101 A 
ATOM     75  C   UNL     1       5.994   4.322  -1.217  1.00  0.00     0.020 A 
ATOM     76  C   UNL     1       4.133   5.861  -0.988  1.00  0.00     0.130 A 
ATOM     77  C   UNL     1       6.248   4.795  -2.505  1.00  0.00     0.010 A 
ATOM     78  C   UNL     1       4.399   6.351  -2.263  1.00  0.00     0.055 A 
ATOM     79  C   UNL     1       5.461   5.826  -3.020  1.00  0.00    -0.014 A 
BRANCH  76  80
ATOM     80  O   UNL     1       3.130   6.411  -0.245  1.00  0.00    -0.507 OA
ATOM     81  H   UNL     1       2.949   6.083   0.614  1.00  0.00     0.293 HD
ENDBRANCH  76  80
BRANCH  79  82
ATOM     82  C   UNL     1       5.808   6.507  -4.274  1.00  0.00    -0.011 A 
ATOM     83  C   UNL     1       6.563   7.742  -4.242  1.00  0.00     0.027 A 
ATOM     84  C   UNL     1       5.314   6.058  -5.440  1.00  0.00     0.080 A 
ATOM     85  C   UNL     1       6.650   8.509  -5.331  1.00  0.00     0.095 A 
ATOM     86  C   UNL     1       5.454   6.880  -6.678  1.00  0.00     0.255 A 
ATOM     87  N   UNL     1       6.075   8.111  -6.522  1.00  0.00    -0.258 N 
ATOM     88  O   UNL     1       4.980   6.450  -7.725  1.00  0.00    -0.269 OA
BRANCH  87  89
ATOM     89  C   UNL     1       6.064   9.004  -7.650  1.00  0.00     0.451 C 
ATOM     90  F   UNL     1       6.678   8.459  -8.726  1.00  0.00    -0.185 F 
ATOM     91  F   UNL     1       4.791   9.315  -8.002  1.00  0.00    -0.185 F 
ENDBRANCH  87  89
ENDBRANCH  79  82
ENDBRANCH  72  74
ENDBRANCH  71  72
ENDBRANCH  70  71
ENDBRANCH  69  70
ENDBRANCH  68  69
ENDBRANCH   1  68
TORSDOF 20
