REMARK SMILES CCC[C@H](Cc1ccn(-c2ccccc2)n1)C(=O)OCCOCCOC(=O)c1ccc(-c2c3nc(c(-c4ccc(S(=O)(=O)[O-])cc4)c4ccc([nH]4)c(-c4ccc(S(=O)(=O)[O-])cc4)c4nc(c(-c5ccc(S(=O)(=O)[O-])cc5)c5ccc2[nH]5)C=C4)C=C3)cc1
REMARK SMILES IDX 22 1 21 2 20 3 19 4 17 5 18 6 4 7 3 8 2 9 1 10 5 11 6 12
REMARK SMILES IDX 7 13 16 14 8 15 9 16 10 17 11 18 15 19 12 20 14 21 13 22
REMARK SMILES IDX 23 23 24 24 25 25 26 26 27 27 28 28 29 29 87 30 30 31 86 32
REMARK SMILES IDX 31 33 32 34 33 35 80 36 34 37 85 38 79 39 81 40 35 41 84 42
REMARK SMILES IDX 78 43 77 44 36 46 66 47 47 48 65 49 48 50 51 51 64 52 82 53
REMARK SMILES IDX 49 54 50 55 63 57 83 58 52 59 37 60 38 61 46 62 39 63 45 64
REMARK SMILES IDX 40 65 41 66 42 67 43 68 44 69 67 70 68 71 76 72 69 73 75 74
REMARK SMILES IDX 70 75 71 76 72 77 73 78 74 79 53 80 54 81 62 82 55 83 61 84
REMARK SMILES IDX 56 85 57 86 58 87 59 88 60 89
REMARK H PARENT 81 45 51 56
REMARK Flexibility Score: inf
ROOT
ATOM      1  O   UNL     1       3.519   5.036  -3.465  1.00  0.00    -0.374 OA
ENDROOT
BRANCH   1   2
ATOM      2  C   UNL     1       2.617   6.055  -3.054  1.00  0.00     0.202 C 
BRANCH   2   3
ATOM      3  C   UNL     1       1.150   5.714  -2.805  1.00  0.00     0.261 C 
BRANCH   3   4
ATOM      4  O   UNL     1       0.917   4.640  -1.880  1.00  0.00    -0.463 OA
BRANCH   4   5
ATOM      5  C   UNL     1       0.505   3.479  -2.459  1.00  0.00     0.309 C 
ATOM      6  O   UNL     1       0.455   3.281  -3.669  1.00  0.00    -0.252 OA
BRANCH   5   7
ATOM      7  C   UNL     1      -0.019   2.472  -1.465  1.00  0.00     0.105 C 
BRANCH   7   8
ATOM      8  C   UNL     1      -1.562   2.559  -1.444  1.00  0.00     0.015 C 
BRANCH   8   9
ATOM      9  C   UNL     1      -2.155   3.926  -1.074  1.00  0.00    -0.003 C 
ATOM     10  C   UNL     1      -2.447   4.807  -2.284  1.00  0.00     0.004 C 
ENDBRANCH   8   9
ENDBRANCH   7   8
BRANCH   7  11
ATOM     11  C   UNL     1       0.663   2.508  -0.082  1.00  0.00     0.073 C 
BRANCH  11  12
ATOM     12  C   UNL     1       0.277   1.311   0.741  1.00  0.00     0.064 A 
ATOM     13  C   UNL     1      -0.634   1.273   1.818  1.00  0.00     0.046 A 
ATOM     14  N   UNL     1       0.727   0.086   0.429  1.00  0.00    -0.173 NA
ATOM     15  C   UNL     1      -0.867  -0.063   2.028  1.00  0.00     0.115 A 
ATOM     16  N   UNL     1      -0.058  -0.753   1.155  1.00  0.00    -0.241 N 
BRANCH  16  17
ATOM     17  C   UNL     1      -0.071  -2.149   0.926  1.00  0.00     0.065 A 
ATOM     18  C   UNL     1      -1.290  -2.843   0.937  1.00  0.00     0.028 A 
ATOM     19  C   UNL     1       1.127  -2.832   0.695  1.00  0.00     0.028 A 
ATOM     20  C   UNL     1      -1.306  -4.221   0.716  1.00  0.00     0.002 A 
ATOM     21  C   UNL     1       1.106  -4.220   0.534  1.00  0.00     0.002 A 
ATOM     22  C   UNL     1      -0.108  -4.911   0.536  1.00  0.00     0.000 A 
ENDBRANCH  16  17
ENDBRANCH  11  12
ENDBRANCH   7  11
ENDBRANCH   5   7
ENDBRANCH   4   5
ENDBRANCH   3   4
ENDBRANCH   2   3
ENDBRANCH   1   2
BRANCH   1  23
ATOM     23  C   UNL     1       3.752   3.892  -2.652  1.00  0.00     0.202 C 
BRANCH  23  24
ATOM     24  C   UNL     1       4.361   4.067  -1.268  1.00  0.00     0.261 C 
BRANCH  24  25
ATOM     25  O   UNL     1       3.600   4.934  -0.441  1.00  0.00    -0.460 OA
BRANCH  25  26
ATOM     26  C   UNL     1       4.145   6.162  -0.317  1.00  0.00     0.338 C 
ATOM     27  O   UNL     1       5.005   6.662  -1.039  1.00  0.00    -0.246 OA
BRANCH  26  28
ATOM     28  C   UNL     1       3.698   6.769   0.934  1.00  0.00     0.060 A 
ATOM     29  C   UNL     1       4.385   7.928   1.293  1.00  0.00     0.016 A 
ATOM     30  C   UNL     1       2.992   5.992   1.865  1.00  0.00     0.016 A 
ATOM     31  C   UNL     1       4.635   8.127   2.625  1.00  0.00     0.010 A 
ATOM     32  C   UNL     1       3.243   6.196   3.199  1.00  0.00     0.010 A 
ATOM     33  C   UNL     1       4.147   7.194   3.550  1.00  0.00    -0.014 A 
BRANCH  33  34
ATOM     34  C   UNL     1       4.494   7.399   4.937  1.00  0.00     0.031 A 
ATOM     35  C   UNL     1       3.815   8.597   5.465  1.00  0.00     0.074 A 
ATOM     36  C   UNL     1       5.295   6.577   5.638  1.00  0.00     0.049 A 
ATOM     37  N   UNL     1       4.341   9.760   5.650  1.00  0.00    -0.248 NA
ATOM     38  C   UNL     1       2.344   8.581   5.524  1.00  0.00     0.031 C 
ATOM     39  C   UNL     1       5.817   5.265   5.242  1.00  0.00     0.029 A 
ATOM     40  N   UNL     1       5.744   6.709   6.915  1.00  0.00    -0.354 N 
ATOM     41  C   UNL     1       3.304  10.552   6.117  1.00  0.00     0.074 A 
ATOM     42  C   UNL     1       2.086   9.864   5.779  1.00  0.00     0.031 C 
ATOM     43  C   UNL     1       6.298   4.627   6.337  1.00  0.00     0.029 A 
ATOM     44  C   UNL     1       6.256   5.540   7.468  1.00  0.00     0.049 A 
ATOM     45  H   UNL     1       5.708   7.561   7.407  1.00  0.00     0.167 HD
ATOM     46  C   UNL     1       3.544  11.513   7.049  1.00  0.00     0.031 A 
ATOM     47  C   UNL     1       6.580   5.342   8.772  1.00  0.00     0.031 A 
ATOM     48  C   UNL     1       4.955  11.786   7.159  1.00  0.00     0.049 A 
ATOM     49  C   UNL     1       6.802   6.678   9.371  1.00  0.00     0.074 A 
ATOM     50  C   UNL     1       5.913  12.396   6.381  1.00  0.00     0.029 A 
ATOM     51  N   UNL     1       5.607  10.989   8.068  1.00  0.00    -0.354 N 
ATOM     52  N   UNL     1       7.793   7.449   9.023  1.00  0.00    -0.248 NA
ATOM     53  C   UNL     1       5.709   7.346  10.065  1.00  0.00     0.031 C 
ATOM     54  C   UNL     1       7.142  11.746   6.698  1.00  0.00     0.029 A 
ATOM     55  C   UNL     1       6.910  10.800   7.697  1.00  0.00     0.049 A 
ATOM     56  H   UNL     1       5.194  10.607   8.876  1.00  0.00     0.167 HD
ATOM     57  C   UNL     1       7.264   8.727   9.046  1.00  0.00     0.074 A 
ATOM     58  C   UNL     1       6.051   8.621   9.850  1.00  0.00     0.031 C 
ATOM     59  C   UNL     1       7.696   9.674   8.163  1.00  0.00     0.031 A 
BRANCH  46  60
ATOM     60  C   UNL     1       2.605  11.774   8.205  1.00  0.00    -0.014 A 
ATOM     61  C   UNL     1       2.960  12.762   9.145  1.00  0.00     0.010 A 
ATOM     62  C   UNL     1       1.561  10.897   8.567  1.00  0.00     0.010 A 
ATOM     63  C   UNL     1       2.342  12.826  10.401  1.00  0.00     0.020 A 
ATOM     64  C   UNL     1       0.914  10.973   9.800  1.00  0.00     0.020 A 
ATOM     65  C   UNL     1       1.329  11.921  10.722  1.00  0.00     0.054 A 
BRANCH  65  66
ATOM     66  S   UNL     1       0.595  11.952  12.373  1.00  0.00     0.124 S 
ATOM     67  O   UNL     1       1.725  11.572  13.213  1.00  0.00    -0.237 OA
ATOM     68  O   UNL     1       0.153  13.339  12.485  1.00  0.00    -0.237 OA
ATOM     69  O   UNL     1      -0.481  10.966  12.285  1.00  0.00    -0.744 OA
ENDBRANCH  65  66
ENDBRANCH  46  60
BRANCH  47  70
ATOM     70  C   UNL     1       6.453   4.117   9.599  1.00  0.00    -0.014 A 
ATOM     71  C   UNL     1       7.129   3.989  10.828  1.00  0.00     0.010 A 
ATOM     72  C   UNL     1       5.422   3.198   9.321  1.00  0.00     0.010 A 
ATOM     73  C   UNL     1       6.745   3.017  11.771  1.00  0.00     0.020 A 
ATOM     74  C   UNL     1       5.033   2.228  10.255  1.00  0.00     0.020 A 
ATOM     75  C   UNL     1       5.682   2.156  11.487  1.00  0.00     0.054 A 
BRANCH  75  76
ATOM     76  S   UNL     1       5.072   1.024  12.775  1.00  0.00     0.124 S 
ATOM     77  O   UNL     1       6.157   0.052  12.875  1.00  0.00    -0.237 OA
ATOM     78  O   UNL     1       4.908   1.908  13.926  1.00  0.00    -0.237 OA
ATOM     79  O   UNL     1       3.825   0.505  12.216  1.00  0.00    -0.744 OA
ENDBRANCH  75  76
ENDBRANCH  47  70
BRANCH  59  80
ATOM     80  C   UNL     1       9.040   9.458   7.519  1.00  0.00    -0.014 A 
ATOM     81  C   UNL     1       9.337   8.420   6.614  1.00  0.00     0.010 A 
ATOM     82  C   UNL     1      10.028  10.420   7.790  1.00  0.00     0.010 A 
ATOM     83  C   UNL     1      10.606   8.338   6.019  1.00  0.00     0.020 A 
ATOM     84  C   UNL     1      11.283  10.354   7.188  1.00  0.00     0.020 A 
ATOM     85  C   UNL     1      11.572   9.306   6.314  1.00  0.00     0.054 A 
BRANCH  85  86
ATOM     86  S   UNL     1      13.206   9.216   5.531  1.00  0.00     0.124 S 
ATOM     87  O   UNL     1      13.792   8.033   6.153  1.00  0.00    -0.237 OA
ATOM     88  O   UNL     1      12.880   9.086   4.112  1.00  0.00    -0.237 OA
ATOM     89  O   UNL     1      13.838  10.483   5.897  1.00  0.00    -0.744 OA
ENDBRANCH  85  86
ENDBRANCH  59  80
ENDBRANCH  33  34
ENDBRANCH  26  28
ENDBRANCH  25  26
ENDBRANCH  24  25
ENDBRANCH  23  24
ENDBRANCH   1  23
TORSDOF 22
