REMARK SMILES [NH3+]Cc1c(-c2ccccc2)c(C(=O)OCCOCCOC(=O)c2ccc(-c3c4nc(c(-c5ccc(S(=O)(=O)[O-])cc5)c5ccc([nH]5)c(-c5ccc(S(=O)(=O)[O-])cc5)c5nc(c(-c6ccc(S(=O)(=O)[O-])cc6)c6ccc3[nH]6)C=C5)C=C4)cc2)c2ccccn12
REMARK SMILES IDX 18 1 17 2 16 3 15 4 14 5 12 6 13 7 11 8 3 9 4 10 88 11 83 12
REMARK SMILES IDX 87 13 84 14 86 15 85 16 2 17 1 18 5 22 6 23 10 24 7 25 9 26
REMARK SMILES IDX 8 27 19 28 20 29 21 30 22 31 23 32 24 33 82 34 25 35 81 36
REMARK SMILES IDX 26 37 27 38 28 39 75 40 29 41 80 42 74 43 76 44 30 45 79 46
REMARK SMILES IDX 73 47 72 48 31 50 61 51 42 52 60 53 43 54 46 55 59 56 77 57
REMARK SMILES IDX 44 58 45 59 58 61 78 62 47 63 32 64 33 65 41 66 34 67 40 68
REMARK SMILES IDX 35 69 36 70 37 71 38 72 39 73 62 74 63 75 71 76 64 77 70 78
REMARK SMILES IDX 65 79 66 80 67 81 68 82 69 83 48 84 49 85 57 86 50 87 56 88
REMARK SMILES IDX 51 89 52 90 53 91 54 92 55 93
REMARK H PARENT 1 19 1 20 1 21 76 49 46 60
REMARK Flexibility Score: inf
ROOT
ATOM      1  C   UNL     1      -1.063  -6.622   2.076  1.00  0.00     0.202 C 
ENDROOT
BRANCH   1   2
ATOM      2  O   UNL     1      -0.555  -7.952   2.153  1.00  0.00    -0.374 OA
BRANCH   2   3
ATOM      3  C   UNL     1       0.636  -8.129   2.929  1.00  0.00     0.202 C 
BRANCH   3   4
ATOM      4  C   UNL     1       1.923  -7.736   2.199  1.00  0.00     0.261 C 
BRANCH   4   5
ATOM      5  O   UNL     1       2.054  -6.302   2.205  1.00  0.00    -0.460 OA
BRANCH   5   6
ATOM      6  C   UNL     1       2.171  -5.704   0.986  1.00  0.00     0.341 C 
ATOM      7  O   UNL     1       2.390  -6.306  -0.059  1.00  0.00    -0.246 OA
BRANCH   6   8
ATOM      8  C   UNL     1       1.894  -4.270   1.034  1.00  0.00     0.093 A 
ATOM      9  C   UNL     1       1.130  -2.184   0.419  1.00  0.00     0.086 A 
ATOM     10  C   UNL     1       1.191  -3.525   0.041  1.00  0.00     0.024 A 
ATOM     11  N   UNL     1       1.760  -2.091   1.661  1.00  0.00    -0.314 N 
ATOM     12  C   UNL     1       2.177  -3.373   2.050  1.00  0.00     0.061 A 
ATOM     13  C   UNL     1       1.989  -0.974   2.478  1.00  0.00     0.092 A 
ATOM     14  C   UNL     1       2.792  -3.509   3.336  1.00  0.00     0.027 A 
ATOM     15  C   UNL     1       2.604  -1.107   3.663  1.00  0.00     0.018 A 
ATOM     16  C   UNL     1       2.994  -2.427   4.106  1.00  0.00     0.004 A 
BRANCH   9  17
ATOM     17  C   UNL     1       0.420  -1.093  -0.331  1.00  0.00     0.315 C 
BRANCH  17  18
ATOM     18  N   UNL     1       1.042   0.218  -0.300  1.00  0.00    -0.353 N 
ATOM     19  H   UNL     1       0.476   0.875  -0.838  1.00  0.00     0.344 HD
ATOM     20  H   UNL     1       1.976   0.161  -0.706  1.00  0.00     0.344 HD
ATOM     21  H   UNL     1       1.109   0.540   0.666  1.00  0.00     0.344 HD
ENDBRANCH  17  18
ENDBRANCH   9  17
BRANCH  10  22
ATOM     22  C   UNL     1       0.485  -4.059  -1.112  1.00  0.00    -0.015 A 
ATOM     23  C   UNL     1      -0.856  -4.442  -0.983  1.00  0.00     0.009 A 
ATOM     24  C   UNL     1       1.146  -4.243  -2.328  1.00  0.00     0.009 A 
ATOM     25  C   UNL     1      -1.526  -5.023  -2.059  1.00  0.00     0.001 A 
ATOM     26  C   UNL     1       0.470  -4.815  -3.406  1.00  0.00     0.001 A 
ATOM     27  C   UNL     1      -0.863  -5.209  -3.270  1.00  0.00     0.000 A 
ENDBRANCH  10  22
ENDBRANCH   6   8
ENDBRANCH   5   6
ENDBRANCH   4   5
ENDBRANCH   3   4
ENDBRANCH   2   3
ENDBRANCH   1   2
BRANCH   1  28
ATOM     28  C   UNL     1      -2.050  -6.236   3.182  1.00  0.00     0.261 C 
BRANCH  28  29
ATOM     29  O   UNL     1      -1.457  -6.357   4.483  1.00  0.00    -0.460 OA
BRANCH  29  30
ATOM     30  C   UNL     1      -1.824  -7.475   5.157  1.00  0.00     0.338 C 
ATOM     31  O   UNL     1      -2.676  -8.284   4.831  1.00  0.00    -0.246 OA
BRANCH  30  32
ATOM     32  C   UNL     1      -0.922  -7.686   6.307  1.00  0.00     0.060 A 
ATOM     33  C   UNL     1      -0.461  -8.990   6.524  1.00  0.00     0.016 A 
ATOM     34  C   UNL     1      -0.568  -6.654   7.181  1.00  0.00     0.016 A 
ATOM     35  C   UNL     1       0.312  -9.278   7.645  1.00  0.00     0.010 A 
ATOM     36  C   UNL     1       0.204  -6.946   8.311  1.00  0.00     0.010 A 
ATOM     37  C   UNL     1       0.616  -8.266   8.565  1.00  0.00    -0.014 A 
BRANCH  37  38
ATOM     38  C   UNL     1       1.241  -8.635   9.856  1.00  0.00     0.031 A 
ATOM     39  C   UNL     1       0.360  -8.854  11.056  1.00  0.00     0.074 A 
ATOM     40  C   UNL     1       2.569  -8.830   9.944  1.00  0.00     0.049 A 
ATOM     41  N   UNL     1       0.687  -9.246  12.260  1.00  0.00    -0.248 NA
ATOM     42  C   UNL     1      -1.078  -8.601  10.872  1.00  0.00     0.031 C 
ATOM     43  C   UNL     1       3.522  -8.675   8.846  1.00  0.00     0.029 A 
ATOM     44  N   UNL     1       3.342  -9.211  11.011  1.00  0.00    -0.354 N 
ATOM     45  C   UNL     1      -0.503  -9.294  12.976  1.00  0.00     0.074 A 
ATOM     46  C   UNL     1      -1.554  -8.859  12.082  1.00  0.00     0.031 C 
ATOM     47  C   UNL     1       4.756  -8.961   9.297  1.00  0.00     0.029 A 
ATOM     48  C   UNL     1       4.680  -9.305  10.716  1.00  0.00     0.049 A 
ATOM     49  H   UNL     1       2.972  -9.400  11.904  1.00  0.00     0.167 HD
ATOM     50  C   UNL     1      -0.706  -9.675  14.260  1.00  0.00     0.031 A 
ATOM     51  C   UNL     1       5.725  -9.628  11.502  1.00  0.00     0.031 A 
ATOM     52  C   UNL     1       0.339 -10.089  15.156  1.00  0.00     0.049 A 
ATOM     53  C   UNL     1       5.481 -10.000  12.940  1.00  0.00     0.074 A 
ATOM     54  C   UNL     1       0.234 -10.500  16.473  1.00  0.00     0.029 A 
ATOM     55  N   UNL     1       1.686 -10.136  14.829  1.00  0.00    -0.354 N 
ATOM     56  N   UNL     1       4.345 -10.070  13.592  1.00  0.00    -0.248 NA
ATOM     57  C   UNL     1       6.661 -10.350  13.743  1.00  0.00     0.031 C 
ATOM     58  C   UNL     1       1.523 -10.757  16.955  1.00  0.00     0.029 A 
ATOM     59  C   UNL     1       2.425 -10.550  15.924  1.00  0.00     0.049 A 
ATOM     60  H   UNL     1       2.061  -9.909  13.947  1.00  0.00     0.167 HD
ATOM     61  C   UNL     1       4.672 -10.494  14.876  1.00  0.00     0.074 A 
ATOM     62  C   UNL     1       6.109 -10.676  14.903  1.00  0.00     0.031 C 
ATOM     63  C   UNL     1       3.856 -10.716  15.936  1.00  0.00     0.031 A 
BRANCH  50  64
ATOM     64  C   UNL     1      -2.119  -9.633  14.773  1.00  0.00    -0.014 A 
ATOM     65  C   UNL     1      -3.065 -10.594  14.372  1.00  0.00     0.010 A 
ATOM     66  C   UNL     1      -2.503  -8.629  15.679  1.00  0.00     0.010 A 
ATOM     67  C   UNL     1      -4.380 -10.528  14.838  1.00  0.00     0.020 A 
ATOM     68  C   UNL     1      -3.813  -8.572  16.164  1.00  0.00     0.020 A 
ATOM     69  C   UNL     1      -4.748  -9.512  15.725  1.00  0.00     0.054 A 
BRANCH  69  70
ATOM     70  S   UNL     1      -6.460  -9.450  16.323  1.00  0.00     0.124 S 
ATOM     71  O   UNL     1      -7.162  -8.903  15.165  1.00  0.00    -0.237 OA
ATOM     72  O   UNL     1      -6.747 -10.850  16.628  1.00  0.00    -0.237 OA
ATOM     73  O   UNL     1      -6.389  -8.566  17.484  1.00  0.00    -0.744 OA
ENDBRANCH  69  70
ENDBRANCH  50  64
BRANCH  51  74
ATOM     74  C   UNL     1       7.103  -9.615  10.943  1.00  0.00    -0.014 A 
ATOM     75  C   UNL     1       7.792 -10.815  10.699  1.00  0.00     0.010 A 
ATOM     76  C   UNL     1       7.731  -8.391  10.648  1.00  0.00     0.010 A 
ATOM     77  C   UNL     1       9.090 -10.792  10.181  1.00  0.00     0.020 A 
ATOM     78  C   UNL     1       9.020  -8.365  10.110  1.00  0.00     0.020 A 
ATOM     79  C   UNL     1       9.696  -9.566   9.889  1.00  0.00     0.054 A 
BRANCH  79  80
ATOM     80  S   UNL     1      11.358  -9.557   9.162  1.00  0.00     0.124 S 
ATOM     81  O   UNL     1      12.199  -9.819  10.326  1.00  0.00    -0.237 OA
ATOM     82  O   UNL     1      11.282 -10.634   8.179  1.00  0.00    -0.237 OA
ATOM     83  O   UNL     1      11.472  -8.215   8.594  1.00  0.00    -0.744 OA
ENDBRANCH  79  80
ENDBRANCH  51  74
BRANCH  63  84
ATOM     84  C   UNL     1       4.497 -11.203  17.207  1.00  0.00    -0.014 A 
ATOM     85  C   UNL     1       5.250 -10.336  18.019  1.00  0.00     0.010 A 
ATOM     86  C   UNL     1       4.317 -12.539  17.610  1.00  0.00     0.010 A 
ATOM     87  C   UNL     1       5.844 -10.808  19.193  1.00  0.00     0.020 A 
ATOM     88  C   UNL     1       4.890 -13.007  18.794  1.00  0.00     0.020 A 
ATOM     89  C   UNL     1       5.666 -12.143  19.569  1.00  0.00     0.054 A 
BRANCH  89  90
ATOM     90  S   UNL     1       6.427 -12.731  21.108  1.00  0.00     0.124 S 
ATOM     91  O   UNL     1       7.816 -12.927  20.702  1.00  0.00    -0.237 OA
ATOM     92  O   UNL     1       6.192 -11.622  22.030  1.00  0.00    -0.237 OA
ATOM     93  O   UNL     1       5.686 -13.953  21.413  1.00  0.00    -0.744 OA
ENDBRANCH  89  90
ENDBRANCH  63  84
ENDBRANCH  37  38
ENDBRANCH  30  32
ENDBRANCH  29  30
ENDBRANCH  28  29
ENDBRANCH   1  28
TORSDOF 20
