REMARK SMILES CC[C@H](NC(=O)Cc1c(C)c2cc(Cl)c(OC)cc2oc1=O)C(=O)OCCOCCOC(=O)c1ccc(-c2c3nc(c(-c4ccc(S(=O)(=O)[O-])cc4)c4ccc([nH]4)c(-c4ccc(S(=O)(=O)[O-])cc4)c4nc(c(-c5ccc(S(=O)(=O)[O-])cc5)c5ccc2[nH]5)C=C4)C=C3)cc1
REMARK SMILES IDX 27 1 26 2 25 3 23 4 24 5 3 6 2 7 1 8 4 9 5 10 6 12 7 13 8 14
REMARK SMILES IDX 9 15 21 16 10 17 11 18 20 19 22 20 12 21 19 22 13 23 18 24
REMARK SMILES IDX 14 25 15 26 16 27 17 28 28 29 29 30 30 31 31 32 32 33 33 34
REMARK SMILES IDX 34 35 35 36 93 37 36 38 92 39 37 40 38 41 39 42 86 43 40 44
REMARK SMILES IDX 91 45 85 46 87 47 41 48 90 49 84 50 83 51 42 53 72 54 53 55
REMARK SMILES IDX 71 56 54 57 57 58 70 59 88 60 55 61 56 62 69 64 89 65 58 66
REMARK SMILES IDX 43 67 44 68 52 69 45 70 51 71 46 72 47 73 48 74 49 75 50 76
REMARK SMILES IDX 73 77 74 78 82 79 75 80 81 81 76 82 77 83 78 84 79 85 80 86
REMARK SMILES IDX 59 87 60 88 68 89 61 90 67 91 62 92 63 93 64 94 65 95 66 96
REMARK H PARENT 4 11 87 52 57 63
REMARK Flexibility Score: inf
ROOT
ATOM      1  C   UNL     1      -2.118   5.569  -1.606  1.00  0.00     0.202 C 
ENDROOT
BRANCH   1   2
ATOM      2  C   UNL     1      -1.453   4.616  -2.604  1.00  0.00     0.261 C 
BRANCH   2   3
ATOM      3  O   UNL     1      -0.861   3.480  -1.935  1.00  0.00    -0.462 OA
BRANCH   3   4
ATOM      4  C   UNL     1       0.475   3.289  -2.123  1.00  0.00     0.328 C 
ATOM      5  O   UNL     1       1.204   4.022  -2.783  1.00  0.00    -0.250 OA
BRANCH   4   6
ATOM      6  C   UNL     1       0.942   1.925  -1.594  1.00  0.00     0.192 C 
BRANCH   6   7
ATOM      7  C   UNL     1       0.606   0.902  -2.723  1.00  0.00     0.033 C 
ATOM      8  C   UNL     1      -0.006  -0.434  -2.321  1.00  0.00     0.007 C 
ENDBRANCH   6   7
BRANCH   6   9
ATOM      9  N   UNL     1       0.431   1.531  -0.276  1.00  0.00    -0.342 N 
ATOM     10  C   UNL     1       0.925   1.716   0.978  1.00  0.00     0.225 C 
ATOM     11  H   UNL     1      -0.425   1.046  -0.304  1.00  0.00     0.164 HD
ATOM     12  O   UNL     1       0.537   0.911   1.835  1.00  0.00    -0.275 OA
BRANCH  10  13
ATOM     13  C   UNL     1       1.718   2.954   1.436  1.00  0.00     0.143 C 
BRANCH  13  14
ATOM     14  C   UNL     1       2.988   3.448   0.798  1.00  0.00     0.051 A 
ATOM     15  C   UNL     1       3.352   4.751   0.720  1.00  0.00    -0.029 A 
ATOM     16  C   UNL     1       3.953   2.391   0.396  1.00  0.00     0.340 A 
ATOM     17  C   UNL     1       2.718   5.893   1.469  1.00  0.00     0.046 C 
ATOM     18  C   UNL     1       4.545   5.116  -0.045  1.00  0.00     0.023 A 
ATOM     19  O   UNL     1       5.237   2.798   0.060  1.00  0.00    -0.422 OA
ATOM     20  O   UNL     1       3.666   1.201   0.442  1.00  0.00    -0.246 OA
ATOM     21  C   UNL     1       4.787   6.405  -0.538  1.00  0.00     0.036 A 
ATOM     22  C   UNL     1       5.493   4.135  -0.274  1.00  0.00     0.142 A 
ATOM     23  C   UNL     1       5.991   6.698  -1.184  1.00  0.00     0.083 A 
ATOM     24  C   UNL     1       6.715   4.419  -0.877  1.00  0.00     0.095 A 
ATOM     25  Cl  UNL     1       6.218   8.307  -1.778  1.00  0.00    -0.080 Cl
ATOM     26  C   UNL     1       6.980   5.713  -1.332  1.00  0.00     0.141 A 
BRANCH  26  27
ATOM     27  O   UNL     1       8.146   6.093  -1.942  1.00  0.00    -0.495 OA
ATOM     28  C   UNL     1       9.189   5.131  -1.990  1.00  0.00     0.278 C 
ENDBRANCH  26  27
ENDBRANCH  13  14
ENDBRANCH  10  13
ENDBRANCH   6   9
ENDBRANCH   4   6
ENDBRANCH   3   4
ENDBRANCH   2   3
ENDBRANCH   1   2
BRANCH   1  29
ATOM     29  O   UNL     1      -1.209   6.270  -0.751  1.00  0.00    -0.374 OA
BRANCH  29  30
ATOM     30  C   UNL     1      -0.529   5.429   0.177  1.00  0.00     0.202 C 
BRANCH  30  31
ATOM     31  C   UNL     1      -0.544   6.032   1.582  1.00  0.00     0.261 C 
BRANCH  31  32
ATOM     32  O   UNL     1      -1.764   5.635   2.198  1.00  0.00    -0.460 OA
BRANCH  32  33
ATOM     33  C   UNL     1      -2.705   6.595   2.158  1.00  0.00     0.338 C 
ATOM     34  O   UNL     1      -2.536   7.795   2.255  1.00  0.00    -0.246 OA
BRANCH  33  35
ATOM     35  C   UNL     1      -3.934   5.937   1.689  1.00  0.00     0.060 A 
ATOM     36  C   UNL     1      -4.232   4.600   1.995  1.00  0.00     0.016 A 
ATOM     37  C   UNL     1      -4.755   6.689   0.850  1.00  0.00     0.016 A 
ATOM     38  C   UNL     1      -5.403   4.035   1.508  1.00  0.00     0.010 A 
ATOM     39  C   UNL     1      -5.931   6.134   0.379  1.00  0.00     0.010 A 
ATOM     40  C   UNL     1      -6.278   4.827   0.750  1.00  0.00    -0.014 A 
BRANCH  40  41
ATOM     41  C   UNL     1      -7.675   4.416   0.543  1.00  0.00     0.031 A 
ATOM     42  C   UNL     1      -8.168   4.036  -0.811  1.00  0.00     0.074 A 
ATOM     43  C   UNL     1      -8.497   4.556   1.600  1.00  0.00     0.049 A 
ATOM     44  N   UNL     1      -9.394   3.799  -1.188  1.00  0.00    -0.248 NA
ATOM     45  C   UNL     1      -7.168   3.921  -1.885  1.00  0.00     0.031 C 
ATOM     46  C   UNL     1      -8.071   4.964   2.946  1.00  0.00     0.029 A 
ATOM     47  N   UNL     1      -9.850   4.403   1.716  1.00  0.00    -0.354 N 
ATOM     48  C   UNL     1      -9.319   3.500  -2.540  1.00  0.00     0.074 A 
ATOM     49  C   UNL     1      -7.931   3.620  -2.929  1.00  0.00     0.031 C 
ATOM     50  C   UNL     1      -9.139   5.018   3.750  1.00  0.00     0.029 A 
ATOM     51  C   UNL     1     -10.327   4.699   2.971  1.00  0.00     0.049 A 
ATOM     52  H   UNL     1     -10.426   4.109   0.974  1.00  0.00     0.167 HD
ATOM     53  C   UNL     1     -10.332   3.146  -3.362  1.00  0.00     0.031 A 
ATOM     54  C   UNL     1     -11.588   4.725   3.438  1.00  0.00     0.031 A 
ATOM     55  C   UNL     1     -11.704   3.060  -2.931  1.00  0.00     0.049 A 
ATOM     56  C   UNL     1     -12.692   4.363   2.491  1.00  0.00     0.074 A 
ATOM     57  C   UNL     1     -12.812   2.687  -3.670  1.00  0.00     0.029 A 
ATOM     58  N   UNL     1     -12.155   3.352  -1.650  1.00  0.00    -0.354 N 
ATOM     59  N   UNL     1     -12.603   4.030   1.225  1.00  0.00    -0.248 NA
ATOM     60  C   UNL     1     -14.057   4.366   3.025  1.00  0.00     0.031 C 
ATOM     61  C   UNL     1     -13.937   2.810  -2.853  1.00  0.00     0.029 A 
ATOM     62  C   UNL     1     -13.527   3.189  -1.584  1.00  0.00     0.049 A 
ATOM     63  H   UNL     1     -11.582   3.633  -0.900  1.00  0.00     0.167 HD
ATOM     64  C   UNL     1     -13.900   3.761   0.813  1.00  0.00     0.074 A 
ATOM     65  C   UNL     1     -14.752   3.956   1.971  1.00  0.00     0.031 C 
ATOM     66  C   UNL     1     -14.345   3.390  -0.411  1.00  0.00     0.031 A 
BRANCH  53  67
ATOM     67  C   UNL     1     -10.013   2.801  -4.792  1.00  0.00    -0.014 A 
ATOM     68  C   UNL     1     -10.506   3.602  -5.839  1.00  0.00     0.010 A 
ATOM     69  C   UNL     1      -9.344   1.604  -5.104  1.00  0.00     0.010 A 
ATOM     70  C   UNL     1     -10.374   3.192  -7.169  1.00  0.00     0.020 A 
ATOM     71  C   UNL     1      -9.187   1.203  -6.434  1.00  0.00     0.020 A 
ATOM     72  C   UNL     1      -9.728   1.986  -7.456  1.00  0.00     0.054 A 
BRANCH  72  73
ATOM     73  S   UNL     1      -9.617   1.441  -9.183  1.00  0.00     0.124 S 
ATOM     74  O   UNL     1     -10.986   1.018  -9.461  1.00  0.00    -0.237 OA
ATOM     75  O   UNL     1      -9.176   2.652  -9.871  1.00  0.00    -0.237 OA
ATOM     76  O   UNL     1      -8.627   0.366  -9.139  1.00  0.00    -0.744 OA
ENDBRANCH  72  73
ENDBRANCH  53  67
BRANCH  54  77
ATOM     77  C   UNL     1     -11.829   5.051   4.869  1.00  0.00    -0.014 A 
ATOM     78  C   UNL     1     -11.570   6.341   5.371  1.00  0.00     0.010 A 
ATOM     79  C   UNL     1     -12.215   4.037   5.762  1.00  0.00     0.010 A 
ATOM     80  C   UNL     1     -11.648   6.598   6.743  1.00  0.00     0.020 A 
ATOM     81  C   UNL     1     -12.323   4.298   7.131  1.00  0.00     0.020 A 
ATOM     82  C   UNL     1     -12.012   5.570   7.616  1.00  0.00     0.054 A 
BRANCH  82  83
ATOM     83  S   UNL     1     -12.071   5.913   9.396  1.00  0.00     0.124 S 
ATOM     84  O   UNL     1     -10.654   5.920   9.747  1.00  0.00    -0.237 OA
ATOM     85  O   UNL     1     -12.740   7.211   9.450  1.00  0.00    -0.237 OA
ATOM     86  O   UNL     1     -12.844   4.796   9.934  1.00  0.00    -0.744 OA
ENDBRANCH  82  83
ENDBRANCH  54  77
BRANCH  66  87
ATOM     87  C   UNL     1     -15.821   3.162  -0.575  1.00  0.00    -0.014 A 
ATOM     88  C   UNL     1     -16.299   1.862  -0.821  1.00  0.00     0.010 A 
ATOM     89  C   UNL     1     -16.711   4.248  -0.630  1.00  0.00     0.010 A 
ATOM     90  C   UNL     1     -17.635   1.656  -1.166  1.00  0.00     0.020 A 
ATOM     91  C   UNL     1     -18.055   4.042  -0.944  1.00  0.00     0.020 A 
ATOM     92  C   UNL     1     -18.501   2.750  -1.240  1.00  0.00     0.054 A 
BRANCH  92  93
ATOM     93  S   UNL     1     -20.219   2.470  -1.743  1.00  0.00     0.124 S 
ATOM     94  O   UNL     1     -20.089   2.284  -3.185  1.00  0.00    -0.237 OA
ATOM     95  O   UNL     1     -20.586   1.277  -0.984  1.00  0.00    -0.237 OA
ATOM     96  O   UNL     1     -20.900   3.695  -1.329  1.00  0.00    -0.744 OA
ENDBRANCH  92  93
ENDBRANCH  66  87
ENDBRANCH  40  41
ENDBRANCH  33  35
ENDBRANCH  32  33
ENDBRANCH  31  32
ENDBRANCH  30  31
ENDBRANCH  29  30
ENDBRANCH   1  29
TORSDOF 22
