REMARK SMILES Cc1cc(C)cc(C(=O)N[C@H]2C(=O)N3C(C(=O)OCCOCCOC(=O)c4ccc(-c5c6nc(c(-c7ccc(S(=O)(=O)[O-])cc7)c7ccc([nH]7)c(-c7ccc(S(=O)(=O)[O-])cc7)c7nc(c(-c8ccc(S(=O)(=O)[O-])cc8)c8ccc5[nH]8)C=C7)C=C6)cc4)=C(CSc4nnc(C)s4)CS[C@H]23)c1
REMARK SMILES IDX 21 1 20 2 19 3 18 4 16 5 17 6 15 7 11 8 12 9 98 10 13 11
REMARK SMILES IDX 14 12 97 13 96 14 87 15 10 16 8 17 9 18 7 20 1 21 2 22 3 23
REMARK SMILES IDX 99 24 4 25 5 26 6 27 88 28 89 29 90 30 91 31 95 32 92 33
REMARK SMILES IDX 93 34 94 35 22 36 23 37 24 38 25 39 26 40 27 41 28 42 86 43
REMARK SMILES IDX 29 44 85 45 30 46 31 47 32 48 79 49 33 50 84 51 78 52 80 53
REMARK SMILES IDX 34 54 83 55 77 56 76 57 35 59 65 60 46 61 64 62 47 63 50 64
REMARK SMILES IDX 63 65 81 66 48 67 49 68 62 70 82 71 51 72 36 73 37 74 45 75
REMARK SMILES IDX 38 76 44 77 39 78 40 79 41 80 42 81 43 82 66 83 67 84 75 85
REMARK SMILES IDX 68 86 74 87 69 88 70 89 71 90 72 91 73 92 52 93 53 94 61 95
REMARK SMILES IDX 54 96 60 97 55 98 56 99 57 100 58 101 59 102
REMARK H PARENT 10 19 80 58 50 69
REMARK Flexibility Score: inf
ROOT
ATOM      1  O   UNL     1       6.445  -7.649  -3.020  1.00  0.00    -0.374 OA
ENDROOT
BRANCH   1   2
ATOM      2  C   UNL     1       6.782  -7.121  -4.306  1.00  0.00     0.202 C 
BRANCH   2   3
ATOM      3  C   UNL     1       5.712  -6.244  -4.953  1.00  0.00     0.261 C 
BRANCH   3   4
ATOM      4  O   UNL     1       5.671  -4.958  -4.302  1.00  0.00    -0.459 OA
BRANCH   4   5
ATOM      5  C   UNL     1       4.435  -4.528  -3.981  1.00  0.00     0.355 C 
ATOM      6  O   UNL     1       3.381  -5.045  -4.332  1.00  0.00    -0.244 OA
BRANCH   5   7
ATOM      7  C   UNL     1       4.438  -3.332  -3.074  1.00  0.00     0.132 C 
ATOM      8  C   UNL     1       2.515  -3.377  -0.239  1.00  0.00     0.206 C 
ATOM      9  C   UNL     1       3.225  -4.405  -1.187  1.00  0.00     0.253 C 
ATOM     10  C   UNL     1       2.949  -2.334  -1.318  1.00  0.00     0.181 C 
ATOM     11  O   UNL     1       3.518  -5.580  -1.126  1.00  0.00    -0.272 OA
ATOM     12  N   UNL     1       3.525  -3.421  -2.061  1.00  0.00    -0.289 N 
ATOM     13  S   UNL     1       4.302  -1.248  -0.776  1.00  0.00    -0.129 SA
ATOM     14  C   UNL     1       4.860  -0.931  -2.465  1.00  0.00     0.106 C 
ATOM     15  C   UNL     1       5.169  -2.201  -3.244  1.00  0.00    -0.019 C 
BRANCH   8  16
ATOM     16  N   UNL     1       1.087  -3.712  -0.029  1.00  0.00    -0.338 N 
ATOM     17  C   UNL     1      -0.037  -2.979   0.248  1.00  0.00     0.252 C 
ATOM     18  O   UNL     1      -1.088  -3.602   0.410  1.00  0.00    -0.269 OA
ATOM     19  H   UNL     1       0.906  -4.677  -0.104  1.00  0.00     0.164 HD
BRANCH  17  20
ATOM     20  C   UNL     1      -0.070  -1.494   0.296  1.00  0.00     0.040 A 
ATOM     21  C   UNL     1       2.162   1.570   0.628  1.00  0.00     0.044 C 
ATOM     22  C   UNL     1       0.940   0.708   0.490  1.00  0.00    -0.050 A 
ATOM     23  C   UNL     1      -0.292   1.298   0.183  1.00  0.00     0.006 A 
ATOM     24  C   UNL     1       1.026  -0.688   0.600  1.00  0.00     0.017 A 
ATOM     25  C   UNL     1      -1.432   0.511  -0.007  1.00  0.00    -0.050 A 
ATOM     26  C   UNL     1      -2.762   1.157  -0.254  1.00  0.00     0.044 C 
ATOM     27  C   UNL     1      -1.304  -0.882   0.021  1.00  0.00     0.017 A 
ENDBRANCH  17  20
ENDBRANCH   8  16
BRANCH  15  28
ATOM     28  C   UNL     1       6.265  -1.997  -4.266  1.00  0.00     0.111 C 
BRANCH  28  29
ATOM     29  S   UNL     1       7.876  -2.697  -3.820  1.00  0.00    -0.089 SA
BRANCH  29  30
ATOM     30  C   UNL     1       8.271  -2.135  -2.215  1.00  0.00     0.174 A 
ATOM     31  N   UNL     1       7.704  -1.121  -1.603  1.00  0.00    -0.132 NA
ATOM     32  S   UNL     1       9.490  -2.888  -1.275  1.00  0.00    -0.091 S 
ATOM     33  N   UNL     1       8.134  -0.982  -0.290  1.00  0.00    -0.143 NA
ATOM     34  C   UNL     1       9.054  -1.869   0.022  1.00  0.00     0.115 A 
ATOM     35  C   UNL     1       9.698  -2.038   1.350  1.00  0.00     0.081 C 
ENDBRANCH  29  30
ENDBRANCH  28  29
ENDBRANCH  15  28
ENDBRANCH   5   7
ENDBRANCH   4   5
ENDBRANCH   3   4
ENDBRANCH   2   3
ENDBRANCH   1   2
BRANCH   1  36
ATOM     36  C   UNL     1       6.436  -6.731  -1.928  1.00  0.00     0.202 C 
BRANCH  36  37
ATOM     37  C   UNL     1       7.801  -6.452  -1.291  1.00  0.00     0.261 C 
BRANCH  37  38
ATOM     38  O   UNL     1       8.746  -5.931  -2.238  1.00  0.00    -0.460 OA
BRANCH  38  39
ATOM     39  C   UNL     1       9.729  -6.787  -2.610  1.00  0.00     0.338 C 
ATOM     40  O   UNL     1       9.950  -7.901  -2.168  1.00  0.00    -0.246 OA
BRANCH  39  41
ATOM     41  C   UNL     1      10.441  -6.224  -3.773  1.00  0.00     0.060 A 
ATOM     42  C   UNL     1      10.460  -6.959  -4.962  1.00  0.00     0.016 A 
ATOM     43  C   UNL     1      11.128  -5.014  -3.683  1.00  0.00     0.016 A 
ATOM     44  C   UNL     1      11.194  -6.495  -6.053  1.00  0.00     0.010 A 
ATOM     45  C   UNL     1      11.830  -4.528  -4.785  1.00  0.00     0.010 A 
ATOM     46  C   UNL     1      11.908  -5.292  -5.960  1.00  0.00    -0.014 A 
BRANCH  46  47
ATOM     47  C   UNL     1      12.889  -4.918  -7.007  1.00  0.00     0.031 A 
ATOM     48  C   UNL     1      14.357  -5.080  -6.709  1.00  0.00     0.074 A 
ATOM     49  C   UNL     1      12.483  -4.446  -8.199  1.00  0.00     0.049 A 
ATOM     50  N   UNL     1      15.390  -4.788  -7.455  1.00  0.00    -0.248 NA
ATOM     51  C   UNL     1      14.705  -5.631  -5.388  1.00  0.00     0.031 C 
ATOM     52  C   UNL     1      11.092  -4.252  -8.606  1.00  0.00     0.029 A 
ATOM     53  N   UNL     1      13.213  -4.040  -9.287  1.00  0.00    -0.354 N 
ATOM     54  C   UNL     1      16.507  -5.103  -6.689  1.00  0.00     0.074 A 
ATOM     55  C   UNL     1      16.027  -5.566  -5.406  1.00  0.00     0.031 C 
ATOM     56  C   UNL     1      11.069  -3.772  -9.862  1.00  0.00     0.029 A 
ATOM     57  C   UNL     1      12.441  -3.599 -10.335  1.00  0.00     0.049 A 
ATOM     58  H   UNL     1      14.197  -4.063  -9.316  1.00  0.00     0.167 HD
ATOM     59  C   UNL     1      17.816  -5.031  -7.026  1.00  0.00     0.031 A 
ATOM     60  C   UNL     1      12.803  -3.104 -11.535  1.00  0.00     0.031 A 
ATOM     61  C   UNL     1      18.291  -4.580  -8.305  1.00  0.00     0.049 A 
ATOM     62  C   UNL     1      14.265  -3.003 -11.880  1.00  0.00     0.074 A 
ATOM     63  C   UNL     1      19.594  -4.500  -8.761  1.00  0.00     0.029 A 
ATOM     64  N   UNL     1      17.476  -4.132  -9.334  1.00  0.00    -0.354 N 
ATOM     65  N   UNL     1      15.307  -3.338 -11.157  1.00  0.00    -0.248 NA
ATOM     66  C   UNL     1      14.599  -2.466 -13.207  1.00  0.00     0.031 C 
ATOM     67  C   UNL     1      19.570  -3.962 -10.052  1.00  0.00     0.029 A 
ATOM     68  C   UNL     1      18.249  -3.756 -10.418  1.00  0.00     0.049 A 
ATOM     69  H   UNL     1      16.493  -4.089  -9.299  1.00  0.00     0.167 HD
ATOM     70  C   UNL     1      16.419  -3.077 -11.951  1.00  0.00     0.074 A 
ATOM     71  C   UNL     1      15.922  -2.565 -13.212  1.00  0.00     0.031 C 
ATOM     72  C   UNL     1      17.733  -3.249 -11.664  1.00  0.00     0.031 A 
BRANCH  59  73
ATOM     73  C   UNL     1      18.821  -5.434  -5.980  1.00  0.00    -0.014 A 
ATOM     74  C   UNL     1      18.976  -6.780  -5.600  1.00  0.00     0.010 A 
ATOM     75  C   UNL     1      19.627  -4.454  -5.373  1.00  0.00     0.010 A 
ATOM     76  C   UNL     1      19.882  -7.131  -4.596  1.00  0.00     0.020 A 
ATOM     77  C   UNL     1      20.554  -4.806  -4.388  1.00  0.00     0.020 A 
ATOM     78  C   UNL     1      20.660  -6.140  -3.991  1.00  0.00     0.054 A 
BRANCH  78  79
ATOM     79  S   UNL     1      21.831  -6.622  -2.692  1.00  0.00     0.124 S 
ATOM     80  O   UNL     1      20.940  -6.860  -1.559  1.00  0.00    -0.237 OA
ATOM     81  O   UNL     1      22.462  -7.814  -3.254  1.00  0.00    -0.237 OA
ATOM     82  O   UNL     1      22.704  -5.459  -2.565  1.00  0.00    -0.744 OA
ENDBRANCH  78  79
ENDBRANCH  59  73
BRANCH  60  83
ATOM     83  C   UNL     1      11.757  -2.675 -12.503  1.00  0.00    -0.014 A 
ATOM     84  C   UNL     1      11.494  -3.435 -13.655  1.00  0.00     0.010 A 
ATOM     85  C   UNL     1      11.005  -1.510 -12.265  1.00  0.00     0.010 A 
ATOM     86  C   UNL     1      10.502  -3.036 -14.556  1.00  0.00     0.020 A 
ATOM     87  C   UNL     1       9.997  -1.120 -13.151  1.00  0.00     0.020 A 
ATOM     88  C   UNL     1       9.757  -1.882 -14.296  1.00  0.00     0.054 A 
BRANCH  88  89
ATOM     89  S   UNL     1       8.428  -1.419 -15.442  1.00  0.00     0.124 S 
ATOM     90  O   UNL     1       9.176  -0.876 -16.571  1.00  0.00    -0.237 OA
ATOM     91  O   UNL     1       7.757  -2.694 -15.680  1.00  0.00    -0.237 OA
ATOM     92  O   UNL     1       7.647  -0.446 -14.680  1.00  0.00    -0.744 OA
ENDBRANCH  88  89
ENDBRANCH  60  83
BRANCH  72  93
ATOM     93  C   UNL     1      18.729  -2.913 -12.740  1.00  0.00    -0.014 A 
ATOM     94  C   UNL     1      19.033  -1.578 -13.058  1.00  0.00     0.010 A 
ATOM     95  C   UNL     1      19.422  -3.950 -13.391  1.00  0.00     0.010 A 
ATOM     96  C   UNL     1      19.998  -1.287 -14.026  1.00  0.00     0.020 A 
ATOM     97  C   UNL     1      20.404  -3.662 -14.342  1.00  0.00     0.020 A 
ATOM     98  C   UNL     1      20.677  -2.331 -14.662  1.00  0.00     0.054 A 
BRANCH  98  99
ATOM     99  S   UNL     1      21.963  -1.927 -15.876  1.00  0.00     0.124 S 
ATOM    100  O   UNL     1      21.171  -1.523 -17.034  1.00  0.00    -0.237 OA
ATOM    101  O   UNL     1      22.703  -0.854 -15.216  1.00  0.00    -0.237 OA
ATOM    102  O   UNL     1      22.699  -3.179 -16.030  1.00  0.00    -0.744 OA
ENDBRANCH  98  99
ENDBRANCH  72  93
ENDBRANCH  46  47
ENDBRANCH  39  41
ENDBRANCH  38  39
ENDBRANCH  37  38
ENDBRANCH  36  37
ENDBRANCH   1  36
TORSDOF 22
