REMARK SMILES CC(C)=CCc1cccc2c(C(=O)OCCOCCOC(=O)c3ccc(-c4c5nc(c(-c6ccc(S(=O)(=O)[O-])cc6)c6ccc([nH]6)c(-c6ccc(S(=O)(=O)[O-])cc6)c6nc(c(-c7ccc(S(=O)(=O)[O-])cc7)c7ccc4[nH]7)C=C6)C=C5)cc3)c[nH]c12
REMARK SMILES IDX 18 1 17 2 16 3 15 4 14 5 12 6 13 7 11 8 6 9 7 10 85 11 8 12
REMARK SMILES IDX 10 13 84 14 9 15 83 16 5 18 4 19 1 20 2 21 3 22 19 23 20 24
REMARK SMILES IDX 21 25 22 26 23 27 24 28 82 29 25 30 81 31 26 32 27 33 28 34
REMARK SMILES IDX 75 35 29 36 80 37 74 38 76 39 30 40 79 41 73 42 72 43 31 45
REMARK SMILES IDX 61 46 42 47 60 48 43 49 46 50 59 51 77 52 44 53 45 54 58 56
REMARK SMILES IDX 78 57 47 58 32 59 33 60 41 61 34 62 40 63 35 64 36 65 37 66
REMARK SMILES IDX 38 67 39 68 62 69 63 70 71 71 64 72 70 73 65 74 66 75 67 76
REMARK SMILES IDX 68 77 69 78 48 79 49 80 57 81 50 82 56 83 51 84 52 85 53 86
REMARK SMILES IDX 54 87 55 88
REMARK H PARENT 84 17 76 44 46 55
REMARK Flexibility Score: inf
ROOT
ATOM      1  C   UNL     1       5.055  -7.349   5.827  1.00  0.00     0.202 C 
ENDROOT
BRANCH   1   2
ATOM      2  O   UNL     1       6.322  -8.012   5.830  1.00  0.00    -0.374 OA
BRANCH   2   3
ATOM      3  C   UNL     1       7.474  -7.165   5.806  1.00  0.00     0.202 C 
BRANCH   3   4
ATOM      4  C   UNL     1       7.945  -6.782   4.400  1.00  0.00     0.261 C 
BRANCH   4   5
ATOM      5  O   UNL     1       7.001  -5.889   3.785  1.00  0.00    -0.460 OA
BRANCH   5   6
ATOM      6  C   UNL     1       6.206  -6.444   2.829  1.00  0.00     0.340 C 
ATOM      7  O   UNL     1       6.375  -7.560   2.346  1.00  0.00    -0.246 OA
BRANCH   6   8
ATOM      8  C   UNL     1       5.040  -5.628   2.507  1.00  0.00     0.085 A 
ATOM      9  C   UNL     1       2.933  -2.671   2.119  1.00  0.00    -0.020 A 
ATOM     10  C   UNL     1       3.718  -1.629   2.647  1.00  0.00     0.006 A 
ATOM     11  C   UNL     1       3.506  -3.961   2.180  1.00  0.00     0.050 A 
ATOM     12  C   UNL     1       4.965  -1.863   3.223  1.00  0.00     0.001 A 
ATOM     13  C   UNL     1       4.774  -4.229   2.711  1.00  0.00     0.014 A 
ATOM     14  N   UNL     1       2.996  -5.164   1.744  1.00  0.00    -0.360 N 
ATOM     15  C   UNL     1       5.503  -3.153   3.259  1.00  0.00     0.011 A 
ATOM     16  C   UNL     1       3.905  -6.161   1.921  1.00  0.00     0.099 A 
ATOM     17  H   UNL     1       2.099  -5.285   1.358  1.00  0.00     0.166 HD
BRANCH   9  18
ATOM     18  C   UNL     1       1.625  -2.397   1.408  1.00  0.00     0.065 C 
BRANCH  18  19
ATOM     19  C   UNL     1       0.765  -1.329   2.027  1.00  0.00    -0.024 C 
ATOM     20  C   UNL     1       0.858   0.249   0.081  1.00  0.00     0.039 C 
ATOM     21  C   UNL     1       0.401  -0.164   1.453  1.00  0.00    -0.080 C 
ATOM     22  C   UNL     1      -0.488   0.793   2.197  1.00  0.00     0.039 C 
ENDBRANCH  18  19
ENDBRANCH   9  18
ENDBRANCH   6   8
ENDBRANCH   5   6
ENDBRANCH   4   5
ENDBRANCH   3   4
ENDBRANCH   2   3
ENDBRANCH   1   2
BRANCH   1  23
ATOM     23  C   UNL     1       4.544  -6.927   7.208  1.00  0.00     0.261 C 
BRANCH  23  24
ATOM     24  O   UNL     1       5.304  -5.816   7.716  1.00  0.00    -0.460 OA
BRANCH  24  25
ATOM     25  C   UNL     1       6.172  -6.127   8.707  1.00  0.00     0.338 C 
ATOM     26  O   UNL     1       6.288  -7.204   9.268  1.00  0.00    -0.246 OA
BRANCH  25  27
ATOM     27  C   UNL     1       7.116  -5.010   8.923  1.00  0.00     0.060 A 
ATOM     28  C   UNL     1       8.460  -5.344   9.130  1.00  0.00     0.016 A 
ATOM     29  C   UNL     1       6.701  -3.677   8.985  1.00  0.00     0.016 A 
ATOM     30  C   UNL     1       9.380  -4.358   9.477  1.00  0.00     0.010 A 
ATOM     31  C   UNL     1       7.626  -2.687   9.338  1.00  0.00     0.010 A 
ATOM     32  C   UNL     1       8.957  -3.032   9.633  1.00  0.00    -0.014 A 
BRANCH  32  33
ATOM     33  C   UNL     1       9.864  -2.061  10.291  1.00  0.00     0.031 A 
ATOM     34  C   UNL     1       9.697  -1.802  11.765  1.00  0.00     0.074 A 
ATOM     35  C   UNL     1      10.856  -1.464   9.608  1.00  0.00     0.049 A 
ATOM     36  N   UNL     1      10.392  -1.025  12.554  1.00  0.00    -0.248 NA
ATOM     37  C   UNL     1       8.599  -2.518  12.437  1.00  0.00     0.031 C 
ATOM     38  C   UNL     1      11.146  -1.661   8.188  1.00  0.00     0.029 A 
ATOM     39  N   UNL     1      11.809  -0.569  10.026  1.00  0.00    -0.354 N 
ATOM     40  C   UNL     1       9.814  -1.153  13.812  1.00  0.00     0.074 A 
ATOM     41  C   UNL     1       8.694  -2.057  13.676  1.00  0.00     0.031 C 
ATOM     42  C   UNL     1      12.208  -0.906   7.853  1.00  0.00     0.029 A 
ATOM     43  C   UNL     1      12.658  -0.160   9.027  1.00  0.00     0.049 A 
ATOM     44  H   UNL     1      11.879  -0.252  10.956  1.00  0.00     0.167 HD
ATOM     45  C   UNL     1      10.185  -0.576  14.980  1.00  0.00     0.031 A 
ATOM     46  C   UNL     1      13.676   0.722   9.054  1.00  0.00     0.031 A 
ATOM     47  C   UNL     1      11.291   0.333  15.116  1.00  0.00     0.049 A 
ATOM     48  C   UNL     1      14.044   1.387  10.354  1.00  0.00     0.074 A 
ATOM     49  C   UNL     1      11.750   0.968  16.257  1.00  0.00     0.029 A 
ATOM     50  N   UNL     1      12.110   0.740  14.074  1.00  0.00    -0.354 N 
ATOM     51  N   UNL     1      13.500   1.241  11.539  1.00  0.00    -0.248 NA
ATOM     52  C   UNL     1      15.176   2.325  10.323  1.00  0.00     0.031 C 
ATOM     53  C   UNL     1      12.822   1.793  15.896  1.00  0.00     0.029 A 
ATOM     54  C   UNL     1      13.063   1.629  14.541  1.00  0.00     0.049 A 
ATOM     55  H   UNL     1      12.027   0.440  13.140  1.00  0.00     0.167 HD
ATOM     56  C   UNL     1      14.244   2.042  12.400  1.00  0.00     0.074 A 
ATOM     57  C   UNL     1      15.279   2.665  11.601  1.00  0.00     0.031 C 
ATOM     58  C   UNL     1      14.089   2.238  13.733  1.00  0.00     0.031 A 
BRANCH  45  59
ATOM     59  C   UNL     1       9.357  -0.892  16.196  1.00  0.00    -0.014 A 
ATOM     60  C   UNL     1       9.418  -2.155  16.812  1.00  0.00     0.010 A 
ATOM     61  C   UNL     1       8.510   0.093  16.736  1.00  0.00     0.010 A 
ATOM     62  C   UNL     1       8.612  -2.443  17.917  1.00  0.00     0.020 A 
ATOM     63  C   UNL     1       7.721  -0.183  17.856  1.00  0.00     0.020 A 
ATOM     64  C   UNL     1       7.762  -1.456  18.427  1.00  0.00     0.054 A 
BRANCH  64  65
ATOM     65  S   UNL     1       6.726  -1.852  19.862  1.00  0.00     0.124 S 
ATOM     66  O   UNL     1       5.681  -2.676  19.260  1.00  0.00    -0.237 OA
ATOM     67  O   UNL     1       7.652  -2.558  20.744  1.00  0.00    -0.237 OA
ATOM     68  O   UNL     1       6.288  -0.544  20.344  1.00  0.00    -0.744 OA
ENDBRANCH  64  65
ENDBRANCH  45  59
BRANCH  46  69
ATOM     69  C   UNL     1      14.425   1.025   7.805  1.00  0.00    -0.014 A 
ATOM     70  C   UNL     1      15.741   0.564   7.625  1.00  0.00     0.010 A 
ATOM     71  C   UNL     1      13.815   1.772   6.780  1.00  0.00     0.010 A 
ATOM     72  C   UNL     1      16.437   0.855   6.448  1.00  0.00     0.020 A 
ATOM     73  C   UNL     1      14.500   2.044   5.593  1.00  0.00     0.020 A 
ATOM     74  C   UNL     1      15.811   1.591   5.438  1.00  0.00     0.054 A 
BRANCH  74  75
ATOM     75  S   UNL     1      16.710   1.905   3.893  1.00  0.00     0.124 S 
ATOM     76  O   UNL     1      17.642   2.955   4.292  1.00  0.00    -0.237 OA
ATOM     77  O   UNL     1      17.308   0.603   3.605  1.00  0.00    -0.237 OA
ATOM     78  O   UNL     1      15.659   2.317   2.966  1.00  0.00    -0.744 OA
ENDBRANCH  74  75
ENDBRANCH  46  69
BRANCH  58  79
ATOM     79  C   UNL     1      15.088   3.126  14.425  1.00  0.00    -0.014 A 
ATOM     80  C   UNL     1      15.068   4.522  14.258  1.00  0.00     0.010 A 
ATOM     81  C   UNL     1      16.034   2.553  15.294  1.00  0.00     0.010 A 
ATOM     82  C   UNL     1      16.000   5.325  14.921  1.00  0.00     0.020 A 
ATOM     83  C   UNL     1      16.952   3.355  15.977  1.00  0.00     0.020 A 
ATOM     84  C   UNL     1      16.939   4.736  15.773  1.00  0.00     0.054 A 
BRANCH  84  85
ATOM     85  S   UNL     1      18.120   5.799  16.648  1.00  0.00     0.124 S 
ATOM     86  O   UNL     1      19.078   6.120  15.594  1.00  0.00    -0.237 OA
ATOM     87  O   UNL     1      17.284   6.910  17.097  1.00  0.00    -0.237 OA
ATOM     88  O   UNL     1      18.631   4.943  17.716  1.00  0.00    -0.744 OA
ENDBRANCH  84  85
ENDBRANCH  58  79
ENDBRANCH  32  33
ENDBRANCH  25  27
ENDBRANCH  24  25
ENDBRANCH  23  24
ENDBRANCH   1  23
TORSDOF 19
