REMARK SMILES CC[NH2+][C@@]1(C(=O)OCCOCCOC(=O)c2ccc(-c3c4nc(c(-c5ccc(S(=O)(=O)[O-])cc5)c5ccc([nH]5)c(-c5ccc(S(=O)(=O)[O-])cc5)c5nc(c(-c6ccc(S(=O)(=O)[O-])cc6)c6ccc3[nH]6)C=C5)C=C4)cc2)CCC[C@H](SC(C)C)C1
REMARK SMILES IDX 11 1 10 2 9 3 8 4 7 5 5 6 6 7 4 8 76 9 84 10 77 11 79 12
REMARK SMILES IDX 78 13 3 14 2 17 1 18 80 19 81 20 82 21 83 22 12 23 13 24
REMARK SMILES IDX 14 25 15 26 16 27 17 28 75 29 18 30 74 31 19 32 20 33 21 34
REMARK SMILES IDX 68 35 22 36 73 37 67 38 69 39 23 40 72 41 66 42 65 43 24 45
REMARK SMILES IDX 54 46 35 47 53 48 36 49 39 50 52 51 70 52 37 53 38 54 51 56
REMARK SMILES IDX 71 57 40 58 25 59 26 60 34 61 27 62 33 63 28 64 29 65 30 66
REMARK SMILES IDX 31 67 32 68 55 69 56 70 64 71 57 72 63 73 58 74 59 75 60 76
REMARK SMILES IDX 61 77 62 78 41 79 42 80 50 81 43 82 49 83 44 84 45 85 46 86
REMARK SMILES IDX 47 87 48 88
REMARK H PARENT 3 15 3 16 69 44 39 55
REMARK Flexibility Score: inf
ROOT
ATOM      1  C   UNL     1      -3.290   2.251   3.494  1.00  0.00     0.202 C 
ENDROOT
BRANCH   1   2
ATOM      2  O   UNL     1      -4.132   1.137   3.776  1.00  0.00    -0.374 OA
BRANCH   2   3
ATOM      3  C   UNL     1      -3.672   0.242   4.796  1.00  0.00     0.202 C 
BRANCH   3   4
ATOM      4  C   UNL     1      -2.890  -0.963   4.281  1.00  0.00     0.261 C 
BRANCH   4   5
ATOM      5  O   UNL     1      -1.470  -0.667   4.231  1.00  0.00    -0.459 OA
BRANCH   5   6
ATOM      6  C   UNL     1      -0.766  -1.348   3.305  1.00  0.00     0.368 C 
ATOM      7  O   UNL     1      -1.321  -2.076   2.478  1.00  0.00    -0.245 OA
BRANCH   6   8
ATOM      8  C   UNL     1       0.817  -1.252   3.380  1.00  0.00     0.195 C 
ATOM      9  C   UNL     1       1.251  -2.719   3.615  1.00  0.00     0.081 C 
ATOM     10  C   UNL     1       1.652  -0.445   4.410  1.00  0.00     0.095 C 
ATOM     11  C   UNL     1       0.945  -3.133   5.070  1.00  0.00     0.008 C 
ATOM     12  C   UNL     1       1.520  -0.736   5.890  1.00  0.00     0.053 C 
ATOM     13  C   UNL     1       1.656  -2.258   6.114  1.00  0.00     0.015 C 
BRANCH   8  14
ATOM     14  N   UNL     1       1.337  -0.627   2.119  1.00  0.00    -0.332 N 
ATOM     15  H   UNL     1       1.200   0.380   2.208  1.00  0.00     0.347 HD
ATOM     16  H   UNL     1       2.300  -0.958   2.066  1.00  0.00     0.347 HD
BRANCH  14  17
ATOM     17  C   UNL     1       0.768  -1.019   0.843  1.00  0.00     0.257 C 
ATOM     18  C   UNL     1       1.407  -0.154  -0.239  1.00  0.00     0.071 C 
ENDBRANCH  14  17
ENDBRANCH   8  14
BRANCH  12  19
ATOM     19  S   UNL     1       0.046  -0.041   6.707  1.00  0.00    -0.155 SA
BRANCH  19  20
ATOM     20  C   UNL     1      -0.069   1.734   6.176  1.00  0.00     0.040 C 
ATOM     21  C   UNL     1       0.832   2.680   6.953  1.00  0.00     0.019 C 
ATOM     22  C   UNL     1      -0.032   2.125   4.703  1.00  0.00     0.019 C 
ENDBRANCH  19  20
ENDBRANCH  12  19
ENDBRANCH   6   8
ENDBRANCH   5   6
ENDBRANCH   4   5
ENDBRANCH   3   4
ENDBRANCH   2   3
ENDBRANCH   1   2
BRANCH   1  23
ATOM     23  C   UNL     1      -3.337   3.398   4.527  1.00  0.00     0.261 C 
BRANCH  23  24
ATOM     24  O   UNL     1      -3.084   2.949   5.874  1.00  0.00    -0.460 OA
BRANCH  24  25
ATOM     25  C   UNL     1      -4.170   2.951   6.687  1.00  0.00     0.338 C 
ATOM     26  O   UNL     1      -5.225   3.515   6.463  1.00  0.00    -0.246 OA
BRANCH  25  27
ATOM     27  C   UNL     1      -4.020   2.011   7.831  1.00  0.00     0.060 A 
ATOM     28  C   UNL     1      -5.124   1.191   8.081  1.00  0.00     0.016 A 
ATOM     29  C   UNL     1      -2.923   1.970   8.699  1.00  0.00     0.016 A 
ATOM     30  C   UNL     1      -5.198   0.441   9.252  1.00  0.00     0.010 A 
ATOM     31  C   UNL     1      -2.985   1.179   9.866  1.00  0.00     0.010 A 
ATOM     32  C   UNL     1      -4.160   0.477  10.193  1.00  0.00    -0.014 A 
BRANCH  32  33
ATOM     33  C   UNL     1      -4.454  -0.049  11.564  1.00  0.00     0.031 A 
ATOM     34  C   UNL     1      -4.673   0.925  12.702  1.00  0.00     0.074 A 
ATOM     35  C   UNL     1      -4.715  -1.357  11.769  1.00  0.00     0.049 A 
ATOM     36  N   UNL     1      -5.165   0.707  13.898  1.00  0.00    -0.248 NA
ATOM     37  C   UNL     1      -4.300   2.328  12.462  1.00  0.00     0.031 C 
ATOM     38  C   UNL     1      -4.577  -2.414  10.768  1.00  0.00     0.029 A 
ATOM     39  N   UNL     1      -5.196  -2.012  12.880  1.00  0.00    -0.354 N 
ATOM     40  C   UNL     1      -5.173   1.942  14.540  1.00  0.00     0.074 A 
ATOM     41  C   UNL     1      -4.581   2.892  13.626  1.00  0.00     0.031 C 
ATOM     42  C   UNL     1      -4.998  -3.576  11.296  1.00  0.00     0.029 A 
ATOM     43  C   UNL     1      -5.416  -3.356  12.681  1.00  0.00     0.049 A 
ATOM     44  H   UNL     1      -5.367  -1.561  13.738  1.00  0.00     0.167 HD
ATOM     45  C   UNL     1      -5.648   2.272  15.766  1.00  0.00     0.031 A 
ATOM     46  C   UNL     1      -5.905  -4.306  13.506  1.00  0.00     0.031 A 
ATOM     47  C   UNL     1      -6.226   1.337  16.696  1.00  0.00     0.049 A 
ATOM     48  C   UNL     1      -6.372  -3.930  14.890  1.00  0.00     0.074 A 
ATOM     49  C   UNL     1      -6.741   1.587  17.957  1.00  0.00     0.029 A 
ATOM     50  N   UNL     1      -6.359  -0.025  16.474  1.00  0.00    -0.354 N 
ATOM     51  N   UNL     1      -6.410  -2.748  15.457  1.00  0.00    -0.248 NA
ATOM     52  C   UNL     1      -6.881  -5.018  15.739  1.00  0.00     0.031 C 
ATOM     53  C   UNL     1      -7.124   0.367  18.524  1.00  0.00     0.029 A 
ATOM     54  C   UNL     1      -6.920  -0.632  17.587  1.00  0.00     0.049 A 
ATOM     55  H   UNL     1      -6.095  -0.492  15.649  1.00  0.00     0.167 HD
ATOM     56  C   UNL     1      -6.973  -2.947  16.716  1.00  0.00     0.074 A 
ATOM     57  C   UNL     1      -7.277  -4.358  16.819  1.00  0.00     0.031 C 
ATOM     58  C   UNL     1      -7.217  -2.039  17.695  1.00  0.00     0.031 A 
BRANCH  45  59
ATOM     59  C   UNL     1      -5.536   3.717  16.188  1.00  0.00    -0.014 A 
ATOM     60  C   UNL     1      -6.313   4.719  15.577  1.00  0.00     0.010 A 
ATOM     61  C   UNL     1      -4.666   4.072  17.234  1.00  0.00     0.010 A 
ATOM     62  C   UNL     1      -6.186   6.054  15.972  1.00  0.00     0.020 A 
ATOM     63  C   UNL     1      -4.561   5.401  17.655  1.00  0.00     0.020 A 
ATOM     64  C   UNL     1      -5.308   6.387  17.007  1.00  0.00     0.054 A 
BRANCH  64  65
ATOM     65  S   UNL     1      -5.170   8.125  17.506  1.00  0.00     0.124 S 
ATOM     66  O   UNL     1      -4.471   8.712  16.365  1.00  0.00    -0.237 OA
ATOM     67  O   UNL     1      -6.567   8.525  17.660  1.00  0.00    -0.237 OA
ATOM     68  O   UNL     1      -4.400   8.072  18.746  1.00  0.00    -0.744 OA
ENDBRANCH  64  65
ENDBRANCH  45  59
BRANCH  46  69
ATOM     69  C   UNL     1      -5.967  -5.725  13.049  1.00  0.00    -0.014 A 
ATOM     70  C   UNL     1      -7.195  -6.379  12.846  1.00  0.00     0.010 A 
ATOM     71  C   UNL     1      -4.773  -6.436  12.822  1.00  0.00     0.010 A 
ATOM     72  C   UNL     1      -7.228  -7.718  12.440  1.00  0.00     0.020 A 
ATOM     73  C   UNL     1      -4.801  -7.763  12.386  1.00  0.00     0.020 A 
ATOM     74  C   UNL     1      -6.030  -8.399  12.207  1.00  0.00     0.054 A 
BRANCH  74  75
ATOM     75  S   UNL     1      -6.093 -10.117  11.624  1.00  0.00     0.124 S 
ATOM     76  O   UNL     1      -6.545 -10.827  12.816  1.00  0.00    -0.237 OA
ATOM     77  O   UNL     1      -7.056 -10.041  10.528  1.00  0.00    -0.237 OA
ATOM     78  O   UNL     1      -4.717 -10.391  11.216  1.00  0.00    -0.744 OA
ENDBRANCH  74  75
ENDBRANCH  46  69
BRANCH  58  79
ATOM     79  C   UNL     1      -7.881  -2.530  18.959  1.00  0.00    -0.014 A 
ATOM     80  C   UNL     1      -7.212  -3.373  19.865  1.00  0.00     0.010 A 
ATOM     81  C   UNL     1      -9.187  -2.102  19.267  1.00  0.00     0.010 A 
ATOM     82  C   UNL     1      -7.852  -3.817  21.027  1.00  0.00     0.020 A 
ATOM     83  C   UNL     1      -9.818  -2.516  20.444  1.00  0.00     0.020 A 
ATOM     84  C   UNL     1      -9.153  -3.387  21.308  1.00  0.00     0.054 A 
BRANCH  84  85
ATOM     85  S   UNL     1      -9.954  -3.960  22.832  1.00  0.00     0.124 S 
ATOM     86  O   UNL     1     -10.225  -5.362  22.525  1.00  0.00    -0.237 OA
ATOM     87  O   UNL     1      -8.925  -3.726  23.842  1.00  0.00    -0.237 OA
ATOM     88  O   UNL     1     -11.136  -3.108  22.945  1.00  0.00    -0.744 OA
ENDBRANCH  84  85
ENDBRANCH  58  79
ENDBRANCH  32  33
ENDBRANCH  25  27
ENDBRANCH  24  25
ENDBRANCH  23  24
ENDBRANCH   1  23
TORSDOF 21
