REMARK SMILES O=C(OCCOCCOC(=O)[C@H]1CC=CC[C@H]1C(=O)N[C@@H]1CCN(c2cccc(Cl)c2)C1)c1ccc(-c2c3nc(c(-c4ccc(S(=O)(=O)[O-])cc4)c4ccc([nH]4)c(-c4ccc(S(=O)(=O)[O-])cc4)c4nc(c(-c5ccc(S(=O)(=O)[O-])cc5)c5ccc2[nH]5)C=C4)C=C3)cc1
REMARK SMILES IDX 6 1 5 2 4 3 3 4 2 5 1 6 33 7 34 8 92 9 35 10 91 11 36 12
REMARK SMILES IDX 37 13 38 14 85 15 39 16 90 17 84 18 86 19 40 20 89 21 83 22
REMARK SMILES IDX 82 23 41 25 71 26 52 27 70 28 53 29 56 30 69 31 87 32 54 33
REMARK SMILES IDX 55 34 68 36 88 37 57 38 42 39 43 40 51 41 44 42 50 43 45 44
REMARK SMILES IDX 46 45 47 46 48 47 49 48 72 49 73 50 81 51 74 52 80 53 75 54
REMARK SMILES IDX 76 55 77 56 78 57 79 58 58 59 59 60 67 61 60 62 66 63 61 64
REMARK SMILES IDX 62 65 63 66 64 67 65 68 7 69 8 70 9 71 10 72 11 73 12 74
REMARK SMILES IDX 13 75 17 76 14 77 16 78 15 79 18 80 19 81 20 82 21 84 22 85
REMARK SMILES IDX 32 86 23 87 24 88 25 89 26 90 31 91 27 92 29 93 28 94 30 95
REMARK H PARENT 86 24 56 35 20 83
REMARK Flexibility Score: inf
ROOT
ATOM      1  O   UNL     1       4.395   1.805   2.406  1.00  0.00    -0.374 OA
ENDROOT
BRANCH   1   2
ATOM      2  C   UNL     1       5.145   1.352   1.280  1.00  0.00     0.202 C 
BRANCH   2   3
ATOM      3  C   UNL     1       4.890  -0.108   0.848  1.00  0.00     0.261 C 
BRANCH   3   4
ATOM      4  O   UNL     1       3.543  -0.296   0.301  1.00  0.00    -0.460 OA
BRANCH   4   5
ATOM      5  C   UNL     1       2.433  -0.953   0.719  1.00  0.00     0.338 C 
ATOM      6  O   UNL     1       1.350  -0.873   0.150  1.00  0.00    -0.246 OA
BRANCH   5   7
ATOM      7  C   UNL     1       2.627  -1.806   1.881  1.00  0.00     0.060 A 
ATOM      8  C   UNL     1       3.252  -1.217   2.951  1.00  0.00     0.016 A 
ATOM      9  C   UNL     1       2.497  -3.193   1.778  1.00  0.00     0.016 A 
ATOM     10  C   UNL     1       4.169  -1.997   3.596  1.00  0.00     0.010 A 
ATOM     11  C   UNL     1       3.199  -3.998   2.678  1.00  0.00     0.010 A 
ATOM     12  C   UNL     1       4.141  -3.401   3.522  1.00  0.00    -0.014 A 
BRANCH  12  13
ATOM     13  C   UNL     1       5.192  -4.126   4.287  1.00  0.00     0.031 A 
ATOM     14  C   UNL     1       6.091  -5.134   3.623  1.00  0.00     0.074 A 
ATOM     15  C   UNL     1       5.469  -3.661   5.527  1.00  0.00     0.049 A 
ATOM     16  N   UNL     1       7.041  -5.841   4.176  1.00  0.00    -0.248 NA
ATOM     17  C   UNL     1       5.899  -5.428   2.191  1.00  0.00     0.031 C 
ATOM     18  C   UNL     1       4.671  -2.649   6.239  1.00  0.00     0.029 A 
ATOM     19  N   UNL     1       6.567  -3.809   6.326  1.00  0.00    -0.354 N 
ATOM     20  C   UNL     1       7.470  -6.739   3.205  1.00  0.00     0.074 A 
ATOM     21  C   UNL     1       6.722  -6.453   2.003  1.00  0.00     0.031 C 
ATOM     22  C   UNL     1       5.436  -2.061   7.161  1.00  0.00     0.029 A 
ATOM     23  C   UNL     1       6.645  -2.850   7.316  1.00  0.00     0.049 A 
ATOM     24  H   UNL     1       7.233  -4.524   6.208  1.00  0.00     0.167 HD
ATOM     25  C   UNL     1       8.376  -7.734   3.350  1.00  0.00     0.031 A 
ATOM     26  C   UNL     1       7.553  -2.670   8.291  1.00  0.00     0.031 A 
ATOM     27  C   UNL     1       9.117  -7.927   4.571  1.00  0.00     0.049 A 
ATOM     28  C   UNL     1       8.588  -3.743   8.410  1.00  0.00     0.074 A 
ATOM     29  C   UNL     1       9.958  -8.961   4.933  1.00  0.00     0.029 A 
ATOM     30  N   UNL     1       9.123  -7.017   5.623  1.00  0.00    -0.354 N 
ATOM     31  N   UNL     1       8.834  -4.732   7.580  1.00  0.00    -0.248 NA
ATOM     32  C   UNL     1       9.392  -3.751   9.632  1.00  0.00     0.031 C 
ATOM     33  C   UNL     1      10.455  -8.685   6.215  1.00  0.00     0.029 A 
ATOM     34  C   UNL     1       9.962  -7.456   6.630  1.00  0.00     0.049 A 
ATOM     35  H   UNL     1       8.605  -6.181   5.647  1.00  0.00     0.167 HD
ATOM     36  C   UNL     1       9.764  -5.532   8.218  1.00  0.00     0.074 A 
ATOM     37  C   UNL     1      10.105  -4.856   9.460  1.00  0.00     0.031 C 
ATOM     38  C   UNL     1      10.250  -6.742   7.848  1.00  0.00     0.031 A 
BRANCH  25  39
ATOM     39  C   UNL     1       8.518  -8.728   2.226  1.00  0.00    -0.014 A 
ATOM     40  C   UNL     1       9.194  -8.421   1.032  1.00  0.00     0.010 A 
ATOM     41  C   UNL     1       7.952 -10.010   2.373  1.00  0.00     0.010 A 
ATOM     42  C   UNL     1       9.271  -9.363  -0.003  1.00  0.00     0.020 A 
ATOM     43  C   UNL     1       8.043 -10.961   1.351  1.00  0.00     0.020 A 
ATOM     44  C   UNL     1       8.688 -10.625   0.161  1.00  0.00     0.054 A 
BRANCH  44  45
ATOM     45  S   UNL     1       8.800 -11.829  -1.194  1.00  0.00     0.124 S 
ATOM     46  O   UNL     1       7.839 -11.292  -2.154  1.00  0.00    -0.237 OA
ATOM     47  O   UNL     1      10.203 -11.736  -1.593  1.00  0.00    -0.237 OA
ATOM     48  O   UNL     1       8.417 -13.092  -0.569  1.00  0.00    -0.744 OA
ENDBRANCH  44  45
ENDBRANCH  25  39
BRANCH  26  49
ATOM     49  C   UNL     1       7.380  -1.585   9.303  1.00  0.00    -0.014 A 
ATOM     50  C   UNL     1       8.347  -0.584   9.489  1.00  0.00     0.010 A 
ATOM     51  C   UNL     1       6.192  -1.520  10.062  1.00  0.00     0.010 A 
ATOM     52  C   UNL     1       8.119   0.466  10.392  1.00  0.00     0.020 A 
ATOM     53  C   UNL     1       5.936  -0.450  10.919  1.00  0.00     0.020 A 
ATOM     54  C   UNL     1       6.909   0.531  11.092  1.00  0.00     0.054 A 
BRANCH  54  55
ATOM     55  S   UNL     1       6.573   1.935  12.192  1.00  0.00     0.124 S 
ATOM     56  O   UNL     1       7.222   1.510  13.428  1.00  0.00    -0.237 OA
ATOM     57  O   UNL     1       7.206   3.053  11.496  1.00  0.00    -0.237 OA
ATOM     58  O   UNL     1       5.113   1.987  12.234  1.00  0.00    -0.744 OA
ENDBRANCH  54  55
ENDBRANCH  26  49
BRANCH  38  59
ATOM     59  C   UNL     1      11.194  -7.378   8.819  1.00  0.00    -0.014 A 
ATOM     60  C   UNL     1      10.711  -7.984   9.992  1.00  0.00     0.010 A 
ATOM     61  C   UNL     1      12.573  -7.349   8.559  1.00  0.00     0.010 A 
ATOM     62  C   UNL     1      11.605  -8.512  10.920  1.00  0.00     0.020 A 
ATOM     63  C   UNL     1      13.467  -7.895   9.476  1.00  0.00     0.020 A 
ATOM     64  C   UNL     1      12.979  -8.454  10.660  1.00  0.00     0.054 A 
BRANCH  64  65
ATOM     65  S   UNL     1      14.128  -9.142  11.879  1.00  0.00     0.124 S 
ATOM     66  O   UNL     1      14.170  -8.083  12.883  1.00  0.00    -0.237 OA
ATOM     67  O   UNL     1      13.462 -10.375  12.291  1.00  0.00    -0.237 OA
ATOM     68  O   UNL     1      15.361  -9.332  11.117  1.00  0.00    -0.744 OA
ENDBRANCH  64  65
ENDBRANCH  38  59
ENDBRANCH  12  13
ENDBRANCH   5   7
ENDBRANCH   4   5
ENDBRANCH   3   4
ENDBRANCH   2   3
ENDBRANCH   1   2
BRANCH   1  69
ATOM     69  C   UNL     1       3.101   2.364   2.142  1.00  0.00     0.202 C 
BRANCH  69  70
ATOM     70  C   UNL     1       3.123   3.839   1.718  1.00  0.00     0.261 C 
BRANCH  70  71
ATOM     71  O   UNL     1       3.540   3.969   0.341  1.00  0.00    -0.463 OA
BRANCH  71  72
ATOM     72  C   UNL     1       4.130   5.142  -0.000  1.00  0.00     0.310 C 
ATOM     73  O   UNL     1       4.241   6.096   0.764  1.00  0.00    -0.252 OA
BRANCH  72  74
ATOM     74  C   UNL     1       4.872   5.095  -1.341  1.00  0.00     0.115 C 
ATOM     75  C   UNL     1       6.242   4.422  -1.065  1.00  0.00     0.043 C 
ATOM     76  C   UNL     1       4.139   4.744  -2.683  1.00  0.00     0.096 C 
ATOM     77  C   UNL     1       6.728   3.421  -2.054  1.00  0.00    -0.030 C 
ATOM     78  C   UNL     1       5.003   4.036  -3.752  1.00  0.00     0.041 C 
ATOM     79  C   UNL     1       6.192   3.271  -3.266  1.00  0.00    -0.030 C 
BRANCH  76  80
ATOM     80  C   UNL     1       2.635   4.333  -2.674  1.00  0.00     0.224 C 
ATOM     81  O   UNL     1       1.776   5.106  -2.248  1.00  0.00    -0.275 OA
ATOM     82  N   UNL     1       2.234   3.136  -3.265  1.00  0.00    -0.351 N 
ATOM     83  H   UNL     1       2.026   3.097  -4.226  1.00  0.00     0.163 HD
BRANCH  82  84
ATOM     84  C   UNL     1       2.128   1.931  -2.426  1.00  0.00     0.103 C 
ATOM     85  C   UNL     1       3.376   1.800  -1.617  1.00  0.00     0.048 C 
ATOM     86  C   UNL     1       2.016   0.488  -3.073  1.00  0.00     0.141 C 
ATOM     87  C   UNL     1       4.252   0.879  -2.415  1.00  0.00     0.119 C 
ATOM     88  N   UNL     1       3.347  -0.136  -2.877  1.00  0.00    -0.369 N 
BRANCH  88  89
ATOM     89  C   UNL     1       3.738  -1.451  -2.964  1.00  0.00     0.038 A 
ATOM     90  C   UNL     1       5.045  -1.865  -2.605  1.00  0.00     0.026 A 
ATOM     91  C   UNL     1       2.887  -2.467  -3.401  1.00  0.00     0.046 A 
ATOM     92  C   UNL     1       5.477  -3.193  -2.644  1.00  0.00     0.004 A 
ATOM     93  C   UNL     1       3.321  -3.803  -3.474  1.00  0.00     0.043 A 
ATOM     94  C   UNL     1       4.609  -4.171  -3.090  1.00  0.00     0.020 A 
ATOM     95  Cl  UNL     1       2.250  -5.016  -4.063  1.00  0.00    -0.084 Cl
ENDBRANCH  88  89
ENDBRANCH  82  84
ENDBRANCH  76  80
ENDBRANCH  72  74
ENDBRANCH  71  72
ENDBRANCH  70  71
ENDBRANCH  69  70
ENDBRANCH   1  69
TORSDOF 20
