REMARK SMILES C[C@H]1SCCC[C@]1(Nc1ccc(Cl)cc1)C(=O)OCCOCCOC(=O)c1ccc(-c2c3nc(c(-c4ccc(S(=O)(=O)[O-])cc4)c4ccc([nH]4)c(-c4ccc(S(=O)(=O)[O-])cc4)c4nc(c(-c5ccc(S(=O)(=O)[O-])cc5)c5ccc2[nH]5)C=C4)C=C3)cc1
REMARK SMILES IDX 22 1 21 2 20 3 19 4 18 5 16 6 17 7 7 8 1 9 2 10 3 11 4 12
REMARK SMILES IDX 6 13 5 14 8 15 9 17 10 18 15 19 11 20 14 21 12 22 13 23
REMARK SMILES IDX 23 24 24 25 25 26 26 27 27 28 28 29 86 30 29 31 85 32 30 33
REMARK SMILES IDX 31 34 32 35 79 36 33 37 84 38 78 39 80 40 34 41 83 42 77 43
REMARK SMILES IDX 76 44 35 46 65 47 46 48 64 49 47 50 50 51 63 52 81 53 48 54
REMARK SMILES IDX 49 55 62 57 82 58 51 59 36 60 37 61 45 62 38 63 44 64 39 65
REMARK SMILES IDX 40 66 41 67 42 68 43 69 66 70 67 71 75 72 68 73 74 74 69 75
REMARK SMILES IDX 70 76 71 77 72 78 73 79 52 80 53 81 61 82 54 83 60 84 55 85
REMARK SMILES IDX 56 86 57 87 58 88 59 89
REMARK H PARENT 8 16 80 45 50 56
REMARK Flexibility Score: inf
ROOT
ATOM      1  C   UNL     1       4.040   0.446  -0.208  1.00  0.00     0.202 C 
ENDROOT
BRANCH   1   2
ATOM      2  O   UNL     1       5.246   0.948   0.362  1.00  0.00    -0.374 OA
BRANCH   2   3
ATOM      3  C   UNL     1       5.304   1.076   1.783  1.00  0.00     0.202 C 
BRANCH   3   4
ATOM      4  C   UNL     1       4.605   2.293   2.390  1.00  0.00     0.261 C 
BRANCH   4   5
ATOM      5  O   UNL     1       3.177   2.217   2.236  1.00  0.00    -0.461 OA
BRANCH   5   6
ATOM      6  C   UNL     1       2.639   3.044   1.301  1.00  0.00     0.333 C 
ATOM      7  O   UNL     1       3.317   3.785   0.592  1.00  0.00    -0.249 OA
BRANCH   6   8
ATOM      8  C   UNL     1       1.073   2.964   1.224  1.00  0.00     0.147 C 
ATOM      9  C   UNL     1       0.608   0.802   2.688  1.00  0.00     0.022 C 
ATOM     10  C   UNL     1       0.533   1.490   1.318  1.00  0.00     0.080 C 
ATOM     11  S   UNL     1      -1.258   1.336   0.856  1.00  0.00    -0.156 SA
ATOM     12  C   UNL     1      -1.204   2.088  -0.783  1.00  0.00     0.070 C 
ATOM     13  C   UNL     1       0.776   3.548  -0.197  1.00  0.00     0.042 C 
ATOM     14  C   UNL     1      -0.664   3.499  -0.690  1.00  0.00     0.014 C 
BRANCH   8  15
ATOM     15  N   UNL     1       0.382   3.835   2.228  1.00  0.00    -0.369 N 
ATOM     16  H   UNL     1      -0.570   4.057   2.111  1.00  0.00     0.161 HD
BRANCH  15  17
ATOM     17  C   UNL     1       1.080   4.332   3.324  1.00  0.00     0.035 A 
ATOM     18  C   UNL     1       2.111   5.265   3.161  1.00  0.00     0.027 A 
ATOM     19  C   UNL     1       0.874   3.786   4.596  1.00  0.00     0.027 A 
ATOM     20  C   UNL     1       2.960   5.593   4.220  1.00  0.00     0.022 A 
ATOM     21  C   UNL     1       1.720   4.109   5.661  1.00  0.00     0.022 A 
ATOM     22  C   UNL     1       2.772   4.998   5.463  1.00  0.00     0.041 A 
ATOM     23  Cl  UNL     1       3.859   5.346   6.747  1.00  0.00    -0.084 Cl
ENDBRANCH  15  17
ENDBRANCH   8  15
ENDBRANCH   6   8
ENDBRANCH   5   6
ENDBRANCH   4   5
ENDBRANCH   3   4
ENDBRANCH   2   3
ENDBRANCH   1   2
BRANCH   1  24
ATOM     24  C   UNL     1       3.804  -1.066  -0.118  1.00  0.00     0.261 C 
BRANCH  24  25
ATOM     25  O   UNL     1       3.615  -1.505   1.239  1.00  0.00    -0.460 OA
BRANCH  25  26
ATOM     26  C   UNL     1       4.642  -2.237   1.732  1.00  0.00     0.338 C 
ATOM     27  O   UNL     1       5.639  -2.605   1.120  1.00  0.00    -0.246 OA
BRANCH  26  28
ATOM     28  C   UNL     1       4.517  -2.402   3.191  1.00  0.00     0.060 A 
ATOM     29  C   UNL     1       5.649  -2.109   3.962  1.00  0.00     0.016 A 
ATOM     30  C   UNL     1       3.368  -2.926   3.789  1.00  0.00     0.016 A 
ATOM     31  C   UNL     1       5.667  -2.411   5.319  1.00  0.00     0.010 A 
ATOM     32  C   UNL     1       3.390  -3.236   5.155  1.00  0.00     0.010 A 
ATOM     33  C   UNL     1       4.557  -3.026   5.913  1.00  0.00    -0.014 A 
BRANCH  33  34
ATOM     34  C   UNL     1       4.707  -3.607   7.270  1.00  0.00     0.031 A 
ATOM     35  C   UNL     1       4.991  -5.081   7.402  1.00  0.00     0.074 A 
ATOM     36  C   UNL     1       4.679  -2.823   8.363  1.00  0.00     0.049 A 
ATOM     37  N   UNL     1       5.198  -5.791   8.481  1.00  0.00    -0.248 NA
ATOM     38  C   UNL     1       5.055  -5.855   6.151  1.00  0.00     0.031 C 
ATOM     39  C   UNL     1       4.460  -1.377   8.363  1.00  0.00     0.029 A 
ATOM     40  N   UNL     1       4.845  -3.139   9.688  1.00  0.00    -0.354 N 
ATOM     41  C   UNL     1       5.426  -7.090   8.040  1.00  0.00     0.074 A 
ATOM     42  C   UNL     1       5.291  -7.079   6.600  1.00  0.00     0.031 C 
ATOM     43  C   UNL     1       4.499  -0.931   9.631  1.00  0.00     0.029 A 
ATOM     44  C   UNL     1       4.725  -2.060  10.531  1.00  0.00     0.049 A 
ATOM     45  H   UNL     1       5.032  -4.052  10.005  1.00  0.00     0.167 HD
ATOM     46  C   UNL     1       5.735  -8.192   8.765  1.00  0.00     0.031 A 
ATOM     47  C   UNL     1       4.780  -1.994  11.876  1.00  0.00     0.031 A 
ATOM     48  C   UNL     1       5.850  -8.210  10.199  1.00  0.00     0.049 A 
ATOM     49  C   UNL     1       5.062  -3.245  12.666  1.00  0.00     0.074 A 
ATOM     50  C   UNL     1       6.133  -9.282  11.028  1.00  0.00     0.029 A 
ATOM     51  N   UNL     1       5.692  -7.102  11.017  1.00  0.00    -0.354 N 
ATOM     52  N   UNL     1       5.272  -4.466  12.232  1.00  0.00    -0.248 NA
ATOM     53  C   UNL     1       5.134  -3.105  14.127  1.00  0.00     0.031 C 
ATOM     54  C   UNL     1       6.107  -8.829  12.352  1.00  0.00     0.029 A 
ATOM     55  C   UNL     1       5.864  -7.465  12.342  1.00  0.00     0.049 A 
ATOM     56  H   UNL     1       5.488  -6.192  10.702  1.00  0.00     0.167 HD
ATOM     57  C   UNL     1       5.529  -5.231  13.365  1.00  0.00     0.074 A 
ATOM     58  C   UNL     1       5.465  -4.333  14.499  1.00  0.00     0.031 C 
ATOM     59  C   UNL     1       5.797  -6.558  13.460  1.00  0.00     0.031 A 
BRANCH  46  60
ATOM     60  C   UNL     1       5.952  -9.478   8.012  1.00  0.00    -0.014 A 
ATOM     61  C   UNL     1       7.111  -9.676   7.239  1.00  0.00     0.010 A 
ATOM     62  C   UNL     1       5.005 -10.514   8.104  1.00  0.00     0.010 A 
ATOM     63  C   UNL     1       7.303 -10.874   6.546  1.00  0.00     0.020 A 
ATOM     64  C   UNL     1       5.206 -11.724   7.433  1.00  0.00     0.020 A 
ATOM     65  C   UNL     1       6.348 -11.890   6.646  1.00  0.00     0.054 A 
BRANCH  65  66
ATOM     66  S   UNL     1       6.635 -13.445   5.757  1.00  0.00     0.124 S 
ATOM     67  O   UNL     1       6.380 -13.053   4.373  1.00  0.00    -0.237 OA
ATOM     68  O   UNL     1       8.027 -13.747   6.078  1.00  0.00    -0.237 OA
ATOM     69  O   UNL     1       5.654 -14.361   6.335  1.00  0.00    -0.744 OA
ENDBRANCH  65  66
ENDBRANCH  46  60
BRANCH  47  70
ATOM     70  C   UNL     1       4.538  -0.698  12.567  1.00  0.00    -0.014 A 
ATOM     71  C   UNL     1       5.575  -0.030  13.242  1.00  0.00     0.010 A 
ATOM     72  C   UNL     1       3.249  -0.135  12.566  1.00  0.00     0.010 A 
ATOM     73  C   UNL     1       5.319   1.161  13.930  1.00  0.00     0.020 A 
ATOM     74  C   UNL     1       2.996   1.070  13.227  1.00  0.00     0.020 A 
ATOM     75  C   UNL     1       4.030   1.702  13.920  1.00  0.00     0.054 A 
BRANCH  75  76
ATOM     76  S   UNL     1       3.723   3.262  14.793  1.00  0.00     0.124 S 
ATOM     77  O   UNL     1       3.687   2.828  16.185  1.00  0.00    -0.237 OA
ATOM     78  O   UNL     1       4.876   4.073  14.411  1.00  0.00    -0.237 OA
ATOM     79  O   UNL     1       2.446   3.713  14.243  1.00  0.00    -0.744 OA
ENDBRANCH  75  76
ENDBRANCH  47  70
BRANCH  59  80
ATOM     80  C   UNL     1       6.084  -7.108  14.832  1.00  0.00    -0.014 A 
ATOM     81  C   UNL     1       5.067  -7.252  15.792  1.00  0.00     0.010 A 
ATOM     82  C   UNL     1       7.393  -7.511  15.155  1.00  0.00     0.010 A 
ATOM     83  C   UNL     1       5.363  -7.744  17.066  1.00  0.00     0.020 A 
ATOM     84  C   UNL     1       7.688  -8.029  16.418  1.00  0.00     0.020 A 
ATOM     85  C   UNL     1       6.674  -8.122  17.374  1.00  0.00     0.054 A 
BRANCH  85  86
ATOM     86  S   UNL     1       7.034  -8.768  19.030  1.00  0.00     0.124 S 
ATOM     87  O   UNL     1       7.035  -7.551  19.836  1.00  0.00    -0.237 OA
ATOM     88  O   UNL     1       5.918  -9.681  19.270  1.00  0.00    -0.237 OA
ATOM     89  O   UNL     1       8.335  -9.414  18.873  1.00  0.00    -0.744 OA
ENDBRANCH  85  86
ENDBRANCH  59  80
ENDBRANCH  33  34
ENDBRANCH  26  28
ENDBRANCH  25  26
ENDBRANCH  24  25
ENDBRANCH   1  24
TORSDOF 19
