REMARK SMILES COc1ccc(-n2c(SCc3cn(-c4ccc(C(=O)OCCOCCOC(=O)c5ccc(-c6c7nc(c(-c8ccc(S(=O)(=O)[O-])cc8)c8ccc([nH]8)c(-c8ccc(S(=O)(=O)[O-])cc8)c8nc(c(-c9ccc(S(=O)(=O)[O-])cc9)c9ccc6[nH]9)C=C8)C=C7)cc5)cc4)nn3)nc3ccccc3c2=O)cc1
REMARK SMILES IDX 21 1 20 2 18 3 19 4 17 5 14 6 15 7 90 8 16 9 89 10 13 11
REMARK SMILES IDX 11 12 12 13 92 14 91 15 10 16 9 17 8 18 7 19 100 20 93 21
REMARK SMILES IDX 99 22 101 23 94 24 98 25 95 26 97 27 96 28 6 29 3 30 4 31
REMARK SMILES IDX 103 32 5 33 102 34 2 35 1 36 22 37 23 38 24 39 25 40 26 41
REMARK SMILES IDX 27 42 28 43 29 44 30 45 88 46 31 47 87 48 32 49 33 50 34 51
REMARK SMILES IDX 81 52 35 53 86 54 80 55 82 56 36 57 85 58 79 59 78 60 37 62
REMARK SMILES IDX 67 63 48 64 66 65 49 66 52 67 65 68 83 69 50 70 51 71 64 73
REMARK SMILES IDX 84 74 53 75 38 76 39 77 47 78 40 79 46 80 41 81 42 82 43 83
REMARK SMILES IDX 44 84 45 85 68 86 69 87 77 88 70 89 76 90 71 91 72 92 73 93
REMARK SMILES IDX 74 94 75 95 54 96 55 97 63 98 56 99 62 100 57 101 58 102
REMARK SMILES IDX 59 103 60 104 61 105
REMARK H PARENT 82 61 52 72
REMARK Flexibility Score: inf
ROOT
ATOM      1  C   UNL     1      -4.649  -7.925  -6.215  1.00  0.00     0.261 C 
ENDROOT
BRANCH   1   2
ATOM      2  O   UNL     1      -3.855  -7.165  -5.296  1.00  0.00    -0.460 OA
BRANCH   2   3
ATOM      3  C   UNL     1      -2.555  -7.069  -5.646  1.00  0.00     0.338 C 
ATOM      4  O   UNL     1      -1.981  -7.640  -6.568  1.00  0.00    -0.246 OA
BRANCH   3   5
ATOM      5  C   UNL     1      -1.925  -5.988  -4.881  1.00  0.00     0.060 A 
ATOM      6  C   UNL     1      -0.447  -4.076  -3.567  1.00  0.00     0.066 A 
ATOM      7  C   UNL     1      -0.557  -3.991  -4.953  1.00  0.00     0.029 A 
ATOM      8  C   UNL     1      -1.156  -5.041  -2.825  1.00  0.00     0.029 A 
ATOM      9  C   UNL     1      -1.263  -4.986  -5.610  1.00  0.00     0.018 A 
ATOM     10  C   UNL     1      -1.929  -5.988  -3.487  1.00  0.00     0.018 A 
BRANCH   6  11
ATOM     11  N   UNL     1       0.640  -3.417  -2.972  1.00  0.00    -0.220 N 
ATOM     12  C   UNL     1       2.662  -3.241  -2.183  1.00  0.00     0.093 A 
ATOM     13  C   UNL     1       1.595  -4.095  -2.267  1.00  0.00     0.141 A 
ATOM     14  N   UNL     1       2.325  -2.068  -2.805  1.00  0.00    -0.134 NA
ATOM     15  N   UNL     1       1.122  -2.216  -3.350  1.00  0.00    -0.062 NA
BRANCH  12  16
ATOM     16  C   UNL     1       4.005  -3.426  -1.605  1.00  0.00     0.138 C 
BRANCH  16  17
ATOM     17  S   UNL     1       4.678  -5.078  -1.667  1.00  0.00    -0.081 SA
BRANCH  17  18
ATOM     18  C   UNL     1       3.457  -6.181  -1.017  1.00  0.00     0.176 A 
ATOM     19  N   UNL     1       3.289  -6.192   0.359  1.00  0.00    -0.255 N 
ATOM     20  C   UNL     1       3.553  -7.383   1.021  1.00  0.00     0.266 A 
ATOM     21  N   UNL     1       3.286  -7.248  -1.737  1.00  0.00    -0.223 NA
ATOM     22  C   UNL     1       4.279  -8.365   0.179  1.00  0.00     0.066 A 
ATOM     23  O   UNL     1       3.276  -7.663   2.181  1.00  0.00    -0.268 OA
ATOM     24  C   UNL     1       3.984  -8.338  -1.189  1.00  0.00     0.079 A 
ATOM     25  C   UNL     1       5.367  -9.091   0.657  1.00  0.00     0.016 A 
ATOM     26  C   UNL     1       4.689  -9.155  -2.070  1.00  0.00     0.029 A 
ATOM     27  C   UNL     1       6.149  -9.807  -0.254  1.00  0.00     0.001 A 
ATOM     28  C   UNL     1       5.791  -9.869  -1.605  1.00  0.00     0.002 A 
BRANCH  19  29
ATOM     29  C   UNL     1       2.428  -5.219   0.937  1.00  0.00     0.052 A 
ATOM     30  C   UNL     1       0.887  -2.911   1.225  1.00  0.00     0.119 A 
ATOM     31  C   UNL     1       0.270  -4.105   0.863  1.00  0.00     0.048 A 
ATOM     32  C   UNL     1       2.224  -2.910   1.617  1.00  0.00     0.048 A 
ATOM     33  C   UNL     1       1.042  -5.263   0.706  1.00  0.00     0.030 A 
ATOM     34  C   UNL     1       2.994  -4.069   1.487  1.00  0.00     0.030 A 
BRANCH  30  35
ATOM     35  O   UNL     1       0.133  -1.772   1.230  1.00  0.00    -0.497 OA
ATOM     36  C   UNL     1       0.637  -0.760   0.348  1.00  0.00     0.278 C 
ENDBRANCH  30  35
ENDBRANCH  19  29
ENDBRANCH  17  18
ENDBRANCH  16  17
ENDBRANCH  12  16
ENDBRANCH   6  11
ENDBRANCH   3   5
ENDBRANCH   2   3
ENDBRANCH   1   2
BRANCH   1  37
ATOM     37  C   UNL     1      -5.648  -7.058  -6.982  1.00  0.00     0.202 C 
BRANCH  37  38
ATOM     38  O   UNL     1      -5.173  -5.994  -7.808  1.00  0.00    -0.374 OA
BRANCH  38  39
ATOM     39  C   UNL     1      -4.533  -4.854  -7.240  1.00  0.00     0.202 C 
BRANCH  39  40
ATOM     40  C   UNL     1      -5.350  -3.840  -6.447  1.00  0.00     0.261 C 
BRANCH  40  41
ATOM     41  O   UNL     1      -5.999  -4.466  -5.356  1.00  0.00    -0.460 OA
BRANCH  41  42
ATOM     42  C   UNL     1      -7.271  -4.831  -5.611  1.00  0.00     0.338 C 
ATOM     43  O   UNL     1      -7.877  -4.715  -6.675  1.00  0.00    -0.246 OA
BRANCH  42  44
ATOM     44  C   UNL     1      -7.869  -5.343  -4.372  1.00  0.00     0.060 A 
ATOM     45  C   UNL     1      -9.263  -5.343  -4.386  1.00  0.00     0.016 A 
ATOM     46  C   UNL     1      -7.122  -5.233  -3.190  1.00  0.00     0.016 A 
ATOM     47  C   UNL     1      -9.889  -4.778  -3.308  1.00  0.00     0.010 A 
ATOM     48  C   UNL     1      -7.743  -4.641  -2.125  1.00  0.00     0.010 A 
ATOM     49  C   UNL     1      -9.088  -4.305  -2.268  1.00  0.00    -0.014 A 
BRANCH  49  50
ATOM     50  C   UNL     1      -9.688  -3.388  -1.334  1.00  0.00     0.031 A 
ATOM     51  C   UNL     1     -10.395  -4.069  -0.242  1.00  0.00     0.074 A 
ATOM     52  C   UNL     1      -9.489  -2.061  -1.417  1.00  0.00     0.049 A 
ATOM     53  N   UNL     1     -11.668  -4.182  -0.070  1.00  0.00    -0.248 NA
ATOM     54  C   UNL     1      -9.574  -4.907   0.644  1.00  0.00     0.031 C 
ATOM     55  C   UNL     1      -8.543  -1.329  -2.266  1.00  0.00     0.029 A 
ATOM     56  N   UNL     1     -10.017  -1.089  -0.635  1.00  0.00    -0.354 N 
ATOM     57  C   UNL     1     -11.798  -4.942   1.082  1.00  0.00     0.074 A 
ATOM     58  C   UNL     1     -10.519  -5.566   1.309  1.00  0.00     0.031 C 
ATOM     59  C   UNL     1      -8.389  -0.079  -1.771  1.00  0.00     0.029 A 
ATOM     60  C   UNL     1      -9.312   0.104  -0.661  1.00  0.00     0.049 A 
ATOM     61  H   UNL     1     -10.830  -1.219  -0.095  1.00  0.00     0.167 HD
ATOM     62  C   UNL     1     -12.828  -4.767   1.951  1.00  0.00     0.031 A 
ATOM     63  C   UNL     1      -9.416   1.102   0.252  1.00  0.00     0.031 A 
ATOM     64  C   UNL     1     -13.894  -3.986   1.384  1.00  0.00     0.049 A 
ATOM     65  C   UNL     1     -10.693   0.895   0.989  1.00  0.00     0.074 A 
ATOM     66  C   UNL     1     -14.737  -4.134   0.302  1.00  0.00     0.029 A 
ATOM     67  N   UNL     1     -13.941  -2.653   1.727  1.00  0.00    -0.354 N 
ATOM     68  N   UNL     1     -11.869   0.991   0.431  1.00  0.00    -0.248 NA
ATOM     69  C   UNL     1     -10.661   0.127   2.226  1.00  0.00     0.031 C 
ATOM     70  C   UNL     1     -14.901  -2.820  -0.227  1.00  0.00     0.029 A 
ATOM     71  C   UNL     1     -14.183  -1.935   0.582  1.00  0.00     0.049 A 
ATOM     72  H   UNL     1     -13.822  -2.282   2.631  1.00  0.00     0.167 HD
ATOM     73  C   UNL     1     -12.628  -0.024   1.001  1.00  0.00     0.074 A 
ATOM     74  C   UNL     1     -11.865  -0.453   2.171  1.00  0.00     0.031 C 
ATOM     75  C   UNL     1     -13.654  -0.612   0.315  1.00  0.00     0.031 A 
BRANCH  62  76
ATOM     76  C   UNL     1     -12.655  -4.953   3.433  1.00  0.00    -0.014 A 
ATOM     77  C   UNL     1     -13.788  -4.967   4.263  1.00  0.00     0.010 A 
ATOM     78  C   UNL     1     -11.393  -4.866   4.065  1.00  0.00     0.010 A 
ATOM     79  C   UNL     1     -13.659  -4.861   5.654  1.00  0.00     0.020 A 
ATOM     80  C   UNL     1     -11.251  -4.817   5.447  1.00  0.00     0.020 A 
ATOM     81  C   UNL     1     -12.390  -4.777   6.233  1.00  0.00     0.054 A 
BRANCH  81  82
ATOM     82  S   UNL     1     -12.234  -4.526   8.015  1.00  0.00     0.124 S 
ATOM     83  O   UNL     1     -12.768  -3.176   8.172  1.00  0.00    -0.237 OA
ATOM     84  O   UNL     1     -13.058  -5.604   8.554  1.00  0.00    -0.237 OA
ATOM     85  O   UNL     1     -10.799  -4.664   8.256  1.00  0.00    -0.744 OA
ENDBRANCH  81  82
ENDBRANCH  62  76
BRANCH  63  86
ATOM     86  C   UNL     1      -8.309   1.946   0.770  1.00  0.00    -0.014 A 
ATOM     87  C   UNL     1      -8.564   3.115   1.509  1.00  0.00     0.010 A 
ATOM     88  C   UNL     1      -6.985   1.456   0.757  1.00  0.00     0.010 A 
ATOM     89  C   UNL     1      -7.541   3.742   2.244  1.00  0.00     0.020 A 
ATOM     90  C   UNL     1      -5.961   2.079   1.478  1.00  0.00     0.020 A 
ATOM     91  C   UNL     1      -6.249   3.209   2.237  1.00  0.00     0.054 A 
BRANCH  91  92
ATOM     92  S   UNL     1      -4.973   3.927   3.314  1.00  0.00     0.124 S 
ATOM     93  O   UNL     1      -4.713   5.213   2.673  1.00  0.00    -0.237 OA
ATOM     94  O   UNL     1      -5.647   3.989   4.607  1.00  0.00    -0.237 OA
ATOM     95  O   UNL     1      -3.875   2.964   3.237  1.00  0.00    -0.744 OA
ENDBRANCH  91  92
ENDBRANCH  63  86
BRANCH  75  96
ATOM     96  C   UNL     1     -14.104   0.037  -0.977  1.00  0.00    -0.014 A 
ATOM     97  C   UNL     1     -13.284   0.123  -2.121  1.00  0.00     0.010 A 
ATOM     98  C   UNL     1     -15.451   0.420  -1.089  1.00  0.00     0.010 A 
ATOM     99  C   UNL     1     -13.796   0.595  -3.339  1.00  0.00     0.020 A 
ATOM    100  C   UNL     1     -15.971   0.876  -2.304  1.00  0.00     0.020 A 
ATOM    101  C   UNL     1     -15.141   0.967  -3.422  1.00  0.00     0.054 A 
BRANCH 101 102
ATOM    102  S   UNL     1     -15.817   1.512  -5.017  1.00  0.00     0.124 S 
ATOM    103  O   UNL     1     -15.174   2.809  -5.208  1.00  0.00    -0.237 OA
ATOM    104  O   UNL     1     -15.387   0.456  -5.931  1.00  0.00    -0.237 OA
ATOM    105  O   UNL     1     -17.260   1.566  -4.783  1.00  0.00    -0.744 OA
ENDBRANCH 101 102
ENDBRANCH  75  96
ENDBRANCH  49  50
ENDBRANCH  42  44
ENDBRANCH  41  42
ENDBRANCH  40  41
ENDBRANCH  39  40
ENDBRANCH  38  39
ENDBRANCH  37  38
ENDBRANCH   1  37
TORSDOF 23
