REMARK SMILES Cc1sc(NC(=O)[C@@H]2[C@@H](C(=O)OCCOCCOC(=O)c3ccc(-c4c5nc(c(-c6ccc(S(=O)(=O)[O-])cc6)c6ccc([nH]6)c(-c6ccc(S(=O)(=O)[O-])cc6)c6nc(c(-c7ccc(S(=O)(=O)[O-])cc7)c7ccc4[nH]7)C=C6)C=C5)cc3)[C@@H]3C=C[C@H]2C3)c(C#N)c1C
REMARK SMILES IDX 15 1 14 2 13 3 12 4 10 5 11 6 9 7 8 8 84 9 81 10 83 11 85 12
REMARK SMILES IDX 82 13 6 14 5 15 7 17 4 18 1 19 2 20 3 21 89 22 86 23 90 24
REMARK SMILES IDX 87 25 88 26 16 27 17 28 18 29 19 30 20 31 21 32 22 33 80 34
REMARK SMILES IDX 23 35 79 36 24 37 25 38 26 39 73 40 27 41 78 42 72 43 74 44
REMARK SMILES IDX 28 45 77 46 71 47 70 48 29 50 59 51 40 52 58 53 41 54 44 55
REMARK SMILES IDX 57 56 75 57 42 58 43 59 56 61 76 62 45 63 30 64 31 65 39 66
REMARK SMILES IDX 32 67 38 68 33 69 34 70 35 71 36 72 37 73 60 74 61 75 69 76
REMARK SMILES IDX 62 77 68 78 63 79 64 80 65 81 66 82 67 83 46 84 47 85 55 86
REMARK SMILES IDX 48 87 54 88 49 89 50 90 51 91 52 92 53 93
REMARK H PARENT 5 16 74 49 44 60
REMARK Flexibility Score: inf
ROOT
ATOM      1  O   UNL     1      -4.195  -1.934   1.273  1.00  0.00    -0.374 OA
ENDROOT
BRANCH   1   2
ATOM      2  C   UNL     1      -5.306  -1.894   0.384  1.00  0.00     0.202 C 
BRANCH   2   3
ATOM      3  C   UNL     1      -6.049  -0.578   0.154  1.00  0.00     0.261 C 
BRANCH   3   4
ATOM      4  O   UNL     1      -5.230   0.517  -0.288  1.00  0.00    -0.463 OA
BRANCH   4   5
ATOM      5  C   UNL     1      -4.852   1.353   0.720  1.00  0.00     0.310 C 
ATOM      6  O   UNL     1      -5.017   1.103   1.909  1.00  0.00    -0.252 OA
BRANCH   5   7
ATOM      7  C   UNL     1      -4.283   2.668   0.195  1.00  0.00     0.119 C 
ATOM      8  C   UNL     1      -3.979   3.614   1.407  1.00  0.00     0.100 C 
ATOM      9  C   UNL     1      -5.198   4.614   1.298  1.00  0.00     0.025 C 
ATOM     10  C   UNL     1      -5.471   3.365  -0.522  1.00  0.00     0.027 C 
ATOM     11  C   UNL     1      -4.938   5.504   0.096  1.00  0.00    -0.027 C 
ATOM     12  C   UNL     1      -6.323   3.786   0.685  1.00  0.00     0.017 C 
ATOM     13  C   UNL     1      -5.049   4.734  -0.995  1.00  0.00    -0.027 C 
BRANCH   8  14
ATOM     14  C   UNL     1      -2.742   4.503   1.573  1.00  0.00     0.229 C 
ATOM     15  N   UNL     1      -1.579   4.499   0.891  1.00  0.00    -0.316 N 
ATOM     16  H   UNL     1      -1.330   5.389   0.551  1.00  0.00     0.170 HD
ATOM     17  O   UNL     1      -2.828   5.442   2.388  1.00  0.00    -0.274 OA
BRANCH  15  18
ATOM     18  C   UNL     1      -0.660   3.522   0.565  1.00  0.00     0.113 A 
ATOM     19  C   UNL     1       1.017  -0.009   0.209  1.00  0.00     0.057 C 
ATOM     20  C   UNL     1       0.632   1.436   0.282  1.00  0.00     0.008 A 
ATOM     21  S   UNL     1      -0.930   1.884   0.850  1.00  0.00    -0.122 S 
ATOM     22  C   UNL     1       1.397   2.542  -0.053  1.00  0.00    -0.017 A 
ATOM     23  C   UNL     1       0.632   3.749   0.114  1.00  0.00     0.090 A 
ATOM     24  C   UNL     1       2.828   2.516  -0.510  1.00  0.00     0.047 C 
BRANCH  23  25
ATOM     25  C   UNL     1       1.162   5.062  -0.102  1.00  0.00     0.103 C 
ATOM     26  N   UNL     1       1.577   6.145  -0.234  1.00  0.00    -0.192 NA
ENDBRANCH  23  25
ENDBRANCH  15  18
ENDBRANCH   8  14
ENDBRANCH   5   7
ENDBRANCH   4   5
ENDBRANCH   3   4
ENDBRANCH   2   3
ENDBRANCH   1   2
BRANCH   1  27
ATOM     27  C   UNL     1      -3.005  -1.214   0.982  1.00  0.00     0.202 C 
BRANCH  27  28
ATOM     28  C   UNL     1      -2.214  -1.563  -0.262  1.00  0.00     0.261 C 
BRANCH  28  29
ATOM     29  O   UNL     1      -3.007  -1.535  -1.430  1.00  0.00    -0.460 OA
BRANCH  29  30
ATOM     30  C   UNL     1      -3.311  -2.769  -1.886  1.00  0.00     0.338 C 
ATOM     31  O   UNL     1      -3.294  -3.813  -1.256  1.00  0.00    -0.246 OA
BRANCH  30  32
ATOM     32  C   UNL     1      -3.475  -2.682  -3.335  1.00  0.00     0.060 A 
ATOM     33  C   UNL     1      -3.694  -3.897  -3.981  1.00  0.00     0.016 A 
ATOM     34  C   UNL     1      -2.948  -1.563  -3.993  1.00  0.00     0.016 A 
ATOM     35  C   UNL     1      -3.046  -4.097  -5.175  1.00  0.00     0.010 A 
ATOM     36  C   UNL     1      -2.323  -1.764  -5.192  1.00  0.00     0.010 A 
ATOM     37  C   UNL     1      -2.255  -3.062  -5.690  1.00  0.00    -0.014 A 
BRANCH  37  38
ATOM     38  C   UNL     1      -1.532  -3.258  -6.927  1.00  0.00     0.031 A 
ATOM     39  C   UNL     1      -2.505  -3.206  -8.041  1.00  0.00     0.074 A 
ATOM     40  C   UNL     1      -0.186  -3.328  -7.015  1.00  0.00     0.049 A 
ATOM     41  N   UNL     1      -3.116  -4.226  -8.551  1.00  0.00    -0.248 NA
ATOM     42  C   UNL     1      -3.155  -1.914  -8.349  1.00  0.00     0.031 C 
ATOM     43  C   UNL     1       0.834  -3.193  -5.970  1.00  0.00     0.029 A 
ATOM     44  N   UNL     1       0.577  -3.482  -8.131  1.00  0.00    -0.354 N 
ATOM     45  C   UNL     1      -3.964  -3.677  -9.500  1.00  0.00     0.074 A 
ATOM     46  C   UNL     1      -4.199  -2.326  -9.072  1.00  0.00     0.031 C 
ATOM     47  C   UNL     1       2.056  -3.024  -6.541  1.00  0.00     0.029 A 
ATOM     48  C   UNL     1       1.933  -3.178  -7.980  1.00  0.00     0.049 A 
ATOM     49  H   UNL     1       0.199  -3.786  -8.987  1.00  0.00     0.167 HD
ATOM     50  C   UNL     1      -3.991  -4.199 -10.758  1.00  0.00     0.031 A 
ATOM     51  C   UNL     1       2.849  -3.044  -8.987  1.00  0.00     0.031 A 
ATOM     52  C   UNL     1      -3.386  -5.513 -10.777  1.00  0.00     0.049 A 
ATOM     53  C   UNL     1       2.286  -3.766 -10.161  1.00  0.00     0.074 A 
ATOM     54  C   UNL     1      -3.612  -6.708 -10.125  1.00  0.00     0.029 A 
ATOM     55  N   UNL     1      -2.092  -5.564 -11.242  1.00  0.00    -0.354 N 
ATOM     56  N   UNL     1       2.113  -5.060 -10.164  1.00  0.00    -0.248 NA
ATOM     57  C   UNL     1       1.415  -3.011 -11.049  1.00  0.00     0.031 C 
ATOM     58  C   UNL     1      -2.314  -7.235  -9.854  1.00  0.00     0.029 A 
ATOM     59  C   UNL     1      -1.362  -6.402 -10.446  1.00  0.00     0.049 A 
ATOM     60  H   UNL     1      -1.746  -5.075 -12.023  1.00  0.00     0.167 HD
ATOM     61  C   UNL     1       0.836  -5.240 -10.679  1.00  0.00     0.074 A 
ATOM     62  C   UNL     1       0.472  -3.938 -11.249  1.00  0.00     0.031 C 
ATOM     63  C   UNL     1       0.076  -6.314 -10.308  1.00  0.00     0.031 A 
BRANCH  50  64
ATOM     64  C   UNL     1      -4.014  -3.328 -12.001  1.00  0.00    -0.014 A 
ATOM     65  C   UNL     1      -3.939  -3.976 -13.249  1.00  0.00     0.010 A 
ATOM     66  C   UNL     1      -3.802  -1.932 -11.997  1.00  0.00     0.010 A 
ATOM     67  C   UNL     1      -3.565  -3.283 -14.405  1.00  0.00     0.020 A 
ATOM     68  C   UNL     1      -3.466  -1.224 -13.150  1.00  0.00     0.020 A 
ATOM     69  C   UNL     1      -3.319  -1.912 -14.342  1.00  0.00     0.054 A 
BRANCH  69  70
ATOM     70  S   UNL     1      -2.772  -1.044 -15.828  1.00  0.00     0.124 S 
ATOM     71  O   UNL     1      -1.474  -1.663 -16.074  1.00  0.00    -0.237 OA
ATOM     72  O   UNL     1      -3.829  -1.380 -16.778  1.00  0.00    -0.237 OA
ATOM     73  O   UNL     1      -2.735   0.355 -15.410  1.00  0.00    -0.744 OA
ENDBRANCH  69  70
ENDBRANCH  50  64
BRANCH  51  74
ATOM     74  C   UNL     1       3.921  -2.010  -9.144  1.00  0.00    -0.014 A 
ATOM     75  C   UNL     1       4.880  -2.069 -10.183  1.00  0.00     0.010 A 
ATOM     76  C   UNL     1       3.811  -0.788  -8.452  1.00  0.00     0.010 A 
ATOM     77  C   UNL     1       5.651  -0.939 -10.543  1.00  0.00     0.020 A 
ATOM     78  C   UNL     1       4.570   0.339  -8.805  1.00  0.00     0.020 A 
ATOM     79  C   UNL     1       5.473   0.268  -9.863  1.00  0.00     0.054 A 
BRANCH  79  80
ATOM     80  S   UNL     1       6.328   1.778 -10.427  1.00  0.00     0.124 S 
ATOM     81  O   UNL     1       7.719   1.499 -10.082  1.00  0.00    -0.237 OA
ATOM     82  O   UNL     1       6.025   1.807 -11.855  1.00  0.00    -0.237 OA
ATOM     83  O   UNL     1       5.699   2.841  -9.643  1.00  0.00    -0.744 OA
ENDBRANCH  79  80
ENDBRANCH  51  74
BRANCH  63  84
ATOM     84  C   UNL     1       0.741  -7.456  -9.575  1.00  0.00    -0.014 A 
ATOM     85  C   UNL     1       1.297  -7.379  -8.281  1.00  0.00     0.010 A 
ATOM     86  C   UNL     1       0.646  -8.715 -10.189  1.00  0.00     0.010 A 
ATOM     87  C   UNL     1       1.771  -8.539  -7.639  1.00  0.00     0.020 A 
ATOM     88  C   UNL     1       1.095  -9.869  -9.552  1.00  0.00     0.020 A 
ATOM     89  C   UNL     1       1.669  -9.777  -8.285  1.00  0.00     0.054 A 
BRANCH  89  90
ATOM     90  S   UNL     1       2.270 -11.281  -7.466  1.00  0.00     0.124 S 
ATOM     91  O   UNL     1       3.712 -11.059  -7.413  1.00  0.00    -0.237 OA
ATOM     92  O   UNL     1       1.579 -11.248  -6.179  1.00  0.00    -0.237 OA
ATOM     93  O   UNL     1       1.844 -12.358  -8.360  1.00  0.00    -0.744 OA
ENDBRANCH  89  90
ENDBRANCH  63  84
ENDBRANCH  37  38
ENDBRANCH  30  32
ENDBRANCH  29  30
ENDBRANCH  28  29
ENDBRANCH  27  28
ENDBRANCH   1  27
TORSDOF 20
