REMARK SMILES [NH3+][C@H](C(=O)OCCOCCOC(=O)c1ccc(-c2c3nc(c(-c4ccc(S(=O)(=O)[O-])cc4)c4ccc([nH]4)c(-c4ccc(S(=O)(=O)[O-])cc4)c4nc(c(-c5ccc(S(=O)(=O)[O-])cc5)c5ccc2[nH]5)C=C4)C=C3)cc1)c1ccc(Cl)c(OC(F)(F)F)c1
REMARK SMILES IDX 8 1 7 2 6 3 5 4 3 5 4 6 2 7 1 8 74 12 75 13 85 14 76 15
REMARK SMILES IDX 79 16 77 17 78 18 80 19 81 20 82 21 83 22 84 23 9 24 10 25
REMARK SMILES IDX 11 26 12 27 13 28 14 29 15 30 73 31 16 32 72 33 17 34 18 35
REMARK SMILES IDX 19 36 66 37 20 38 71 39 65 40 67 41 21 42 70 43 64 44 63 45
REMARK SMILES IDX 22 47 52 48 33 49 51 50 34 51 37 52 50 53 68 54 35 55 36 56
REMARK SMILES IDX 49 58 69 59 38 60 23 61 24 62 32 63 25 64 31 65 26 66 27 67
REMARK SMILES IDX 28 68 29 69 30 70 53 71 54 72 62 73 55 74 61 75 56 76 57 77
REMARK SMILES IDX 58 78 59 79 60 80 39 81 40 82 48 83 41 84 47 85 42 86 43 87
REMARK SMILES IDX 44 88 45 89 46 90
REMARK H PARENT 1 9 1 10 1 11 67 46 37 57
REMARK Flexibility Score: inf
ROOT
ATOM      1  O   UNL     1       4.192   0.340  -0.917  1.00  0.00    -0.374 OA
ENDROOT
BRANCH   1   2
ATOM      2  C   UNL     1       3.829   1.463  -0.110  1.00  0.00     0.202 C 
BRANCH   2   3
ATOM      3  C   UNL     1       2.350   1.861  -0.129  1.00  0.00     0.261 C 
BRANCH   3   4
ATOM      4  O   UNL     1       1.573   0.870   0.563  1.00  0.00    -0.459 OA
BRANCH   4   5
ATOM      5  C   UNL     1       0.469   0.398  -0.094  1.00  0.00     0.369 C 
ATOM      6  O   UNL     1       0.014   0.883  -1.122  1.00  0.00    -0.245 OA
BRANCH   5   7
ATOM      7  C   UNL     1      -0.018  -0.925   0.546  1.00  0.00     0.323 C 
BRANCH   7   8
ATOM      8  N   UNL     1       0.498  -1.124   1.920  1.00  0.00    -0.342 N 
ATOM      9  H   UNL     1       0.147  -2.007   2.291  1.00  0.00     0.345 HD
ATOM     10  H   UNL     1       0.185  -0.357   2.515  1.00  0.00     0.345 HD
ATOM     11  H   UNL     1       1.518  -1.144   1.901  1.00  0.00     0.345 HD
ENDBRANCH   7   8
BRANCH   7  12
ATOM     12  C   UNL     1      -1.521  -1.134   0.524  1.00  0.00     0.025 A 
ATOM     13  C   UNL     1      -2.426  -0.067   0.574  1.00  0.00     0.012 A 
ATOM     14  C   UNL     1      -2.022  -2.453   0.507  1.00  0.00     0.059 A 
ATOM     15  C   UNL     1      -3.799  -0.309   0.571  1.00  0.00     0.025 A 
ATOM     16  C   UNL     1      -3.397  -2.710   0.516  1.00  0.00     0.148 A 
ATOM     17  C   UNL     1      -4.280  -1.619   0.540  1.00  0.00     0.083 A 
ATOM     18  Cl  UNL     1      -5.994  -1.851   0.539  1.00  0.00    -0.080 Cl
BRANCH  16  19
ATOM     19  O   UNL     1      -3.967  -3.954   0.505  1.00  0.00    -0.404 OA
BRANCH  19  20
ATOM     20  C   UNL     1      -3.118  -5.085   0.536  1.00  0.00     0.573 C 
ATOM     21  F   UNL     1      -2.337  -5.135  -0.566  1.00  0.00    -0.132 F 
ATOM     22  F   UNL     1      -2.341  -5.089   1.639  1.00  0.00    -0.132 F 
ATOM     23  F   UNL     1      -3.881  -6.201   0.556  1.00  0.00    -0.132 F 
ENDBRANCH  19  20
ENDBRANCH  16  19
ENDBRANCH   7  12
ENDBRANCH   5   7
ENDBRANCH   4   5
ENDBRANCH   3   4
ENDBRANCH   2   3
ENDBRANCH   1   2
BRANCH   1  24
ATOM     24  C   UNL     1       3.681  -0.943  -0.565  1.00  0.00     0.202 C 
BRANCH  24  25
ATOM     25  C   UNL     1       4.267  -1.618   0.681  1.00  0.00     0.261 C 
BRANCH  25  26
ATOM     26  O   UNL     1       4.064  -0.858   1.886  1.00  0.00    -0.460 OA
BRANCH  26  27
ATOM     27  C   UNL     1       5.212  -0.418   2.462  1.00  0.00     0.338 C 
ATOM     28  O   UNL     1       6.356  -0.639   2.087  1.00  0.00    -0.246 OA
BRANCH  27  29
ATOM     29  C   UNL     1       4.922   0.537   3.543  1.00  0.00     0.060 A 
ATOM     30  C   UNL     1       5.453   1.827   3.420  1.00  0.00     0.016 A 
ATOM     31  C   UNL     1       4.259   0.150   4.709  1.00  0.00     0.016 A 
ATOM     32  C   UNL     1       5.364   2.723   4.481  1.00  0.00     0.010 A 
ATOM     33  C   UNL     1       4.179   1.050   5.780  1.00  0.00     0.010 A 
ATOM     34  C   UNL     1       4.764   2.327   5.684  1.00  0.00    -0.014 A 
BRANCH  34  35
ATOM     35  C   UNL     1       4.895   3.201   6.875  1.00  0.00     0.031 A 
ATOM     36  C   UNL     1       5.976   2.911   7.883  1.00  0.00     0.074 A 
ATOM     37  C   UNL     1       4.104   4.278   7.029  1.00  0.00     0.049 A 
ATOM     38  N   UNL     1       6.281   3.559   8.977  1.00  0.00    -0.248 NA
ATOM     39  C   UNL     1       6.827   1.740   7.617  1.00  0.00     0.031 C 
ATOM     40  C   UNL     1       3.054   4.695   6.100  1.00  0.00     0.029 A 
ATOM     41  N   UNL     1       4.067   5.221   8.025  1.00  0.00    -0.354 N 
ATOM     42  C   UNL     1       7.359   2.878   9.532  1.00  0.00     0.074 A 
ATOM     43  C   UNL     1       7.634   1.749   8.669  1.00  0.00     0.031 C 
ATOM     44  C   UNL     1       2.472   5.810   6.574  1.00  0.00     0.029 A 
ATOM     45  C   UNL     1       3.088   6.170   7.850  1.00  0.00     0.049 A 
ATOM     46  H   UNL     1       4.684   5.219   8.793  1.00  0.00     0.167 HD
ATOM     47  C   UNL     1       8.062   3.168  10.652  1.00  0.00     0.031 A 
ATOM     48  C   UNL     1       2.719   7.201   8.636  1.00  0.00     0.031 A 
ATOM     49  C   UNL     1       7.779   4.279  11.521  1.00  0.00     0.049 A 
ATOM     50  C   UNL     1       3.466   7.460   9.918  1.00  0.00     0.074 A 
ATOM     51  C   UNL     1       8.437   4.655  12.680  1.00  0.00     0.029 A 
ATOM     52  N   UNL     1       6.749   5.188  11.334  1.00  0.00    -0.354 N 
ATOM     53  N   UNL     1       4.494   6.816  10.418  1.00  0.00    -0.248 NA
ATOM     54  C   UNL     1       3.008   8.591  10.737  1.00  0.00     0.031 C 
ATOM     55  C   UNL     1       7.773   5.763  13.219  1.00  0.00     0.029 A 
ATOM     56  C   UNL     1       6.737   6.110  12.367  1.00  0.00     0.049 A 
ATOM     57  H   UNL     1       6.120   5.180  10.577  1.00  0.00     0.167 HD
ATOM     58  C   UNL     1       4.819   7.478  11.598  1.00  0.00     0.074 A 
ATOM     59  C   UNL     1       3.888   8.579  11.730  1.00  0.00     0.031 C 
ATOM     60  C   UNL     1       5.802   7.199  12.490  1.00  0.00     0.031 A 
BRANCH  47  61
ATOM     61  C   UNL     1       9.191   2.242  11.019  1.00  0.00    -0.014 A 
ATOM     62  C   UNL     1      10.392   2.235  10.288  1.00  0.00     0.010 A 
ATOM     63  C   UNL     1       9.058   1.387  12.127  1.00  0.00     0.010 A 
ATOM     64  C   UNL     1      11.425   1.359  10.634  1.00  0.00     0.020 A 
ATOM     65  C   UNL     1      10.098   0.527  12.492  1.00  0.00     0.020 A 
ATOM     66  C   UNL     1      11.268   0.506  11.731  1.00  0.00     0.054 A 
BRANCH  66  67
ATOM     67  S   UNL     1      12.627  -0.614  12.166  1.00  0.00     0.124 S 
ATOM     68  O   UNL     1      12.532  -1.624  11.115  1.00  0.00    -0.237 OA
ATOM     69  O   UNL     1      13.797   0.257  12.095  1.00  0.00    -0.237 OA
ATOM     70  O   UNL     1      12.280  -1.077  13.507  1.00  0.00    -0.744 OA
ENDBRANCH  66  67
ENDBRANCH  47  61
BRANCH  48  71
ATOM     71  C   UNL     1       1.567   8.054   8.241  1.00  0.00    -0.014 A 
ATOM     72  C   UNL     1       1.761   9.381   7.820  1.00  0.00     0.010 A 
ATOM     73  C   UNL     1       0.261   7.532   8.278  1.00  0.00     0.010 A 
ATOM     74  C   UNL     1       0.669  10.173   7.453  1.00  0.00     0.020 A 
ATOM     75  C   UNL     1      -0.830   8.312   7.887  1.00  0.00     0.020 A 
ATOM     76  C   UNL     1      -0.620   9.632   7.486  1.00  0.00     0.054 A 
BRANCH  76  77
ATOM     77  S   UNL     1      -2.017  10.656   6.944  1.00  0.00     0.124 S 
ATOM     78  O   UNL     1      -2.192  11.555   8.079  1.00  0.00    -0.237 OA
ATOM     79  O   UNL     1      -1.503  11.269   5.722  1.00  0.00    -0.237 OA
ATOM     80  O   UNL     1      -3.090   9.685   6.740  1.00  0.00    -0.744 OA
ENDBRANCH  76  77
ENDBRANCH  48  71
BRANCH  60  81
ATOM     81  C   UNL     1       5.944   8.115  13.677  1.00  0.00    -0.014 A 
ATOM     82  C   UNL     1       5.022   8.082  14.737  1.00  0.00     0.010 A 
ATOM     83  C   UNL     1       7.051   8.980  13.757  1.00  0.00     0.010 A 
ATOM     84  C   UNL     1       5.188   8.920  15.844  1.00  0.00     0.020 A 
ATOM     85  C   UNL     1       7.234   9.801  14.873  1.00  0.00     0.020 A 
ATOM     86  C   UNL     1       6.293   9.776  15.904  1.00  0.00     0.054 A 
BRANCH  86  87
ATOM     87  S   UNL     1       6.511  10.822  17.370  1.00  0.00     0.124 S 
ATOM     88  O   UNL     1       5.506  11.859  17.154  1.00  0.00    -0.237 OA
ATOM     89  O   UNL     1       6.237   9.899  18.468  1.00  0.00    -0.237 OA
ATOM     90  O   UNL     1       7.899  11.269  17.273  1.00  0.00    -0.744 OA
ENDBRANCH  86  87
ENDBRANCH  60  81
ENDBRANCH  34  35
ENDBRANCH  27  29
ENDBRANCH  26  27
ENDBRANCH  25  26
ENDBRANCH  24  25
ENDBRANCH   1  24
TORSDOF 21
