REMARK SMILES O=C(OCCOCCOC(=O)[C@H]1CN(C(=O)C[C@H]2NC(=O)c3ccccc32)C[C@@H]1c1ccc(F)cc1)c1ccc(-c2c3nc(c(-c4ccc(S(=O)(=O)[O-])cc4)c4ccc([nH]4)c(-c4ccc(S(=O)(=O)[O-])cc4)c4nc(c(-c5ccc(S(=O)(=O)[O-])cc5)c5ccc2[nH]5)C=C4)C=C3)cc1
REMARK SMILES IDX 6 1 5 2 4 3 3 4 2 5 1 6 37 7 38 8 96 9 39 10 95 11 40 12
REMARK SMILES IDX 41 13 42 14 89 15 43 16 94 17 88 18 90 19 44 20 93 21 87 22
REMARK SMILES IDX 86 23 45 25 75 26 56 27 74 28 57 29 60 30 73 31 91 32 58 33
REMARK SMILES IDX 59 34 72 36 92 37 61 38 46 39 47 40 55 41 48 42 54 43 49 44
REMARK SMILES IDX 50 45 51 46 52 47 53 48 76 49 77 50 85 51 78 52 84 53 79 54
REMARK SMILES IDX 80 55 81 56 82 57 83 58 62 59 63 60 71 61 64 62 70 63 65 64
REMARK SMILES IDX 66 65 67 66 68 67 69 68 7 69 8 70 9 71 10 72 11 73 12 74
REMARK SMILES IDX 13 75 29 76 14 77 28 78 30 79 31 80 36 81 32 82 35 83 33 84
REMARK SMILES IDX 34 85 15 86 16 87 17 88 18 89 19 90 27 91 20 92 22 94 26 95
REMARK SMILES IDX 21 96 23 97 25 98 24 99
REMARK H PARENT 90 24 60 35 19 93
REMARK Flexibility Score: inf
ROOT
ATOM      1  O   UNL     1       5.860  -2.516  -3.478  1.00  0.00    -0.374 OA
ENDROOT
BRANCH   1   2
ATOM      2  C   UNL     1       5.043  -2.405  -4.639  1.00  0.00     0.202 C 
BRANCH   2   3
ATOM      3  C   UNL     1       3.661  -3.071  -4.647  1.00  0.00     0.261 C 
BRANCH   3   4
ATOM      4  O   UNL     1       2.801  -2.391  -3.710  1.00  0.00    -0.460 OA
BRANCH   4   5
ATOM      5  C   UNL     1       2.669  -2.667  -2.386  1.00  0.00     0.338 C 
ATOM      6  O   UNL     1       2.091  -1.880  -1.644  1.00  0.00    -0.246 OA
BRANCH   5   7
ATOM      7  C   UNL     1       3.144  -3.963  -1.850  1.00  0.00     0.060 A 
ATOM      8  C   UNL     1       4.291  -4.579  -2.322  1.00  0.00     0.016 A 
ATOM      9  C   UNL     1       2.409  -4.617  -0.860  1.00  0.00     0.016 A 
ATOM     10  C   UNL     1       4.615  -5.861  -2.027  1.00  0.00     0.010 A 
ATOM     11  C   UNL     1       2.796  -5.897  -0.445  1.00  0.00     0.010 A 
ATOM     12  C   UNL     1       3.883  -6.523  -1.069  1.00  0.00    -0.014 A 
BRANCH  12  13
ATOM     13  C   UNL     1       4.239  -7.934  -0.969  1.00  0.00     0.031 A 
ATOM     14  C   UNL     1       3.313  -8.908  -1.619  1.00  0.00     0.074 A 
ATOM     15  C   UNL     1       5.502  -8.240  -0.613  1.00  0.00     0.049 A 
ATOM     16  N   UNL     1       3.410 -10.201  -1.688  1.00  0.00    -0.248 NA
ATOM     17  C   UNL     1       2.129  -8.351  -2.305  1.00  0.00     0.031 C 
ATOM     18  C   UNL     1       6.541  -7.263  -0.236  1.00  0.00     0.029 A 
ATOM     19  N   UNL     1       6.160  -9.432  -0.603  1.00  0.00    -0.354 N 
ATOM     20  C   UNL     1       2.262 -10.620  -2.345  1.00  0.00     0.074 A 
ATOM     21  C   UNL     1       1.496  -9.448  -2.687  1.00  0.00     0.031 C 
ATOM     22  C   UNL     1       7.710  -7.900  -0.080  1.00  0.00     0.029 A 
ATOM     23  C   UNL     1       7.474  -9.326  -0.219  1.00  0.00     0.049 A 
ATOM     24  H   UNL     1       5.735 -10.286  -0.847  1.00  0.00     0.167 HD
ATOM     25  C   UNL     1       1.887 -11.892  -2.595  1.00  0.00     0.031 A 
ATOM     26  C   UNL     1       8.362 -10.298   0.050  1.00  0.00     0.031 A 
ATOM     27  C   UNL     1       2.708 -13.010  -2.227  1.00  0.00     0.049 A 
ATOM     28  C   UNL     1       7.868 -11.707  -0.107  1.00  0.00     0.074 A 
ATOM     29  C   UNL     1       2.432 -14.358  -2.322  1.00  0.00     0.029 A 
ATOM     30  N   UNL     1       3.986 -12.892  -1.690  1.00  0.00    -0.354 N 
ATOM     31  N   UNL     1       6.714 -12.122  -0.582  1.00  0.00    -0.248 NA
ATOM     32  C   UNL     1       8.771 -12.773   0.323  1.00  0.00     0.031 C 
ATOM     33  C   UNL     1       3.518 -15.053  -1.781  1.00  0.00     0.029 A 
ATOM     34  C   UNL     1       4.506 -14.142  -1.425  1.00  0.00     0.049 A 
ATOM     35  H   UNL     1       4.452 -12.040  -1.522  1.00  0.00     0.167 HD
ATOM     36  C   UNL     1       6.761 -13.506  -0.535  1.00  0.00     0.074 A 
ATOM     37  C   UNL     1       8.069 -13.850  -0.001  1.00  0.00     0.031 C 
ATOM     38  C   UNL     1       5.821 -14.415  -0.896  1.00  0.00     0.031 A 
BRANCH  25  39
ATOM     39  C   UNL     1       0.504 -12.102  -3.142  1.00  0.00    -0.014 A 
ATOM     40  C   UNL     1       0.149 -11.744  -4.455  1.00  0.00     0.010 A 
ATOM     41  C   UNL     1      -0.483 -12.623  -2.285  1.00  0.00     0.010 A 
ATOM     42  C   UNL     1      -1.175 -11.871  -4.887  1.00  0.00     0.020 A 
ATOM     43  C   UNL     1      -1.799 -12.780  -2.721  1.00  0.00     0.020 A 
ATOM     44  C   UNL     1      -2.141 -12.388  -4.016  1.00  0.00     0.054 A 
BRANCH  44  45
ATOM     45  S   UNL     1      -3.847 -12.561  -4.606  1.00  0.00     0.124 S 
ATOM     46  O   UNL     1      -4.284 -11.169  -4.678  1.00  0.00    -0.237 OA
ATOM     47  O   UNL     1      -3.671 -13.232  -5.891  1.00  0.00    -0.237 OA
ATOM     48  O   UNL     1      -4.493 -13.363  -3.570  1.00  0.00    -0.744 OA
ENDBRANCH  44  45
ENDBRANCH  25  39
BRANCH  26  49
ATOM     49  C   UNL     1       9.715  -9.971   0.578  1.00  0.00    -0.014 A 
ATOM     50  C   UNL     1      10.876 -10.335  -0.122  1.00  0.00     0.010 A 
ATOM     51  C   UNL     1       9.850  -9.287   1.804  1.00  0.00     0.010 A 
ATOM     52  C   UNL     1      12.141 -10.047   0.403  1.00  0.00     0.020 A 
ATOM     53  C   UNL     1      11.110  -8.966   2.316  1.00  0.00     0.020 A 
ATOM     54  C   UNL     1      12.249  -9.365   1.619  1.00  0.00     0.054 A 
BRANCH  54  55
ATOM     55  S   UNL     1      13.900  -8.992   2.272  1.00  0.00     0.124 S 
ATOM     56  O   UNL     1      14.382 -10.316   2.652  1.00  0.00    -0.237 OA
ATOM     57  O   UNL     1      14.562  -8.382   1.122  1.00  0.00    -0.237 OA
ATOM     58  O   UNL     1      13.632  -8.081   3.383  1.00  0.00    -0.744 OA
ENDBRANCH  54  55
ENDBRANCH  26  49
BRANCH  38  59
ATOM     59  C   UNL     1       6.215 -15.857  -0.786  1.00  0.00    -0.014 A 
ATOM     60  C   UNL     1       6.360 -16.486   0.462  1.00  0.00     0.010 A 
ATOM     61  C   UNL     1       6.393 -16.599  -1.967  1.00  0.00     0.010 A 
ATOM     62  C   UNL     1       6.723 -17.830   0.524  1.00  0.00     0.020 A 
ATOM     63  C   UNL     1       6.716 -17.952  -1.907  1.00  0.00     0.020 A 
ATOM     64  C   UNL     1       6.897 -18.553  -0.661  1.00  0.00     0.054 A 
BRANCH  64  65
ATOM     65  S   UNL     1       7.333 -20.307  -0.552  1.00  0.00     0.124 S 
ATOM     66  O   UNL     1       8.727 -20.245  -0.124  1.00  0.00    -0.237 OA
ATOM     67  O   UNL     1       6.389 -20.808   0.445  1.00  0.00    -0.237 OA
ATOM     68  O   UNL     1       7.118 -20.802  -1.910  1.00  0.00    -0.744 OA
ENDBRANCH  64  65
ENDBRANCH  38  59
ENDBRANCH  12  13
ENDBRANCH   5   7
ENDBRANCH   4   5
ENDBRANCH   3   4
ENDBRANCH   2   3
ENDBRANCH   1   2
BRANCH   1  69
ATOM     69  C   UNL     1       5.722  -1.483  -2.501  1.00  0.00     0.202 C 
BRANCH  69  70
ATOM     70  C   UNL     1       6.885  -0.507  -2.614  1.00  0.00     0.261 C 
BRANCH  70  71
ATOM     71  O   UNL     1       6.837   0.086  -3.923  1.00  0.00    -0.463 OA
BRANCH  71  72
ATOM     72  C   UNL     1       7.463  -0.617  -4.902  1.00  0.00     0.311 C 
ATOM     73  O   UNL     1       8.236  -1.549  -4.722  1.00  0.00    -0.252 OA
BRANCH  72  74
ATOM     74  C   UNL     1       7.133  -0.110  -6.288  1.00  0.00     0.128 C 
ATOM     75  C   UNL     1       5.719  -0.248  -6.862  1.00  0.00     0.135 C 
ATOM     76  C   UNL     1       7.343   1.406  -6.322  1.00  0.00     0.055 C 
ATOM     77  N   UNL     1       4.988   0.885  -6.327  1.00  0.00    -0.341 N 
ATOM     78  C   UNL     1       5.927   1.958  -6.014  1.00  0.00     0.128 C 
BRANCH  76  79
ATOM     79  C   UNL     1       7.981   1.895  -7.612  1.00  0.00    -0.042 A 
ATOM     80  C   UNL     1       8.394   3.233  -7.668  1.00  0.00     0.007 A 
ATOM     81  C   UNL     1       8.306   1.049  -8.692  1.00  0.00     0.007 A 
ATOM     82  C   UNL     1       9.148   3.694  -8.747  1.00  0.00     0.039 A 
ATOM     83  C   UNL     1       9.071   1.506  -9.760  1.00  0.00     0.039 A 
ATOM     84  C   UNL     1       9.493   2.823  -9.773  1.00  0.00     0.123 A 
ATOM     85  F   UNL     1      10.254   3.257 -10.784  1.00  0.00    -0.207 F 
ENDBRANCH  76  79
BRANCH  77  86
ATOM     86  C   UNL     1       3.651   1.024  -6.016  1.00  0.00     0.225 C 
ATOM     87  O   UNL     1       3.258   2.007  -5.380  1.00  0.00    -0.275 OA
BRANCH  86  88
ATOM     88  C   UNL     1       2.640  -0.012  -6.476  1.00  0.00     0.130 C 
BRANCH  88  89
ATOM     89  C   UNL     1       2.581  -0.183  -7.985  1.00  0.00     0.123 C 
ATOM     90  N   UNL     1       1.609  -1.183  -8.403  1.00  0.00    -0.345 N 
ATOM     91  C   UNL     1       2.113   1.032  -8.730  1.00  0.00    -0.012 A 
ATOM     92  C   UNL     1       0.735  -0.720  -9.367  1.00  0.00     0.252 C 
ATOM     93  H   UNL     1       1.577  -2.096  -8.036  1.00  0.00     0.164 HD
ATOM     94  C   UNL     1       1.042   0.701  -9.559  1.00  0.00     0.045 A 
ATOM     95  C   UNL     1       2.585   2.333  -8.699  1.00  0.00     0.007 A 
ATOM     96  O   UNL     1      -0.115  -1.353  -9.951  1.00  0.00    -0.269 OA
ATOM     97  C   UNL     1       0.415   1.623 -10.374  1.00  0.00     0.014 A 
ATOM     98  C   UNL     1       1.953   3.291  -9.494  1.00  0.00     0.000 A 
ATOM     99  C   UNL     1       0.880   2.938 -10.330  1.00  0.00     0.001 A 
ENDBRANCH  88  89
ENDBRANCH  86  88
ENDBRANCH  77  86
ENDBRANCH  72  74
ENDBRANCH  71  72
ENDBRANCH  70  71
ENDBRANCH  69  70
ENDBRANCH   1  69
TORSDOF 21
