REMARK SMILES CC[C@H](C)NS(=O)(=O)c1ccc(C(=O)OCCOCCOC(=O)c2ccc(-c3c4nc(c(-c5ccc(S(=O)(=O)[O-])cc5)c5ccc([nH]5)c(-c5ccc(S(=O)(=O)[O-])cc5)c5nc(c(-c6ccc(S(=O)(=O)[O-])cc6)c6ccc3[nH]6)C=C5)C=C4)cc2)cc1F
REMARK SMILES IDX 17 1 16 2 15 3 13 4 14 5 12 6 9 7 10 8 85 9 11 10 84 11
REMARK SMILES IDX 86 12 6 13 7 14 8 15 5 16 3 18 4 19 2 20 1 21 18 22 19 23
REMARK SMILES IDX 20 24 21 25 22 26 23 27 24 28 25 29 83 30 26 31 82 32 27 33
REMARK SMILES IDX 28 34 29 35 76 36 30 37 81 38 75 39 77 40 31 41 80 42 74 43
REMARK SMILES IDX 73 44 32 46 62 47 43 48 61 49 44 50 47 51 60 52 78 53 45 54
REMARK SMILES IDX 46 55 59 57 79 58 48 59 33 60 34 61 42 62 35 63 41 64 36 65
REMARK SMILES IDX 37 66 38 67 39 68 40 69 63 70 64 71 72 72 65 73 71 74 66 75
REMARK SMILES IDX 67 76 68 77 69 78 70 79 49 80 50 81 58 82 51 83 57 84 52 85
REMARK SMILES IDX 53 86 54 87 55 88 56 89
REMARK H PARENT 5 17 77 45 47 56
REMARK Flexibility Score: inf
ROOT
ATOM      1  C   UNL     1       9.857  -2.017   4.424  1.00  0.00     0.202 C 
ENDROOT
BRANCH   1   2
ATOM      2  C   UNL     1       9.191  -2.446   5.735  1.00  0.00     0.261 C 
BRANCH   2   3
ATOM      3  O   UNL     1       7.777  -2.649   5.580  1.00  0.00    -0.460 OA
BRANCH   3   4
ATOM      4  C   UNL     1       7.012  -1.684   6.143  1.00  0.00     0.338 C 
ATOM      5  O   UNL     1       7.395  -0.748   6.826  1.00  0.00    -0.246 OA
BRANCH   4   6
ATOM      6  C   UNL     1       5.611  -1.789   5.675  1.00  0.00     0.063 A 
ATOM      7  C   UNL     1       2.905  -1.823   5.001  1.00  0.00     0.118 A 
ATOM      8  C   UNL     1       3.554  -0.600   5.203  1.00  0.00     0.026 A 
ATOM      9  C   UNL     1       3.623  -3.013   5.068  1.00  0.00     0.144 A 
ATOM     10  C   UNL     1       4.905  -0.586   5.538  1.00  0.00     0.017 A 
ATOM     11  C   UNL     1       4.982  -3.006   5.395  1.00  0.00     0.056 A 
ATOM     12  F   UNL     1       3.035  -4.193   4.831  1.00  0.00    -0.205 F 
BRANCH   7  13
ATOM     13  S   UNL     1       1.143  -1.829   4.926  1.00  0.00     0.243 S 
ATOM     14  O   UNL     1       0.684  -0.578   5.484  1.00  0.00    -0.207 OA
ATOM     15  O   UNL     1       0.654  -3.083   5.461  1.00  0.00    -0.207 OA
BRANCH  13  16
ATOM     16  N   UNL     1       0.782  -1.851   3.298  1.00  0.00    -0.208 NA
ATOM     17  H   UNL     1       1.284  -2.653   2.917  1.00  0.00     0.141 HD
BRANCH  16  18
ATOM     18  C   UNL     1       1.046  -0.746   2.375  1.00  0.00     0.066 C 
ATOM     19  C   UNL     1       0.752  -1.230   0.953  1.00  0.00     0.025 C 
BRANCH  18  20
ATOM     20  C   UNL     1       0.254   0.529   2.702  1.00  0.00     0.016 C 
ATOM     21  C   UNL     1      -1.235   0.330   2.961  1.00  0.00     0.005 C 
ENDBRANCH  18  20
ENDBRANCH  16  18
ENDBRANCH  13  16
ENDBRANCH   7  13
ENDBRANCH   4   6
ENDBRANCH   3   4
ENDBRANCH   2   3
ENDBRANCH   1   2
BRANCH   1  22
ATOM     22  O   UNL     1       9.403  -0.813   3.809  1.00  0.00    -0.374 OA
BRANCH  22  23
ATOM     23  C   UNL     1       8.168  -0.848   3.097  1.00  0.00     0.202 C 
BRANCH  23  24
ATOM     24  C   UNL     1       8.127  -1.559   1.738  1.00  0.00     0.261 C 
BRANCH  24  25
ATOM     25  O   UNL     1       8.404  -2.966   1.827  1.00  0.00    -0.460 OA
BRANCH  25  26
ATOM     26  C   UNL     1       9.624  -3.326   1.353  1.00  0.00     0.338 C 
ATOM     27  O   UNL     1      10.458  -2.599   0.842  1.00  0.00    -0.246 OA
BRANCH  26  28
ATOM     28  C   UNL     1       9.905  -4.728   1.714  1.00  0.00     0.060 A 
ATOM     29  C   UNL     1      11.075  -4.992   2.437  1.00  0.00     0.016 A 
ATOM     30  C   UNL     1       9.081  -5.770   1.287  1.00  0.00     0.016 A 
ATOM     31  C   UNL     1      11.451  -6.308   2.698  1.00  0.00     0.010 A 
ATOM     32  C   UNL     1       9.464  -7.089   1.544  1.00  0.00     0.010 A 
ATOM     33  C   UNL     1      10.668  -7.365   2.219  1.00  0.00    -0.014 A 
BRANCH  33  34
ATOM     34  C   UNL     1      11.172  -8.757   2.309  1.00  0.00     0.031 A 
ATOM     35  C   UNL     1      11.729  -9.415   1.075  1.00  0.00     0.074 A 
ATOM     36  C   UNL     1      11.148  -9.421   3.478  1.00  0.00     0.049 A 
ATOM     37  N   UNL     1      12.173 -10.634   0.916  1.00  0.00    -0.248 NA
ATOM     38  C   UNL     1      11.788  -8.589  -0.143  1.00  0.00     0.031 C 
ATOM     39  C   UNL     1      10.674  -8.876   4.751  1.00  0.00     0.029 A 
ATOM     40  N   UNL     1      11.526 -10.705   3.782  1.00  0.00    -0.354 N 
ATOM     41  C   UNL     1      12.550 -10.729  -0.419  1.00  0.00     0.074 A 
ATOM     42  C   UNL     1      12.255  -9.453  -1.033  1.00  0.00     0.031 C 
ATOM     43  C   UNL     1      10.785  -9.823   5.698  1.00  0.00     0.029 A 
ATOM     44  C   UNL     1      11.297 -11.051   5.093  1.00  0.00     0.049 A 
ATOM     45  H   UNL     1      11.924 -11.320   3.124  1.00  0.00     0.167 HD
ATOM     46  C   UNL     1      13.098 -11.781  -1.072  1.00  0.00     0.031 A 
ATOM     47  C   UNL     1      11.457 -12.230   5.726  1.00  0.00     0.031 A 
ATOM     48  C   UNL     1      13.379 -13.052  -0.456  1.00  0.00     0.049 A 
ATOM     49  C   UNL     1      11.997 -13.409   4.960  1.00  0.00     0.074 A 
ATOM     50  C   UNL     1      13.951 -14.176  -1.028  1.00  0.00     0.029 A 
ATOM     51  N   UNL     1      13.103 -13.372   0.865  1.00  0.00    -0.354 N 
ATOM     52  N   UNL     1      12.373 -13.476   3.704  1.00  0.00    -0.248 NA
ATOM     53  C   UNL     1      12.144 -14.671   5.700  1.00  0.00     0.031 C 
ATOM     54  C   UNL     1      13.959 -15.196  -0.071  1.00  0.00     0.029 A 
ATOM     55  C   UNL     1      13.464 -14.685   1.118  1.00  0.00     0.049 A 
ATOM     56  H   UNL     1      12.709 -12.757   1.524  1.00  0.00     0.167 HD
ATOM     57  C   UNL     1      12.834 -14.775   3.515  1.00  0.00     0.074 A 
ATOM     58  C   UNL     1      12.700 -15.455   4.786  1.00  0.00     0.031 C 
ATOM     59  C   UNL     1      13.329 -15.351   2.390  1.00  0.00     0.031 A 
BRANCH  46  60
ATOM     60  C   UNL     1      13.395 -11.618  -2.541  1.00  0.00    -0.014 A 
ATOM     61  C   UNL     1      14.426 -10.772  -2.991  1.00  0.00     0.010 A 
ATOM     62  C   UNL     1      12.661 -12.360  -3.484  1.00  0.00     0.010 A 
ATOM     63  C   UNL     1      14.690 -10.644  -4.357  1.00  0.00     0.020 A 
ATOM     64  C   UNL     1      12.943 -12.259  -4.849  1.00  0.00     0.020 A 
ATOM     65  C   UNL     1      13.946 -11.389  -5.278  1.00  0.00     0.054 A 
BRANCH  65  66
ATOM     66  S   UNL     1      14.330 -11.222  -7.043  1.00  0.00     0.124 S 
ATOM     67  O   UNL     1      13.847  -9.873  -7.330  1.00  0.00    -0.237 OA
ATOM     68  O   UNL     1      15.781 -11.389  -7.071  1.00  0.00    -0.237 OA
ATOM     69  O   UNL     1      13.569 -12.301  -7.668  1.00  0.00    -0.744 OA
ENDBRANCH  65  66
ENDBRANCH  46  60
BRANCH  47  70
ATOM     70  C   UNL     1      11.084 -12.358   7.162  1.00  0.00    -0.014 A 
ATOM     71  C   UNL     1      12.067 -12.568   8.145  1.00  0.00     0.010 A 
ATOM     72  C   UNL     1       9.735 -12.272   7.555  1.00  0.00     0.010 A 
ATOM     73  C   UNL     1      11.708 -12.707   9.489  1.00  0.00     0.020 A 
ATOM     74  C   UNL     1       9.375 -12.378   8.901  1.00  0.00     0.020 A 
ATOM     75  C   UNL     1      10.364 -12.607   9.858  1.00  0.00     0.054 A 
BRANCH  75  76
ATOM     76  S   UNL     1       9.928 -12.741  11.614  1.00  0.00     0.124 S 
ATOM     77  O   UNL     1      10.156 -14.158  11.877  1.00  0.00    -0.237 OA
ATOM     78  O   UNL     1      10.872 -11.819  12.242  1.00  0.00    -0.237 OA
ATOM     79  O   UNL     1       8.531 -12.313  11.654  1.00  0.00    -0.744 OA
ENDBRANCH  75  76
ENDBRANCH  47  70
BRANCH  59  80
ATOM     80  C   UNL     1      13.814 -16.775   2.488  1.00  0.00    -0.014 A 
ATOM     81  C   UNL     1      12.920 -17.849   2.645  1.00  0.00     0.010 A 
ATOM     82  C   UNL     1      15.189 -17.045   2.356  1.00  0.00     0.010 A 
ATOM     83  C   UNL     1      13.396 -19.162   2.700  1.00  0.00     0.020 A 
ATOM     84  C   UNL     1      15.665 -18.358   2.376  1.00  0.00     0.020 A 
ATOM     85  C   UNL     1      14.766 -19.409   2.562  1.00  0.00     0.054 A 
BRANCH  85  86
ATOM     86  S   UNL     1      15.351 -21.125   2.587  1.00  0.00     0.124 S 
ATOM     87  O   UNL     1      15.174 -21.487   3.990  1.00  0.00    -0.237 OA
ATOM     88  O   UNL     1      14.445 -21.785   1.649  1.00  0.00    -0.237 OA
ATOM     89  O   UNL     1      16.738 -21.026   2.139  1.00  0.00    -0.744 OA
ENDBRANCH  85  86
ENDBRANCH  59  80
ENDBRANCH  33  34
ENDBRANCH  26  28
ENDBRANCH  25  26
ENDBRANCH  24  25
ENDBRANCH  23  24
ENDBRANCH  22  23
ENDBRANCH   1  22
TORSDOF 21
