REMARK SMILES COc1c(C(=O)OCCOCCOC(=O)c2ccc(-c3c4nc(c(-c5ccc(S(=O)(=O)[O-])cc5)c5ccc([nH]5)c(-c5ccc(S(=O)(=O)[O-])cc5)c5nc(c(-c6ccc(S(=O)(=O)[O-])cc6)c6ccc3[nH]6)C=C5)C=C4)cc2)cccc1-c1cc(C)ccc1C
REMARK SMILES IDX 11 1 10 2 9 3 8 4 7 5 5 6 6 7 4 8 3 9 79 10 76 11 78 12
REMARK SMILES IDX 77 13 2 14 1 15 80 16 81 17 86 18 82 19 85 20 87 21 83 22
REMARK SMILES IDX 84 23 12 24 13 25 14 26 15 27 16 28 17 29 75 30 18 31 74 32
REMARK SMILES IDX 19 33 20 34 21 35 68 36 22 37 73 38 67 39 69 40 23 41 72 42
REMARK SMILES IDX 66 43 65 44 24 46 54 47 35 48 53 49 36 50 39 51 52 52 70 53
REMARK SMILES IDX 37 54 38 55 51 57 71 58 40 59 25 60 26 61 34 62 27 63 33 64
REMARK SMILES IDX 28 65 29 66 30 67 31 68 32 69 55 70 56 71 64 72 57 73 63 74
REMARK SMILES IDX 58 75 59 76 60 77 61 78 62 79 41 80 42 81 50 82 43 83 49 84
REMARK SMILES IDX 44 85 45 86 46 87 47 88 48 89
REMARK H PARENT 69 45 39 56
REMARK Flexibility Score: inf
ROOT
ATOM      1  C   UNL     1      -2.906   0.219  -3.866  1.00  0.00     0.202 C 
ENDROOT
BRANCH   1   2
ATOM      2  O   UNL     1      -4.129  -0.379  -3.439  1.00  0.00    -0.374 OA
BRANCH   2   3
ATOM      3  C   UNL     1      -4.235  -0.752  -2.062  1.00  0.00     0.202 C 
BRANCH   3   4
ATOM      4  C   UNL     1      -3.450  -1.998  -1.643  1.00  0.00     0.261 C 
BRANCH   4   5
ATOM      5  O   UNL     1      -2.040  -1.725  -1.696  1.00  0.00    -0.460 OA
BRANCH   5   6
ATOM      6  C   UNL     1      -1.306  -2.600  -2.420  1.00  0.00     0.342 C 
ATOM      7  O   UNL     1      -1.691  -3.657  -2.900  1.00  0.00    -0.246 OA
BRANCH   6   8
ATOM      8  C   UNL     1      -0.008  -1.996  -2.796  1.00  0.00     0.102 A 
ATOM      9  C   UNL     1       0.866  -1.385  -1.883  1.00  0.00     0.141 A 
ATOM     10  C   UNL     1       2.165  -1.010  -2.303  1.00  0.00     0.025 A 
ATOM     11  C   UNL     1       0.335  -2.095  -4.154  1.00  0.00     0.019 A 
ATOM     12  C   UNL     1       2.468  -1.104  -3.681  1.00  0.00     0.012 A 
ATOM     13  C   UNL     1       1.558  -1.617  -4.602  1.00  0.00     0.002 A 
BRANCH   9  14
ATOM     14  O   UNL     1       0.462  -1.284  -0.575  1.00  0.00    -0.495 OA
ATOM     15  C   UNL     1       0.384   0.073  -0.129  1.00  0.00     0.278 C 
ENDBRANCH   9  14
BRANCH  10  16
ATOM     16  C   UNL     1       3.259  -0.626  -1.375  1.00  0.00    -0.011 A 
ATOM     17  C   UNL     1       3.975   0.570  -1.611  1.00  0.00     0.012 A 
ATOM     18  C   UNL     1       3.674  -1.444  -0.297  1.00  0.00    -0.043 A 
ATOM     19  C   UNL     1       5.060   0.960  -0.811  1.00  0.00    -0.050 A 
ATOM     20  C   UNL     1       4.723  -1.016   0.536  1.00  0.00     0.004 A 
ATOM     21  C   UNL     1       3.027  -2.764   0.042  1.00  0.00     0.045 C 
ATOM     22  C   UNL     1       5.833   2.202  -1.141  1.00  0.00     0.044 C 
ATOM     23  C   UNL     1       5.415   0.165   0.277  1.00  0.00     0.004 A 
ENDBRANCH  10  16
ENDBRANCH   6   8
ENDBRANCH   5   6
ENDBRANCH   4   5
ENDBRANCH   3   4
ENDBRANCH   2   3
ENDBRANCH   1   2
BRANCH   1  24
ATOM     24  C   UNL     1      -2.714   1.707  -3.553  1.00  0.00     0.261 C 
BRANCH  24  25
ATOM     25  O   UNL     1      -2.719   1.988  -2.143  1.00  0.00    -0.460 OA
BRANCH  25  26
ATOM     26  C   UNL     1      -3.851   2.585  -1.700  1.00  0.00     0.338 C 
ATOM     27  O   UNL     1      -4.803   2.953  -2.377  1.00  0.00    -0.246 OA
BRANCH  26  28
ATOM     28  C   UNL     1      -3.883   2.601  -0.227  1.00  0.00     0.060 A 
ATOM     29  C   UNL     1      -5.041   2.118   0.394  1.00  0.00     0.016 A 
ATOM     30  C   UNL     1      -2.848   3.152   0.533  1.00  0.00     0.016 A 
ATOM     31  C   UNL     1      -5.195   2.238   1.772  1.00  0.00     0.010 A 
ATOM     32  C   UNL     1      -3.008   3.277   1.919  1.00  0.00     0.010 A 
ATOM     33  C   UNL     1      -4.199   2.857   2.538  1.00  0.00    -0.014 A 
BRANCH  33  34
ATOM     34  C   UNL     1      -4.485   3.188   3.956  1.00  0.00     0.031 A 
ATOM     35  C   UNL     1      -4.909   4.589   4.311  1.00  0.00     0.074 A 
ATOM     36  C   UNL     1      -4.440   2.235   4.905  1.00  0.00     0.049 A 
ATOM     37  N   UNL     1      -5.251   5.080   5.474  1.00  0.00    -0.248 NA
ATOM     38  C   UNL     1      -4.956   5.564   3.209  1.00  0.00     0.031 C 
ATOM     39  C   UNL     1      -4.082   0.834   4.682  1.00  0.00     0.029 A 
ATOM     40  N   UNL     1      -4.708   2.303   6.249  1.00  0.00    -0.354 N 
ATOM     41  C   UNL     1      -5.564   6.415   5.244  1.00  0.00     0.074 A 
ATOM     42  C   UNL     1      -5.329   6.668   3.839  1.00  0.00     0.031 C 
ATOM     43  C   UNL     1      -4.155   0.174   5.851  1.00  0.00     0.029 A 
ATOM     44  C   UNL     1      -4.542   1.108   6.906  1.00  0.00     0.049 A 
ATOM     45  H   UNL     1      -4.993   3.131   6.700  1.00  0.00     0.167 HD
ATOM     46  C   UNL     1      -6.021   7.345   6.117  1.00  0.00     0.031 A 
ATOM     47  C   UNL     1      -4.679   0.803   8.212  1.00  0.00     0.031 A 
ATOM     48  C   UNL     1      -6.237   7.101   7.519  1.00  0.00     0.049 A 
ATOM     49  C   UNL     1      -5.121   1.873   9.177  1.00  0.00     0.074 A 
ATOM     50  C   UNL     1      -6.685   7.981   8.489  1.00  0.00     0.029 A 
ATOM     51  N   UNL     1      -6.019   5.887   8.153  1.00  0.00    -0.354 N 
ATOM     52  N   UNL     1      -5.425   3.127   8.938  1.00  0.00    -0.248 NA
ATOM     53  C   UNL     1      -5.253   1.479  10.587  1.00  0.00     0.031 C 
ATOM     54  C   UNL     1      -6.696   7.311   9.717  1.00  0.00     0.029 A 
ATOM     55  C   UNL     1      -6.309   5.999   9.503  1.00  0.00     0.049 A 
ATOM     56  H   UNL     1      -5.704   5.066   7.709  1.00  0.00     0.167 HD
ATOM     57  C   UNL     1      -5.813   3.662  10.163  1.00  0.00     0.074 A 
ATOM     58  C   UNL     1      -5.721   2.592  11.135  1.00  0.00     0.031 C 
ATOM     59  C   UNL     1      -6.211   4.925  10.458  1.00  0.00     0.031 A 
BRANCH  46  60
ATOM     60  C   UNL     1      -6.303   8.722   5.578  1.00  0.00    -0.014 A 
ATOM     61  C   UNL     1      -7.413   8.961   4.748  1.00  0.00     0.010 A 
ATOM     62  C   UNL     1      -5.469   9.799   5.933  1.00  0.00     0.010 A 
ATOM     63  C   UNL     1      -7.664  10.244   4.253  1.00  0.00     0.020 A 
ATOM     64  C   UNL     1      -5.732  11.088   5.461  1.00  0.00     0.020 A 
ATOM     65  C   UNL     1      -6.819  11.299   4.611  1.00  0.00     0.054 A 
BRANCH  65  66
ATOM     66  S   UNL     1      -7.181  12.958   3.971  1.00  0.00     0.124 S 
ATOM     67  O   UNL     1      -6.787  12.833   2.570  1.00  0.00    -0.237 OA
ATOM     68  O   UNL     1      -8.616  13.089   4.211  1.00  0.00    -0.237 OA
ATOM     69  O   UNL     1      -6.335  13.833   4.780  1.00  0.00    -0.744 OA
ENDBRANCH  65  66
ENDBRANCH  46  60
BRANCH  47  70
ATOM     70  C   UNL     1      -4.379  -0.573   8.693  1.00  0.00    -0.014 A 
ATOM     71  C   UNL     1      -5.403  -1.412   9.169  1.00  0.00     0.010 A 
ATOM     72  C   UNL     1      -3.053  -1.043   8.700  1.00  0.00     0.010 A 
ATOM     73  C   UNL     1      -5.102  -2.682   9.671  1.00  0.00     0.020 A 
ATOM     74  C   UNL     1      -2.752  -2.322   9.175  1.00  0.00     0.020 A 
ATOM     75  C   UNL     1      -3.777  -3.127   9.673  1.00  0.00     0.054 A 
BRANCH  75  76
ATOM     76  S   UNL     1      -3.409  -4.788  10.304  1.00  0.00     0.124 S 
ATOM     77  O   UNL     1      -3.516  -4.594  11.747  1.00  0.00    -0.237 OA
ATOM     78  O   UNL     1      -4.460  -5.599   9.694  1.00  0.00    -0.237 OA
ATOM     79  O   UNL     1      -2.061  -5.051   9.805  1.00  0.00    -0.744 OA
ENDBRANCH  75  76
ENDBRANCH  47  70
BRANCH  59  80
ATOM     80  C   UNL     1      -6.615   5.206  11.882  1.00  0.00    -0.014 A 
ATOM     81  C   UNL     1      -5.662   5.266  12.915  1.00  0.00     0.010 A 
ATOM     82  C   UNL     1      -7.969   5.440  12.185  1.00  0.00     0.010 A 
ATOM     83  C   UNL     1      -6.062   5.508  14.232  1.00  0.00     0.020 A 
ATOM     84  C   UNL     1      -8.369   5.710  13.496  1.00  0.00     0.020 A 
ATOM     85  C   UNL     1      -7.415   5.721  14.515  1.00  0.00     0.054 A 
BRANCH  85  86
ATOM     86  S   UNL     1      -7.910   6.048  16.229  1.00  0.00     0.124 S 
ATOM     87  O   UNL     1      -7.829   4.718  16.827  1.00  0.00    -0.237 OA
ATOM     88  O   UNL     1      -6.900   7.002  16.680  1.00  0.00    -0.237 OA
ATOM     89  O   UNL     1      -9.260   6.593  16.102  1.00  0.00    -0.744 OA
ENDBRANCH  85  86
ENDBRANCH  59  80
ENDBRANCH  33  34
ENDBRANCH  26  28
ENDBRANCH  25  26
ENDBRANCH  24  25
ENDBRANCH   1  24
TORSDOF 19
