REMARK SMILES CCc1cc(OC(F)(F)F)cc2c1O[C@@H](C(F)(F)F)C(C(=O)OCCOCCOC(=O)c1ccc(-c3c4nc(c(-c5ccc(S(=O)(=O)[O-])cc5)c5ccc([nH]5)c(-c5ccc(S(=O)(=O)[O-])cc5)c5nc(c(-c6ccc(S(=O)(=O)[O-])cc6)c6ccc3[nH]6)C=C5)C=C4)cc1)=C2
REMARK SMILES IDX 27 1 26 2 25 3 24 4 23 5 21 6 22 7 20 8 3 9 4 10 13 11 5 12
REMARK SMILES IDX 12 13 14 14 11 15 92 16 15 17 2 18 1 19 6 20 7 21 8 22 9 23
REMARK SMILES IDX 10 24 16 25 17 26 18 27 19 28 28 29 29 30 30 31 31 32 32 33
REMARK SMILES IDX 33 34 91 35 34 36 90 37 35 38 36 39 37 40 84 41 38 42 89 43
REMARK SMILES IDX 83 44 85 45 39 46 88 47 82 48 81 49 40 51 70 52 51 53 69 54
REMARK SMILES IDX 52 55 55 56 68 57 86 58 53 59 54 60 67 62 87 63 56 64 41 65
REMARK SMILES IDX 42 66 50 67 43 68 49 69 44 70 45 71 46 72 47 73 48 74 71 75
REMARK SMILES IDX 72 76 80 77 73 78 79 79 74 80 75 81 76 82 77 83 78 84 57 85
REMARK SMILES IDX 58 86 66 87 59 88 65 89 60 90 61 91 62 92 63 93 64 94
REMARK H PARENT 85 50 55 61
REMARK Flexibility Score: inf
ROOT
ATOM      1  C   UNL     1       0.392   7.245  -0.700  1.00  0.00     0.202 C 
ENDROOT
BRANCH   1   2
ATOM      2  O   UNL     1      -0.741   8.102  -0.832  1.00  0.00    -0.374 OA
BRANCH   2   3
ATOM      3  C   UNL     1      -1.208   8.787   0.328  1.00  0.00     0.202 C 
BRANCH   3   4
ATOM      4  C   UNL     1      -1.973   7.971   1.375  1.00  0.00     0.261 C 
BRANCH   4   5
ATOM      5  O   UNL     1      -1.226   6.829   1.819  1.00  0.00    -0.460 OA
BRANCH   5   6
ATOM      6  C   UNL     1      -1.770   5.636   1.483  1.00  0.00     0.338 C 
ATOM      7  O   UNL     1      -2.863   5.450   0.976  1.00  0.00    -0.246 OA
BRANCH   6   8
ATOM      8  C   UNL     1      -0.804   4.544   1.684  1.00  0.00     0.087 C 
ATOM      9  C   UNL     1       0.981   0.841   2.356  1.00  0.00    -0.002 A 
ATOM     10  C   UNL     1       1.849   0.681   3.447  1.00  0.00     0.054 A 
ATOM     11  C   UNL     1       0.394   2.094   2.148  1.00  0.00     0.131 A 
ATOM     12  C   UNL     1       2.109   1.745   4.319  1.00  0.00     0.130 A 
ATOM     13  C   UNL     1       0.637   3.172   3.016  1.00  0.00     0.021 A 
ATOM     14  O   UNL     1      -0.493   2.205   1.104  1.00  0.00    -0.475 OA
ATOM     15  C   UNL     1       1.510   2.992   4.090  1.00  0.00     0.058 A 
ATOM     16  C   UNL     1      -0.140   4.405   2.845  1.00  0.00     0.027 C 
ATOM     17  C   UNL     1      -0.587   3.548   0.570  1.00  0.00     0.316 C 
BRANCH   9  18
ATOM     18  C   UNL     1       0.662  -0.330   1.455  1.00  0.00     0.036 C 
ATOM     19  C   UNL     1       1.264  -0.197   0.062  1.00  0.00     0.009 C 
ENDBRANCH   9  18
BRANCH  12  20
ATOM     20  O   UNL     1       2.908   1.694   5.427  1.00  0.00    -0.406 OA
BRANCH  20  21
ATOM     21  C   UNL     1       3.293   0.412   5.899  1.00  0.00     0.573 C 
ATOM     22  F   UNL     1       2.220  -0.385   6.097  1.00  0.00    -0.132 F 
ATOM     23  F   UNL     1       4.140  -0.187   5.033  1.00  0.00    -0.132 F 
ATOM     24  F   UNL     1       3.934   0.553   7.079  1.00  0.00    -0.132 F 
ENDBRANCH  20  21
ENDBRANCH  12  20
BRANCH  17  25
ATOM     25  C   UNL     1      -1.544   3.527  -0.632  1.00  0.00     0.430 C 
ATOM     26  F   UNL     1      -1.566   4.721  -1.269  1.00  0.00    -0.167 F 
ATOM     27  F   UNL     1      -1.099   2.627  -1.554  1.00  0.00    -0.167 F 
ATOM     28  F   UNL     1      -2.803   3.168  -0.317  1.00  0.00    -0.167 F 
ENDBRANCH  17  25
ENDBRANCH   6   8
ENDBRANCH   5   6
ENDBRANCH   4   5
ENDBRANCH   3   4
ENDBRANCH   2   3
ENDBRANCH   1   2
BRANCH   1  29
ATOM     29  C   UNL     1       1.765   7.886  -0.463  1.00  0.00     0.261 C 
BRANCH  29  30
ATOM     30  O   UNL     1       1.842   8.606   0.779  1.00  0.00    -0.460 OA
BRANCH  30  31
ATOM     31  C   UNL     1       1.982   9.948   0.637  1.00  0.00     0.338 C 
ATOM     32  O   UNL     1       2.109  10.569  -0.405  1.00  0.00    -0.246 OA
BRANCH  31  33
ATOM     33  C   UNL     1       1.767  10.619   1.932  1.00  0.00     0.060 A 
ATOM     34  C   UNL     1       0.759  11.590   1.995  1.00  0.00     0.016 A 
ATOM     35  C   UNL     1       2.589  10.373   3.034  1.00  0.00     0.016 A 
ATOM     36  C   UNL     1       0.601  12.356   3.146  1.00  0.00     0.010 A 
ATOM     37  C   UNL     1       2.434  11.152   4.186  1.00  0.00     0.010 A 
ATOM     38  C   UNL     1       1.465  12.171   4.233  1.00  0.00    -0.014 A 
BRANCH  38  39
ATOM     39  C   UNL     1       1.439  13.148   5.348  1.00  0.00     0.031 A 
ATOM     40  C   UNL     1       2.476  14.238   5.390  1.00  0.00     0.074 A 
ATOM     41  C   UNL     1       0.473  13.094   6.283  1.00  0.00     0.049 A 
ATOM     42  N   UNL     1       2.623  15.206   6.257  1.00  0.00    -0.248 NA
ATOM     43  C   UNL     1       3.478  14.239   4.311  1.00  0.00     0.031 C 
ATOM     44  C   UNL     1      -0.606  12.108   6.327  1.00  0.00     0.029 A 
ATOM     45  N   UNL     1       0.244  13.894   7.374  1.00  0.00    -0.354 N 
ATOM     46  C   UNL     1       3.736  15.925   5.836  1.00  0.00     0.074 A 
ATOM     47  C   UNL     1       4.243  15.266   4.652  1.00  0.00     0.031 C 
ATOM     48  C   UNL     1      -1.383  12.361   7.395  1.00  0.00     0.029 A 
ATOM     49  C   UNL     1      -0.841  13.506   8.123  1.00  0.00     0.049 A 
ATOM     50  H   UNL     1       0.803  14.672   7.598  1.00  0.00     0.167 HD
ATOM     51  C   UNL     1       4.281  17.039   6.381  1.00  0.00     0.031 A 
ATOM     52  C   UNL     1      -1.331  14.007   9.275  1.00  0.00     0.031 A 
ATOM     53  C   UNL     1       3.777  17.689   7.562  1.00  0.00     0.049 A 
ATOM     54  C   UNL     1      -0.671  15.211   9.894  1.00  0.00     0.074 A 
ATOM     55  C   UNL     1       4.245  18.837   8.176  1.00  0.00     0.029 A 
ATOM     56  N   UNL     1       2.699  17.244   8.312  1.00  0.00    -0.354 N 
ATOM     57  N   UNL     1       0.357  15.902   9.461  1.00  0.00    -0.248 NA
ATOM     58  C   UNL     1      -1.244  15.709  11.153  1.00  0.00     0.031 C 
ATOM     59  C   UNL     1       3.487  19.052   9.332  1.00  0.00     0.029 A 
ATOM     60  C   UNL     1       2.507  18.075   9.402  1.00  0.00     0.049 A 
ATOM     61  H   UNL     1       2.152  16.453   8.101  1.00  0.00     0.167 HD
ATOM     62  C   UNL     1       0.538  16.930  10.381  1.00  0.00     0.074 A 
ATOM     63  C   UNL     1      -0.497  16.780  11.383  1.00  0.00     0.031 C 
ATOM     64  C   UNL     1       1.475  17.911  10.395  1.00  0.00     0.031 A 
BRANCH  51  65
ATOM     65  C   UNL     1       5.511  17.608   5.724  1.00  0.00    -0.014 A 
ATOM     66  C   UNL     1       5.442  18.261   4.481  1.00  0.00     0.010 A 
ATOM     67  C   UNL     1       6.750  17.529   6.387  1.00  0.00     0.010 A 
ATOM     68  C   UNL     1       6.594  18.796   3.898  1.00  0.00     0.020 A 
ATOM     69  C   UNL     1       7.900  18.086   5.820  1.00  0.00     0.020 A 
ATOM     70  C   UNL     1       7.816  18.704   4.571  1.00  0.00     0.054 A 
BRANCH  70  71
ATOM     71  S   UNL     1       9.290  19.434   3.805  1.00  0.00     0.124 S 
ATOM     72  O   UNL     1       9.552  18.503   2.710  1.00  0.00    -0.237 OA
ATOM     73  O   UNL     1       8.820  20.758   3.405  1.00  0.00    -0.237 OA
ATOM     74  O   UNL     1      10.280  19.425   4.879  1.00  0.00    -0.744 OA
ENDBRANCH  70  71
ENDBRANCH  51  65
BRANCH  52  75
ATOM     75  C   UNL     1      -2.499  13.357   9.930  1.00  0.00    -0.014 A 
ATOM     76  C   UNL     1      -3.745  14.004   9.996  1.00  0.00     0.010 A 
ATOM     77  C   UNL     1      -2.364  12.077  10.499  1.00  0.00     0.010 A 
ATOM     78  C   UNL     1      -4.828  13.393  10.634  1.00  0.00     0.020 A 
ATOM     79  C   UNL     1      -3.451  11.450  11.113  1.00  0.00     0.020 A 
ATOM     80  C   UNL     1      -4.674  12.118  11.187  1.00  0.00     0.054 A 
BRANCH  80  81
ATOM     81  S   UNL     1      -6.105  11.322  11.970  1.00  0.00     0.124 S 
ATOM     82  O   UNL     1      -6.223  12.070  13.217  1.00  0.00    -0.237 OA
ATOM     83  O   UNL     1      -7.165  11.550  10.991  1.00  0.00    -0.237 OA
ATOM     84  O   UNL     1      -5.686   9.930  12.111  1.00  0.00    -0.744 OA
ENDBRANCH  80  81
ENDBRANCH  52  75
BRANCH  64  85
ATOM     85  C   UNL     1       1.411  18.918  11.513  1.00  0.00    -0.014 A 
ATOM     86  C   UNL     1       1.763  18.572  12.829  1.00  0.00     0.010 A 
ATOM     87  C   UNL     1       1.043  20.247  11.229  1.00  0.00     0.010 A 
ATOM     88  C   UNL     1       1.716  19.528  13.848  1.00  0.00     0.020 A 
ATOM     89  C   UNL     1       1.024  21.212  12.239  1.00  0.00     0.020 A 
ATOM     90  C   UNL     1       1.346  20.842  13.546  1.00  0.00     0.054 A 
BRANCH  90  91
ATOM     91  S   UNL     1       1.330  22.073  14.879  1.00  0.00     0.124 S 
ATOM     92  O   UNL     1       0.138  21.692  15.630  1.00  0.00    -0.237 OA
ATOM     93  O   UNL     1       2.603  21.830  15.555  1.00  0.00    -0.237 OA
ATOM     94  O   UNL     1       1.241  23.348  14.172  1.00  0.00    -0.744 OA
ENDBRANCH  90  91
ENDBRANCH  64  85
ENDBRANCH  38  39
ENDBRANCH  31  33
ENDBRANCH  30  31
ENDBRANCH  29  30
ENDBRANCH   1  29
TORSDOF 21
