REMARK SMILES O=C(OCCOCCOC(=O)[C@H]1CCCCN1C(=O)c1cn2ccccc2n1)c1ccc(-c2c3nc(c(-c4ccc(S(=O)(=O)[O-])cc4)c4ccc([nH]4)c(-c4ccc(S(=O)(=O)[O-])cc4)c4nc(c(-c5ccc(S(=O)(=O)[O-])cc5)c5ccc2[nH]5)C=C4)C=C3)cc1
REMARK SMILES IDX 5 1 4 2 3 3 2 4 1 5 29 6 30 7 88 8 31 9 87 10 32 11 33 12
REMARK SMILES IDX 34 13 81 14 35 15 86 16 80 17 82 18 36 19 85 20 79 21 78 22
REMARK SMILES IDX 37 24 67 25 48 26 66 27 49 28 52 29 65 30 83 31 50 32 51 33
REMARK SMILES IDX 64 35 84 36 53 37 38 38 39 39 47 40 40 41 46 42 41 43 42 44
REMARK SMILES IDX 43 45 44 46 45 47 68 48 69 49 77 50 70 51 76 52 71 53 72 54
REMARK SMILES IDX 73 55 74 56 75 57 54 58 55 59 63 60 56 61 62 62 57 63 58 64
REMARK SMILES IDX 59 65 60 66 61 67 6 68 7 69 8 70 9 71 10 72 11 73 12 74
REMARK SMILES IDX 13 75 17 76 14 77 16 78 15 79 18 80 19 81 20 82 21 83 28 84
REMARK SMILES IDX 22 85 27 86 23 87 26 88 24 89 25 90
REMARK H PARENT 82 23 52 34
REMARK Flexibility Score: inf
ROOT
ATOM      1  C   UNL     1       2.533   0.032  -4.693  1.00  0.00     0.202 C 
ENDROOT
BRANCH   1   2
ATOM      2  C   UNL     1       1.781  -1.210  -5.176  1.00  0.00     0.261 C 
BRANCH   2   3
ATOM      3  O   UNL     1       2.020  -1.426  -6.577  1.00  0.00    -0.460 OA
BRANCH   3   4
ATOM      4  C   UNL     1       1.229  -1.058  -7.614  1.00  0.00     0.338 C 
ATOM      5  O   UNL     1       1.573  -1.373  -8.753  1.00  0.00    -0.246 OA
BRANCH   4   6
ATOM      6  C   UNL     1      -0.049  -0.299  -7.448  1.00  0.00     0.060 A 
ATOM      7  C   UNL     1      -0.342   0.527  -6.366  1.00  0.00     0.016 A 
ATOM      8  C   UNL     1      -0.992  -0.367  -8.488  1.00  0.00     0.016 A 
ATOM      9  C   UNL     1      -1.515   1.240  -6.280  1.00  0.00     0.010 A 
ATOM     10  C   UNL     1      -2.187   0.360  -8.422  1.00  0.00     0.010 A 
ATOM     11  C   UNL     1      -2.444   1.159  -7.306  1.00  0.00    -0.014 A 
BRANCH  11  12
ATOM     12  C   UNL     1      -3.717   1.835  -7.037  1.00  0.00     0.031 A 
ATOM     13  C   UNL     1      -4.821   1.016  -6.447  1.00  0.00     0.074 A 
ATOM     14  C   UNL     1      -3.740   3.180  -7.048  1.00  0.00     0.049 A 
ATOM     15  N   UNL     1      -5.992   1.399  -6.026  1.00  0.00    -0.248 NA
ATOM     16  C   UNL     1      -4.551  -0.423  -6.270  1.00  0.00     0.031 C 
ATOM     17  C   UNL     1      -2.603   4.038  -7.405  1.00  0.00     0.029 A 
ATOM     18  N   UNL     1      -4.714   4.059  -6.668  1.00  0.00    -0.354 N 
ATOM     19  C   UNL     1      -6.615   0.245  -5.568  1.00  0.00     0.074 A 
ATOM     20  C   UNL     1      -5.686  -0.848  -5.738  1.00  0.00     0.031 C 
ATOM     21  C   UNL     1      -2.932   5.319  -7.174  1.00  0.00     0.029 A 
ATOM     22  C   UNL     1      -4.319   5.375  -6.729  1.00  0.00     0.049 A 
ATOM     23  H   UNL     1      -5.612   3.778  -6.377  1.00  0.00     0.167 HD
ATOM     24  C   UNL     1      -7.869   0.118  -5.079  1.00  0.00     0.031 A 
ATOM     25  C   UNL     1      -5.022   6.494  -6.475  1.00  0.00     0.031 A 
ATOM     26  C   UNL     1      -8.765   1.232  -4.954  1.00  0.00     0.049 A 
ATOM     27  C   UNL     1      -6.455   6.321  -6.054  1.00  0.00     0.074 A 
ATOM     28  C   UNL     1     -10.102   1.240  -4.611  1.00  0.00     0.029 A 
ATOM     29  N   UNL     1      -8.394   2.554  -5.174  1.00  0.00    -0.354 N 
ATOM     30  N   UNL     1      -7.096   5.211  -5.764  1.00  0.00    -0.248 NA
ATOM     31  C   UNL     1      -7.269   7.536  -5.960  1.00  0.00     0.031 C 
ATOM     32  C   UNL     1     -10.550   2.566  -4.665  1.00  0.00     0.029 A 
ATOM     33  C   UNL     1      -9.479   3.387  -4.992  1.00  0.00     0.049 A 
ATOM     34  H   UNL     1      -7.489   2.852  -5.423  1.00  0.00     0.167 HD
ATOM     35  C   UNL     1      -8.393   5.592  -5.455  1.00  0.00     0.074 A 
ATOM     36  C   UNL     1      -8.435   7.039  -5.566  1.00  0.00     0.031 C 
ATOM     37  C   UNL     1      -9.461   4.823  -5.121  1.00  0.00     0.031 A 
BRANCH  24  38
ATOM     38  C   UNL     1      -8.341  -1.279  -4.793  1.00  0.00    -0.014 A 
ATOM     39  C   UNL     1      -7.904  -1.995  -3.664  1.00  0.00     0.010 A 
ATOM     40  C   UNL     1      -9.174  -1.917  -5.730  1.00  0.00     0.010 A 
ATOM     41  C   UNL     1      -8.250  -3.342  -3.506  1.00  0.00     0.020 A 
ATOM     42  C   UNL     1      -9.537  -3.256  -5.566  1.00  0.00     0.020 A 
ATOM     43  C   UNL     1      -9.051  -3.967  -4.468  1.00  0.00     0.054 A 
BRANCH  43  44
ATOM     44  S   UNL     1      -9.448  -5.727  -4.273  1.00  0.00     0.124 S 
ATOM     45  O   UNL     1      -8.193  -6.363  -4.664  1.00  0.00    -0.237 OA
ATOM     46  O   UNL     1      -9.787  -5.827  -2.856  1.00  0.00    -0.237 OA
ATOM     47  O   UNL     1     -10.564  -5.934  -5.192  1.00  0.00    -0.744 OA
ENDBRANCH  43  44
ENDBRANCH  24  38
BRANCH  25  48
ATOM     48  C   UNL     1      -4.416   7.837  -6.697  1.00  0.00    -0.014 A 
ATOM     49  C   UNL     1      -4.224   8.739  -5.636  1.00  0.00     0.010 A 
ATOM     50  C   UNL     1      -4.019   8.222  -7.993  1.00  0.00     0.010 A 
ATOM     51  C   UNL     1      -3.659  10.000  -5.869  1.00  0.00     0.020 A 
ATOM     52  C   UNL     1      -3.429   9.467  -8.225  1.00  0.00     0.020 A 
ATOM     53  C   UNL     1      -3.265  10.355  -7.163  1.00  0.00     0.054 A 
BRANCH  53  54
ATOM     54  S   UNL     1      -2.496  11.976  -7.444  1.00  0.00     0.124 S 
ATOM     55  O   UNL     1      -3.649  12.869  -7.404  1.00  0.00    -0.237 OA
ATOM     56  O   UNL     1      -1.568  12.088  -6.322  1.00  0.00    -0.237 OA
ATOM     57  O   UNL     1      -1.862  11.830  -8.753  1.00  0.00    -0.744 OA
ENDBRANCH  53  54
ENDBRANCH  25  48
BRANCH  37  58
ATOM     58  C   UNL     1     -10.743   5.547  -4.841  1.00  0.00    -0.014 A 
ATOM     59  C   UNL     1     -11.526   6.057  -5.891  1.00  0.00     0.010 A 
ATOM     60  C   UNL     1     -11.193   5.665  -3.515  1.00  0.00     0.010 A 
ATOM     61  C   UNL     1     -12.732   6.700  -5.615  1.00  0.00     0.020 A 
ATOM     62  C   UNL     1     -12.409   6.288  -3.238  1.00  0.00     0.020 A 
ATOM     63  C   UNL     1     -13.165   6.813  -4.289  1.00  0.00     0.054 A 
BRANCH  63  64
ATOM     64  S   UNL     1     -14.759   7.607  -3.954  1.00  0.00     0.124 S 
ATOM     65  O   UNL     1     -14.421   9.023  -4.070  1.00  0.00    -0.237 OA
ATOM     66  O   UNL     1     -15.614   7.075  -5.013  1.00  0.00    -0.237 OA
ATOM     67  O   UNL     1     -15.093   7.152  -2.607  1.00  0.00    -0.744 OA
ENDBRANCH  63  64
ENDBRANCH  37  58
ENDBRANCH  11  12
ENDBRANCH   4   6
ENDBRANCH   3   4
ENDBRANCH   2   3
ENDBRANCH   1   2
BRANCH   1  68
ATOM     68  O   UNL     1       2.286   1.226  -5.433  1.00  0.00    -0.374 OA
BRANCH  68  69
ATOM     69  C   UNL     1       3.201   1.529  -6.483  1.00  0.00     0.202 C 
BRANCH  69  70
ATOM     70  C   UNL     1       4.105   2.697  -6.080  1.00  0.00     0.261 C 
BRANCH  70  71
ATOM     71  O   UNL     1       5.144   2.258  -5.184  1.00  0.00    -0.462 OA
BRANCH  71  72
ATOM     72  C   UNL     1       4.825   2.161  -3.860  1.00  0.00     0.328 C 
ATOM     73  O   UNL     1       3.749   2.485  -3.373  1.00  0.00    -0.250 OA
BRANCH  72  74
ATOM     74  C   UNL     1       5.905   1.388  -3.076  1.00  0.00     0.195 C 
ATOM     75  C   UNL     1       5.682  -0.126  -3.120  1.00  0.00     0.037 C 
ATOM     76  N   UNL     1       7.266   1.735  -3.499  1.00  0.00    -0.323 N 
ATOM     77  C   UNL     1       6.108  -0.744  -4.453  1.00  0.00     0.005 C 
ATOM     78  C   UNL     1       7.844   1.071  -4.675  1.00  0.00     0.121 C 
ATOM     79  C   UNL     1       7.564  -0.426  -4.737  1.00  0.00     0.022 C 
BRANCH  76  80
ATOM     80  C   UNL     1       7.804   2.881  -2.906  1.00  0.00     0.274 C 
ATOM     81  O   UNL     1       7.257   3.471  -1.976  1.00  0.00    -0.267 OA
BRANCH  80  82
ATOM     82  C   UNL     1       9.037   3.383  -3.482  1.00  0.00     0.147 A 
ATOM     83  C   UNL     1       9.134   4.173  -4.611  1.00  0.00     0.127 A 
ATOM     84  N   UNL     1      10.287   3.075  -2.985  1.00  0.00    -0.223 NA
ATOM     85  N   UNL     1      10.473   4.352  -4.813  1.00  0.00    -0.306 N 
ATOM     86  C   UNL     1      11.132   3.682  -3.787  1.00  0.00     0.137 A 
ATOM     87  C   UNL     1      11.130   5.035  -5.831  1.00  0.00     0.093 A 
ATOM     88  C   UNL     1      12.552   3.740  -3.778  1.00  0.00     0.048 A 
ATOM     89  C   UNL     1      12.473   5.072  -5.830  1.00  0.00     0.018 A 
ATOM     90  C   UNL     1      13.197   4.404  -4.756  1.00  0.00     0.005 A 
ENDBRANCH  80  82
ENDBRANCH  76  80
ENDBRANCH  72  74
ENDBRANCH  71  72
ENDBRANCH  70  71
ENDBRANCH  69  70
ENDBRANCH  68  69
ENDBRANCH   1  68
TORSDOF 19
