REMARK SMILES COc1cccc(C(=O)N2[C@@H](C(=O)OCCOCCOC(=O)c3ccc(-c4c5nc(c(-c6ccc(S(=O)(=O)[O-])cc6)c6ccc([nH]6)c(-c6ccc(S(=O)(=O)[O-])cc6)c6nc(c(-c7ccc(S(=O)(=O)[O-])cc7)c7ccc4[nH]7)C=C6)C=C5)cc3)CS[C@@H]2c2ccccc2Cl)c1
REMARK SMILES IDX 17 1 16 2 15 3 14 4 12 5 13 6 11 7 10 8 85 9 83 10 84 11
REMARK SMILES IDX 8 12 9 13 7 14 3 15 4 16 93 17 5 18 6 19 2 20 1 21 86 22
REMARK SMILES IDX 87 23 91 24 88 25 90 26 92 27 89 28 18 29 19 30 20 31 21 32
REMARK SMILES IDX 22 33 23 34 24 35 82 36 25 37 81 38 26 39 27 40 28 41 75 42
REMARK SMILES IDX 29 43 80 44 74 45 76 46 30 47 79 48 73 49 72 50 31 52 61 53
REMARK SMILES IDX 42 54 60 55 43 56 46 57 59 58 77 59 44 60 45 61 58 63 78 64
REMARK SMILES IDX 47 65 32 66 33 67 41 68 34 69 40 70 35 71 36 72 37 73 38 74
REMARK SMILES IDX 39 75 62 76 63 77 71 78 64 79 70 80 65 81 66 82 67 83 68 84
REMARK SMILES IDX 69 85 48 86 49 87 57 88 50 89 56 90 51 91 52 92 53 93 54 94
REMARK SMILES IDX 55 95
REMARK H PARENT 76 51 46 62
REMARK Flexibility Score: inf
ROOT
ATOM      1  O   UNL     1       5.264   0.245  -6.183  1.00  0.00    -0.374 OA
ENDROOT
BRANCH   1   2
ATOM      2  C   UNL     1       3.922   0.310  -5.700  1.00  0.00     0.202 C 
BRANCH   2   3
ATOM      3  C   UNL     1       3.289  -1.002  -5.215  1.00  0.00     0.261 C 
BRANCH   3   4
ATOM      4  O   UNL     1       3.841  -1.450  -3.965  1.00  0.00    -0.462 OA
BRANCH   4   5
ATOM      5  C   UNL     1       4.821  -2.392  -4.067  1.00  0.00     0.329 C 
ATOM      6  O   UNL     1       5.251  -2.845  -5.122  1.00  0.00    -0.250 OA
BRANCH   5   7
ATOM      7  C   UNL     1       5.441  -2.727  -2.705  1.00  0.00     0.206 C 
ATOM      8  N   UNL     1       4.590  -3.455  -1.765  1.00  0.00    -0.308 N 
ATOM      9  C   UNL     1       5.097  -3.464  -0.402  1.00  0.00     0.176 C 
ATOM     10  C   UNL     1       5.894  -1.445  -1.982  1.00  0.00     0.109 C 
ATOM     11  S   UNL     1       5.510  -1.658  -0.217  1.00  0.00    -0.129 SA
BRANCH   8  12
ATOM     12  C   UNL     1       3.478  -4.133  -2.227  1.00  0.00     0.255 C 
ATOM     13  O   UNL     1       3.497  -4.768  -3.278  1.00  0.00    -0.269 OA
BRANCH  12  14
ATOM     14  C   UNL     1       2.150  -3.877  -1.590  1.00  0.00     0.043 A 
ATOM     15  C   UNL     1       0.590  -2.433  -0.417  1.00  0.00     0.119 A 
ATOM     16  C   UNL     1      -0.457  -3.291  -0.748  1.00  0.00     0.046 A 
ATOM     17  C   UNL     1       1.891  -2.724  -0.835  1.00  0.00     0.060 A 
ATOM     18  C   UNL     1      -0.216  -4.425  -1.522  1.00  0.00     0.005 A 
ATOM     19  C   UNL     1       1.083  -4.717  -1.942  1.00  0.00     0.014 A 
BRANCH  15  20
ATOM     20  O   UNL     1       0.256  -1.352   0.353  1.00  0.00    -0.497 OA
ATOM     21  C   UNL     1       0.905  -0.135  -0.003  1.00  0.00     0.278 C 
ENDBRANCH  15  20
ENDBRANCH  12  14
ENDBRANCH   8  12
BRANCH   9  22
ATOM     22  C   UNL     1       6.375  -4.279  -0.099  1.00  0.00     0.003 A 
ATOM     23  C   UNL     1       7.044  -3.984   1.121  1.00  0.00     0.008 A 
ATOM     24  C   UNL     1       6.973  -5.273  -0.896  1.00  0.00     0.047 A 
ATOM     25  C   UNL     1       8.294  -4.521   1.448  1.00  0.00     0.001 A 
ATOM     26  C   UNL     1       8.243  -5.791  -0.577  1.00  0.00     0.021 A 
ATOM     27  Cl  UNL     1       6.240  -6.008  -2.272  1.00  0.00    -0.084 Cl
ATOM     28  C   UNL     1       8.912  -5.402   0.578  1.00  0.00     0.002 A 
ENDBRANCH   9  22
ENDBRANCH   5   7
ENDBRANCH   4   5
ENDBRANCH   3   4
ENDBRANCH   2   3
ENDBRANCH   1   2
BRANCH   1  29
ATOM     29  C   UNL     1       6.318   0.254  -5.224  1.00  0.00     0.202 C 
BRANCH  29  30
ATOM     30  C   UNL     1       6.686   1.607  -4.609  1.00  0.00     0.261 C 
BRANCH  30  31
ATOM     31  O   UNL     1       5.597   2.166  -3.853  1.00  0.00    -0.460 OA
BRANCH  31  32
ATOM     32  C   UNL     1       5.067   3.286  -4.395  1.00  0.00     0.338 C 
ATOM     33  O   UNL     1       5.495   3.907  -5.364  1.00  0.00    -0.246 OA
BRANCH  32  34
ATOM     34  C   UNL     1       3.766   3.602  -3.783  1.00  0.00     0.060 A 
ATOM     35  C   UNL     1       2.687   3.785  -4.656  1.00  0.00     0.016 A 
ATOM     36  C   UNL     1       3.613   3.813  -2.410  1.00  0.00     0.016 A 
ATOM     37  C   UNL     1       1.471   4.253  -4.171  1.00  0.00     0.010 A 
ATOM     38  C   UNL     1       2.386   4.288  -1.924  1.00  0.00     0.010 A 
ATOM     39  C   UNL     1       1.326   4.554  -2.810  1.00  0.00    -0.014 A 
BRANCH  39  40
ATOM     40  C   UNL     1       0.110   5.285  -2.375  1.00  0.00     0.031 A 
ATOM     41  C   UNL     1       0.174   6.780  -2.198  1.00  0.00     0.074 A 
ATOM     42  C   UNL     1      -1.063   4.641  -2.240  1.00  0.00     0.049 A 
ATOM     43  N   UNL     1      -0.791   7.624  -1.938  1.00  0.00    -0.248 NA
ATOM     44  C   UNL     1       1.499   7.406  -2.339  1.00  0.00     0.031 C 
ATOM     45  C   UNL     1      -1.264   3.203  -2.422  1.00  0.00     0.029 A 
ATOM     46  N   UNL     1      -2.313   5.120  -1.939  1.00  0.00    -0.354 N 
ATOM     47  C   UNL     1      -0.194   8.879  -1.890  1.00  0.00     0.074 A 
ATOM     48  C   UNL     1       1.222   8.682  -2.110  1.00  0.00     0.031 C 
ATOM     49  C   UNL     1      -2.566   2.920  -2.242  1.00  0.00     0.029 A 
ATOM     50  C   UNL     1      -3.285   4.150  -1.915  1.00  0.00     0.049 A 
ATOM     51  H   UNL     1      -2.496   6.071  -1.756  1.00  0.00     0.167 HD
ATOM     52  C   UNL     1      -0.772  10.089  -1.694  1.00  0.00     0.031 A 
ATOM     53  C   UNL     1      -4.605   4.241  -1.662  1.00  0.00     0.031 A 
ATOM     54  C   UNL     1      -2.179  10.287  -1.461  1.00  0.00     0.049 A 
ATOM     55  C   UNL     1      -5.215   5.590  -1.388  1.00  0.00     0.074 A 
ATOM     56  C   UNL     1      -2.860  11.476  -1.265  1.00  0.00     0.029 A 
ATOM     57  N   UNL     1      -3.119   9.271  -1.386  1.00  0.00    -0.354 N 
ATOM     58  N   UNL     1      -4.640   6.769  -1.379  1.00  0.00    -0.248 NA
ATOM     59  C   UNL     1      -6.657   5.619  -1.105  1.00  0.00     0.031 C 
ATOM     60  C   UNL     1      -4.204  11.175  -1.017  1.00  0.00     0.029 A 
ATOM     61  C   UNL     1      -4.370   9.803  -1.117  1.00  0.00     0.049 A 
ATOM     62  H   UNL     1      -2.926   8.313  -1.506  1.00  0.00     0.167 HD
ATOM     63  C   UNL     1      -5.654   7.683  -1.107  1.00  0.00     0.074 A 
ATOM     64  C   UNL     1      -6.880   6.921  -0.981  1.00  0.00     0.031 C 
ATOM     65  C   UNL     1      -5.579   9.031  -0.975  1.00  0.00     0.031 A 
BRANCH  52  66
ATOM     66  C   UNL     1       0.130  11.295  -1.692  1.00  0.00    -0.014 A 
ATOM     67  C   UNL     1       0.703  11.778  -2.883  1.00  0.00     0.010 A 
ATOM     68  C   UNL     1       0.381  11.975  -0.487  1.00  0.00     0.010 A 
ATOM     69  C   UNL     1       1.542  12.896  -2.861  1.00  0.00     0.020 A 
ATOM     70  C   UNL     1       1.199  13.108  -0.465  1.00  0.00     0.020 A 
ATOM     71  C   UNL     1       1.788  13.551  -1.651  1.00  0.00     0.054 A 
BRANCH  71  72
ATOM     72  S   UNL     1       2.868  15.009  -1.652  1.00  0.00     0.124 S 
ATOM     73  O   UNL     1       4.187  14.406  -1.829  1.00  0.00    -0.237 OA
ATOM     74  O   UNL     1       2.371  15.777  -2.791  1.00  0.00    -0.237 OA
ATOM     75  O   UNL     1       2.632  15.617  -0.344  1.00  0.00    -0.744 OA
ENDBRANCH  71  72
ENDBRANCH  52  66
BRANCH  53  76
ATOM     76  C   UNL     1      -5.443   3.011  -1.651  1.00  0.00    -0.014 A 
ATOM     77  C   UNL     1      -6.391   2.774  -2.662  1.00  0.00     0.010 A 
ATOM     78  C   UNL     1      -5.290   2.065  -0.620  1.00  0.00     0.010 A 
ATOM     79  C   UNL     1      -7.180   1.620  -2.635  1.00  0.00     0.020 A 
ATOM     80  C   UNL     1      -6.058   0.899  -0.605  1.00  0.00     0.020 A 
ATOM     81  C   UNL     1      -7.006   0.689  -1.607  1.00  0.00     0.054 A 
BRANCH  81  82
ATOM     82  S   UNL     1      -7.998  -0.831  -1.622  1.00  0.00     0.124 S 
ATOM     83  O   UNL     1      -9.301  -0.347  -1.177  1.00  0.00    -0.237 OA
ATOM     84  O   UNL     1      -7.920  -1.246  -3.020  1.00  0.00    -0.237 OA
ATOM     85  O   UNL     1      -7.298  -1.703  -0.681  1.00  0.00    -0.744 OA
ENDBRANCH  81  82
ENDBRANCH  53  76
BRANCH  65  86
ATOM     86  C   UNL     1      -6.862   9.768  -0.693  1.00  0.00    -0.014 A 
ATOM     87  C   UNL     1      -7.492   9.677   0.561  1.00  0.00     0.010 A 
ATOM     88  C   UNL     1      -7.432  10.583  -1.688  1.00  0.00     0.010 A 
ATOM     89  C   UNL     1      -8.695  10.349   0.798  1.00  0.00     0.020 A 
ATOM     90  C   UNL     1      -8.619  11.278  -1.446  1.00  0.00     0.020 A 
ATOM     91  C   UNL     1      -9.255  11.140  -0.210  1.00  0.00     0.054 A 
BRANCH  91  92
ATOM     92  S   UNL     1     -10.810  12.012   0.124  1.00  0.00     0.124 S 
ATOM     93  O   UNL     1     -11.788  10.932   0.033  1.00  0.00    -0.237 OA
ATOM     94  O   UNL     1     -10.595  12.555   1.463  1.00  0.00    -0.237 OA
ATOM     95  O   UNL     1     -10.882  13.010  -0.941  1.00  0.00    -0.744 OA
ENDBRANCH  91  92
ENDBRANCH  65  86
ENDBRANCH  39  40
ENDBRANCH  32  34
ENDBRANCH  31  32
ENDBRANCH  30  31
ENDBRANCH  29  30
ENDBRANCH   1  29
TORSDOF 21
