REMARK SMILES C[C@H]1C[N@H+]2CCCC[C@@H]2CN1c1ccc(C(=O)OCCOCCOC(=O)c2ccc(-c3c4nc(c(-c5ccc(S(=O)(=O)[O-])cc5)c5ccc([nH]5)c(-c5ccc(S(=O)(=O)[O-])cc5)c5nc(c(-c6ccc(S(=O)(=O)[O-])cc6)c6ccc3[nH]6)C=C5)C=C4)cc2)cc1Cl
REMARK SMILES IDX 22 1 21 2 20 3 19 4 18 5 16 6 17 7 15 8 12 9 13 10 88 11
REMARK SMILES IDX 14 12 87 13 89 14 11 15 1 16 2 17 3 18 4 19 10 20 5 21 9 22
REMARK SMILES IDX 6 24 8 25 7 26 23 27 24 28 25 29 26 30 27 31 28 32 86 33
REMARK SMILES IDX 29 34 85 35 30 36 31 37 32 38 79 39 33 40 84 41 78 42 80 43
REMARK SMILES IDX 34 44 83 45 77 46 76 47 35 49 65 50 46 51 64 52 47 53 50 54
REMARK SMILES IDX 63 55 81 56 48 57 49 58 62 60 82 61 51 62 36 63 37 64 45 65
REMARK SMILES IDX 38 66 44 67 39 68 40 69 41 70 42 71 43 72 66 73 67 74 75 75
REMARK SMILES IDX 68 76 74 77 69 78 70 79 71 80 72 81 73 82 52 83 53 84 61 85
REMARK SMILES IDX 54 86 60 87 55 88 56 89 57 90 58 91 59 92
REMARK H PARENT 4 23 80 48 50 59
REMARK Flexibility Score: inf
ROOT
ATOM      1  C   UNL     1       2.364   5.029   3.814  1.00  0.00     0.202 C 
ENDROOT
BRANCH   1   2
ATOM      2  O   UNL     1       2.585   6.405   4.124  1.00  0.00    -0.374 OA
BRANCH   2   3
ATOM      3  C   UNL     1       1.432   7.239   4.242  1.00  0.00     0.202 C 
BRANCH   3   4
ATOM      4  C   UNL     1       0.825   7.755   2.933  1.00  0.00     0.261 C 
BRANCH   4   5
ATOM      5  O   UNL     1       0.337   6.677   2.119  1.00  0.00    -0.460 OA
BRANCH   5   6
ATOM      6  C   UNL     1       1.053   6.424   0.999  1.00  0.00     0.338 C 
ATOM      7  O   UNL     1       1.990   7.078   0.560  1.00  0.00    -0.246 OA
BRANCH   6   8
ATOM      8  C   UNL     1       0.658   5.115   0.429  1.00  0.00     0.061 A 
ATOM      9  C   UNL     1       0.046   2.584  -0.685  1.00  0.00     0.056 A 
ATOM     10  C   UNL     1       1.332   3.129  -0.794  1.00  0.00     0.028 A 
ATOM     11  C   UNL     1      -0.922   3.339   0.027  1.00  0.00     0.065 A 
ATOM     12  C   UNL     1       1.637   4.378  -0.246  1.00  0.00     0.018 A 
ATOM     13  C   UNL     1      -0.624   4.590   0.578  1.00  0.00     0.038 A 
ATOM     14  Cl  UNL     1      -2.524   2.729   0.308  1.00  0.00    -0.082 Cl
BRANCH   9  15
ATOM     15  N   UNL     1      -0.261   1.367  -1.280  1.00  0.00    -0.356 N 
ATOM     16  C   UNL     1       1.326  -0.021   0.070  1.00  0.00     0.037 C 
ATOM     17  C   UNL     1       0.613   0.174  -1.277  1.00  0.00     0.134 C 
ATOM     18  C   UNL     1      -0.232  -1.120  -1.561  1.00  0.00     0.287 C 
ATOM     19  N   UNL     1      -1.293  -1.048  -2.599  1.00  0.00    -0.329 N 
ATOM     20  C   UNL     1      -1.157   1.444  -2.448  1.00  0.00     0.182 C 
ATOM     21  C   UNL     1      -2.189  -2.212  -2.462  1.00  0.00     0.262 C 
ATOM     22  C   UNL     1      -2.075   0.205  -2.438  1.00  0.00     0.203 C 
ATOM     23  H   UNL     1      -0.862  -1.055  -3.523  1.00  0.00     0.348 HD
ATOM     24  C   UNL     1      -3.322  -2.192  -3.490  1.00  0.00     0.062 C 
ATOM     25  C   UNL     1      -3.132   0.309  -3.545  1.00  0.00     0.067 C 
ATOM     26  C   UNL     1      -4.090  -0.875  -3.471  1.00  0.00     0.012 C 
ENDBRANCH   9  15
ENDBRANCH   6   8
ENDBRANCH   5   6
ENDBRANCH   4   5
ENDBRANCH   3   4
ENDBRANCH   2   3
ENDBRANCH   1   2
BRANCH   1  27
ATOM     27  C   UNL     1       1.918   4.119   4.966  1.00  0.00     0.261 C 
BRANCH  27  28
ATOM     28  O   UNL     1       0.614   4.462   5.464  1.00  0.00    -0.460 OA
BRANCH  28  29
ATOM     29  C   UNL     1       0.612   5.059   6.680  1.00  0.00     0.338 C 
ATOM     30  O   UNL     1       1.579   5.267   7.400  1.00  0.00    -0.246 OA
BRANCH  29  31
ATOM     31  C   UNL     1      -0.724   5.610   6.969  1.00  0.00     0.060 A 
ATOM     32  C   UNL     1      -0.801   6.957   7.345  1.00  0.00     0.016 A 
ATOM     33  C   UNL     1      -1.871   4.815   6.938  1.00  0.00     0.016 A 
ATOM     34  C   UNL     1      -2.020   7.502   7.742  1.00  0.00     0.010 A 
ATOM     35  C   UNL     1      -3.094   5.363   7.342  1.00  0.00     0.010 A 
ATOM     36  C   UNL     1      -3.167   6.698   7.780  1.00  0.00    -0.014 A 
BRANCH  36  37
ATOM     37  C   UNL     1      -4.410   7.221   8.398  1.00  0.00     0.031 A 
ATOM     38  C   UNL     1      -4.768   6.802   9.798  1.00  0.00     0.074 A 
ATOM     39  C   UNL     1      -5.197   8.083   7.731  1.00  0.00     0.049 A 
ATOM     40  N   UNL     1      -5.798   7.143  10.528  1.00  0.00    -0.248 NA
ATOM     41  C   UNL     1      -3.839   5.873  10.461  1.00  0.00     0.031 C 
ATOM     42  C   UNL     1      -4.935   8.600   6.388  1.00  0.00     0.029 A 
ATOM     43  N   UNL     1      -6.377   8.679   8.098  1.00  0.00    -0.354 N 
ATOM     44  C   UNL     1      -5.652   6.462  11.731  1.00  0.00     0.074 A 
ATOM     45  C   UNL     1      -4.449   5.664  11.618  1.00  0.00     0.031 C 
ATOM     46  C   UNL     1      -5.922   9.447   6.049  1.00  0.00     0.029 A 
ATOM     47  C   UNL     1      -6.902   9.502   7.132  1.00  0.00     0.049 A 
ATOM     48  H   UNL     1      -6.806   8.531   8.972  1.00  0.00     0.167 HD
ATOM     49  C   UNL     1      -6.442   6.500  12.832  1.00  0.00     0.031 A 
ATOM     50  C   UNL     1      -8.047  10.212   7.118  1.00  0.00     0.031 A 
ATOM     51  C   UNL     1      -7.650   7.278  12.930  1.00  0.00     0.049 A 
ATOM     52  C   UNL     1      -8.954  10.177   8.319  1.00  0.00     0.074 A 
ATOM     53  C   UNL     1      -8.508   7.403  14.008  1.00  0.00     0.029 A 
ATOM     54  N   UNL     1      -8.180   8.050  11.906  1.00  0.00    -0.354 N 
ATOM     55  N   UNL     1      -8.786   9.553   9.461  1.00  0.00    -0.248 NA
ATOM     56  C   UNL     1     -10.201  10.947   8.229  1.00  0.00     0.031 C 
ATOM     57  C   UNL     1      -9.592   8.197  13.614  1.00  0.00     0.029 A 
ATOM     58  C   UNL     1      -9.374   8.624  12.313  1.00  0.00     0.049 A 
ATOM     59  H   UNL     1      -7.769   8.173  11.020  1.00  0.00     0.167 HD
ATOM     60  C   UNL     1      -9.894   9.879  10.237  1.00  0.00     0.074 A 
ATOM     61  C   UNL     1     -10.718  10.762   9.436  1.00  0.00     0.031 C 
ATOM     62  C   UNL     1     -10.196   9.489  11.502  1.00  0.00     0.031 A 
BRANCH  49  63
ATOM     63  C   UNL     1      -6.045   5.626  13.994  1.00  0.00    -0.014 A 
ATOM     64  C   UNL     1      -4.888   5.888  14.751  1.00  0.00     0.010 A 
ATOM     65  C   UNL     1      -6.840   4.514  14.328  1.00  0.00     0.010 A 
ATOM     66  C   UNL     1      -4.497   5.017  15.773  1.00  0.00     0.020 A 
ATOM     67  C   UNL     1      -6.471   3.659  15.370  1.00  0.00     0.020 A 
ATOM     68  C   UNL     1      -5.286   3.901  16.068  1.00  0.00     0.054 A 
BRANCH  68  69
ATOM     69  S   UNL     1      -4.743   2.771  17.378  1.00  0.00     0.124 S 
ATOM     70  O   UNL     1      -3.622   2.087  16.739  1.00  0.00    -0.237 OA
ATOM     71  O   UNL     1      -4.386   3.683  18.462  1.00  0.00    -0.237 OA
ATOM     72  O   UNL     1      -5.918   1.939  17.629  1.00  0.00    -0.744 OA
ENDBRANCH  68  69
ENDBRANCH  49  63
BRANCH  50  73
ATOM     73  C   UNL     1      -8.388  11.031   5.923  1.00  0.00    -0.014 A 
ATOM     74  C   UNL     1      -8.327  12.434   5.982  1.00  0.00     0.010 A 
ATOM     75  C   UNL     1      -8.734  10.411   4.708  1.00  0.00     0.010 A 
ATOM     76  C   UNL     1      -8.600  13.202   4.847  1.00  0.00     0.020 A 
ATOM     77  C   UNL     1      -8.983  11.175   3.564  1.00  0.00     0.020 A 
ATOM     78  C   UNL     1      -8.916  12.567   3.642  1.00  0.00     0.054 A 
BRANCH  78  79
ATOM     79  S   UNL     1      -9.176  13.584   2.162  1.00  0.00     0.124 S 
ATOM     80  O   UNL     1     -10.459  14.218   2.449  1.00  0.00    -0.237 OA
ATOM     81  O   UNL     1      -8.013  14.469   2.183  1.00  0.00    -0.237 OA
ATOM     82  O   UNL     1      -9.187  12.609   1.074  1.00  0.00    -0.744 OA
ENDBRANCH  78  79
ENDBRANCH  50  73
BRANCH  62  83
ATOM     83  C   UNL     1     -11.461  10.035  12.113  1.00  0.00    -0.014 A 
ATOM     84  C   UNL     1     -12.729   9.613  11.675  1.00  0.00     0.010 A 
ATOM     85  C   UNL     1     -11.377  10.954  13.176  1.00  0.00     0.010 A 
ATOM     86  C   UNL     1     -13.889  10.126  12.264  1.00  0.00     0.020 A 
ATOM     87  C   UNL     1     -12.533  11.446  13.788  1.00  0.00     0.020 A 
ATOM     88  C   UNL     1     -13.783  11.041  13.316  1.00  0.00     0.054 A 
BRANCH  88  89
ATOM     89  S   UNL     1     -15.302  11.665  14.087  1.00  0.00     0.124 S 
ATOM     90  O   UNL     1     -15.812  12.572  13.063  1.00  0.00    -0.237 OA
ATOM     91  O   UNL     1     -16.082  10.447  14.293  1.00  0.00    -0.237 OA
ATOM     92  O   UNL     1     -14.831  12.309  15.311  1.00  0.00    -0.744 OA
ENDBRANCH  88  89
ENDBRANCH  62  83
ENDBRANCH  36  37
ENDBRANCH  29  31
ENDBRANCH  28  29
ENDBRANCH  27  28
ENDBRANCH   1  27
TORSDOF 18
