REMARK SMILES C[C@H](Sc1ccccn1)C(=O)N[C@H](C(=O)OCCOCCOC(=O)c1ccc(-c2c3nc(c(-c4ccc(S(=O)(=O)[O-])cc4)c4ccc([nH]4)c(-c4ccc(S(=O)(=O)[O-])cc4)c4nc(c(-c5ccc(S(=O)(=O)[O-])cc5)c5ccc2[nH]5)C=C4)C=C3)cc1)c1ccc(F)cc1
REMARK SMILES IDX 18 1 17 2 16 3 14 4 15 5 13 6 12 7 10 8 11 9 2 11 1 12 3 13
REMARK SMILES IDX 4 14 5 15 9 16 6 17 8 18 7 19 85 20 86 21 91 22 87 23 90 24
REMARK SMILES IDX 88 25 89 26 19 27 20 28 21 29 22 30 23 31 24 32 25 33 26 34
REMARK SMILES IDX 84 35 27 36 83 37 28 38 29 39 30 40 77 41 31 42 82 43 76 44
REMARK SMILES IDX 78 45 32 46 81 47 75 48 74 49 33 51 63 52 44 53 62 54 45 55
REMARK SMILES IDX 48 56 61 57 79 58 46 59 47 60 60 62 80 63 49 64 34 65 35 66
REMARK SMILES IDX 43 67 36 68 42 69 37 70 38 71 39 72 40 73 41 74 64 75 65 76
REMARK SMILES IDX 73 77 66 78 72 79 67 80 68 81 69 82 70 83 71 84 50 85 51 86
REMARK SMILES IDX 59 87 52 88 58 89 53 90 54 91 55 92 56 93 57 94
REMARK H PARENT 12 10 78 50 48 61
REMARK Flexibility Score: inf
ROOT
ATOM      1  C   UNL     1      -1.552  -1.066  -0.742  1.00  0.00     0.202 C 
ENDROOT
BRANCH   1   2
ATOM      2  C   UNL     1      -1.309   0.387  -1.160  1.00  0.00     0.261 C 
BRANCH   2   3
ATOM      3  O   UNL     1      -0.915   1.410  -0.214  1.00  0.00    -0.461 OA
BRANCH   3   4
ATOM      4  C   UNL     1      -0.882   1.232   1.130  1.00  0.00     0.333 C 
ATOM      5  O   UNL     1      -0.430   0.266   1.721  1.00  0.00    -0.249 OA
BRANCH   4   6
ATOM      6  C   UNL     1      -1.607   2.403   1.802  1.00  0.00     0.223 C 
BRANCH   6   7
ATOM      7  N   UNL     1      -3.033   2.327   1.423  1.00  0.00    -0.338 N 
ATOM      8  C   UNL     1      -3.772   1.179   1.279  1.00  0.00     0.234 C 
ATOM      9  O   UNL     1      -4.163   0.972   0.121  1.00  0.00    -0.274 OA
ATOM     10  H   UNL     1      -3.497   3.180   1.259  1.00  0.00     0.164 HD
BRANCH   8  11
ATOM     11  C   UNL     1      -4.310   0.309   2.432  1.00  0.00     0.139 C 
ATOM     12  C   UNL     1      -4.847   1.025   3.657  1.00  0.00     0.030 C 
BRANCH  11  13
ATOM     13  S   UNL     1      -3.840  -1.482   2.561  1.00  0.00    -0.093 SA
BRANCH  13  14
ATOM     14  C   UNL     1      -2.313  -1.688   3.443  1.00  0.00     0.097 A 
ATOM     15  C   UNL     1      -2.164  -1.540   4.816  1.00  0.00     0.035 A 
ATOM     16  N   UNL     1      -1.280  -2.106   2.693  1.00  0.00    -0.250 NA
ATOM     17  C   UNL     1      -0.880  -1.633   5.381  1.00  0.00     0.004 A 
ATOM     18  C   UNL     1      -0.041  -2.151   3.243  1.00  0.00     0.112 A 
ATOM     19  C   UNL     1       0.214  -1.897   4.570  1.00  0.00     0.020 A 
ENDBRANCH  13  14
ENDBRANCH  11  13
ENDBRANCH   8  11
ENDBRANCH   6   7
BRANCH   6  20
ATOM     20  C   UNL     1      -1.378   2.689   3.273  1.00  0.00    -0.014 A 
ATOM     21  C   UNL     1      -0.973   3.954   3.733  1.00  0.00     0.009 A 
ATOM     22  C   UNL     1      -1.643   1.721   4.234  1.00  0.00     0.009 A 
ATOM     23  C   UNL     1      -0.903   4.232   5.106  1.00  0.00     0.039 A 
ATOM     24  C   UNL     1      -1.609   1.990   5.602  1.00  0.00     0.039 A 
ATOM     25  C   UNL     1      -1.246   3.253   6.028  1.00  0.00     0.123 A 
ATOM     26  F   UNL     1      -1.235   3.528   7.339  1.00  0.00    -0.207 F 
ENDBRANCH   6  20
ENDBRANCH   4   6
ENDBRANCH   3   4
ENDBRANCH   2   3
ENDBRANCH   1   2
BRANCH   1  27
ATOM     27  O   UNL     1      -0.347  -1.653  -0.275  1.00  0.00    -0.374 OA
BRANCH  27  28
ATOM     28  C   UNL     1      -0.387  -3.083  -0.201  1.00  0.00     0.202 C 
BRANCH  28  29
ATOM     29  C   UNL     1       0.986  -3.542  -0.692  1.00  0.00     0.261 C 
BRANCH  29  30
ATOM     30  O   UNL     1       1.121  -3.133  -2.064  1.00  0.00    -0.460 OA
BRANCH  30  31
ATOM     31  C   UNL     1       0.302  -3.838  -2.877  1.00  0.00     0.338 C 
ATOM     32  O   UNL     1      -0.044  -4.997  -2.706  1.00  0.00    -0.246 OA
BRANCH  31  33
ATOM     33  C   UNL     1      -0.345  -2.931  -3.850  1.00  0.00     0.060 A 
ATOM     34  C   UNL     1      -1.604  -3.316  -4.329  1.00  0.00     0.016 A 
ATOM     35  C   UNL     1       0.241  -1.735  -4.282  1.00  0.00     0.016 A 
ATOM     36  C   UNL     1      -2.225  -2.576  -5.328  1.00  0.00     0.010 A 
ATOM     37  C   UNL     1      -0.381  -0.989  -5.285  1.00  0.00     0.010 A 
ATOM     38  C   UNL     1      -1.575  -1.456  -5.858  1.00  0.00    -0.014 A 
BRANCH  38  39
ATOM     39  C   UNL     1      -1.966  -1.003  -7.209  1.00  0.00     0.031 A 
ATOM     40  C   UNL     1      -1.250  -1.640  -8.373  1.00  0.00     0.074 A 
ATOM     41  C   UNL     1      -2.953  -0.113  -7.397  1.00  0.00     0.049 A 
ATOM     42  N   UNL     1      -1.427  -1.462  -9.655  1.00  0.00    -0.248 NA
ATOM     43  C   UNL     1      -0.193  -2.615  -8.043  1.00  0.00     0.031 C 
ATOM     44  C   UNL     1      -3.732   0.528  -6.339  1.00  0.00     0.029 A 
ATOM     45  N   UNL     1      -3.471   0.400  -8.557  1.00  0.00    -0.354 N 
ATOM     46  C   UNL     1      -0.510  -2.303 -10.277  1.00  0.00     0.074 A 
ATOM     47  C   UNL     1       0.246  -2.964  -9.240  1.00  0.00     0.031 C 
ATOM     48  C   UNL     1      -4.630   1.357  -6.902  1.00  0.00     0.029 A 
ATOM     49  C   UNL     1      -4.477   1.313  -8.355  1.00  0.00     0.049 A 
ATOM     50  H   UNL     1      -3.152   0.139  -9.451  1.00  0.00     0.167 HD
ATOM     51  C   UNL     1      -0.319  -2.514 -11.599  1.00  0.00     0.031 A 
ATOM     52  C   UNL     1      -5.184   2.031  -9.250  1.00  0.00     0.031 A 
ATOM     53  C   UNL     1      -1.057  -1.832 -12.622  1.00  0.00     0.049 A 
ATOM     54  C   UNL     1      -4.912   1.827 -10.718  1.00  0.00     0.074 A 
ATOM     55  C   UNL     1      -0.947  -1.954 -13.994  1.00  0.00     0.029 A 
ATOM     56  N   UNL     1      -2.044  -0.889 -12.374  1.00  0.00    -0.354 N 
ATOM     57  N   UNL     1      -4.059   1.010 -11.292  1.00  0.00    -0.248 NA
ATOM     58  C   UNL     1      -5.704   2.631 -11.658  1.00  0.00     0.031 C 
ATOM     59  C   UNL     1      -1.841  -1.050 -14.578  1.00  0.00     0.029 A 
ATOM     60  C   UNL     1      -2.538  -0.402 -13.568  1.00  0.00     0.049 A 
ATOM     61  H   UNL     1      -2.346  -0.609 -11.480  1.00  0.00     0.167 HD
ATOM     62  C   UNL     1      -4.224   1.189 -12.661  1.00  0.00     0.074 A 
ATOM     63  C   UNL     1      -5.267   2.183 -12.828  1.00  0.00     0.031 C 
ATOM     64  C   UNL     1      -3.576   0.590 -13.691  1.00  0.00     0.031 A 
BRANCH  51  65
ATOM     65  C   UNL     1       0.754  -3.493 -11.989  1.00  0.00    -0.014 A 
ATOM     66  C   UNL     1       0.572  -4.877 -11.812  1.00  0.00     0.010 A 
ATOM     67  C   UNL     1       1.967  -3.023 -12.522  1.00  0.00     0.010 A 
ATOM     68  C   UNL     1       1.599  -5.771 -12.125  1.00  0.00     0.020 A 
ATOM     69  C   UNL     1       2.989  -3.917 -12.857  1.00  0.00     0.020 A 
ATOM     70  C   UNL     1       2.804  -5.284 -12.639  1.00  0.00     0.054 A 
BRANCH  70  71
ATOM     71  S   UNL     1       4.122  -6.463 -13.046  1.00  0.00     0.124 S 
ATOM     72  O   UNL     1       4.638  -6.806 -11.723  1.00  0.00    -0.237 OA
ATOM     73  O   UNL     1       3.399  -7.531 -13.732  1.00  0.00    -0.237 OA
ATOM     74  O   UNL     1       5.031  -5.690 -13.888  1.00  0.00    -0.744 OA
ENDBRANCH  70  71
ENDBRANCH  51  65
BRANCH  52  75
ATOM     75  C   UNL     1      -6.203   3.008  -8.781  1.00  0.00    -0.014 A 
ATOM     76  C   UNL     1      -7.576   2.755  -8.947  1.00  0.00     0.010 A 
ATOM     77  C   UNL     1      -5.801   4.197  -8.144  1.00  0.00     0.010 A 
ATOM     78  C   UNL     1      -8.527   3.677  -8.495  1.00  0.00     0.020 A 
ATOM     79  C   UNL     1      -6.748   5.110  -7.672  1.00  0.00     0.020 A 
ATOM     80  C   UNL     1      -8.106   4.849  -7.859  1.00  0.00     0.054 A 
BRANCH  80  81
ATOM     81  S   UNL     1      -9.355   6.004  -7.224  1.00  0.00     0.124 S 
ATOM     82  O   UNL     1      -9.801   6.670  -8.443  1.00  0.00    -0.237 OA
ATOM     83  O   UNL     1     -10.326   5.111  -6.598  1.00  0.00    -0.237 OA
ATOM     84  O   UNL     1      -8.601   6.841  -6.292  1.00  0.00    -0.744 OA
ENDBRANCH  80  81
ENDBRANCH  52  75
BRANCH  64  85
ATOM     85  C   UNL     1      -3.987   0.977 -15.082  1.00  0.00    -0.014 A 
ATOM     86  C   UNL     1      -3.572   2.197 -15.643  1.00  0.00     0.010 A 
ATOM     87  C   UNL     1      -4.730   0.072 -15.863  1.00  0.00     0.010 A 
ATOM     88  C   UNL     1      -3.914   2.516 -16.959  1.00  0.00     0.020 A 
ATOM     89  C   UNL     1      -5.054   0.380 -17.185  1.00  0.00     0.020 A 
ATOM     90  C   UNL     1      -4.653   1.606 -17.721  1.00  0.00     0.054 A 
BRANCH  90  91
ATOM     91  S   UNL     1      -5.038   2.018 -19.445  1.00  0.00     0.124 S 
ATOM     92  O   UNL     1      -6.140   2.963 -19.291  1.00  0.00    -0.237 OA
ATOM     93  O   UNL     1      -3.783   2.588 -19.929  1.00  0.00    -0.237 OA
ATOM     94  O   UNL     1      -5.397   0.730 -20.035  1.00  0.00    -0.744 OA
ENDBRANCH  90  91
ENDBRANCH  64  85
ENDBRANCH  38  39
ENDBRANCH  31  33
ENDBRANCH  30  31
ENDBRANCH  29  30
ENDBRANCH  28  29
ENDBRANCH  27  28
ENDBRANCH   1  27
TORSDOF 22
