REMARK SMILES CCN(CC)C(=O)/C(C#N)=C\c1ccc(O[C@H](C)C(=O)OCCOCCOC(=O)c2ccc(-c3c4nc(c(-c5ccc(S(=O)(=O)[O-])cc5)c5ccc([nH]5)c(-c5ccc(S(=O)(=O)[O-])cc5)c5nc(c(-c6ccc(S(=O)(=O)[O-])cc6)c6ccc3[nH]6)C=C5)C=C4)cc2)cc1
REMARK SMILES IDX 23 1 22 2 21 3 19 4 20 5 17 6 18 7 16 8 15 9 12 10 13 11
REMARK SMILES IDX 91 12 14 13 90 14 11 15 8 16 6 17 3 18 7 19 2 20 1 21 4 22
REMARK SMILES IDX 5 23 9 24 10 25 24 26 25 27 26 28 27 29 28 30 29 31 30 32
REMARK SMILES IDX 31 33 89 34 32 35 88 36 33 37 34 38 35 39 82 40 36 41 87 42
REMARK SMILES IDX 81 43 83 44 37 45 86 46 80 47 79 48 38 50 68 51 49 52 67 53
REMARK SMILES IDX 50 54 53 55 66 56 84 57 51 58 52 59 65 61 85 62 54 63 39 64
REMARK SMILES IDX 40 65 48 66 41 67 47 68 42 69 43 70 44 71 45 72 46 73 69 74
REMARK SMILES IDX 70 75 78 76 71 77 77 78 72 79 73 80 74 81 75 82 76 83 55 84
REMARK SMILES IDX 56 85 64 86 57 87 63 88 58 89 59 90 60 91 61 92 62 93
REMARK H PARENT 83 49 53 60
REMARK Flexibility Score: inf
ROOT
ATOM      1  C   UNL     1       7.694   0.644   3.702  1.00  0.00     0.202 C 
ENDROOT
BRANCH   1   2
ATOM      2  C   UNL     1       6.756   1.523   2.869  1.00  0.00     0.261 C 
BRANCH   2   3
ATOM      3  O   UNL     1       6.889   1.266   1.460  1.00  0.00    -0.461 OA
BRANCH   3   4
ATOM      4  C   UNL     1       7.434   2.273   0.719  1.00  0.00     0.347 C 
ATOM      5  O   UNL     1       7.811   3.351   1.165  1.00  0.00    -0.248 OA
BRANCH   4   6
ATOM      6  C   UNL     1       7.549   1.895  -0.752  1.00  0.00     0.279 C 
ATOM      7  C   UNL     1       8.509   0.741  -0.993  1.00  0.00     0.066 C 
BRANCH   6   8
ATOM      8  O   UNL     1       6.229   1.888  -1.266  1.00  0.00    -0.479 OA
BRANCH   8   9
ATOM      9  C   UNL     1       5.497   0.865  -1.755  1.00  0.00     0.120 A 
ATOM     10  C   UNL     1       3.764  -0.843  -3.136  1.00  0.00    -0.024 A 
ATOM     11  C   UNL     1       5.019  -1.294  -2.732  1.00  0.00     0.012 A 
ATOM     12  C   UNL     1       3.319   0.414  -2.732  1.00  0.00     0.012 A 
ATOM     13  C   UNL     1       5.881  -0.440  -2.035  1.00  0.00     0.047 A 
ATOM     14  C   UNL     1       4.193   1.264  -2.064  1.00  0.00     0.047 A 
BRANCH  10  15
ATOM     15  C   UNL     1       2.986  -1.636  -4.080  1.00  0.00     0.033 C 
ATOM     16  C   UNL     1       2.711  -1.252  -5.343  1.00  0.00     0.117 C 
BRANCH  16  17
ATOM     17  C   UNL     1       3.165   0.052  -5.983  1.00  0.00     0.264 C 
ATOM     18  N   UNL     1       2.436   0.681  -7.003  1.00  0.00    -0.339 N 
ATOM     19  O   UNL     1       4.193   0.594  -5.564  1.00  0.00    -0.268 OA
BRANCH  18  20
ATOM     20  C   UNL     1       2.723   2.101  -7.239  1.00  0.00     0.116 C 
ATOM     21  C   UNL     1       1.952   2.977  -6.259  1.00  0.00     0.027 C 
ENDBRANCH  18  20
BRANCH  18  22
ATOM     22  C   UNL     1       1.452   0.095  -7.922  1.00  0.00     0.116 C 
ATOM     23  C   UNL     1       2.143  -0.710  -9.018  1.00  0.00     0.027 C 
ENDBRANCH  18  22
ENDBRANCH  16  17
BRANCH  16  24
ATOM     24  C   UNL     1       1.828  -2.178  -6.164  1.00  0.00     0.105 C 
ATOM     25  N   UNL     1       1.095  -2.945  -6.846  1.00  0.00    -0.192 NA
ENDBRANCH  16  24
ENDBRANCH  10  15
ENDBRANCH   8   9
ENDBRANCH   6   8
ENDBRANCH   4   6
ENDBRANCH   3   4
ENDBRANCH   2   3
ENDBRANCH   1   2
BRANCH   1  26
ATOM     26  O   UNL     1       9.094   0.902   3.580  1.00  0.00    -0.374 OA
BRANCH  26  27
ATOM     27  C   UNL     1       9.739   0.427   2.402  1.00  0.00     0.202 C 
BRANCH  27  28
ATOM     28  C   UNL     1      10.117  -1.058   2.360  1.00  0.00     0.261 C 
BRANCH  28  29
ATOM     29  O   UNL     1       8.972  -1.920   2.470  1.00  0.00    -0.460 OA
BRANCH  29  30
ATOM     30  C   UNL     1       8.857  -2.534   3.671  1.00  0.00     0.338 C 
ATOM     31  O   UNL     1       9.661  -2.494   4.596  1.00  0.00    -0.246 OA
BRANCH  30  32
ATOM     32  C   UNL     1       7.525  -3.148   3.819  1.00  0.00     0.060 A 
ATOM     33  C   UNL     1       6.821  -2.862   4.995  1.00  0.00     0.016 A 
ATOM     34  C   UNL     1       7.010  -4.049   2.884  1.00  0.00     0.016 A 
ATOM     35  C   UNL     1       5.635  -3.533   5.279  1.00  0.00     0.010 A 
ATOM     36  C   UNL     1       5.820  -4.727   3.174  1.00  0.00     0.010 A 
ATOM     37  C   UNL     1       5.154  -4.506   4.394  1.00  0.00    -0.014 A 
BRANCH  37  38
ATOM     38  C   UNL     1       4.065  -5.409   4.841  1.00  0.00     0.031 A 
ATOM     39  C   UNL     1       4.426  -6.775   5.364  1.00  0.00     0.074 A 
ATOM     40  C   UNL     1       2.783  -5.001   4.845  1.00  0.00     0.049 A 
ATOM     41  N   UNL     1       3.646  -7.721   5.819  1.00  0.00    -0.248 NA
ATOM     42  C   UNL     1       5.858  -7.118   5.377  1.00  0.00     0.031 C 
ATOM     43  C   UNL     1       2.313  -3.685   4.416  1.00  0.00     0.029 A 
ATOM     44  N   UNL     1       1.642  -5.657   5.232  1.00  0.00    -0.354 N 
ATOM     45  C   UNL     1       4.488  -8.771   6.167  1.00  0.00     0.074 A 
ATOM     46  C   UNL     1       5.836  -8.359   5.841  1.00  0.00     0.031 C 
ATOM     47  C   UNL     1       0.978  -3.630   4.565  1.00  0.00     0.029 A 
ATOM     48  C   UNL     1       0.497  -4.915   5.071  1.00  0.00     0.049 A 
ATOM     49  H   UNL     1       1.644  -6.574   5.592  1.00  0.00     0.167 HD
ATOM     50  C   UNL     1       4.172  -9.968   6.717  1.00  0.00     0.031 A 
ATOM     51  C   UNL     1      -0.792  -5.239   5.292  1.00  0.00     0.031 A 
ATOM     52  C   UNL     1       2.830 -10.381   7.032  1.00  0.00     0.049 A 
ATOM     53  C   UNL     1      -1.128  -6.604   5.836  1.00  0.00     0.074 A 
ATOM     54  C   UNL     1       2.406 -11.574   7.591  1.00  0.00     0.029 A 
ATOM     55  N   UNL     1       1.695  -9.617   6.811  1.00  0.00    -0.354 N 
ATOM     56  N   UNL     1      -0.318  -7.582   6.168  1.00  0.00    -0.248 NA
ATOM     57  C   UNL     1      -2.551  -6.904   6.045  1.00  0.00     0.031 C 
ATOM     58  C   UNL     1       1.009 -11.550   7.662  1.00  0.00     0.029 A 
ATOM     59  C   UNL     1       0.568 -10.319   7.202  1.00  0.00     0.049 A 
ATOM     60  H   UNL     1       1.691  -8.708   6.431  1.00  0.00     0.167 HD
ATOM     61  C   UNL     1      -1.133  -8.600   6.655  1.00  0.00     0.074 A 
ATOM     62  C   UNL     1      -2.496  -8.115   6.582  1.00  0.00     0.031 C 
ATOM     63  C   UNL     1      -0.782  -9.822   7.126  1.00  0.00     0.031 A 
BRANCH  50  64
ATOM     64  C   UNL     1       5.300 -10.930   6.979  1.00  0.00    -0.014 A 
ATOM     65  C   UNL     1       6.227 -10.704   8.012  1.00  0.00     0.010 A 
ATOM     66  C   UNL     1       5.421 -12.090   6.192  1.00  0.00     0.010 A 
ATOM     67  C   UNL     1       7.278 -11.600   8.228  1.00  0.00     0.020 A 
ATOM     68  C   UNL     1       6.455 -13.002   6.422  1.00  0.00     0.020 A 
ATOM     69  C   UNL     1       7.388 -12.741   7.427  1.00  0.00     0.054 A 
BRANCH  69  70
ATOM     70  S   UNL     1       8.756 -13.893   7.734  1.00  0.00     0.124 S 
ATOM     71  O   UNL     1       9.897 -13.154   7.199  1.00  0.00    -0.237 OA
ATOM     72  O   UNL     1       8.730 -14.043   9.186  1.00  0.00    -0.237 OA
ATOM     73  O   UNL     1       8.379 -15.086   6.980  1.00  0.00    -0.744 OA
ENDBRANCH  69  70
ENDBRANCH  50  64
BRANCH  51  74
ATOM     74  C   UNL     1      -1.867  -4.256   4.988  1.00  0.00    -0.014 A 
ATOM     75  C   UNL     1      -2.603  -3.651   6.022  1.00  0.00     0.010 A 
ATOM     76  C   UNL     1      -2.159  -3.920   3.653  1.00  0.00     0.010 A 
ATOM     77  C   UNL     1      -3.621  -2.739   5.726  1.00  0.00     0.020 A 
ATOM     78  C   UNL     1      -3.158  -2.989   3.355  1.00  0.00     0.020 A 
ATOM     79  C   UNL     1      -3.890  -2.412   4.393  1.00  0.00     0.054 A 
BRANCH  79  80
ATOM     80  S   UNL     1      -5.178  -1.186   4.033  1.00  0.00     0.124 S 
ATOM     81  O   UNL     1      -6.399  -1.944   4.286  1.00  0.00    -0.237 OA
ATOM     82  O   UNL     1      -4.881  -0.125   4.993  1.00  0.00    -0.237 OA
ATOM     83  O   UNL     1      -4.935  -0.836   2.635  1.00  0.00    -0.744 OA
ENDBRANCH  79  80
ENDBRANCH  51  74
BRANCH  63  84
ATOM     84  C   UNL     1      -1.883 -10.710   7.644  1.00  0.00    -0.014 A 
ATOM     85  C   UNL     1      -2.789 -11.339   6.772  1.00  0.00     0.010 A 
ATOM     86  C   UNL     1      -1.975 -10.963   9.025  1.00  0.00     0.010 A 
ATOM     87  C   UNL     1      -3.788 -12.178   7.276  1.00  0.00     0.020 A 
ATOM     88  C   UNL     1      -2.954 -11.822   9.530  1.00  0.00     0.020 A 
ATOM     89  C   UNL     1      -3.864 -12.413   8.652  1.00  0.00     0.054 A 
BRANCH  89  90
ATOM     90  S   UNL     1      -5.143 -13.537   9.279  1.00  0.00     0.124 S 
ATOM     91  O   UNL     1      -6.347 -12.718   9.172  1.00  0.00    -0.237 OA
ATOM     92  O   UNL     1      -5.064 -14.663   8.351  1.00  0.00    -0.237 OA
ATOM     93  O   UNL     1      -4.708 -13.831  10.643  1.00  0.00    -0.744 OA
ENDBRANCH  89  90
ENDBRANCH  63  84
ENDBRANCH  37  38
ENDBRANCH  30  32
ENDBRANCH  29  30
ENDBRANCH  28  29
ENDBRANCH  27  28
ENDBRANCH  26  27
ENDBRANCH   1  26
TORSDOF 24
