REMARK SMILES Cc1cccc(Cn2c(=O)c3sccc3n(CC(=O)OCCOCCOC(=O)c3ccc(-c4c5nc(c(-c6ccc(S(=O)(=O)[O-])cc6)c6ccc([nH]6)c(-c6ccc(S(=O)(=O)[O-])cc6)c6nc(c(-c7ccc(S(=O)(=O)[O-])cc7)c7ccc4[nH]7)C=C6)C=C5)cc3)c2=O)c1
REMARK SMILES IDX 23 1 22 2 21 3 20 4 18 5 19 6 17 7 16 8 8 9 9 10 89 11 10 12
REMARK SMILES IDX 11 13 90 14 12 15 15 16 13 17 14 18 7 19 6 20 1 21 2 22 3 23
REMARK SMILES IDX 91 24 4 25 5 26 24 27 25 28 26 29 27 30 28 31 29 32 30 33
REMARK SMILES IDX 88 34 31 35 87 36 32 37 33 38 34 39 81 40 35 41 86 42 80 43
REMARK SMILES IDX 82 44 36 45 85 46 79 47 78 48 37 50 67 51 48 52 66 53 49 54
REMARK SMILES IDX 52 55 65 56 83 57 50 58 51 59 64 61 84 62 53 63 38 64 39 65
REMARK SMILES IDX 47 66 40 67 46 68 41 69 42 70 43 71 44 72 45 73 68 74 69 75
REMARK SMILES IDX 77 76 70 77 76 78 71 79 72 80 73 81 74 82 75 83 54 84 55 85
REMARK SMILES IDX 63 86 56 87 62 88 57 89 58 90 59 91 60 92 61 93
REMARK H PARENT 82 49 52 60
REMARK Flexibility Score: inf
ROOT
ATOM      1  O   UNL     1      -6.808   3.726  -5.313  1.00  0.00    -0.374 OA
ENDROOT
BRANCH   1   2
ATOM      2  C   UNL     1      -7.020   3.563  -3.916  1.00  0.00     0.202 C 
BRANCH   2   3
ATOM      3  C   UNL     1      -7.234   2.118  -3.561  1.00  0.00     0.261 C 
BRANCH   3   4
ATOM      4  O   UNL     1      -5.967   1.581  -3.252  1.00  0.00    -0.462 OA
BRANCH   4   5
ATOM      5  C   UNL     1      -5.668   0.329  -3.635  1.00  0.00     0.326 C 
ATOM      6  O   UNL     1      -6.419  -0.482  -4.159  1.00  0.00    -0.250 OA
BRANCH   5   7
ATOM      7  C   UNL     1      -4.199   0.084  -3.373  1.00  0.00     0.250 C 
BRANCH   7   8
ATOM      8  N   UNL     1      -3.498   1.292  -2.919  1.00  0.00    -0.281 N 
ATOM      9  N   UNL     1      -2.481   2.457  -1.117  1.00  0.00    -0.254 N 
ATOM     10  C   UNL     1      -1.965   3.476  -1.922  1.00  0.00     0.274 A 
ATOM     11  C   UNL     1      -3.423   1.513  -1.541  1.00  0.00     0.332 A 
ATOM     12  O   UNL     1      -1.148   4.304  -1.518  1.00  0.00    -0.268 OA
ATOM     13  C   UNL     1      -2.392   3.378  -3.295  1.00  0.00     0.116 A 
ATOM     14  O   UNL     1      -4.083   0.832  -0.752  1.00  0.00    -0.247 OA
ATOM     15  S   UNL     1      -2.014   4.523  -4.491  1.00  0.00    -0.136 S 
ATOM     16  C   UNL     1      -3.091   2.306  -3.786  1.00  0.00     0.070 A 
ATOM     17  C   UNL     1      -2.803   3.594  -5.697  1.00  0.00     0.068 A 
ATOM     18  C   UNL     1      -3.333   2.428  -5.185  1.00  0.00     0.039 A 
BRANCH   9  19
ATOM     19  C   UNL     1      -1.985   2.312   0.240  1.00  0.00     0.166 C 
BRANCH  19  20
ATOM     20  C   UNL     1      -1.071   1.090   0.324  1.00  0.00    -0.028 A 
ATOM     21  C   UNL     1       2.602   0.149  -0.121  1.00  0.00     0.044 C 
ATOM     22  C   UNL     1       1.117   0.050   0.056  1.00  0.00    -0.051 A 
ATOM     23  C   UNL     1       0.525  -1.216   0.160  1.00  0.00     0.003 A 
ATOM     24  C   UNL     1       0.310   1.199   0.111  1.00  0.00     0.009 A 
ATOM     25  C   UNL     1      -0.842  -1.336   0.376  1.00  0.00     0.001 A 
ATOM     26  C   UNL     1      -1.624  -0.192   0.490  1.00  0.00     0.005 A 
ENDBRANCH  19  20
ENDBRANCH   9  19
ENDBRANCH   7   8
ENDBRANCH   5   7
ENDBRANCH   4   5
ENDBRANCH   3   4
ENDBRANCH   2   3
ENDBRANCH   1   2
BRANCH   1  27
ATOM     27  C   UNL     1      -6.377   5.053  -5.630  1.00  0.00     0.202 C 
BRANCH  27  28
ATOM     28  C   UNL     1      -7.109   6.222  -4.924  1.00  0.00     0.261 C 
BRANCH  28  29
ATOM     29  O   UNL     1      -8.535   6.061  -5.002  1.00  0.00    -0.460 OA
BRANCH  29  30
ATOM     30  C   UNL     1      -9.248   6.488  -3.911  1.00  0.00     0.338 C 
ATOM     31  O   UNL     1      -9.096   7.553  -3.336  1.00  0.00    -0.246 OA
BRANCH  30  32
ATOM     32  C   UNL     1     -10.136   5.360  -3.485  1.00  0.00     0.060 A 
ATOM     33  C   UNL     1     -10.310   5.045  -2.127  1.00  0.00     0.016 A 
ATOM     34  C   UNL     1     -10.425   4.405  -4.449  1.00  0.00     0.016 A 
ATOM     35  C   UNL     1     -10.587   3.715  -1.738  1.00  0.00     0.010 A 
ATOM     36  C   UNL     1     -10.508   3.087  -4.045  1.00  0.00     0.010 A 
ATOM     37  C   UNL     1     -10.591   2.699  -2.698  1.00  0.00    -0.014 A 
BRANCH  37  38
ATOM     38  C   UNL     1     -10.480   1.242  -2.431  1.00  0.00     0.031 A 
ATOM     39  C   UNL     1     -11.322   0.247  -3.163  1.00  0.00     0.074 A 
ATOM     40  C   UNL     1      -9.463   0.718  -1.698  1.00  0.00     0.049 A 
ATOM     41  N   UNL     1     -11.587  -0.943  -2.722  1.00  0.00    -0.248 NA
ATOM     42  C   UNL     1     -11.952   0.505  -4.452  1.00  0.00     0.031 C 
ATOM     43  C   UNL     1      -8.952  -0.656  -1.766  1.00  0.00     0.029 A 
ATOM     44  N   UNL     1      -8.625   1.301  -0.761  1.00  0.00    -0.354 N 
ATOM     45  C   UNL     1     -12.084  -1.679  -3.779  1.00  0.00     0.074 A 
ATOM     46  C   UNL     1     -12.392  -0.704  -4.789  1.00  0.00     0.031 C 
ATOM     47  C   UNL     1      -8.067  -0.853  -0.778  1.00  0.00     0.029 A 
ATOM     48  C   UNL     1      -8.056   0.330   0.057  1.00  0.00     0.049 A 
ATOM     49  H   UNL     1      -8.456   2.268  -0.685  1.00  0.00     0.167 HD
ATOM     50  C   UNL     1     -12.053  -3.045  -3.760  1.00  0.00     0.031 A 
ATOM     51  C   UNL     1      -8.134   0.351   1.418  1.00  0.00     0.031 A 
ATOM     52  C   UNL     1     -11.422  -3.557  -2.533  1.00  0.00     0.049 A 
ATOM     53  C   UNL     1      -9.041  -0.750   1.920  1.00  0.00     0.074 A 
ATOM     54  C   UNL     1     -10.201  -4.163  -2.286  1.00  0.00     0.029 A 
ATOM     55  N   UNL     1     -11.934  -3.207  -1.283  1.00  0.00    -0.354 N 
ATOM     56  N   UNL     1      -9.555  -1.661   1.139  1.00  0.00    -0.248 NA
ATOM     57  C   UNL     1      -9.501  -0.902   3.297  1.00  0.00     0.031 C 
ATOM     58  C   UNL     1      -9.951  -4.104  -0.885  1.00  0.00     0.029 A 
ATOM     59  C   UNL     1     -11.036  -3.505  -0.267  1.00  0.00     0.049 A 
ATOM     60  H   UNL     1     -12.819  -2.800  -1.140  1.00  0.00     0.167 HD
ATOM     61  C   UNL     1     -10.512  -2.372   1.800  1.00  0.00     0.074 A 
ATOM     62  C   UNL     1     -10.374  -1.921   3.176  1.00  0.00     0.031 C 
ATOM     63  C   UNL     1     -11.367  -3.208   1.133  1.00  0.00     0.031 A 
BRANCH  50  64
ATOM     64  C   UNL     1     -12.369  -3.917  -4.976  1.00  0.00    -0.014 A 
ATOM     65  C   UNL     1     -12.045  -5.289  -4.986  1.00  0.00     0.010 A 
ATOM     66  C   UNL     1     -12.982  -3.447  -6.157  1.00  0.00     0.010 A 
ATOM     67  C   UNL     1     -12.261  -6.106  -6.119  1.00  0.00     0.020 A 
ATOM     68  C   UNL     1     -13.158  -4.226  -7.308  1.00  0.00     0.020 A 
ATOM     69  C   UNL     1     -12.800  -5.561  -7.284  1.00  0.00     0.054 A 
BRANCH  69  70
ATOM     70  S   UNL     1     -13.073  -6.594  -8.746  1.00  0.00     0.124 S 
ATOM     71  O   UNL     1     -11.739  -7.120  -9.020  1.00  0.00    -0.237 OA
ATOM     72  O   UNL     1     -14.052  -7.565  -8.266  1.00  0.00    -0.237 OA
ATOM     73  O   UNL     1     -13.579  -5.654  -9.747  1.00  0.00    -0.744 OA
ENDBRANCH  69  70
ENDBRANCH  50  64
BRANCH  51  74
ATOM     74  C   UNL     1      -7.840   1.695   2.015  1.00  0.00    -0.014 A 
ATOM     75  C   UNL     1      -6.460   1.995   2.052  1.00  0.00     0.010 A 
ATOM     76  C   UNL     1      -8.752   2.754   1.837  1.00  0.00     0.010 A 
ATOM     77  C   UNL     1      -5.995   3.220   1.568  1.00  0.00     0.020 A 
ATOM     78  C   UNL     1      -8.283   3.982   1.330  1.00  0.00     0.020 A 
ATOM     79  C   UNL     1      -6.912   4.158   1.103  1.00  0.00     0.054 A 
BRANCH  79  80
ATOM     80  S   UNL     1      -6.342   5.370  -0.143  1.00  0.00     0.124 S 
ATOM     81  O   UNL     1      -6.127   6.564   0.663  1.00  0.00    -0.237 OA
ATOM     82  O   UNL     1      -5.138   4.751  -0.698  1.00  0.00    -0.237 OA
ATOM     83  O   UNL     1      -7.467   5.417  -1.074  1.00  0.00    -0.744 OA
ENDBRANCH  79  80
ENDBRANCH  51  74
BRANCH  63  84
ATOM     84  C   UNL     1     -12.585  -3.865   1.743  1.00  0.00    -0.014 A 
ATOM     85  C   UNL     1     -13.217  -3.427   2.917  1.00  0.00     0.010 A 
ATOM     86  C   UNL     1     -13.197  -4.942   1.056  1.00  0.00     0.010 A 
ATOM     87  C   UNL     1     -14.342  -4.085   3.430  1.00  0.00     0.020 A 
ATOM     88  C   UNL     1     -14.355  -5.568   1.526  1.00  0.00     0.020 A 
ATOM     89  C   UNL     1     -14.898  -5.159   2.736  1.00  0.00     0.054 A 
BRANCH  89  90
ATOM     90  S   UNL     1     -16.358  -5.987   3.410  1.00  0.00     0.124 S 
ATOM     91  O   UNL     1     -15.764  -6.875   4.406  1.00  0.00    -0.237 OA
ATOM     92  O   UNL     1     -17.140  -4.877   3.950  1.00  0.00    -0.237 OA
ATOM     93  O   UNL     1     -16.947  -6.649   2.251  1.00  0.00    -0.744 OA
ENDBRANCH  89  90
ENDBRANCH  63  84
ENDBRANCH  37  38
ENDBRANCH  30  32
ENDBRANCH  29  30
ENDBRANCH  28  29
ENDBRANCH  27  28
ENDBRANCH   1  27
TORSDOF 20
