REMARK SMILES CC(=O)c1nnn(-c2ccc(C(=O)OCCOCCOC(=O)c3ccc(-c4c5nc(c(-c6ccc(S(=O)(=O)[O-])cc6)c6ccc([nH]6)c(-c6ccc(S(=O)(=O)[O-])cc6)c6nc(c(-c7ccc(S(=O)(=O)[O-])cc7)c7ccc4[nH]7)C=C6)C=C5)cc3)cc2)c1C
REMARK SMILES IDX 18 1 17 2 16 3 15 4 14 5 12 6 13 7 11 8 8 9 9 10 84 11 10 12
REMARK SMILES IDX 83 13 7 14 4 15 5 16 85 17 6 18 86 19 2 20 1 21 3 22 19 23
REMARK SMILES IDX 20 24 21 25 22 26 23 27 24 28 82 29 25 30 81 31 26 32 27 33
REMARK SMILES IDX 28 34 75 35 29 36 80 37 74 38 76 39 30 40 79 41 73 42 72 43
REMARK SMILES IDX 31 45 61 46 42 47 60 48 43 49 46 50 59 51 77 52 44 53 45 54
REMARK SMILES IDX 58 56 78 57 47 58 32 59 33 60 41 61 34 62 40 63 35 64 36 65
REMARK SMILES IDX 37 66 38 67 39 68 62 69 63 70 71 71 64 72 70 73 65 74 66 75
REMARK SMILES IDX 67 76 68 77 69 78 48 79 49 80 57 81 50 82 56 83 51 84 52 85
REMARK SMILES IDX 53 86 54 87 55 88
REMARK H PARENT 76 44 46 55
REMARK Flexibility Score: inf
ROOT
ATOM      1  C   UNL     1       7.476  -7.678   5.066  1.00  0.00     0.202 C 
ENDROOT
BRANCH   1   2
ATOM      2  O   UNL     1       8.867  -7.771   4.776  1.00  0.00    -0.374 OA
BRANCH   2   3
ATOM      3  C   UNL     1       9.696  -6.623   4.965  1.00  0.00     0.202 C 
BRANCH   3   4
ATOM      4  C   UNL     1       9.562  -5.504   3.933  1.00  0.00     0.261 C 
BRANCH   4   5
ATOM      5  O   UNL     1       8.313  -4.806   4.078  1.00  0.00    -0.460 OA
BRANCH   5   6
ATOM      6  C   UNL     1       7.436  -5.008   3.069  1.00  0.00     0.338 C 
ATOM      7  O   UNL     1       7.622  -5.643   2.044  1.00  0.00    -0.246 OA
BRANCH   6   8
ATOM      8  C   UNL     1       6.115  -4.442   3.410  1.00  0.00     0.060 A 
ATOM      9  C   UNL     1       3.619  -3.249   3.516  1.00  0.00     0.067 A 
ATOM     10  C   UNL     1       3.719  -4.570   3.071  1.00  0.00     0.029 A 
ATOM     11  C   UNL     1       4.729  -2.591   4.065  1.00  0.00     0.029 A 
ATOM     12  C   UNL     1       4.980  -5.154   2.990  1.00  0.00     0.018 A 
ATOM     13  C   UNL     1       5.985  -3.194   4.021  1.00  0.00     0.018 A 
BRANCH   9  14
ATOM     14  N   UNL     1       2.442  -2.529   3.212  1.00  0.00    -0.217 N 
ATOM     15  C   UNL     1       1.002  -1.172   2.287  1.00  0.00     0.151 A 
ATOM     16  N   UNL     1       0.328  -2.236   2.823  1.00  0.00    -0.126 NA
ATOM     17  C   UNL     1       2.361  -1.334   2.502  1.00  0.00     0.073 A 
ATOM     18  N   UNL     1       1.219  -3.097   3.291  1.00  0.00    -0.061 NA
ATOM     19  C   UNL     1       3.534  -0.573   2.005  1.00  0.00     0.069 C 
BRANCH  15  20
ATOM     20  C   UNL     1       0.320  -0.142   1.519  1.00  0.00     0.181 C 
ATOM     21  C   UNL     1       0.674  -0.019   0.056  1.00  0.00     0.095 C 
ATOM     22  O   UNL     1      -0.553   0.570   2.012  1.00  0.00    -0.293 OA
ENDBRANCH  15  20
ENDBRANCH   9  14
ENDBRANCH   6   8
ENDBRANCH   5   6
ENDBRANCH   4   5
ENDBRANCH   3   4
ENDBRANCH   2   3
ENDBRANCH   1   2
BRANCH   1  23
ATOM     23  C   UNL     1       7.057  -7.665   6.529  1.00  0.00     0.261 C 
BRANCH  23  24
ATOM     24  O   UNL     1       7.572  -6.537   7.223  1.00  0.00    -0.460 OA
BRANCH  24  25
ATOM     25  C   UNL     1       8.664  -6.803   7.979  1.00  0.00     0.338 C 
ATOM     26  O   UNL     1       9.380  -7.785   7.919  1.00  0.00    -0.246 OA
BRANCH  25  27
ATOM     27  C   UNL     1       8.768  -5.765   9.011  1.00  0.00     0.060 A 
ATOM     28  C   UNL     1       9.662  -6.023  10.054  1.00  0.00     0.016 A 
ATOM     29  C   UNL     1       7.813  -4.739   9.083  1.00  0.00     0.016 A 
ATOM     30  C   UNL     1       9.456  -5.394  11.261  1.00  0.00     0.010 A 
ATOM     31  C   UNL     1       7.592  -4.135  10.297  1.00  0.00     0.010 A 
ATOM     32  C   UNL     1       8.366  -4.531  11.387  1.00  0.00    -0.014 A 
BRANCH  32  33
ATOM     33  C   UNL     1       8.037  -4.051  12.709  1.00  0.00     0.031 A 
ATOM     34  C   UNL     1       8.781  -2.850  13.129  1.00  0.00     0.074 A 
ATOM     35  C   UNL     1       7.028  -4.584  13.420  1.00  0.00     0.049 A 
ATOM     36  N   UNL     1       9.662  -2.746  14.066  1.00  0.00    -0.248 NA
ATOM     37  C   UNL     1       8.625  -1.647  12.298  1.00  0.00     0.031 C 
ATOM     38  C   UNL     1       6.020  -5.539  12.948  1.00  0.00     0.029 A 
ATOM     39  N   UNL     1       6.606  -4.272  14.675  1.00  0.00    -0.354 N 
ATOM     40  C   UNL     1      10.007  -1.400  14.086  1.00  0.00     0.074 A 
ATOM     41  C   UNL     1       9.525  -0.838  12.851  1.00  0.00     0.031 C 
ATOM     42  C   UNL     1       4.985  -5.543  13.815  1.00  0.00     0.029 A 
ATOM     43  C   UNL     1       5.308  -4.680  14.942  1.00  0.00     0.049 A 
ATOM     44  H   UNL     1       7.169  -3.801  15.331  1.00  0.00     0.167 HD
ATOM     45  C   UNL     1      10.383  -0.774  15.234  1.00  0.00     0.031 A 
ATOM     46  C   UNL     1       4.523  -4.248  15.959  1.00  0.00     0.031 A 
ATOM     47  C   UNL     1      10.745  -1.709  16.269  1.00  0.00     0.049 A 
ATOM     48  C   UNL     1       5.401  -3.615  16.975  1.00  0.00     0.074 A 
ATOM     49  C   UNL     1      11.666  -2.732  16.380  1.00  0.00     0.029 A 
ATOM     50  N   UNL     1       9.849  -1.886  17.297  1.00  0.00    -0.354 N 
ATOM     51  N   UNL     1       6.247  -4.271  17.718  1.00  0.00    -0.248 NA
ATOM     52  C   UNL     1       5.625  -2.178  16.909  1.00  0.00     0.031 C 
ATOM     53  C   UNL     1      11.047  -3.710  17.211  1.00  0.00     0.029 A 
ATOM     54  C   UNL     1       9.794  -3.224  17.589  1.00  0.00     0.049 A 
ATOM     55  H   UNL     1       9.336  -1.175  17.745  1.00  0.00     0.167 HD
ATOM     56  C   UNL     1       7.332  -3.418  17.869  1.00  0.00     0.074 A 
ATOM     57  C   UNL     1       6.838  -2.108  17.462  1.00  0.00     0.031 C 
ATOM     58  C   UNL     1       8.597  -3.909  18.036  1.00  0.00     0.031 A 
BRANCH  45  59
ATOM     59  C   UNL     1       9.991   0.655  15.542  1.00  0.00    -0.014 A 
ATOM     60  C   UNL     1      10.450   1.241  16.737  1.00  0.00     0.010 A 
ATOM     61  C   UNL     1       8.961   1.335  14.854  1.00  0.00     0.010 A 
ATOM     62  C   UNL     1       9.838   2.387  17.263  1.00  0.00     0.020 A 
ATOM     63  C   UNL     1       8.384   2.506  15.338  1.00  0.00     0.020 A 
ATOM     64  C   UNL     1       8.793   2.996  16.567  1.00  0.00     0.054 A 
BRANCH  64  65
ATOM     65  S   UNL     1       7.897   4.373  17.320  1.00  0.00     0.124 S 
ATOM     66  O   UNL     1       7.174   3.700  18.394  1.00  0.00    -0.237 OA
ATOM     67  O   UNL     1       8.981   5.258  17.737  1.00  0.00    -0.237 OA
ATOM     68  O   UNL     1       7.072   4.880  16.226  1.00  0.00    -0.744 OA
ENDBRANCH  64  65
ENDBRANCH  45  59
BRANCH  46  69
ATOM     69  C   UNL     1       3.048  -4.092  15.963  1.00  0.00    -0.014 A 
ATOM     70  C   UNL     1       2.354  -3.845  17.161  1.00  0.00     0.010 A 
ATOM     71  C   UNL     1       2.340  -3.934  14.752  1.00  0.00     0.010 A 
ATOM     72  C   UNL     1       1.022  -3.401  17.145  1.00  0.00     0.020 A 
ATOM     73  C   UNL     1       1.008  -3.511  14.729  1.00  0.00     0.020 A 
ATOM     74  C   UNL     1       0.363  -3.220  15.926  1.00  0.00     0.054 A 
BRANCH  74  75
ATOM     75  S   UNL     1      -1.295  -2.480  15.905  1.00  0.00     0.124 S 
ATOM     76  O   UNL     1      -2.121  -3.554  16.446  1.00  0.00    -0.237 OA
ATOM     77  O   UNL     1      -1.131  -1.311  16.764  1.00  0.00    -0.237 OA
ATOM     78  O   UNL     1      -1.517  -2.179  14.491  1.00  0.00    -0.744 OA
ENDBRANCH  74  75
ENDBRANCH  46  69
BRANCH  58  79
ATOM     79  C   UNL     1       8.756  -5.351  18.457  1.00  0.00    -0.014 A 
ATOM     80  C   UNL     1       8.241  -6.440  17.728  1.00  0.00     0.010 A 
ATOM     81  C   UNL     1       9.560  -5.620  19.581  1.00  0.00     0.010 A 
ATOM     82  C   UNL     1       8.481  -7.758  18.140  1.00  0.00     0.020 A 
ATOM     83  C   UNL     1       9.822  -6.932  19.984  1.00  0.00     0.020 A 
ATOM     84  C   UNL     1       9.268  -7.995  19.270  1.00  0.00     0.054 A 
BRANCH  84  85
ATOM     85  S   UNL     1       9.601  -9.705  19.777  1.00  0.00     0.124 S 
ATOM     86  O   UNL     1       8.302 -10.144  20.280  1.00  0.00    -0.237 OA
ATOM     87  O   UNL     1      10.039 -10.334  18.532  1.00  0.00    -0.237 OA
ATOM     88  O   UNL     1      10.645  -9.570  20.792  1.00  0.00    -0.744 OA
ENDBRANCH  84  85
ENDBRANCH  58  79
ENDBRANCH  32  33
ENDBRANCH  25  27
ENDBRANCH  24  25
ENDBRANCH  23  24
ENDBRANCH   1  23
TORSDOF 19
