REMARK SMILES O=C(OCCOCCOC(=O)c1ccccc1Nc1nc(Cl)nc(Nc2ccc(N3CCOCC3=O)cc2)n1)c1ccc(-c2c3nc(c(-c4ccc(S(=O)(=O)[O-])cc4)c4ccc([nH]4)c(-c4ccc(S(=O)(=O)[O-])cc4)c4nc(c(-c5ccc(S(=O)(=O)[O-])cc5)c5ccc2[nH]5)C=C4)C=C3)cc1
REMARK SMILES IDX 7 1 6 2 5 3 4 4 3 5 2 6 1 7 40 8 41 9 99 10 42 11 98 12
REMARK SMILES IDX 43 13 44 14 45 15 92 16 46 17 97 18 91 19 93 20 47 21 96 22
REMARK SMILES IDX 90 23 89 24 48 26 78 27 59 28 77 29 60 30 63 31 76 32 94 33
REMARK SMILES IDX 61 34 62 35 75 37 95 38 64 39 49 40 50 41 58 42 51 43 57 44
REMARK SMILES IDX 52 45 53 46 54 47 55 48 56 49 79 50 80 51 88 52 81 53 87 54
REMARK SMILES IDX 82 55 83 56 84 57 85 58 86 59 65 60 66 61 74 62 67 63 73 64
REMARK SMILES IDX 68 65 69 66 70 67 71 68 72 69 8 70 9 71 10 72 11 73 12 74
REMARK SMILES IDX 13 75 17 76 14 77 16 78 15 79 18 80 19 82 20 83 39 84 21 85
REMARK SMILES IDX 24 86 22 87 23 88 25 89 26 91 27 92 38 93 28 94 37 95 29 96
REMARK SMILES IDX 30 97 31 98 35 99 32 100 34 101 36 102 33 103
REMARK H PARENT 93 25 63 36 18 81 25 90
REMARK Flexibility Score: inf
ROOT
ATOM      1  C   UNL     1       2.887  -1.466  -1.516  1.00  0.00     0.202 C 
ENDROOT
BRANCH   1   2
ATOM      2  O   UNL     1       4.209  -1.169  -1.058  1.00  0.00    -0.374 OA
BRANCH   2   3
ATOM      3  C   UNL     1       4.498  -1.462   0.307  1.00  0.00     0.202 C 
BRANCH   3   4
ATOM      4  C   UNL     1       4.232  -0.297   1.262  1.00  0.00     0.261 C 
BRANCH   4   5
ATOM      5  O   UNL     1       2.837   0.040   1.248  1.00  0.00    -0.460 OA
BRANCH   5   6
ATOM      6  C   UNL     1       2.216   1.002   0.529  1.00  0.00     0.338 C 
ATOM      7  O   UNL     1       0.990   1.080   0.602  1.00  0.00    -0.246 OA
BRANCH   6   8
ATOM      8  C   UNL     1       2.923   1.984  -0.349  1.00  0.00     0.060 A 
ATOM      9  C   UNL     1       4.127   1.754  -1.022  1.00  0.00     0.016 A 
ATOM     10  C   UNL     1       2.257   3.196  -0.592  1.00  0.00     0.016 A 
ATOM     11  C   UNL     1       4.662   2.676  -1.904  1.00  0.00     0.010 A 
ATOM     12  C   UNL     1       2.789   4.138  -1.474  1.00  0.00     0.010 A 
ATOM     13  C   UNL     1       3.998   3.872  -2.123  1.00  0.00    -0.014 A 
BRANCH  13  14
ATOM     14  C   UNL     1       4.691   4.900  -2.905  1.00  0.00     0.031 A 
ATOM     15  C   UNL     1       5.412   5.964  -2.147  1.00  0.00     0.074 A 
ATOM     16  C   UNL     1       4.742   4.801  -4.242  1.00  0.00     0.049 A 
ATOM     17  N   UNL     1       5.992   7.043  -2.588  1.00  0.00    -0.248 NA
ATOM     18  C   UNL     1       5.495   5.781  -0.686  1.00  0.00     0.031 C 
ATOM     19  C   UNL     1       4.193   3.693  -5.029  1.00  0.00     0.029 A 
ATOM     20  N   UNL     1       5.287   5.638  -5.174  1.00  0.00    -0.354 N 
ATOM     21  C   UNL     1       6.467   7.693  -1.457  1.00  0.00     0.074 A 
ATOM     22  C   UNL     1       6.118   6.886  -0.311  1.00  0.00     0.031 C 
ATOM     23  C   UNL     1       4.418   3.930  -6.331  1.00  0.00     0.029 A 
ATOM     24  C   UNL     1       5.057   5.235  -6.467  1.00  0.00     0.049 A 
ATOM     25  H   UNL     1       5.794   6.450  -4.942  1.00  0.00     0.167 HD
ATOM     26  C   UNL     1       7.112   8.879  -1.396  1.00  0.00     0.031 A 
ATOM     27  C   UNL     1       5.289   5.887  -7.621  1.00  0.00     0.031 A 
ATOM     28  C   UNL     1       7.399   9.657  -2.568  1.00  0.00     0.049 A 
ATOM     29  C   UNL     1       5.914   7.253  -7.531  1.00  0.00     0.074 A 
ATOM     30  C   UNL     1       7.982  10.904  -2.661  1.00  0.00     0.029 A 
ATOM     31  N   UNL     1       7.107   9.247  -3.866  1.00  0.00    -0.354 N 
ATOM     32  N   UNL     1       6.293   7.911  -6.458  1.00  0.00    -0.248 NA
ATOM     33  C   UNL     1       6.136   7.970  -8.790  1.00  0.00     0.031 C 
ATOM     34  C   UNL     1       7.990  11.272  -4.011  1.00  0.00     0.029 A 
ATOM     35  C   UNL     1       7.481  10.223  -4.767  1.00  0.00     0.049 A 
ATOM     36  H   UNL     1       6.694   8.386  -4.105  1.00  0.00     0.167 HD
ATOM     37  C   UNL     1       6.826   9.109  -6.912  1.00  0.00     0.074 A 
ATOM     38  C   UNL     1       6.719   9.083  -8.360  1.00  0.00     0.031 C 
ATOM     39  C   UNL     1       7.362  10.136  -6.204  1.00  0.00     0.031 A 
BRANCH  26  40
ATOM     40  C   UNL     1       7.416   9.419  -0.025  1.00  0.00    -0.014 A 
ATOM     41  C   UNL     1       8.357   8.807   0.825  1.00  0.00     0.010 A 
ATOM     42  C   UNL     1       6.680  10.518   0.454  1.00  0.00     0.010 A 
ATOM     43  C   UNL     1       8.504   9.239   2.147  1.00  0.00     0.020 A 
ATOM     44  C   UNL     1       6.846  10.974   1.764  1.00  0.00     0.020 A 
ATOM     45  C   UNL     1       7.737  10.313   2.611  1.00  0.00     0.054 A 
BRANCH  45  46
ATOM     46  S   UNL     1       7.912  10.827   4.342  1.00  0.00     0.124 S 
ATOM     47  O   UNL     1       7.237   9.741   5.048  1.00  0.00    -0.237 OA
ATOM     48  O   UNL     1       9.362  10.882   4.515  1.00  0.00    -0.237 OA
ATOM     49  O   UNL     1       7.232  12.119   4.391  1.00  0.00    -0.744 OA
ENDBRANCH  45  46
ENDBRANCH  26  40
BRANCH  27  50
ATOM     50  C   UNL     1       4.872   5.276  -8.913  1.00  0.00    -0.014 A 
ATOM     51  C   UNL     1       5.821   4.827  -9.845  1.00  0.00     0.010 A 
ATOM     52  C   UNL     1       3.504   5.075  -9.187  1.00  0.00     0.010 A 
ATOM     53  C   UNL     1       5.413   4.186 -11.021  1.00  0.00     0.020 A 
ATOM     54  C   UNL     1       3.092   4.411 -10.346  1.00  0.00     0.020 A 
ATOM     55  C   UNL     1       4.051   3.973 -11.259  1.00  0.00     0.054 A 
BRANCH  55  56
ATOM     56  S   UNL     1       3.552   3.065 -12.750  1.00  0.00     0.124 S 
ATOM     57  O   UNL     1       3.849   4.027 -13.807  1.00  0.00    -0.237 OA
ATOM     58  O   UNL     1       4.415   1.887 -12.705  1.00  0.00    -0.237 OA
ATOM     59  O   UNL     1       2.132   2.796 -12.530  1.00  0.00    -0.744 OA
ENDBRANCH  55  56
ENDBRANCH  27  50
BRANCH  39  60
ATOM     60  C   UNL     1       7.931  11.285  -6.985  1.00  0.00    -0.014 A 
ATOM     61  C   UNL     1       7.100  12.245  -7.585  1.00  0.00     0.010 A 
ATOM     62  C   UNL     1       9.327  11.465  -7.002  1.00  0.00     0.010 A 
ATOM     63  C   UNL     1       7.660  13.370  -8.193  1.00  0.00     0.020 A 
ATOM     64  C   UNL     1       9.886  12.601  -7.583  1.00  0.00     0.020 A 
ATOM     65  C   UNL     1       9.049  13.546  -8.178  1.00  0.00     0.054 A 
BRANCH  65  66
ATOM     66  S   UNL     1       9.742  15.064  -8.883  1.00  0.00     0.124 S 
ATOM     67  O   UNL     1       9.570  14.839 -10.316  1.00  0.00    -0.237 OA
ATOM     68  O   UNL     1       8.894  16.102  -8.303  1.00  0.00    -0.237 OA
ATOM     69  O   UNL     1      11.126  15.064  -8.414  1.00  0.00    -0.744 OA
ENDBRANCH  65  66
ENDBRANCH  39  60
ENDBRANCH  13  14
ENDBRANCH   6   8
ENDBRANCH   5   6
ENDBRANCH   4   5
ENDBRANCH   3   4
ENDBRANCH   2   3
ENDBRANCH   1   2
BRANCH   1  70
ATOM     70  C   UNL     1       2.992  -2.389  -2.730  1.00  0.00     0.261 C 
BRANCH  70  71
ATOM     71  O   UNL     1       3.583  -3.623  -2.293  1.00  0.00    -0.460 OA
BRANCH  71  72
ATOM     72  C   UNL     1       4.940  -3.634  -2.208  1.00  0.00     0.340 C 
ATOM     73  O   UNL     1       5.710  -2.944  -2.856  1.00  0.00    -0.246 OA
BRANCH  72  74
ATOM     74  C   UNL     1       5.364  -4.525  -1.085  1.00  0.00     0.083 A 
ATOM     75  C   UNL     1       6.622  -4.258  -0.520  1.00  0.00     0.018 A 
ATOM     76  C   UNL     1       4.565  -5.579  -0.580  1.00  0.00     0.055 A 
ATOM     77  C   UNL     1       7.101  -5.032   0.533  1.00  0.00     0.001 A 
ATOM     78  C   UNL     1       5.082  -6.359   0.463  1.00  0.00     0.027 A 
ATOM     79  C   UNL     1       6.338  -6.091   1.012  1.00  0.00     0.002 A 
BRANCH  76  80
ATOM     80  N   UNL     1       3.299  -5.830  -1.129  1.00  0.00    -0.323 N 
ATOM     81  H   UNL     1       2.888  -5.051  -1.570  1.00  0.00     0.170 HD
BRANCH  80  82
ATOM     82  C   UNL     1       2.525  -6.972  -1.162  1.00  0.00     0.233 A 
ATOM     83  N   UNL     1       2.211  -7.637  -0.066  1.00  0.00    -0.182 NA
ATOM     84  N   UNL     1       2.167  -7.324  -2.389  1.00  0.00    -0.176 NA
ATOM     85  C   UNL     1       1.457  -8.693  -0.306  1.00  0.00     0.228 A 
ATOM     86  C   UNL     1       1.504  -8.457  -2.510  1.00  0.00     0.233 A 
ATOM     87  Cl  UNL     1       0.969  -9.595   1.062  1.00  0.00    -0.041 Cl
ATOM     88  N   UNL     1       1.079  -9.170  -1.479  1.00  0.00    -0.182 NA
BRANCH  86  89
ATOM     89  N   UNL     1       1.390  -8.938  -3.809  1.00  0.00    -0.324 N 
ATOM     90  H   UNL     1       1.776  -8.377  -4.521  1.00  0.00     0.170 HD
BRANCH  89  91
ATOM     91  C   UNL     1       0.790 -10.126  -4.213  1.00  0.00     0.041 A 
ATOM     92  C   UNL     1       1.526 -11.085  -4.913  1.00  0.00     0.028 A 
ATOM     93  C   UNL     1      -0.507 -10.434  -3.800  1.00  0.00     0.028 A 
ATOM     94  C   UNL     1       0.985 -12.350  -5.157  1.00  0.00     0.028 A 
ATOM     95  C   UNL     1      -1.068 -11.671  -4.088  1.00  0.00     0.028 A 
ATOM     96  C   UNL     1      -0.320 -12.648  -4.749  1.00  0.00     0.044 A 
BRANCH  96  97
ATOM     97  N   UNL     1      -0.864 -13.949  -4.927  1.00  0.00    -0.308 N 
ATOM     98  C   UNL     1      -0.092 -15.063  -4.366  1.00  0.00     0.154 C 
ATOM     99  C   UNL     1      -2.211 -14.109  -5.269  1.00  0.00     0.253 C 
ATOM    100  C   UNL     1      -0.636 -16.428  -4.764  1.00  0.00     0.183 C 
ATOM    101  C   UNL     1      -2.740 -15.548  -5.222  1.00  0.00     0.260 C 
ATOM    102  O   UNL     1      -2.944 -13.206  -5.675  1.00  0.00    -0.272 OA
ATOM    103  O   UNL     1      -2.024 -16.497  -4.449  1.00  0.00    -0.370 OA
ENDBRANCH  96  97
ENDBRANCH  89  91
ENDBRANCH  86  89
ENDBRANCH  80  82
ENDBRANCH  76  80
ENDBRANCH  72  74
ENDBRANCH  71  72
ENDBRANCH  70  71
ENDBRANCH   1  70
TORSDOF 22
