REMARK SMILES CC(C)CC[C@@]1(CC(=O)OCCOCCOC(=O)c2ccc(-c3c4nc(c(-c5ccc(S(=O)(=O)[O-])cc5)c5ccc([nH]5)c(-c5ccc(S(=O)(=O)[O-])cc5)c5nc(c(-c6ccc(S(=O)(=O)[O-])cc6)c6ccc3[nH]6)C=C5)C=C4)cc2)CCOC(C)(C)C1
REMARK SMILES IDX 12 1 11 2 10 3 8 4 9 5 7 6 6 7 79 8 85 9 80 10 82 11 81 12
REMARK SMILES IDX 83 13 84 14 5 15 4 16 2 17 1 18 3 19 13 20 14 21 15 22 16 23
REMARK SMILES IDX 17 24 18 25 19 26 20 27 78 28 21 29 77 30 22 31 23 32 24 33
REMARK SMILES IDX 71 34 25 35 76 36 70 37 72 38 26 39 75 40 69 41 68 42 27 44
REMARK SMILES IDX 57 45 38 46 56 47 39 48 42 49 55 50 73 51 40 52 41 53 54 55
REMARK SMILES IDX 74 56 43 57 28 58 29 59 37 60 30 61 36 62 31 63 32 64 33 65
REMARK SMILES IDX 34 66 35 67 58 68 59 69 67 70 60 71 66 72 61 73 62 74 63 75
REMARK SMILES IDX 64 76 65 77 44 78 45 79 53 80 46 81 52 82 47 83 48 84 49 85
REMARK SMILES IDX 50 86 51 87
REMARK H PARENT 72 43 42 54
REMARK Flexibility Score: inf
ROOT
ATOM      1  C   UNL     1       1.010   1.781   4.503  1.00  0.00     0.202 C 
ENDROOT
BRANCH   1   2
ATOM      2  C   UNL     1       0.341   0.466   5.015  1.00  0.00     0.261 C 
BRANCH   2   3
ATOM      3  O   UNL     1       0.385  -0.695   4.122  1.00  0.00    -0.463 OA
BRANCH   3   4
ATOM      4  C   UNL     1      -0.765  -1.365   3.795  1.00  0.00     0.306 C 
ATOM      5  O   UNL     1      -1.891  -0.956   4.055  1.00  0.00    -0.252 OA
BRANCH   4   6
ATOM      6  C   UNL     1      -0.489  -2.744   3.131  1.00  0.00     0.130 C 
BRANCH   6   7
ATOM      7  C   UNL     1      -0.917  -3.087   1.627  1.00  0.00    -0.014 C 
ATOM      8  C   UNL     1      -1.949  -4.278   1.647  1.00  0.00     0.036 C 
ATOM      9  C   UNL     1       0.263  -3.753   0.838  1.00  0.00     0.042 C 
ATOM     10  C   UNL     1      -2.142  -5.025   0.306  1.00  0.00     0.161 C 
ATOM     11  C   UNL     1      -0.043  -4.296  -0.583  1.00  0.00     0.063 C 
ATOM     12  O   UNL     1      -0.924  -5.406  -0.357  1.00  0.00    -0.376 OA
ATOM     13  C   UNL     1      -0.658  -3.443  -1.710  1.00  0.00     0.042 C 
ATOM     14  C   UNL     1       1.312  -4.769  -1.156  1.00  0.00     0.042 C 
BRANCH   7  15
ATOM     15  C   UNL     1      -1.573  -1.851   0.948  1.00  0.00     0.008 C 
BRANCH  15  16
ATOM     16  C   UNL     1      -0.794  -0.527   0.829  1.00  0.00     0.003 C 
BRANCH  16  17
ATOM     17  C   UNL     1       0.726  -0.612   0.644  1.00  0.00    -0.017 C 
ATOM     18  C   UNL     1       1.202  -0.274  -0.750  1.00  0.00     0.007 C 
ATOM     19  C   UNL     1       1.546   0.085   1.696  1.00  0.00     0.007 C 
ENDBRANCH  16  17
ENDBRANCH  15  16
ENDBRANCH   7  15
ENDBRANCH   6   7
ENDBRANCH   4   6
ENDBRANCH   3   4
ENDBRANCH   2   3
ENDBRANCH   1   2
BRANCH   1  20
ATOM     20  O   UNL     1       0.128   2.859   4.146  1.00  0.00    -0.374 OA
BRANCH  20  21
ATOM     21  C   UNL     1      -0.629   2.736   2.943  1.00  0.00     0.202 C 
BRANCH  21  22
ATOM     22  C   UNL     1      -0.031   3.441   1.700  1.00  0.00     0.261 C 
BRANCH  22  23
ATOM     23  O   UNL     1       1.194   2.838   1.236  1.00  0.00    -0.460 OA
BRANCH  23  24
ATOM     24  C   UNL     1       2.243   3.656   0.969  1.00  0.00     0.338 C 
ATOM     25  O   UNL     1       2.249   4.875   1.014  1.00  0.00    -0.246 OA
BRANCH  24  26
ATOM     26  C   UNL     1       3.467   2.845   0.751  1.00  0.00     0.060 A 
ATOM     27  C   UNL     1       4.480   2.912   1.709  1.00  0.00     0.016 A 
ATOM     28  C   UNL     1       3.626   2.002  -0.354  1.00  0.00     0.016 A 
ATOM     29  C   UNL     1       5.662   2.175   1.543  1.00  0.00     0.010 A 
ATOM     30  C   UNL     1       4.775   1.195  -0.470  1.00  0.00     0.010 A 
ATOM     31  C   UNL     1       5.842   1.328   0.437  1.00  0.00    -0.014 A 
BRANCH  31  32
ATOM     32  C   UNL     1       7.215   0.804   0.129  1.00  0.00     0.031 A 
ATOM     33  C   UNL     1       7.942   1.345  -1.087  1.00  0.00     0.074 A 
ATOM     34  C   UNL     1       7.878  -0.039   0.953  1.00  0.00     0.049 A 
ATOM     35  N   UNL     1       9.184   1.162  -1.463  1.00  0.00    -0.248 NA
ATOM     36  C   UNL     1       7.169   2.202  -2.001  1.00  0.00     0.031 C 
ATOM     37  C   UNL     1       7.330  -0.668   2.154  1.00  0.00     0.029 A 
ATOM     38  N   UNL     1       9.181  -0.490   0.913  1.00  0.00    -0.354 N 
ATOM     39  C   UNL     1       9.333   1.885  -2.643  1.00  0.00     0.074 A 
ATOM     40  C   UNL     1       8.041   2.440  -2.965  1.00  0.00     0.031 C 
ATOM     41  C   UNL     1       8.296  -1.389   2.755  1.00  0.00     0.029 A 
ATOM     42  C   UNL     1       9.533  -1.287   1.980  1.00  0.00     0.049 A 
ATOM     43  H   UNL     1       9.805  -0.261   0.186  1.00  0.00     0.167 HD
ATOM     44  C   UNL     1      10.444   2.119  -3.380  1.00  0.00     0.031 A 
ATOM     45  C   UNL     1      10.713  -1.857   2.311  1.00  0.00     0.031 A 
ATOM     46  C   UNL     1      11.747   1.600  -3.080  1.00  0.00     0.049 A 
ATOM     47  C   UNL     1      11.938  -1.611   1.458  1.00  0.00     0.074 A 
ATOM     48  C   UNL     1      12.931   1.803  -3.767  1.00  0.00     0.029 A 
ATOM     49  N   UNL     1      12.040   0.779  -2.005  1.00  0.00    -0.354 N 
ATOM     50  N   UNL     1      12.060  -0.872   0.382  1.00  0.00    -0.248 NA
ATOM     51  C   UNL     1      13.190  -2.261   1.881  1.00  0.00     0.031 C 
ATOM     52  C   UNL     1      13.935   1.069  -3.130  1.00  0.00     0.029 A 
ATOM     53  C   UNL     1      13.385   0.454  -2.017  1.00  0.00     0.049 A 
ATOM     54  H   UNL     1      11.390   0.472  -1.333  1.00  0.00     0.167 HD
ATOM     55  C   UNL     1      13.403  -0.950   0.017  1.00  0.00     0.074 A 
ATOM     56  C   UNL     1      14.058  -1.790   0.995  1.00  0.00     0.031 C 
ATOM     57  C   UNL     1      14.036  -0.374  -1.036  1.00  0.00     0.031 A 
BRANCH  44  58
ATOM     58  C   UNL     1      10.285   2.996  -4.594  1.00  0.00    -0.014 A 
ATOM     59  C   UNL     1      10.054   4.378  -4.458  1.00  0.00     0.010 A 
ATOM     60  C   UNL     1      10.375   2.436  -5.880  1.00  0.00     0.010 A 
ATOM     61  C   UNL     1       9.866   5.176  -5.588  1.00  0.00     0.020 A 
ATOM     62  C   UNL     1      10.218   3.237  -7.013  1.00  0.00     0.020 A 
ATOM     63  C   UNL     1       9.944   4.599  -6.859  1.00  0.00     0.054 A 
BRANCH  63  64
ATOM     64  S   UNL     1       9.707   5.660  -8.310  1.00  0.00     0.124 S 
ATOM     65  O   UNL     1       8.264   5.888  -8.281  1.00  0.00    -0.237 OA
ATOM     66  O   UNL     1      10.533   6.823  -7.995  1.00  0.00    -0.237 OA
ATOM     67  O   UNL     1      10.186   4.841  -9.420  1.00  0.00    -0.744 OA
ENDBRANCH  63  64
ENDBRANCH  44  58
BRANCH  45  68
ATOM     68  C   UNL     1      10.819  -2.729   3.519  1.00  0.00    -0.014 A 
ATOM     69  C   UNL     1      11.562  -2.327   4.646  1.00  0.00     0.010 A 
ATOM     70  C   UNL     1      10.210  -3.997   3.528  1.00  0.00     0.010 A 
ATOM     71  C   UNL     1      11.712  -3.183   5.744  1.00  0.00     0.020 A 
ATOM     72  C   UNL     1      10.334  -4.845   4.633  1.00  0.00     0.020 A 
ATOM     73  C   UNL     1      11.096  -4.438   5.730  1.00  0.00     0.054 A 
BRANCH  73  74
ATOM     74  S   UNL     1      11.265  -5.519   7.179  1.00  0.00     0.124 S 
ATOM     75  O   UNL     1      12.636  -5.999   7.043  1.00  0.00    -0.237 OA
ATOM     76  O   UNL     1      11.024  -4.600   8.289  1.00  0.00    -0.237 OA
ATOM     77  O   UNL     1      10.225  -6.525   6.977  1.00  0.00    -0.744 OA
ENDBRANCH  73  74
ENDBRANCH  45  68
BRANCH  57  78
ATOM     78  C   UNL     1      15.519  -0.595  -1.183  1.00  0.00    -0.014 A 
ATOM     79  C   UNL     1      16.035  -1.833  -1.603  1.00  0.00     0.010 A 
ATOM     80  C   UNL     1      16.404   0.481  -0.979  1.00  0.00     0.010 A 
ATOM     81  C   UNL     1      17.410  -1.998  -1.793  1.00  0.00     0.020 A 
ATOM     82  C   UNL     1      17.777   0.327  -1.192  1.00  0.00     0.020 A 
ATOM     83  C   UNL     1      18.273  -0.917  -1.586  1.00  0.00     0.054 A 
BRANCH  83  84
ATOM     84  S   UNL     1      20.048  -1.143  -1.891  1.00  0.00     0.124 S 
ATOM     85  O   UNL     1      20.457  -1.929  -0.730  1.00  0.00    -0.237 OA
ATOM     86  O   UNL     1      20.068  -1.851  -3.168  1.00  0.00    -0.237 OA
ATOM     87  O   UNL     1      20.568   0.222  -1.934  1.00  0.00    -0.744 OA
ENDBRANCH  83  84
ENDBRANCH  57  78
ENDBRANCH  31  32
ENDBRANCH  24  26
ENDBRANCH  23  24
ENDBRANCH  22  23
ENDBRANCH  21  22
ENDBRANCH  20  21
ENDBRANCH   1  20
TORSDOF 21
