REMARK SMILES CC(C)(C[N@@H+]1C[C@@H]2C[NH2+]C[C@H]2C1(C)C)C(=O)OCCOCCOC(=O)c1ccc(-c2c3nc(c(-c4ccc(S(=O)(=O)[O-])cc4)c4ccc([nH]4)c(-c4ccc(S(=O)(=O)[O-])cc4)c4nc(c(-c5ccc(S(=O)(=O)[O-])cc5)c5ccc2[nH]5)C=C4)C=C3)cc1
REMARK SMILES IDX 21 1 20 2 19 3 18 4 17 5 15 6 16 7 2 8 1 9 3 10 4 11 5 12
REMARK SMILES IDX 6 13 12 14 7 16 11 17 13 18 14 19 8 20 10 21 9 22 22 25
REMARK SMILES IDX 23 26 24 27 25 28 26 29 27 30 85 31 28 32 84 33 29 34 30 35
REMARK SMILES IDX 31 36 78 37 32 38 83 39 77 40 79 41 33 42 82 43 76 44 75 45
REMARK SMILES IDX 34 47 64 48 45 49 63 50 46 51 49 52 62 53 80 54 47 55 48 56
REMARK SMILES IDX 61 58 81 59 50 60 35 61 36 62 44 63 37 64 43 65 38 66 39 67
REMARK SMILES IDX 40 68 41 69 42 70 65 71 66 72 74 73 67 74 73 75 68 76 69 77
REMARK SMILES IDX 70 78 71 79 72 80 51 81 52 82 60 83 53 84 59 85 54 86 55 87
REMARK SMILES IDX 56 88 57 89 58 90
REMARK H PARENT 5 15 9 23 9 24 79 46 49 57
REMARK Flexibility Score: inf
ROOT
ATOM      1  C   UNL     1       1.925  -1.928   4.325  1.00  0.00     0.202 C 
ENDROOT
BRANCH   1   2
ATOM      2  O   UNL     1       2.569  -1.135   5.310  1.00  0.00    -0.374 OA
BRANCH   2   3
ATOM      3  C   UNL     1       2.167   0.222   5.482  1.00  0.00     0.202 C 
BRANCH   3   4
ATOM      4  C   UNL     1       2.210   1.147   4.263  1.00  0.00     0.261 C 
BRANCH   4   5
ATOM      5  O   UNL     1       1.163   0.934   3.283  1.00  0.00    -0.463 OA
BRANCH   5   6
ATOM      6  C   UNL     1       1.591   0.651   2.016  1.00  0.00     0.317 C 
ATOM      7  O   UNL     1       2.733   0.281   1.761  1.00  0.00    -0.251 OA
BRANCH   6   8
ATOM      8  C   UNL     1       0.557   1.000   0.926  1.00  0.00     0.111 C 
ATOM      9  C   UNL     1       1.125   0.549  -0.441  1.00  0.00     0.029 C 
ATOM     10  C   UNL     1       0.513   2.545   0.893  1.00  0.00     0.029 C 
BRANCH   8  11
ATOM     11  C   UNL     1      -0.884   0.443   1.197  1.00  0.00     0.280 C 
BRANCH  11  12
ATOM     12  N   UNL     1      -1.299  -0.676   0.355  1.00  0.00    -0.329 N 
ATOM     13  C   UNL     1      -2.293  -0.435  -0.703  1.00  0.00     0.272 C 
ATOM     14  C   UNL     1      -1.382  -2.082   0.824  1.00  0.00     0.101 C 
ATOM     15  H   UNL     1      -0.348  -0.639  -0.014  1.00  0.00     0.348 HD
ATOM     16  C   UNL     1      -2.132  -1.748  -1.427  1.00  0.00     0.114 C 
ATOM     17  C   UNL     1      -2.232  -2.726  -0.280  1.00  0.00     0.119 C 
ATOM     18  C   UNL     1       0.024  -2.686   0.887  1.00  0.00     0.079 C 
ATOM     19  C   UNL     1      -2.155  -2.259   2.142  1.00  0.00     0.079 C 
ATOM     20  C   UNL     1      -3.106  -2.383  -2.382  1.00  0.00     0.270 C 
ATOM     21  C   UNL     1      -1.980  -4.019  -1.009  1.00  0.00     0.271 C 
ATOM     22  N   UNL     1      -2.776  -3.839  -2.260  1.00  0.00    -0.345 N 
ATOM     23  H   UNL     1      -2.229  -4.141  -3.067  1.00  0.00     0.346 HD
ATOM     24  H   UNL     1      -3.629  -4.398  -2.226  1.00  0.00     0.346 HD
ENDBRANCH  11  12
ENDBRANCH   8  11
ENDBRANCH   6   8
ENDBRANCH   5   6
ENDBRANCH   4   5
ENDBRANCH   3   4
ENDBRANCH   2   3
ENDBRANCH   1   2
BRANCH   1  25
ATOM     25  C   UNL     1       0.397  -1.998   4.339  1.00  0.00     0.261 C 
BRANCH  25  26
ATOM     26  O   UNL     1      -0.171  -1.355   5.471  1.00  0.00    -0.460 OA
BRANCH  26  27
ATOM     27  C   UNL     1      -1.473  -1.582   5.732  1.00  0.00     0.338 C 
ATOM     28  O   UNL     1      -2.221  -2.377   5.201  1.00  0.00    -0.246 OA
BRANCH  27  29
ATOM     29  C   UNL     1      -1.860  -0.592   6.747  1.00  0.00     0.060 A 
ATOM     30  C   UNL     1      -1.124  -0.515   7.932  1.00  0.00     0.016 A 
ATOM     31  C   UNL     1      -2.948   0.257   6.516  1.00  0.00     0.016 A 
ATOM     32  C   UNL     1      -1.518   0.373   8.923  1.00  0.00     0.010 A 
ATOM     33  C   UNL     1      -3.317   1.177   7.500  1.00  0.00     0.010 A 
ATOM     34  C   UNL     1      -2.630   1.206   8.723  1.00  0.00    -0.014 A 
BRANCH  34  35
ATOM     35  C   UNL     1      -3.106   2.020   9.865  1.00  0.00     0.031 A 
ATOM     36  C   UNL     1      -4.296   1.552  10.654  1.00  0.00     0.074 A 
ATOM     37  C   UNL     1      -2.402   3.098  10.253  1.00  0.00     0.049 A 
ATOM     38  N   UNL     1      -4.755   1.997  11.794  1.00  0.00    -0.248 NA
ATOM     39  C   UNL     1      -5.068   0.432  10.091  1.00  0.00     0.031 C 
ATOM     40  C   UNL     1      -1.227   3.632   9.561  1.00  0.00     0.029 A 
ATOM     41  N   UNL     1      -2.550   3.916  11.343  1.00  0.00    -0.354 N 
ATOM     42  C   UNL     1      -5.857   1.205  12.093  1.00  0.00     0.074 A 
ATOM     43  C   UNL     1      -6.027   0.282  10.992  1.00  0.00     0.031 C 
ATOM     44  C   UNL     1      -0.738   4.666  10.265  1.00  0.00     0.029 A 
ATOM     45  C   UNL     1      -1.572   4.877  11.445  1.00  0.00     0.049 A 
ATOM     46  H   UNL     1      -3.285   3.824  11.991  1.00  0.00     0.167 HD
ATOM     47  C   UNL     1      -6.646   1.235  13.193  1.00  0.00     0.031 A 
ATOM     48  C   UNL     1      -1.364   5.810  12.394  1.00  0.00     0.031 A 
ATOM     49  C   UNL     1      -6.482   2.173  14.271  1.00  0.00     0.049 A 
ATOM     50  C   UNL     1      -2.273   5.840  13.593  1.00  0.00     0.074 A 
ATOM     51  C   UNL     1      -7.222   2.290  15.434  1.00  0.00     0.029 A 
ATOM     52  N   UNL     1      -5.512   3.164  14.313  1.00  0.00    -0.354 N 
ATOM     53  N   UNL     1      -3.284   5.054  13.881  1.00  0.00    -0.248 NA
ATOM     54  C   UNL     1      -1.998   6.869  14.604  1.00  0.00     0.031 C 
ATOM     55  C   UNL     1      -6.731   3.385  16.155  1.00  0.00     0.029 A 
ATOM     56  C   UNL     1      -5.648   3.912  15.470  1.00  0.00     0.049 A 
ATOM     57  H   UNL     1      -4.827   3.314  13.621  1.00  0.00     0.167 HD
ATOM     58  C   UNL     1      -3.754   5.482  15.118  1.00  0.00     0.074 A 
ATOM     59  C   UNL     1      -2.900   6.578  15.531  1.00  0.00     0.031 C 
ATOM     60  C   UNL     1      -4.797   5.012  15.849  1.00  0.00     0.031 A 
BRANCH  47  61
ATOM     61  C   UNL     1      -7.775   0.239  13.263  1.00  0.00    -0.014 A 
ATOM     62  C   UNL     1      -7.527  -1.131  13.468  1.00  0.00     0.010 A 
ATOM     63  C   UNL     1      -9.104   0.682  13.144  1.00  0.00     0.010 A 
ATOM     64  C   UNL     1      -8.585  -2.043  13.515  1.00  0.00     0.020 A 
ATOM     65  C   UNL     1     -10.167  -0.224  13.216  1.00  0.00     0.020 A 
ATOM     66  C   UNL     1      -9.899  -1.584  13.384  1.00  0.00     0.054 A 
BRANCH  66  67
ATOM     67  S   UNL     1     -11.255  -2.786  13.464  1.00  0.00     0.124 S 
ATOM     68  O   UNL     1     -11.133  -3.464  12.176  1.00  0.00    -0.237 OA
ATOM     69  O   UNL     1     -10.903  -3.590  14.632  1.00  0.00    -0.237 OA
ATOM     70  O   UNL     1     -12.447  -1.955  13.619  1.00  0.00    -0.744 OA
ENDBRANCH  66  67
ENDBRANCH  47  61
BRANCH  48  71
ATOM     71  C   UNL     1      -0.240   6.775  12.251  1.00  0.00    -0.014 A 
ATOM     72  C   UNL     1       0.879   6.716  13.100  1.00  0.00     0.010 A 
ATOM     73  C   UNL     1      -0.281   7.756  11.243  1.00  0.00     0.010 A 
ATOM     74  C   UNL     1       1.928   7.630  12.953  1.00  0.00     0.020 A 
ATOM     75  C   UNL     1       0.777   8.653  11.076  1.00  0.00     0.020 A 
ATOM     76  C   UNL     1       1.871   8.591  11.940  1.00  0.00     0.054 A 
BRANCH  76  77
ATOM     77  S   UNL     1       3.268   9.730  11.728  1.00  0.00     0.124 S 
ATOM     78  O   UNL     1       3.084  10.648  12.847  1.00  0.00    -0.237 OA
ATOM     79  O   UNL     1       4.421   8.838  11.821  1.00  0.00    -0.237 OA
ATOM     80  O   UNL     1       3.041  10.303  10.403  1.00  0.00    -0.744 OA
ENDBRANCH  76  77
ENDBRANCH  48  71
BRANCH  60  81
ATOM     81  C   UNL     1      -5.052   5.676  17.176  1.00  0.00    -0.014 A 
ATOM     82  C   UNL     1      -5.563   6.984  17.250  1.00  0.00     0.010 A 
ATOM     83  C   UNL     1      -4.788   4.974  18.366  1.00  0.00     0.010 A 
ATOM     84  C   UNL     1      -5.751   7.599  18.490  1.00  0.00     0.020 A 
ATOM     85  C   UNL     1      -5.003   5.574  19.608  1.00  0.00     0.020 A 
ATOM     86  C   UNL     1      -5.461   6.892  19.662  1.00  0.00     0.054 A 
BRANCH  86  87
ATOM     87  S   UNL     1      -5.711   7.710  21.261  1.00  0.00     0.124 S 
ATOM     88  O   UNL     1      -4.556   8.600  21.329  1.00  0.00    -0.237 OA
ATOM     89  O   UNL     1      -7.004   8.368  21.088  1.00  0.00    -0.237 OA
ATOM     90  O   UNL     1      -5.705   6.606  22.218  1.00  0.00    -0.744 OA
ENDBRANCH  86  87
ENDBRANCH  60  81
ENDBRANCH  34  35
ENDBRANCH  27  29
ENDBRANCH  26  27
ENDBRANCH  25  26
ENDBRANCH   1  25
TORSDOF 19
