REMARK SMILES C[C@]12c3ccccc3[C@](C)(c3ccccc31)[C@@H]1C(=O)N(c3ccc(C(=O)OCCOCCOC(=O)c4ccc(-c5c6nc(c(-c7ccc(S(=O)(=O)[O-])cc7)c7ccc([nH]7)c(-c7ccc(S(=O)(=O)[O-])cc7)c7nc(c(-c8ccc(S(=O)(=O)[O-])cc8)c8ccc5[nH]8)C=C7)C=C6)cc4)cc3)C(=O)[C@H]12
REMARK SMILES IDX 31 1 30 2 29 3 28 4 27 5 25 6 26 7 24 8 21 9 22 10 97 11
REMARK SMILES IDX 23 12 96 13 20 14 1 15 2 16 16 17 3 18 100 19 15 20 11 21
REMARK SMILES IDX 8 22 4 23 17 24 98 25 14 26 12 27 9 28 7 29 5 30 18 31 99 32
REMARK SMILES IDX 13 33 10 34 6 35 19 36 32 37 33 38 34 39 35 40 36 41 37 42
REMARK SMILES IDX 95 43 38 44 94 45 39 46 40 47 41 48 88 49 42 50 93 51 87 52
REMARK SMILES IDX 89 53 43 54 92 55 86 56 85 57 44 59 74 60 55 61 73 62 56 63
REMARK SMILES IDX 59 64 72 65 90 66 57 67 58 68 71 70 91 71 60 72 45 73 46 74
REMARK SMILES IDX 54 75 47 76 53 77 48 78 49 79 50 80 51 81 52 82 75 83 76 84
REMARK SMILES IDX 84 85 77 86 83 87 78 88 79 89 80 90 81 91 82 92 61 93 62 94
REMARK SMILES IDX 70 95 63 96 69 97 64 98 65 99 66 100 67 101 68 102
REMARK H PARENT 89 58 59 69
REMARK Flexibility Score: inf
ROOT
ATOM      1  C   UNL     1      -2.031   8.620   2.568  1.00  0.00     0.202 C 
ENDROOT
BRANCH   1   2
ATOM      2  O   UNL     1      -2.900   9.664   3.006  1.00  0.00    -0.374 OA
BRANCH   2   3
ATOM      3  C   UNL     1      -2.955   9.938   4.406  1.00  0.00     0.202 C 
BRANCH   3   4
ATOM      4  C   UNL     1      -3.775   8.985   5.283  1.00  0.00     0.261 C 
BRANCH   4   5
ATOM      5  O   UNL     1      -3.273   7.640   5.235  1.00  0.00    -0.460 OA
BRANCH   5   6
ATOM      6  C   UNL     1      -4.061   6.764   4.564  1.00  0.00     0.338 C 
ATOM      7  O   UNL     1      -5.174   6.971   4.109  1.00  0.00    -0.246 OA
BRANCH   6   8
ATOM      8  C   UNL     1      -3.297   5.534   4.260  1.00  0.00     0.060 A 
ATOM      9  C   UNL     1      -1.953   3.181   3.558  1.00  0.00     0.052 A 
ATOM     10  C   UNL     1      -2.735   3.845   2.610  1.00  0.00     0.028 A 
ATOM     11  C   UNL     1      -1.814   3.724   4.846  1.00  0.00     0.028 A 
ATOM     12  C   UNL     1      -3.437   4.995   2.973  1.00  0.00     0.018 A 
ATOM     13  C   UNL     1      -2.454   4.921   5.188  1.00  0.00     0.018 A 
BRANCH   9  14
ATOM     14  N   UNL     1      -1.343   1.957   3.235  1.00  0.00    -0.250 N 
ATOM     15  C   UNL     1       1.019  -0.088  -0.053  1.00  0.00     0.022 C 
ATOM     16  C   UNL     1       0.622  -0.647   1.312  1.00  0.00     0.030 C 
ATOM     17  C   UNL     1       1.805  -0.980   2.264  1.00  0.00    -0.033 A 
ATOM     18  C   UNL     1      -0.180  -1.988   1.246  1.00  0.00    -0.033 A 
ATOM     19  C   UNL     1      -0.438   0.233   2.027  1.00  0.00     0.108 C 
ATOM     20  C   UNL     1       3.156  -0.797   1.994  1.00  0.00     0.005 A 
ATOM     21  C   UNL     1       1.407  -1.585   3.510  1.00  0.00    -0.033 A 
ATOM     22  C   UNL     1      -0.666  -2.423   2.527  1.00  0.00    -0.033 A 
ATOM     23  C   UNL     1      -0.446  -2.732   0.099  1.00  0.00     0.005 A 
ATOM     24  C   UNL     1      -0.382  -0.076   3.526  1.00  0.00     0.108 C 
ATOM     25  C   UNL     1      -0.591   1.725   2.078  1.00  0.00     0.238 C 
ATOM     26  C   UNL     1       4.101  -1.227   2.931  1.00  0.00     0.000 A 
ATOM     27  C   UNL     1       2.359  -2.024   4.425  1.00  0.00     0.005 A 
ATOM     28  C   UNL     1      -0.140  -1.590   3.724  1.00  0.00     0.030 C 
ATOM     29  C   UNL     1      -1.444  -3.574   2.610  1.00  0.00     0.005 A 
ATOM     30  C   UNL     1      -1.214  -3.891   0.208  1.00  0.00     0.000 A 
ATOM     31  C   UNL     1      -1.464   0.814   4.031  1.00  0.00     0.238 C 
ATOM     32  O   UNL     1      -0.239   2.512   1.216  1.00  0.00    -0.274 OA
ATOM     33  C   UNL     1       3.708  -1.844   4.126  1.00  0.00     0.000 A 
ATOM     34  C   UNL     1      -0.601  -2.067   5.099  1.00  0.00     0.022 C 
ATOM     35  C   UNL     1      -1.719  -4.301   1.448  1.00  0.00     0.000 A 
ATOM     36  O   UNL     1      -2.196   0.601   4.980  1.00  0.00    -0.274 OA
ENDBRANCH   9  14
ENDBRANCH   6   8
ENDBRANCH   5   6
ENDBRANCH   4   5
ENDBRANCH   3   4
ENDBRANCH   2   3
ENDBRANCH   1   2
BRANCH   1  37
ATOM     37  C   UNL     1      -0.524   8.908   2.533  1.00  0.00     0.261 C 
BRANCH  37  38
ATOM     38  O   UNL     1       0.028   9.134   3.840  1.00  0.00    -0.460 OA
BRANCH  38  39
ATOM     39  C   UNL     1       0.340  10.424   4.114  1.00  0.00     0.338 C 
ATOM     40  O   UNL     1       0.245  11.382   3.360  1.00  0.00    -0.246 OA
BRANCH  39  41
ATOM     41  C   UNL     1       0.634  10.559   5.554  1.00  0.00     0.060 A 
ATOM     42  C   UNL     1       1.545   9.718   6.194  1.00  0.00     0.016 A 
ATOM     43  C   UNL     1      -0.012  11.579   6.266  1.00  0.00     0.016 A 
ATOM     44  C   UNL     1       1.831   9.924   7.546  1.00  0.00     0.010 A 
ATOM     45  C   UNL     1       0.280  11.786   7.614  1.00  0.00     0.010 A 
ATOM     46  C   UNL     1       1.220  10.972   8.261  1.00  0.00    -0.014 A 
BRANCH  46  47
ATOM     47  C   UNL     1       1.674  11.297   9.637  1.00  0.00     0.031 A 
ATOM     48  C   UNL     1       0.819  11.021  10.837  1.00  0.00     0.074 A 
ATOM     49  C   UNL     1       2.888  11.864   9.790  1.00  0.00     0.049 A 
ATOM     50  N   UNL     1       1.122  11.155  12.102  1.00  0.00    -0.248 NA
ATOM     51  C   UNL     1      -0.549  10.539  10.594  1.00  0.00     0.031 C 
ATOM     52  C   UNL     1       3.788  12.215   8.689  1.00  0.00     0.029 A 
ATOM     53  N   UNL     1       3.582  12.228  10.917  1.00  0.00    -0.354 N 
ATOM     54  C   UNL     1      -0.004  10.756  12.810  1.00  0.00     0.074 A 
ATOM     55  C   UNL     1      -1.019  10.426  11.831  1.00  0.00     0.031 C 
ATOM     56  C   UNL     1       4.932  12.695   9.196  1.00  0.00     0.029 A 
ATOM     57  C   UNL     1       4.836  12.727  10.653  1.00  0.00     0.049 A 
ATOM     58  H   UNL     1       3.216  12.140  11.827  1.00  0.00     0.167 HD
ATOM     59  C   UNL     1      -0.163  10.655  14.151  1.00  0.00     0.031 A 
ATOM     60  C   UNL     1       5.810  13.154  11.483  1.00  0.00     0.031 A 
ATOM     61  C   UNL     1       0.854  11.005  15.113  1.00  0.00     0.049 A 
ATOM     62  C   UNL     1       5.597  13.063  12.968  1.00  0.00     0.074 A 
ATOM     63  C   UNL     1       0.799  10.891  16.492  1.00  0.00     0.029 A 
ATOM     64  N   UNL     1       2.096  11.543  14.809  1.00  0.00    -0.354 N 
ATOM     65  N   UNL     1       4.560  12.592  13.620  1.00  0.00    -0.248 NA
ATOM     66  C   UNL     1       6.686  13.538  13.832  1.00  0.00     0.031 C 
ATOM     67  C   UNL     1       1.967  11.439  17.024  1.00  0.00     0.029 A 
ATOM     68  C   UNL     1       2.797  11.805  15.976  1.00  0.00     0.049 A 
ATOM     69  H   UNL     1       2.431  11.714  13.899  1.00  0.00     0.167 HD
ATOM     70  C   UNL     1       4.880  12.697  14.970  1.00  0.00     0.074 A 
ATOM     71  C   UNL     1       6.215  13.253  15.040  1.00  0.00     0.031 C 
ATOM     72  C   UNL     1       4.128  12.363  16.047  1.00  0.00     0.031 A 
BRANCH  59  73
ATOM     73  C   UNL     1      -1.472  10.125  14.685  1.00  0.00    -0.014 A 
ATOM     74  C   UNL     1      -2.283  10.940  15.498  1.00  0.00     0.010 A 
ATOM     75  C   UNL     1      -1.827   8.775  14.507  1.00  0.00     0.010 A 
ATOM     76  C   UNL     1      -3.396  10.408  16.156  1.00  0.00     0.020 A 
ATOM     77  C   UNL     1      -2.959   8.247  15.136  1.00  0.00     0.020 A 
ATOM     78  C   UNL     1      -3.720   9.060  15.979  1.00  0.00     0.054 A 
BRANCH  78  79
ATOM     79  S   UNL     1      -5.139   8.376  16.879  1.00  0.00     0.124 S 
ATOM     80  O   UNL     1      -4.641   8.328  18.250  1.00  0.00    -0.237 OA
ATOM     81  O   UNL     1      -6.185   9.363  16.620  1.00  0.00    -0.237 OA
ATOM     82  O   UNL     1      -5.351   7.076  16.246  1.00  0.00    -0.744 OA
ENDBRANCH  78  79
ENDBRANCH  59  73
BRANCH  60  83
ATOM     83  C   UNL     1       7.092  13.641  10.899  1.00  0.00    -0.014 A 
ATOM     84  C   UNL     1       7.118  14.806  10.108  1.00  0.00     0.010 A 
ATOM     85  C   UNL     1       8.271  12.887  11.038  1.00  0.00     0.010 A 
ATOM     86  C   UNL     1       8.273  15.166   9.410  1.00  0.00     0.020 A 
ATOM     87  C   UNL     1       9.441  13.266  10.371  1.00  0.00     0.020 A 
ATOM     88  C   UNL     1       9.422  14.383   9.533  1.00  0.00     0.054 A 
BRANCH  88  89
ATOM     89  S   UNL     1      10.882  14.825   8.550  1.00  0.00     0.124 S 
ATOM     90  O   UNL     1      10.461  14.444   7.204  1.00  0.00    -0.237 OA
ATOM     91  O   UNL     1      11.003  16.260   8.790  1.00  0.00    -0.237 OA
ATOM     92  O   UNL     1      11.945  14.006   9.127  1.00  0.00    -0.744 OA
ENDBRANCH  88  89
ENDBRANCH  60  83
BRANCH  72  93
ATOM     93  C   UNL     1       4.708  12.585  17.424  1.00  0.00    -0.014 A 
ATOM     94  C   UNL     1       4.933  11.483  18.273  1.00  0.00     0.010 A 
ATOM     95  C   UNL     1       4.890  13.883  17.933  1.00  0.00     0.010 A 
ATOM     96  C   UNL     1       5.278  11.676  19.614  1.00  0.00     0.020 A 
ATOM     97  C   UNL     1       5.272  14.079  19.264  1.00  0.00     0.020 A 
ATOM     98  C   UNL     1       5.433  12.974  20.104  1.00  0.00     0.054 A 
BRANCH  98  99
ATOM     99  S   UNL     1       5.825  13.203  21.860  1.00  0.00     0.124 S 
ATOM    100  O   UNL     1       4.559  12.866  22.505  1.00  0.00    -0.237 OA
ATOM    101  O   UNL     1       6.913  12.252  22.072  1.00  0.00    -0.237 OA
ATOM    102  O   UNL     1       6.212  14.610  21.946  1.00  0.00    -0.744 OA
ENDBRANCH  98  99
ENDBRANCH  72  93
ENDBRANCH  46  47
ENDBRANCH  39  41
ENDBRANCH  38  39
ENDBRANCH  37  38
ENDBRANCH   1  37
TORSDOF 18
