REMARK SMILES CCOc1ccccc1-c1cc(C(=O)OCCOCCOC(=O)c2ccc(-c3c4nc(c(-c5ccc(S(=O)(=O)[O-])cc5)c5ccc([nH]5)c(-c5ccc(S(=O)(=O)[O-])cc5)c5nc(c(-c6ccc(S(=O)(=O)[O-])cc6)c6ccc3[nH]6)C=C5)C=C4)cc2)c2cc(C)cc(C)c2n1
REMARK SMILES IDX 18 1 17 2 16 3 15 4 13 5 14 6 12 7 10 8 11 9 92 10 91 11
REMARK SMILES IDX 84 12 89 13 85 14 88 15 90 16 86 17 87 18 9 19 4 20 5 21
REMARK SMILES IDX 6 22 8 23 7 24 3 25 2 26 1 27 19 28 20 29 21 30 22 31 23 32
REMARK SMILES IDX 24 33 25 34 83 35 26 36 82 37 27 38 28 39 29 40 76 41 30 42
REMARK SMILES IDX 81 43 75 44 77 45 31 46 80 47 74 48 73 49 32 51 62 52 43 53
REMARK SMILES IDX 61 54 44 55 47 56 60 57 78 58 45 59 46 60 59 62 79 63 48 64
REMARK SMILES IDX 33 65 34 66 42 67 35 68 41 69 36 70 37 71 38 72 39 73 40 74
REMARK SMILES IDX 63 75 64 76 72 77 65 78 71 79 66 80 67 81 68 82 69 83 70 84
REMARK SMILES IDX 49 85 50 86 58 87 51 88 57 89 52 90 53 91 54 92 55 93 56 94
REMARK H PARENT 77 50 47 61
REMARK Flexibility Score: inf
ROOT
ATOM      1  O   UNL     1      -3.054  -1.253  -1.770  1.00  0.00    -0.374 OA
ENDROOT
BRANCH   1   2
ATOM      2  C   UNL     1      -3.287   0.079  -1.308  1.00  0.00     0.202 C 
BRANCH   2   3
ATOM      3  C   UNL     1      -3.007   0.290   0.179  1.00  0.00     0.261 C 
BRANCH   3   4
ATOM      4  O   UNL     1      -1.647  -0.044   0.513  1.00  0.00    -0.460 OA
BRANCH   4   5
ATOM      5  C   UNL     1      -1.519  -1.236   1.144  1.00  0.00     0.338 C 
ATOM      6  O   UNL     1      -2.435  -1.982   1.456  1.00  0.00    -0.246 OA
BRANCH   5   7
ATOM      7  C   UNL     1      -0.111  -1.572   1.445  1.00  0.00     0.071 A 
ATOM      8  C   UNL     1       2.138  -1.108   1.933  1.00  0.00     0.076 A 
ATOM      9  C   UNL     1       0.901  -0.618   1.565  1.00  0.00     0.045 A 
ATOM     10  N   UNL     1       2.166  -2.219   2.700  1.00  0.00    -0.247 NA
ATOM     11  C   UNL     1       1.408  -3.221   2.256  1.00  0.00     0.075 A 
ATOM     12  C   UNL     1       0.253  -2.933   1.523  1.00  0.00     0.015 A 
ATOM     13  C   UNL     1       1.870  -4.532   2.349  1.00  0.00    -0.024 A 
ATOM     14  C   UNL     1      -0.340  -3.955   0.751  1.00  0.00     0.014 A 
ATOM     15  C   UNL     1       1.321  -5.516   1.514  1.00  0.00     0.009 A 
ATOM     16  C   UNL     1       3.075  -4.871   3.182  1.00  0.00     0.047 C 
ATOM     17  C   UNL     1       0.255  -5.214   0.665  1.00  0.00    -0.050 A 
ATOM     18  C   UNL     1      -0.128  -6.139  -0.452  1.00  0.00     0.044 C 
BRANCH   8  19
ATOM     19  C   UNL     1       3.305  -1.200   0.988  1.00  0.00     0.042 A 
ATOM     20  C   UNL     1       3.134  -1.701  -0.325  1.00  0.00     0.128 A 
ATOM     21  C   UNL     1       4.118  -2.499  -0.925  1.00  0.00     0.047 A 
ATOM     22  C   UNL     1       5.338  -2.699  -0.290  1.00  0.00     0.004 A 
ATOM     23  C   UNL     1       4.594  -1.314   1.551  1.00  0.00     0.014 A 
ATOM     24  C   UNL     1       5.596  -2.062   0.920  1.00  0.00     0.001 A 
BRANCH  20  25
ATOM     25  O   UNL     1       1.919  -1.606  -0.961  1.00  0.00    -0.493 OA
BRANCH  25  26
ATOM     26  C   UNL     1       2.000  -0.785  -2.133  1.00  0.00     0.226 C 
ATOM     27  C   UNL     1       1.668   0.655  -1.787  1.00  0.00     0.049 C 
ENDBRANCH  25  26
ENDBRANCH  20  25
ENDBRANCH   8  19
ENDBRANCH   5   7
ENDBRANCH   4   5
ENDBRANCH   3   4
ENDBRANCH   2   3
ENDBRANCH   1   2
BRANCH   1  28
ATOM     28  C   UNL     1      -1.755  -1.479  -2.326  1.00  0.00     0.202 C 
BRANCH  28  29
ATOM     29  C   UNL     1      -1.632  -1.050  -3.794  1.00  0.00     0.261 C 
BRANCH  29  30
ATOM     30  O   UNL     1      -1.586   0.388  -3.899  1.00  0.00    -0.460 OA
BRANCH  30  31
ATOM     31  C   UNL     1      -2.646   0.946  -4.535  1.00  0.00     0.338 C 
ATOM     32  O   UNL     1      -3.510   0.366  -5.167  1.00  0.00    -0.246 OA
BRANCH  31  33
ATOM     33  C   UNL     1      -2.736   2.384  -4.198  1.00  0.00     0.060 A 
ATOM     34  C   UNL     1      -3.992   2.868  -3.809  1.00  0.00     0.016 A 
ATOM     35  C   UNL     1      -1.647   3.253  -4.301  1.00  0.00     0.016 A 
ATOM     36  C   UNL     1      -4.178   4.229  -3.581  1.00  0.00     0.010 A 
ATOM     37  C   UNL     1      -1.838   4.623  -4.076  1.00  0.00     0.010 A 
ATOM     38  C   UNL     1      -3.113   5.122  -3.754  1.00  0.00    -0.014 A 
BRANCH  38  39
ATOM     39  C   UNL     1      -3.383   6.582  -3.747  1.00  0.00     0.031 A 
ATOM     40  C   UNL     1      -3.526   7.305  -5.061  1.00  0.00     0.074 A 
ATOM     41  C   UNL     1      -3.558   7.248  -2.590  1.00  0.00     0.049 A 
ATOM     42  N   UNL     1      -3.781   8.568  -5.288  1.00  0.00    -0.248 NA
ATOM     43  C   UNL     1      -3.363   6.495  -6.279  1.00  0.00     0.031 C 
ATOM     44  C   UNL     1      -3.492   6.656  -1.255  1.00  0.00     0.029 A 
ATOM     45  N   UNL     1      -3.833   8.573  -2.357  1.00  0.00    -0.354 N 
ATOM     46  C   UNL     1      -3.805   8.706  -6.671  1.00  0.00     0.074 A 
ATOM     47  C   UNL     1      -3.509   7.405  -7.231  1.00  0.00     0.031 C 
ATOM     48  C   UNL     1      -3.720   7.615  -0.341  1.00  0.00     0.029 A 
ATOM     49  C   UNL     1      -3.919   8.893  -1.023  1.00  0.00     0.049 A 
ATOM     50  H   UNL     1      -3.957   9.232  -3.078  1.00  0.00     0.167 HD
ATOM     51  C   UNL     1      -4.058   9.812  -7.410  1.00  0.00     0.031 A 
ATOM     52  C   UNL     1      -4.121  10.081  -0.419  1.00  0.00     0.031 A 
ATOM     53  C   UNL     1      -4.342  11.108  -6.854  1.00  0.00     0.049 A 
ATOM     54  C   UNL     1      -4.332  11.313  -1.261  1.00  0.00     0.074 A 
ATOM     55  C   UNL     1      -4.620  12.289  -7.522  1.00  0.00     0.029 A 
ATOM     56  N   UNL     1      -4.378  11.397  -5.499  1.00  0.00    -0.354 N 
ATOM     57  N   UNL     1      -4.371  11.420  -2.568  1.00  0.00    -0.248 NA
ATOM     58  C   UNL     1      -4.535  12.581  -0.546  1.00  0.00     0.031 C 
ATOM     59  C   UNL     1      -4.773  13.303  -6.570  1.00  0.00     0.029 A 
ATOM     60  C   UNL     1      -4.649  12.742  -5.309  1.00  0.00     0.049 A 
ATOM     61  H   UNL     1      -4.233  10.743  -4.778  1.00  0.00     0.167 HD
ATOM     62  C   UNL     1      -4.632  12.762  -2.830  1.00  0.00     0.074 A 
ATOM     63  C   UNL     1      -4.750  13.424  -1.548  1.00  0.00     0.031 C 
ATOM     64  C   UNL     1      -4.766  13.388  -4.026  1.00  0.00     0.031 A 
BRANCH  51  65
ATOM     65  C   UNL     1      -4.004   9.674  -8.909  1.00  0.00    -0.014 A 
ATOM     66  C   UNL     1      -5.010   8.990  -9.615  1.00  0.00     0.010 A 
ATOM     67  C   UNL     1      -2.948  10.267  -9.624  1.00  0.00     0.010 A 
ATOM     68  C   UNL     1      -4.940   8.869 -11.006  1.00  0.00     0.020 A 
ATOM     69  C   UNL     1      -2.888  10.170 -11.017  1.00  0.00     0.020 A 
ATOM     70  C   UNL     1      -3.876   9.457 -11.697  1.00  0.00     0.054 A 
BRANCH  70  71
ATOM     71  S   UNL     1      -3.817   9.298 -13.504  1.00  0.00     0.124 S 
ATOM     72  O   UNL     1      -3.426   7.900 -13.669  1.00  0.00    -0.237 OA
ATOM     73  O   UNL     1      -5.186   9.618 -13.899  1.00  0.00    -0.237 OA
ATOM     74  O   UNL     1      -2.810  10.277 -13.905  1.00  0.00    -0.744 OA
ENDBRANCH  70  71
ENDBRANCH  51  65
BRANCH  52  75
ATOM     75  C   UNL     1      -4.116  10.168   1.067  1.00  0.00    -0.014 A 
ATOM     76  C   UNL     1      -5.299  10.431   1.778  1.00  0.00     0.010 A 
ATOM     77  C   UNL     1      -2.916   9.985   1.779  1.00  0.00     0.010 A 
ATOM     78  C   UNL     1      -5.280  10.523   3.174  1.00  0.00     0.020 A 
ATOM     79  C   UNL     1      -2.898  10.049   3.175  1.00  0.00     0.020 A 
ATOM     80  C   UNL     1      -4.080  10.329   3.863  1.00  0.00     0.054 A 
BRANCH  80  81
ATOM     81  S   UNL     1      -4.087  10.396   5.677  1.00  0.00     0.124 S 
ATOM     82  O   UNL     1      -4.200  11.829   5.926  1.00  0.00    -0.237 OA
ATOM     83  O   UNL     1      -5.262   9.598   6.018  1.00  0.00    -0.237 OA
ATOM     84  O   UNL     1      -2.807   9.794   6.045  1.00  0.00    -0.744 OA
ENDBRANCH  80  81
ENDBRANCH  52  75
BRANCH  64  85
ATOM     85  C   UNL     1      -5.094  14.857  -4.012  1.00  0.00    -0.014 A 
ATOM     86  C   UNL     1      -4.130  15.818  -3.662  1.00  0.00     0.010 A 
ATOM     87  C   UNL     1      -6.372  15.285  -4.417  1.00  0.00     0.010 A 
ATOM     88  C   UNL     1      -4.446  17.180  -3.691  1.00  0.00     0.020 A 
ATOM     89  C   UNL     1      -6.685  16.645  -4.472  1.00  0.00     0.020 A 
ATOM     90  C   UNL     1      -5.723  17.584  -4.096  1.00  0.00     0.054 A 
BRANCH  90  91
ATOM     91  S   UNL     1      -6.095  19.358  -4.171  1.00  0.00     0.124 S 
ATOM     92  O   UNL     1      -6.242  19.699  -2.759  1.00  0.00    -0.237 OA
ATOM     93  O   UNL     1      -4.912  19.907  -4.830  1.00  0.00    -0.237 OA
ATOM     94  O   UNL     1      -7.324  19.421  -4.959  1.00  0.00    -0.744 OA
ENDBRANCH  90  91
ENDBRANCH  64  85
ENDBRANCH  38  39
ENDBRANCH  31  33
ENDBRANCH  30  31
ENDBRANCH  29  30
ENDBRANCH  28  29
ENDBRANCH   1  28
TORSDOF 20
