REMARK SMILES Cc1cc2c(=O)c3ccccc3oc2c(C(=O)OCCOCCOC(=O)c2ccc(-c3c4nc(c(-c5ccc(S(=O)(=O)[O-])cc5)c5ccc([nH]5)c(-c5ccc(S(=O)(=O)[O-])cc5)c5nc(c(-c6ccc(S(=O)(=O)[O-])cc6)c6ccc3[nH]6)C=C5)C=C4)cc2)c1C
REMARK SMILES IDX 22 1 21 2 20 3 19 4 18 5 16 6 17 7 15 8 1 9 2 10 3 11 87 12
REMARK SMILES IDX 4 13 88 14 5 15 14 16 6 17 7 18 13 19 8 20 12 21 9 22 11 23
REMARK SMILES IDX 10 24 23 25 24 26 25 27 26 28 27 29 28 30 86 31 29 32 85 33
REMARK SMILES IDX 30 34 31 35 32 36 79 37 33 38 84 39 78 40 80 41 34 42 83 43
REMARK SMILES IDX 77 44 76 45 35 47 65 48 46 49 64 50 47 51 50 52 63 53 81 54
REMARK SMILES IDX 48 55 49 56 62 58 82 59 51 60 36 61 37 62 45 63 38 64 44 65
REMARK SMILES IDX 39 66 40 67 41 68 42 69 43 70 66 71 67 72 75 73 68 74 74 75
REMARK SMILES IDX 69 76 70 77 71 78 72 79 73 80 52 81 53 82 61 83 54 84 60 85
REMARK SMILES IDX 55 86 56 87 57 88 58 89 59 90
REMARK H PARENT 80 46 50 57
REMARK Flexibility Score: inf
ROOT
ATOM      1  C   UNL     1      -3.612   4.165   2.123  1.00  0.00     0.202 C 
ENDROOT
BRANCH   1   2
ATOM      2  O   UNL     1      -4.882   4.399   1.515  1.00  0.00    -0.374 OA
BRANCH   2   3
ATOM      3  C   UNL     1      -5.522   3.306   0.856  1.00  0.00     0.202 C 
BRANCH   3   4
ATOM      4  C   UNL     1      -4.934   2.865  -0.485  1.00  0.00     0.261 C 
BRANCH   4   5
ATOM      5  O   UNL     1      -3.579   2.423  -0.316  1.00  0.00    -0.460 OA
BRANCH   5   6
ATOM      6  C   UNL     1      -2.651   3.094  -1.036  1.00  0.00     0.342 C 
ATOM      7  O   UNL     1      -2.874   3.938  -1.890  1.00  0.00    -0.246 OA
BRANCH   6   8
ATOM      8  C   UNL     1      -1.273   2.754  -0.580  1.00  0.00     0.106 A 
ATOM      9  C   UNL     1       1.113  -0.205  -0.008  1.00  0.00     0.044 C 
ATOM     10  C   UNL     1       0.548   1.182  -0.170  1.00  0.00    -0.046 A 
ATOM     11  C   UNL     1       1.441   2.265  -0.130  1.00  0.00     0.019 A 
ATOM     12  C   UNL     1      -0.834   1.419  -0.373  1.00  0.00    -0.030 A 
ATOM     13  C   UNL     1       0.976   3.575  -0.242  1.00  0.00     0.067 A 
ATOM     14  C   UNL     1      -1.822   0.277  -0.316  1.00  0.00     0.046 C 
ATOM     15  C   UNL     1       1.919   4.703  -0.162  1.00  0.00     0.200 A 
ATOM     16  C   UNL     1      -0.375   3.833  -0.438  1.00  0.00     0.153 A 
ATOM     17  O   UNL     1       3.127   4.528  -0.066  1.00  0.00    -0.288 OA
ATOM     18  C   UNL     1       1.341   6.052  -0.178  1.00  0.00     0.065 A 
ATOM     19  O   UNL     1      -0.891   5.112  -0.437  1.00  0.00    -0.455 OA
ATOM     20  C   UNL     1       2.155   7.185  -0.074  1.00  0.00     0.016 A 
ATOM     21  C   UNL     1      -0.041   6.175  -0.272  1.00  0.00     0.138 A 
ATOM     22  C   UNL     1       1.571   8.451  -0.037  1.00  0.00     0.001 A 
ATOM     23  C   UNL     1      -0.623   7.443  -0.213  1.00  0.00     0.048 A 
ATOM     24  C   UNL     1       0.182   8.579  -0.092  1.00  0.00     0.004 A 
ENDBRANCH   6   8
ENDBRANCH   5   6
ENDBRANCH   4   5
ENDBRANCH   3   4
ENDBRANCH   2   3
ENDBRANCH   1   2
BRANCH   1  25
ATOM     25  C   UNL     1      -3.582   3.372   3.437  1.00  0.00     0.261 C 
BRANCH  25  26
ATOM     26  O   UNL     1      -4.048   2.020   3.299  1.00  0.00    -0.460 OA
BRANCH  26  27
ATOM     27  C   UNL     1      -5.274   1.780   3.829  1.00  0.00     0.338 C 
ATOM     28  O   UNL     1      -5.993   2.576   4.414  1.00  0.00    -0.246 OA
BRANCH  27  29
ATOM     29  C   UNL     1      -5.726   0.436   3.424  1.00  0.00     0.060 A 
ATOM     30  C   UNL     1      -4.966  -0.700   3.703  1.00  0.00     0.016 A 
ATOM     31  C   UNL     1      -6.963   0.321   2.775  1.00  0.00     0.016 A 
ATOM     32  C   UNL     1      -5.457  -1.958   3.343  1.00  0.00     0.010 A 
ATOM     33  C   UNL     1      -7.450  -0.936   2.416  1.00  0.00     0.010 A 
ATOM     34  C   UNL     1      -6.707  -2.088   2.709  1.00  0.00    -0.014 A 
BRANCH  34  35
ATOM     35  C   UNL     1      -7.282  -3.432   2.448  1.00  0.00     0.031 A 
ATOM     36  C   UNL     1      -7.369  -3.987   1.056  1.00  0.00     0.074 A 
ATOM     37  C   UNL     1      -7.746  -4.150   3.490  1.00  0.00     0.049 A 
ATOM     38  N   UNL     1      -7.787  -5.165   0.671  1.00  0.00    -0.248 NA
ATOM     39  C   UNL     1      -6.936  -3.113  -0.045  1.00  0.00     0.031 C 
ATOM     40  C   UNL     1      -7.736  -3.701   4.883  1.00  0.00     0.029 A 
ATOM     41  N   UNL     1      -8.302  -5.405   3.549  1.00  0.00    -0.354 N 
ATOM     42  C   UNL     1      -7.650  -5.186  -0.711  1.00  0.00     0.074 A 
ATOM     43  C   UNL     1      -7.159  -3.883  -1.104  1.00  0.00     0.031 C 
ATOM     44  C   UNL     1      -8.223  -4.678   5.662  1.00  0.00     0.029 A 
ATOM     45  C   UNL     1      -8.621  -5.808   4.825  1.00  0.00     0.049 A 
ATOM     46  H   UNL     1      -8.457  -5.963   2.753  1.00  0.00     0.167 HD
ATOM     47  C   UNL     1      -7.891  -6.210  -1.565  1.00  0.00     0.031 A 
ATOM     48  C   UNL     1      -9.168  -6.955   5.279  1.00  0.00     0.031 A 
ATOM     49  C   UNL     1      -8.393  -7.499  -1.159  1.00  0.00     0.049 A 
ATOM     50  C   UNL     1      -9.474  -8.057   4.302  1.00  0.00     0.074 A 
ATOM     51  C   UNL     1      -8.631  -8.609  -1.952  1.00  0.00     0.029 A 
ATOM     52  N   UNL     1      -8.740  -7.855   0.137  1.00  0.00    -0.354 N 
ATOM     53  N   UNL     1      -9.260  -8.089   3.009  1.00  0.00    -0.248 NA
ATOM     54  C   UNL     1     -10.078  -9.284   4.842  1.00  0.00     0.031 C 
ATOM     55  C   UNL     1      -9.200  -9.603  -1.155  1.00  0.00     0.029 A 
ATOM     56  C   UNL     1      -9.227  -9.153   0.155  1.00  0.00     0.049 A 
ATOM     57  H   UNL     1      -8.653  -7.273   0.925  1.00  0.00     0.167 HD
ATOM     58  C   UNL     1      -9.678  -9.346   2.584  1.00  0.00     0.074 A 
ATOM     59  C   UNL     1     -10.141 -10.052   3.761  1.00  0.00     0.031 C 
ATOM     60  C   UNL     1      -9.679  -9.861   1.330  1.00  0.00     0.031 A 
BRANCH  47  61
ATOM     61  C   UNL     1      -7.597  -6.012  -3.031  1.00  0.00    -0.014 A 
ATOM     62  C   UNL     1      -8.640  -6.086  -3.975  1.00  0.00     0.010 A 
ATOM     63  C   UNL     1      -6.270  -5.920  -3.489  1.00  0.00     0.010 A 
ATOM     64  C   UNL     1      -8.360  -6.121  -5.344  1.00  0.00     0.020 A 
ATOM     65  C   UNL     1      -5.988  -5.921  -4.859  1.00  0.00     0.020 A 
ATOM     66  C   UNL     1      -7.033  -6.051  -5.776  1.00  0.00     0.054 A 
BRANCH  66  67
ATOM     67  S   UNL     1      -6.685  -6.159  -7.553  1.00  0.00     0.124 S 
ATOM     68  O   UNL     1      -6.973  -7.561  -7.840  1.00  0.00    -0.237 OA
ATOM     69  O   UNL     1      -7.622  -5.192  -8.119  1.00  0.00    -0.237 OA
ATOM     70  O   UNL     1      -5.277  -5.778  -7.650  1.00  0.00    -0.744 OA
ENDBRANCH  66  67
ENDBRANCH  47  61
BRANCH  48  71
ATOM     71  C   UNL     1      -9.404  -7.118   6.742  1.00  0.00    -0.014 A 
ATOM     72  C   UNL     1     -10.328  -6.294   7.413  1.00  0.00     0.010 A 
ATOM     73  C   UNL     1      -8.645  -8.036   7.490  1.00  0.00     0.010 A 
ATOM     74  C   UNL     1     -10.441  -6.336   8.805  1.00  0.00     0.020 A 
ATOM     75  C   UNL     1      -8.783  -8.108   8.880  1.00  0.00     0.020 A 
ATOM     76  C   UNL     1      -9.656  -7.234   9.531  1.00  0.00     0.054 A 
BRANCH  76  77
ATOM     77  S   UNL     1      -9.773  -7.223  11.341  1.00  0.00     0.124 S 
ATOM     78  O   UNL     1      -9.089  -5.977  11.677  1.00  0.00    -0.237 OA
ATOM     79  O   UNL     1     -11.216  -7.229  11.565  1.00  0.00    -0.237 OA
ATOM     80  O   UNL     1      -9.078  -8.444  11.738  1.00  0.00    -0.744 OA
ENDBRANCH  76  77
ENDBRANCH  48  71
BRANCH  60  81
ATOM     81  C   UNL     1     -10.187 -11.268   1.125  1.00  0.00    -0.014 A 
ATOM     82  C   UNL     1      -9.311 -12.262   0.646  1.00  0.00     0.010 A 
ATOM     83  C   UNL     1     -11.556 -11.566   1.243  1.00  0.00     0.010 A 
ATOM     84  C   UNL     1      -9.801 -13.504   0.233  1.00  0.00     0.020 A 
ATOM     85  C   UNL     1     -12.045 -12.822   0.865  1.00  0.00     0.020 A 
ATOM     86  C   UNL     1     -11.168 -13.770   0.331  1.00  0.00     0.054 A 
BRANCH  86  87
ATOM     87  S   UNL     1     -11.793 -15.359  -0.281  1.00  0.00     0.124 S 
ATOM     88  O   UNL     1     -11.680 -15.198  -1.728  1.00  0.00    -0.237 OA
ATOM     89  O   UNL     1     -10.870 -16.318   0.320  1.00  0.00    -0.237 OA
ATOM     90  O   UNL     1     -13.159 -15.414   0.235  1.00  0.00    -0.744 OA
ENDBRANCH  86  87
ENDBRANCH  60  81
ENDBRANCH  34  35
ENDBRANCH  27  29
ENDBRANCH  26  27
ENDBRANCH  25  26
ENDBRANCH   1  25
TORSDOF 17
