REMARK SMILES COc1cc(OC)cc(-n2nnc(C(=O)OCCOCCOC(=O)c3ccc(-c4c5nc(c(-c6ccc(S(=O)(=O)[O-])cc6)c6ccc([nH]6)c(-c6ccc(S(=O)(=O)[O-])cc6)c6nc(c(-c7ccc(S(=O)(=O)[O-])cc7)c7ccc4[nH]7)C=C6)C=C5)cc3)c2C(C)(C)C)c1
REMARK SMILES IDX 20 1 19 2 18 3 17 4 16 5 14 6 15 7 13 8 10 9 11 10 85 11
REMARK SMILES IDX 12 12 9 13 3 14 4 15 90 16 5 17 8 18 2 19 1 20 6 21 7 22
REMARK SMILES IDX 86 23 87 24 88 25 89 26 21 27 22 28 23 29 24 30 25 31 26 32
REMARK SMILES IDX 84 33 27 34 83 35 28 36 29 37 30 38 77 39 31 40 82 41 76 42
REMARK SMILES IDX 78 43 32 44 81 45 75 46 74 47 33 49 63 50 44 51 62 52 45 53
REMARK SMILES IDX 48 54 61 55 79 56 46 57 47 58 60 60 80 61 49 62 34 63 35 64
REMARK SMILES IDX 43 65 36 66 42 67 37 68 38 69 39 70 40 71 41 72 64 73 65 74
REMARK SMILES IDX 73 75 66 76 72 77 67 78 68 79 69 80 70 81 71 82 50 83 51 84
REMARK SMILES IDX 59 85 52 86 58 87 53 88 54 89 55 90 56 91 57 92
REMARK H PARENT 78 48 48 59
REMARK Flexibility Score: inf
ROOT
ATOM      1  C   UNL     1       9.084   5.631   1.140  1.00  0.00     0.202 C 
ENDROOT
BRANCH   1   2
ATOM      2  O   UNL     1      10.117   4.939   0.443  1.00  0.00    -0.374 OA
BRANCH   2   3
ATOM      3  C   UNL     1       9.746   4.157  -0.694  1.00  0.00     0.202 C 
BRANCH   3   4
ATOM      4  C   UNL     1       9.180   2.780  -0.352  1.00  0.00     0.261 C 
BRANCH   4   5
ATOM      5  O   UNL     1       7.801   2.903   0.036  1.00  0.00    -0.458 OA
BRANCH   5   6
ATOM      6  C   UNL     1       7.465   2.693   1.334  1.00  0.00     0.360 C 
ATOM      7  O   UNL     1       8.254   2.291   2.185  1.00  0.00    -0.244 OA
BRANCH   6   8
ATOM      8  C   UNL     1       6.091   3.096   1.643  1.00  0.00     0.194 A 
ATOM      9  N   UNL     1       3.973   3.585   1.780  1.00  0.00    -0.216 N 
ATOM     10  N   UNL     1       4.551   3.964   2.935  1.00  0.00    -0.061 NA
ATOM     11  C   UNL     1       4.936   3.197   0.844  1.00  0.00     0.085 A 
ATOM     12  N   UNL     1       5.806   3.562   2.906  1.00  0.00    -0.122 NA
BRANCH   9  13
ATOM     13  C   UNL     1       2.574   3.494   1.715  1.00  0.00     0.074 A 
ATOM     14  C   UNL     1       0.667   2.224   0.985  1.00  0.00     0.124 A 
ATOM     15  C   UNL     1      -0.098   3.391   1.078  1.00  0.00     0.093 A 
ATOM     16  C   UNL     1       2.005   2.269   1.349  1.00  0.00     0.075 A 
ATOM     17  C   UNL     1       0.454   4.596   1.538  1.00  0.00     0.124 A 
ATOM     18  C   UNL     1       1.800   4.646   1.891  1.00  0.00     0.075 A 
BRANCH  14  19
ATOM     19  O   UNL     1       0.025   1.139   0.457  1.00  0.00    -0.497 OA
ATOM     20  C   UNL     1       0.790  -0.046   0.263  1.00  0.00     0.278 C 
ENDBRANCH  14  19
BRANCH  17  21
ATOM     21  O   UNL     1      -0.418   5.650   1.549  1.00  0.00    -0.497 OA
ATOM     22  C   UNL     1       0.135   6.950   1.723  1.00  0.00     0.278 C 
ENDBRANCH  17  21
ENDBRANCH   9  13
BRANCH  11  23
ATOM     23  C   UNL     1       4.736   3.069  -0.680  1.00  0.00     0.007 C 
ATOM     24  C   UNL     1       5.452   4.251  -1.363  1.00  0.00     0.017 C 
ATOM     25  C   UNL     1       5.249   1.704  -1.177  1.00  0.00     0.017 C 
ATOM     26  C   UNL     1       3.296   3.182  -1.229  1.00  0.00     0.017 C 
ENDBRANCH  11  23
ENDBRANCH   6   8
ENDBRANCH   5   6
ENDBRANCH   4   5
ENDBRANCH   3   4
ENDBRANCH   2   3
ENDBRANCH   1   2
BRANCH   1  27
ATOM     27  C   UNL     1       8.649   6.952   0.530  1.00  0.00     0.261 C 
BRANCH  27  28
ATOM     28  O   UNL     1       7.971   6.742  -0.701  1.00  0.00    -0.460 OA
BRANCH  28  29
ATOM     29  C   UNL     1       8.688   6.980  -1.818  1.00  0.00     0.338 C 
ATOM     30  O   UNL     1       9.905   7.067  -1.917  1.00  0.00    -0.246 OA
BRANCH  29  31
ATOM     31  C   UNL     1       7.740   7.283  -2.893  1.00  0.00     0.060 A 
ATOM     32  C   UNL     1       8.261   7.755  -4.098  1.00  0.00     0.016 A 
ATOM     33  C   UNL     1       6.371   7.373  -2.594  1.00  0.00     0.016 A 
ATOM     34  C   UNL     1       7.446   8.531  -4.892  1.00  0.00     0.010 A 
ATOM     35  C   UNL     1       5.558   8.132  -3.388  1.00  0.00     0.010 A 
ATOM     36  C   UNL     1       6.139   8.789  -4.461  1.00  0.00    -0.014 A 
BRANCH  36  37
ATOM     37  C   UNL     1       5.332   9.729  -5.196  1.00  0.00     0.031 A 
ATOM     38  C   UNL     1       4.809   9.141  -6.442  1.00  0.00     0.074 A 
ATOM     39  C   UNL     1       5.004  10.938  -4.706  1.00  0.00     0.049 A 
ATOM     40  N   UNL     1       5.276   9.310  -7.633  1.00  0.00    -0.248 NA
ATOM     41  C   UNL     1       3.832   8.045  -6.324  1.00  0.00     0.031 C 
ATOM     42  C   UNL     1       5.215  11.473  -3.356  1.00  0.00     0.029 A 
ATOM     43  N   UNL     1       4.307  11.929  -5.312  1.00  0.00    -0.354 N 
ATOM     44  C   UNL     1       4.459   8.541  -8.447  1.00  0.00     0.074 A 
ATOM     45  C   UNL     1       3.802   7.599  -7.579  1.00  0.00     0.031 C 
ATOM     46  C   UNL     1       4.451  12.580  -3.191  1.00  0.00     0.029 A 
ATOM     47  C   UNL     1       3.817  12.909  -4.458  1.00  0.00     0.049 A 
ATOM     48  H   UNL     1       4.159  11.953  -6.285  1.00  0.00     0.167 HD
ATOM     49  C   UNL     1       4.129   8.960  -9.699  1.00  0.00     0.031 A 
ATOM     50  C   UNL     1       2.907  13.866  -4.779  1.00  0.00     0.031 A 
ATOM     51  C   UNL     1       4.982  10.040 -10.133  1.00  0.00     0.049 A 
ATOM     52  C   UNL     1       2.899  13.970  -6.263  1.00  0.00     0.074 A 
ATOM     53  C   UNL     1       6.341  10.188 -10.323  1.00  0.00     0.029 A 
ATOM     54  N   UNL     1       4.468  11.312 -10.022  1.00  0.00    -0.354 N 
ATOM     55  N   UNL     1       3.920  14.396  -6.955  1.00  0.00    -0.248 NA
ATOM     56  C   UNL     1       1.954  13.141  -6.998  1.00  0.00     0.031 C 
ATOM     57  C   UNL     1       6.638  11.505  -9.866  1.00  0.00     0.029 A 
ATOM     58  C   UNL     1       5.441  12.124  -9.497  1.00  0.00     0.049 A 
ATOM     59  H   UNL     1       3.559  11.592 -10.276  1.00  0.00     0.167 HD
ATOM     60  C   UNL     1       3.983  13.553  -8.057  1.00  0.00     0.074 A 
ATOM     61  C   UNL     1       2.697  12.856  -8.073  1.00  0.00     0.031 C 
ATOM     62  C   UNL     1       5.173  13.288  -8.675  1.00  0.00     0.031 A 
BRANCH  49  63
ATOM     63  C   UNL     1       2.772   8.713 -10.312  1.00  0.00    -0.014 A 
ATOM     64  C   UNL     1       2.533   9.172 -11.620  1.00  0.00     0.010 A 
ATOM     65  C   UNL     1       1.648   8.292  -9.568  1.00  0.00     0.010 A 
ATOM     66  C   UNL     1       1.231   9.268 -12.128  1.00  0.00     0.020 A 
ATOM     67  C   UNL     1       0.353   8.339 -10.079  1.00  0.00     0.020 A 
ATOM     68  C   UNL     1       0.150   8.859 -11.347  1.00  0.00     0.054 A 
BRANCH  68  69
ATOM     69  S   UNL     1      -1.531   9.064 -11.977  1.00  0.00     0.124 S 
ATOM     70  O   UNL     1      -1.649  10.517 -12.047  1.00  0.00    -0.237 OA
ATOM     71  O   UNL     1      -1.463   8.368 -13.259  1.00  0.00    -0.237 OA
ATOM     72  O   UNL     1      -2.357   8.414 -10.963  1.00  0.00    -0.744 OA
ENDBRANCH  68  69
ENDBRANCH  49  63
BRANCH  50  73
ATOM     73  C   UNL     1       1.800  14.400  -3.940  1.00  0.00    -0.014 A 
ATOM     74  C   UNL     1       1.058  15.529  -4.343  1.00  0.00     0.010 A 
ATOM     75  C   UNL     1       1.276  13.621  -2.889  1.00  0.00     0.010 A 
ATOM     76  C   UNL     1      -0.189  15.827  -3.761  1.00  0.00     0.020 A 
ATOM     77  C   UNL     1       0.037  13.913  -2.301  1.00  0.00     0.020 A 
ATOM     78  C   UNL     1      -0.702  15.002  -2.757  1.00  0.00     0.054 A 
BRANCH  78  79
ATOM     79  S   UNL     1      -2.391  15.278  -2.138  1.00  0.00     0.124 S 
ATOM     80  O   UNL     1      -2.246  16.517  -1.379  1.00  0.00    -0.237 OA
ATOM     81  O   UNL     1      -3.170  15.377  -3.369  1.00  0.00    -0.237 OA
ATOM     82  O   UNL     1      -2.660  14.087  -1.333  1.00  0.00    -0.744 OA
ENDBRANCH  78  79
ENDBRANCH  50  73
BRANCH  62  83
ATOM     83  C   UNL     1       6.368  14.153  -8.335  1.00  0.00    -0.014 A 
ATOM     84  C   UNL     1       6.954  14.235  -7.055  1.00  0.00     0.010 A 
ATOM     85  C   UNL     1       7.011  14.796  -9.406  1.00  0.00     0.010 A 
ATOM     86  C   UNL     1       8.139  14.964  -6.856  1.00  0.00     0.020 A 
ATOM     87  C   UNL     1       8.198  15.506  -9.218  1.00  0.00     0.020 A 
ATOM     88  C   UNL     1       8.752  15.597  -7.942  1.00  0.00     0.054 A 
BRANCH  88  89
ATOM     89  S   UNL     1      10.302  16.511  -7.696  1.00  0.00     0.124 S 
ATOM     90  O   UNL     1       9.873  17.653  -6.894  1.00  0.00    -0.237 OA
ATOM     91  O   UNL     1      11.147  15.539  -7.006  1.00  0.00    -0.237 OA
ATOM     92  O   UNL     1      10.733  16.837  -9.055  1.00  0.00    -0.744 OA
ENDBRANCH  88  89
ENDBRANCH  62  83
ENDBRANCH  36  37
ENDBRANCH  29  31
ENDBRANCH  28  29
ENDBRANCH  27  28
ENDBRANCH   1  27
TORSDOF 21
