REMARK SMILES Cc1nc(N2CCN(c3ccccc3)CC2)nc(OCC(=O)OCCOCCOC(=O)c2ccc(-c3c4nc(c(-c5ccc(S(=O)(=O)[O-])cc5)c5ccc([nH]5)c(-c5ccc(S(=O)(=O)[O-])cc5)c5nc(c(-c6ccc(S(=O)(=O)[O-])cc6)c6ccc3[nH]6)C=C5)C=C4)cc2)c1C
REMARK SMILES IDX 25 1 24 2 23 3 21 4 22 5 20 6 19 7 18 8 1 9 2 10 3 11 92 12
REMARK SMILES IDX 4 13 93 14 17 15 5 16 6 17 16 18 7 19 15 20 8 21 9 22 10 23
REMARK SMILES IDX 14 24 11 25 13 26 12 27 26 28 27 29 28 30 29 31 30 32 31 33
REMARK SMILES IDX 32 34 33 35 91 36 34 37 90 38 35 39 36 40 37 41 84 42 38 43
REMARK SMILES IDX 89 44 83 45 85 46 39 47 88 48 82 49 81 50 40 52 70 53 51 54
REMARK SMILES IDX 69 55 52 56 55 57 68 58 86 59 53 60 54 61 67 63 87 64 56 65
REMARK SMILES IDX 41 66 42 67 50 68 43 69 49 70 44 71 45 72 46 73 47 74 48 75
REMARK SMILES IDX 71 76 72 77 80 78 73 79 79 80 74 81 75 82 76 83 77 84 78 85
REMARK SMILES IDX 57 86 58 87 66 88 59 89 65 90 60 91 61 92 62 93 63 94 64 95
REMARK H PARENT 85 51 55 62
REMARK Flexibility Score: inf
ROOT
ATOM      1  C   UNL     1       3.396   2.814   4.233  1.00  0.00     0.202 C 
ENDROOT
BRANCH   1   2
ATOM      2  C   UNL     1       3.961   4.028   3.481  1.00  0.00     0.261 C 
BRANCH   2   3
ATOM      3  O   UNL     1       3.206   4.424   2.309  1.00  0.00    -0.461 OA
BRANCH   3   4
ATOM      4  C   UNL     1       3.914   4.457   1.146  1.00  0.00     0.344 C 
ATOM      5  O   UNL     1       5.081   4.092   1.030  1.00  0.00    -0.248 OA
BRANCH   4   6
ATOM      6  C   UNL     1       3.154   5.054  -0.045  1.00  0.00     0.353 C 
BRANCH   6   7
ATOM      7  O   UNL     1       1.779   4.963  -0.279  1.00  0.00    -0.465 OA
BRANCH   7   8
ATOM      8  C   UNL     1       1.087   3.850  -0.603  1.00  0.00     0.221 A 
ATOM      9  C   UNL     1       0.822   0.119  -0.875  1.00  0.00     0.067 C 
ATOM     10  C   UNL     1       0.531   1.597  -0.896  1.00  0.00     0.050 A 
ATOM     11  N   UNL     1      -0.783   1.883  -0.731  1.00  0.00    -0.218 NA
ATOM     12  C   UNL     1       1.531   2.580  -0.932  1.00  0.00     0.033 A 
ATOM     13  C   UNL     1      -1.123   3.163  -0.603  1.00  0.00     0.229 A 
ATOM     14  C   UNL     1       2.943   2.247  -1.288  1.00  0.00     0.052 C 
ATOM     15  N   UNL     1      -0.222   4.139  -0.524  1.00  0.00    -0.177 NA
BRANCH  13  16
ATOM     16  N   UNL     1      -2.430   3.541  -0.497  1.00  0.00    -0.337 N 
ATOM     17  C   UNL     1      -3.353   2.823   0.376  1.00  0.00     0.141 C 
ATOM     18  C   UNL     1      -3.011   4.176  -1.679  1.00  0.00     0.141 C 
ATOM     19  C   UNL     1      -4.502   3.782   0.806  1.00  0.00     0.138 C 
ATOM     20  C   UNL     1      -4.163   5.114  -1.266  1.00  0.00     0.138 C 
ATOM     21  N   UNL     1      -5.106   4.397  -0.389  1.00  0.00    -0.368 N 
BRANCH  21  22
ATOM     22  C   UNL     1      -6.434   4.763  -0.424  1.00  0.00     0.037 A 
ATOM     23  C   UNL     1      -7.075   5.423   0.627  1.00  0.00     0.026 A 
ATOM     24  C   UNL     1      -7.192   4.450  -1.563  1.00  0.00     0.026 A 
ATOM     25  C   UNL     1      -8.433   5.757   0.544  1.00  0.00     0.002 A 
ATOM     26  C   UNL     1      -8.549   4.762  -1.645  1.00  0.00     0.002 A 
ATOM     27  C   UNL     1      -9.171   5.419  -0.588  1.00  0.00     0.000 A 
ENDBRANCH  21  22
ENDBRANCH  13  16
ENDBRANCH   7   8
ENDBRANCH   6   7
ENDBRANCH   4   6
ENDBRANCH   3   4
ENDBRANCH   2   3
ENDBRANCH   1   2
BRANCH   1  28
ATOM     28  O   UNL     1       3.341   1.558   3.558  1.00  0.00    -0.374 OA
BRANCH  28  29
ATOM     29  C   UNL     1       2.574   1.491   2.366  1.00  0.00     0.202 C 
BRANCH  29  30
ATOM     30  C   UNL     1       1.053   1.612   2.466  1.00  0.00     0.261 C 
BRANCH  30  31
ATOM     31  O   UNL     1       0.590   2.595   3.373  1.00  0.00    -0.460 OA
BRANCH  31  32
ATOM     32  C   UNL     1      -0.041   2.091   4.452  1.00  0.00     0.338 C 
ATOM     33  O   UNL     1      -0.260   0.926   4.736  1.00  0.00    -0.246 OA
BRANCH  32  34
ATOM     34  C   UNL     1      -0.290   3.226   5.334  1.00  0.00     0.060 A 
ATOM     35  C   UNL     1       0.430   3.282   6.527  1.00  0.00     0.016 A 
ATOM     36  C   UNL     1      -1.183   4.232   4.956  1.00  0.00     0.016 A 
ATOM     37  C   UNL     1       0.228   4.351   7.381  1.00  0.00     0.010 A 
ATOM     38  C   UNL     1      -1.388   5.303   5.818  1.00  0.00     0.010 A 
ATOM     39  C   UNL     1      -0.706   5.342   7.044  1.00  0.00    -0.014 A 
BRANCH  39  40
ATOM     40  C   UNL     1      -1.063   6.327   8.078  1.00  0.00     0.031 A 
ATOM     41  C   UNL     1      -2.292   6.075   8.898  1.00  0.00     0.074 A 
ATOM     42  C   UNL     1      -0.225   7.343   8.345  1.00  0.00     0.049 A 
ATOM     43  N   UNL     1      -2.709   6.702   9.963  1.00  0.00    -0.248 NA
ATOM     44  C   UNL     1      -3.158   4.960   8.475  1.00  0.00     0.031 C 
ATOM     45  C   UNL     1       1.012   7.627   7.615  1.00  0.00     0.029 A 
ATOM     46  N   UNL     1      -0.265   8.296   9.327  1.00  0.00    -0.354 N 
ATOM     47  C   UNL     1      -3.872   6.048  10.348  1.00  0.00     0.074 A 
ATOM     48  C   UNL     1      -4.128   5.011   9.375  1.00  0.00     0.031 C 
ATOM     49  C   UNL     1       1.635   8.663   8.202  1.00  0.00     0.029 A 
ATOM     50  C   UNL     1       0.829   9.127   9.328  1.00  0.00     0.049 A 
ATOM     51  H   UNL     1      -1.006   8.377   9.969  1.00  0.00     0.167 HD
ATOM     52  C   UNL     1      -4.641   6.279  11.434  1.00  0.00     0.031 A 
ATOM     53  C   UNL     1       1.144  10.140  10.158  1.00  0.00     0.031 A 
ATOM     54  C   UNL     1      -4.373   7.327  12.379  1.00  0.00     0.049 A 
ATOM     55  C   UNL     1       0.218  10.438  11.308  1.00  0.00     0.074 A 
ATOM     56  C   UNL     1      -5.089   7.664  13.512  1.00  0.00     0.029 A 
ATOM     57  N   UNL     1      -3.307   8.211  12.294  1.00  0.00    -0.354 N 
ATOM     58  N   UNL     1      -0.863   9.793  11.680  1.00  0.00    -0.248 NA
ATOM     59  C   UNL     1       0.552  11.593  12.152  1.00  0.00     0.031 C 
ATOM     60  C   UNL     1      -4.490   8.793  14.077  1.00  0.00     0.029 A 
ATOM     61  C   UNL     1      -3.362   9.115  13.337  1.00  0.00     0.049 A 
ATOM     62  H   UNL     1      -2.614   8.195  11.595  1.00  0.00     0.167 HD
ATOM     63  C   UNL     1      -1.327  10.449  12.813  1.00  0.00     0.074 A 
ATOM     64  C   UNL     1      -0.401  11.534  13.073  1.00  0.00     0.031 C 
ATOM     65  C   UNL     1      -2.419  10.181  13.570  1.00  0.00     0.031 A 
BRANCH  52  66
ATOM     66  C   UNL     1      -5.842   5.399  11.645  1.00  0.00    -0.014 A 
ATOM     67  C   UNL     1      -5.695   4.052  12.021  1.00  0.00     0.010 A 
ATOM     68  C   UNL     1      -7.134   5.937  11.515  1.00  0.00     0.010 A 
ATOM     69  C   UNL     1      -6.819   3.252  12.239  1.00  0.00     0.020 A 
ATOM     70  C   UNL     1      -8.261   5.148  11.760  1.00  0.00     0.020 A 
ATOM     71  C   UNL     1      -8.096   3.807  12.111  1.00  0.00     0.054 A 
BRANCH  71  72
ATOM     72  S   UNL     1      -9.534   2.754  12.442  1.00  0.00     0.124 S 
ATOM     73  O   UNL     1      -9.478   1.808  11.330  1.00  0.00    -0.237 OA
ATOM     74  O   UNL     1      -9.224   2.197  13.756  1.00  0.00    -0.237 OA
ATOM     75  O   UNL     1     -10.662   3.682  12.411  1.00  0.00    -0.744 OA
ENDBRANCH  71  72
ENDBRANCH  52  66
BRANCH  53  76
ATOM     76  C   UNL     1       2.389  10.923   9.933  1.00  0.00    -0.014 A 
ATOM     77  C   UNL     1       3.461  10.849  10.839  1.00  0.00     0.010 A 
ATOM     78  C   UNL     1       2.522  11.727   8.784  1.00  0.00     0.010 A 
ATOM     79  C   UNL     1       4.638  11.568  10.604  1.00  0.00     0.020 A 
ATOM     80  C   UNL     1       3.707  12.424   8.532  1.00  0.00     0.020 A 
ATOM     81  C   UNL     1       4.755  12.346   9.449  1.00  0.00     0.054 A 
BRANCH  81  82
ATOM     82  S   UNL     1       6.312  13.226   9.143  1.00  0.00     0.124 S 
ATOM     83  O   UNL     1       6.305  14.234  10.197  1.00  0.00    -0.237 OA
ATOM     84  O   UNL     1       7.304  12.164   9.287  1.00  0.00    -0.237 OA
ATOM     85  O   UNL     1       6.155  13.741   7.784  1.00  0.00    -0.744 OA
ENDBRANCH  81  82
ENDBRANCH  53  76
BRANCH  65  86
ATOM     86  C   UNL     1      -2.682  11.058  14.763  1.00  0.00    -0.014 A 
ATOM     87  C   UNL     1      -3.199  12.354  14.600  1.00  0.00     0.010 A 
ATOM     88  C   UNL     1      -2.554  10.522  16.058  1.00  0.00     0.010 A 
ATOM     89  C   UNL     1      -3.593  13.097  15.715  1.00  0.00     0.020 A 
ATOM     90  C   UNL     1      -2.973  11.252  17.172  1.00  0.00     0.020 A 
ATOM     91  C   UNL     1      -3.492  12.535  16.992  1.00  0.00     0.054 A 
BRANCH  91  92
ATOM     92  S   UNL     1      -4.117  13.482  18.406  1.00  0.00     0.124 S 
ATOM     93  O   UNL     1      -3.161  14.584  18.482  1.00  0.00    -0.237 OA
ATOM     94  O   UNL     1      -5.464  13.847  17.972  1.00  0.00    -0.237 OA
ATOM     95  O   UNL     1      -4.061  12.532  19.514  1.00  0.00    -0.744 OA
ENDBRANCH  91  92
ENDBRANCH  65  86
ENDBRANCH  39  40
ENDBRANCH  32  34
ENDBRANCH  31  32
ENDBRANCH  30  31
ENDBRANCH  29  30
ENDBRANCH  28  29
ENDBRANCH   1  28
TORSDOF 21
