REMARK SMILES Cc1cc(C)c2c(O[C@@H](C)C(=O)OCCOCCOC(=O)c3ccc(-c4c5nc(c(-c6ccc(S(=O)(=O)[O-])cc6)c6ccc([nH]6)c(-c6ccc(S(=O)(=O)[O-])cc6)c6nc(c(-c7ccc(S(=O)(=O)[O-])cc7)c7ccc4[nH]7)C=C6)C=C5)cc3)nsc2n1
REMARK SMILES IDX 17 1 16 2 15 3 14 4 13 5 11 6 12 7 9 8 10 9 8 10 7 11 1 12
REMARK SMILES IDX 2 13 3 14 85 15 4 16 84 17 5 18 6 19 83 20 82 21 18 22 19 23
REMARK SMILES IDX 20 24 21 25 22 26 23 27 81 28 24 29 80 30 25 31 26 32 27 33
REMARK SMILES IDX 74 34 28 35 79 36 73 37 75 38 29 39 78 40 72 41 71 42 30 44
REMARK SMILES IDX 60 45 41 46 59 47 42 48 45 49 58 50 76 51 43 52 44 53 57 55
REMARK SMILES IDX 77 56 46 57 31 58 32 59 40 60 33 61 39 62 34 63 35 64 36 65
REMARK SMILES IDX 37 66 38 67 61 68 62 69 70 70 63 71 69 72 64 73 65 74 66 75
REMARK SMILES IDX 67 76 68 77 47 78 48 79 56 80 49 81 55 82 50 83 51 84 52 85
REMARK SMILES IDX 53 86 54 87
REMARK H PARENT 75 43 45 54
REMARK Flexibility Score: inf
ROOT
ATOM      1  C   UNL     1       0.696   4.760   6.587  1.00  0.00     0.202 C 
ENDROOT
BRANCH   1   2
ATOM      2  O   UNL     1       1.115   3.474   7.023  1.00  0.00    -0.374 OA
BRANCH   2   3
ATOM      3  C   UNL     1       1.190   2.413   6.074  1.00  0.00     0.202 C 
BRANCH   3   4
ATOM      4  C   UNL     1      -0.081   2.080   5.297  1.00  0.00     0.261 C 
BRANCH   4   5
ATOM      5  O   UNL     1      -0.547   3.182   4.499  1.00  0.00    -0.461 OA
BRANCH   5   6
ATOM      6  C   UNL     1      -1.863   3.512   4.613  1.00  0.00     0.347 C 
ATOM      7  O   UNL     1      -2.658   2.970   5.374  1.00  0.00    -0.248 OA
BRANCH   6   8
ATOM      8  C   UNL     1      -2.244   4.675   3.691  1.00  0.00     0.281 C 
ATOM      9  C   UNL     1      -3.611   4.559   3.021  1.00  0.00     0.066 C 
BRANCH   8  10
ATOM     10  O   UNL     1      -1.319   5.244   2.814  1.00  0.00    -0.462 OA
BRANCH  10  11
ATOM     11  C   UNL     1      -0.783   4.576   1.766  1.00  0.00     0.236 A 
ATOM     12  C   UNL     1       1.305  -0.266  -0.332  1.00  0.00     0.067 C 
ATOM     13  C   UNL     1       0.599   0.922   0.246  1.00  0.00     0.039 A 
ATOM     14  C   UNL     1      -0.435   0.752   1.147  1.00  0.00     0.027 A 
ATOM     15  N   UNL     1       0.965   2.119  -0.214  1.00  0.00    -0.240 NA
ATOM     16  C   UNL     1      -1.132   1.858   1.692  1.00  0.00    -0.034 A 
ATOM     17  C   UNL     1       0.346   3.164   0.362  1.00  0.00     0.147 A 
ATOM     18  C   UNL     1      -2.326   1.445   2.516  1.00  0.00     0.045 C 
ATOM     19  C   UNL     1      -0.639   3.168   1.366  1.00  0.00     0.078 A 
ATOM     20  S   UNL     1       0.703   4.739  -0.156  1.00  0.00    -0.012 S 
ATOM     21  N   UNL     1      -0.184   5.487   1.000  1.00  0.00    -0.153 NA
ENDBRANCH  10  11
ENDBRANCH   8  10
ENDBRANCH   6   8
ENDBRANCH   5   6
ENDBRANCH   4   5
ENDBRANCH   3   4
ENDBRANCH   2   3
ENDBRANCH   1   2
BRANCH   1  22
ATOM     22  C   UNL     1       1.550   5.522   5.577  1.00  0.00     0.261 C 
BRANCH  22  23
ATOM     23  O   UNL     1       1.978   4.771   4.449  1.00  0.00    -0.460 OA
BRANCH  23  24
ATOM     24  C   UNL     1       3.277   4.395   4.552  1.00  0.00     0.338 C 
ATOM     25  O   UNL     1       3.858   4.071   5.572  1.00  0.00    -0.246 OA
BRANCH  24  26
ATOM     26  C   UNL     1       3.960   4.635   3.277  1.00  0.00     0.060 A 
ATOM     27  C   UNL     1       5.296   4.246   3.200  1.00  0.00     0.016 A 
ATOM     28  C   UNL     1       3.376   5.463   2.307  1.00  0.00     0.016 A 
ATOM     29  C   UNL     1       6.088   4.821   2.229  1.00  0.00     0.010 A 
ATOM     30  C   UNL     1       4.166   6.024   1.326  1.00  0.00     0.010 A 
ATOM     31  C   UNL     1       5.528   5.755   1.343  1.00  0.00    -0.014 A 
BRANCH  31  32
ATOM     32  C   UNL     1       6.408   6.346   0.357  1.00  0.00     0.031 A 
ATOM     33  C   UNL     1       6.950   5.348  -0.587  1.00  0.00     0.074 A 
ATOM     34  C   UNL     1       6.709   7.655   0.281  1.00  0.00     0.049 A 
ATOM     35  N   UNL     1       8.140   4.854  -0.569  1.00  0.00    -0.248 NA
ATOM     36  C   UNL     1       6.026   4.672  -1.507  1.00  0.00     0.031 C 
ATOM     37  C   UNL     1       6.096   8.784   0.980  1.00  0.00     0.029 A 
ATOM     38  N   UNL     1       7.615   8.258  -0.535  1.00  0.00    -0.354 N 
ATOM     39  C   UNL     1       8.193   3.958  -1.624  1.00  0.00     0.074 A 
ATOM     40  C   UNL     1       6.829   3.753  -2.045  1.00  0.00     0.031 C 
ATOM     41  C   UNL     1       6.482   9.937   0.384  1.00  0.00     0.029 A 
ATOM     42  C   UNL     1       7.473   9.635  -0.638  1.00  0.00     0.049 A 
ATOM     43  H   UNL     1       8.315   7.759  -1.013  1.00  0.00     0.167 HD
ATOM     44  C   UNL     1       9.379   3.653  -2.216  1.00  0.00     0.031 A 
ATOM     45  C   UNL     1       8.088  10.446  -1.541  1.00  0.00     0.031 A 
ATOM     46  C   UNL     1      10.498   4.064  -1.403  1.00  0.00     0.049 A 
ATOM     47  C   UNL     1       9.320   9.740  -1.982  1.00  0.00     0.074 A 
ATOM     48  C   UNL     1      10.922   3.764  -0.123  1.00  0.00     0.029 A 
ATOM     49  N   UNL     1      11.132   5.236  -1.752  1.00  0.00    -0.354 N 
ATOM     50  N   UNL     1      10.329   9.509  -1.187  1.00  0.00    -0.248 NA
ATOM     51  C   UNL     1       9.232   8.866  -3.144  1.00  0.00     0.031 C 
ATOM     52  C   UNL     1      11.395   4.999   0.405  1.00  0.00     0.029 A 
ATOM     53  C   UNL     1      11.314   5.962  -0.604  1.00  0.00     0.049 A 
ATOM     54  H   UNL     1      11.404   5.503  -2.659  1.00  0.00     0.167 HD
ATOM     55  C   UNL     1      10.726   8.212  -1.486  1.00  0.00     0.074 A 
ATOM     56  C   UNL     1      10.069   7.899  -2.756  1.00  0.00     0.031 C 
ATOM     57  C   UNL     1      11.314   7.410  -0.549  1.00  0.00     0.031 A 
BRANCH  44  58
ATOM     58  C   UNL     1       9.517   3.387  -3.691  1.00  0.00    -0.014 A 
ATOM     59  C   UNL     1      10.799   3.102  -4.202  1.00  0.00     0.010 A 
ATOM     60  C   UNL     1       8.505   3.691  -4.623  1.00  0.00     0.010 A 
ATOM     61  C   UNL     1      11.071   3.204  -5.570  1.00  0.00     0.020 A 
ATOM     62  C   UNL     1       8.755   3.752  -5.994  1.00  0.00     0.020 A 
ATOM     63  C   UNL     1      10.047   3.542  -6.455  1.00  0.00     0.054 A 
BRANCH  63  64
ATOM     64  S   UNL     1      10.433   3.767  -8.205  1.00  0.00     0.124 S 
ATOM     65  O   UNL     1      11.324   4.922  -8.171  1.00  0.00    -0.237 OA
ATOM     66  O   UNL     1      11.058   2.492  -8.546  1.00  0.00    -0.237 OA
ATOM     67  O   UNL     1       9.127   3.999  -8.817  1.00  0.00    -0.744 OA
ENDBRANCH  63  64
ENDBRANCH  44  58
BRANCH  45  68
ATOM     68  C   UNL     1       7.488  11.591  -2.283  1.00  0.00    -0.014 A 
ATOM     69  C   UNL     1       8.257  12.386  -3.158  1.00  0.00     0.010 A 
ATOM     70  C   UNL     1       6.087  11.741  -2.344  1.00  0.00     0.010 A 
ATOM     71  C   UNL     1       7.645  13.240  -4.097  1.00  0.00     0.020 A 
ATOM     72  C   UNL     1       5.471  12.595  -3.268  1.00  0.00     0.020 A 
ATOM     73  C   UNL     1       6.252  13.321  -4.161  1.00  0.00     0.054 A 
BRANCH  73  74
ATOM     74  S   UNL     1       5.460  14.283  -5.487  1.00  0.00     0.124 S 
ATOM     75  O   UNL     1       5.816  15.655  -5.135  1.00  0.00    -0.237 OA
ATOM     76  O   UNL     1       6.098  13.752  -6.688  1.00  0.00    -0.237 OA
ATOM     77  O   UNL     1       4.041  13.958  -5.349  1.00  0.00    -0.744 OA
ENDBRANCH  73  74
ENDBRANCH  45  68
BRANCH  57  78
ATOM     78  C   UNL     1      11.797   8.014   0.752  1.00  0.00    -0.014 A 
ATOM     79  C   UNL     1      10.958   8.655   1.683  1.00  0.00     0.010 A 
ATOM     80  C   UNL     1      13.122   7.729   1.132  1.00  0.00     0.010 A 
ATOM     81  C   UNL     1      11.437   9.002   2.958  1.00  0.00     0.020 A 
ATOM     82  C   UNL     1      13.598   8.051   2.404  1.00  0.00     0.020 A 
ATOM     83  C   UNL     1      12.754   8.689   3.312  1.00  0.00     0.054 A 
BRANCH  83  84
ATOM     84  S   UNL     1      13.350   9.066   4.986  1.00  0.00     0.124 S 
ATOM     85  O   UNL     1      13.347  10.526   5.003  1.00  0.00    -0.237 OA
ATOM     86  O   UNL     1      12.353   8.423   5.838  1.00  0.00    -0.237 OA
ATOM     87  O   UNL     1      14.678   8.453   5.031  1.00  0.00    -0.744 OA
ENDBRANCH  83  84
ENDBRANCH  57  78
ENDBRANCH  31  32
ENDBRANCH  24  26
ENDBRANCH  23  24
ENDBRANCH  22  23
ENDBRANCH   1  22
TORSDOF 19
