REMARK SMILES O=C(OCCOCCOC(=O)[C@@H](Cc1ccc(O)cc1)Nc1c2ccccc2nc2ccccc12)c1ccc(-c2c3nc(c(-c4ccc(S(=O)(=O)[O-])cc4)c4ccc([nH]4)c(-c4ccc(S(=O)(=O)[O-])cc4)c4nc(c(-c5ccc(S(=O)(=O)[O-])cc5)c5ccc2[nH]5)C=C4)C=C3)cc1
REMARK SMILES IDX 6 1 5 2 4 3 3 4 2 5 1 6 36 7 37 8 95 9 38 10 94 11 39 12
REMARK SMILES IDX 40 13 41 14 88 15 42 16 93 17 87 18 89 19 43 20 92 21 86 22
REMARK SMILES IDX 85 23 44 25 74 26 55 27 73 28 56 29 59 30 72 31 90 32 57 33
REMARK SMILES IDX 58 34 71 36 91 37 60 38 45 39 46 40 54 41 47 42 53 43 48 44
REMARK SMILES IDX 49 45 50 46 51 47 52 48 75 49 76 50 84 51 77 52 83 53 78 54
REMARK SMILES IDX 79 55 80 56 81 57 82 58 61 59 62 60 70 61 63 62 69 63 64 64
REMARK SMILES IDX 65 65 66 66 67 67 68 68 7 69 8 70 9 71 10 72 11 73 12 74
REMARK SMILES IDX 13 75 14 76 15 77 20 78 16 79 19 80 17 81 18 82 21 84 22 86
REMARK SMILES IDX 23 87 35 88 24 89 28 90 30 91 34 92 25 93 27 94 29 95 31 96
REMARK SMILES IDX 33 97 26 98 32 99
REMARK H PARENT 89 24 59 35 18 83 21 85
REMARK Flexibility Score: inf
ROOT
ATOM      1  O   UNL     1       4.159   1.699  -0.251  1.00  0.00    -0.374 OA
ENDROOT
BRANCH   1   2
ATOM      2  C   UNL     1       4.666   0.650  -1.075  1.00  0.00     0.202 C 
BRANCH   2   3
ATOM      3  C   UNL     1       4.237  -0.794  -0.772  1.00  0.00     0.261 C 
BRANCH   3   4
ATOM      4  O   UNL     1       2.818  -0.908  -0.580  1.00  0.00    -0.460 OA
BRANCH   4   5
ATOM      5  C   UNL     1       2.165  -1.016   0.605  1.00  0.00     0.338 C 
ATOM      6  O   UNL     1       0.957  -1.240   0.608  1.00  0.00    -0.246 OA
BRANCH   5   7
ATOM      7  C   UNL     1       2.865  -0.862   1.914  1.00  0.00     0.060 A 
ATOM      8  C   UNL     1       4.021  -0.106   2.081  1.00  0.00     0.016 A 
ATOM      9  C   UNL     1       2.300  -1.451   3.053  1.00  0.00     0.016 A 
ATOM     10  C   UNL     1       4.662   0.013   3.286  1.00  0.00     0.010 A 
ATOM     11  C   UNL     1       2.912  -1.298   4.304  1.00  0.00     0.010 A 
ATOM     12  C   UNL     1       4.103  -0.571   4.407  1.00  0.00    -0.014 A 
BRANCH  12  13
ATOM     13  C   UNL     1       4.915  -0.472   5.621  1.00  0.00     0.031 A 
ATOM     14  C   UNL     1       5.732  -1.661   6.005  1.00  0.00     0.074 A 
ATOM     15  C   UNL     1       5.089   0.741   6.178  1.00  0.00     0.049 A 
ATOM     16  N   UNL     1       6.528  -1.813   7.023  1.00  0.00    -0.248 NA
ATOM     17  C   UNL     1       5.665  -2.829   5.106  1.00  0.00     0.031 C 
ATOM     18  C   UNL     1       4.477   1.988   5.695  1.00  0.00     0.029 A 
ATOM     19  N   UNL     1       5.878   1.142   7.217  1.00  0.00    -0.354 N 
ATOM     20  C   UNL     1       7.017  -3.108   6.919  1.00  0.00     0.074 A 
ATOM     21  C   UNL     1       6.449  -3.695   5.728  1.00  0.00     0.031 C 
ATOM     22  C   UNL     1       4.943   3.016   6.421  1.00  0.00     0.029 A 
ATOM     23  C   UNL     1       5.804   2.491   7.471  1.00  0.00     0.049 A 
ATOM     24  H   UNL     1       6.444   0.525   7.735  1.00  0.00     0.167 HD
ATOM     25  C   UNL     1       7.848  -3.744   7.773  1.00  0.00     0.031 A 
ATOM     26  C   UNL     1       6.340   3.202   8.479  1.00  0.00     0.031 A 
ATOM     27  C   UNL     1       8.370  -3.111   8.951  1.00  0.00     0.049 A 
ATOM     28  C   UNL     1       7.156   2.442   9.487  1.00  0.00     0.074 A 
ATOM     29  C   UNL     1       9.130  -3.656   9.966  1.00  0.00     0.029 A 
ATOM     30  N   UNL     1       8.179  -1.768   9.262  1.00  0.00    -0.354 N 
ATOM     31  N   UNL     1       7.511   1.176   9.467  1.00  0.00    -0.248 NA
ATOM     32  C   UNL     1       7.621   3.185  10.661  1.00  0.00     0.031 C 
ATOM     33  C   UNL     1       9.356  -2.653  10.916  1.00  0.00     0.029 A 
ATOM     34  C   UNL     1       8.790  -1.469  10.463  1.00  0.00     0.049 A 
ATOM     35  H   UNL     1       7.681  -1.126   8.706  1.00  0.00     0.167 HD
ATOM     36  C   UNL     1       8.247   0.969  10.623  1.00  0.00     0.074 A 
ATOM     37  C   UNL     1       8.307   2.250  11.306  1.00  0.00     0.031 C 
ATOM     38  C   UNL     1       8.816  -0.170  11.091  1.00  0.00     0.031 A 
BRANCH  25  39
ATOM     39  C   UNL     1       8.114  -5.199   7.510  1.00  0.00    -0.014 A 
ATOM     40  C   UNL     1       8.935  -5.626   6.451  1.00  0.00     0.010 A 
ATOM     41  C   UNL     1       7.478  -6.162   8.315  1.00  0.00     0.010 A 
ATOM     42  C   UNL     1       9.081  -6.990   6.177  1.00  0.00     0.020 A 
ATOM     43  C   UNL     1       7.640  -7.526   8.059  1.00  0.00     0.020 A 
ATOM     44  C   UNL     1       8.425  -7.931   6.979  1.00  0.00     0.054 A 
BRANCH  44  45
ATOM     45  S   UNL     1       8.620  -9.694   6.597  1.00  0.00     0.124 S 
ATOM     46  O   UNL     1       7.813  -9.831   5.388  1.00  0.00    -0.237 OA
ATOM     47  O   UNL     1      10.063  -9.823   6.407  1.00  0.00    -0.237 OA
ATOM     48  O   UNL     1       8.089 -10.366   7.780  1.00  0.00    -0.744 OA
ENDBRANCH  44  45
ENDBRANCH  25  39
BRANCH  26  49
ATOM     49  C   UNL     1       6.033   4.652   8.629  1.00  0.00    -0.014 A 
ATOM     50  C   UNL     1       7.040   5.627   8.549  1.00  0.00     0.010 A 
ATOM     51  C   UNL     1       4.704   5.069   8.849  1.00  0.00     0.010 A 
ATOM     52  C   UNL     1       6.728   6.985   8.700  1.00  0.00     0.020 A 
ATOM     53  C   UNL     1       4.383   6.423   8.969  1.00  0.00     0.020 A 
ATOM     54  C   UNL     1       5.401   7.374   8.909  1.00  0.00     0.054 A 
BRANCH  54  55
ATOM     55  S   UNL     1       5.012   9.139   9.071  1.00  0.00     0.124 S 
ATOM     56  O   UNL     1       5.525   9.441  10.404  1.00  0.00    -0.237 OA
ATOM     57  O   UNL     1       5.751   9.730   7.958  1.00  0.00    -0.237 OA
ATOM     58  O   UNL     1       3.557   9.183   8.936  1.00  0.00    -0.744 OA
ENDBRANCH  54  55
ENDBRANCH  26  49
BRANCH  38  59
ATOM     59  C   UNL     1       9.574  -0.060  12.380  1.00  0.00    -0.014 A 
ATOM     60  C   UNL     1       8.901   0.056  13.608  1.00  0.00     0.010 A 
ATOM     61  C   UNL     1      10.977  -0.144  12.359  1.00  0.00     0.010 A 
ATOM     62  C   UNL     1       9.626   0.110  14.798  1.00  0.00     0.020 A 
ATOM     63  C   UNL     1      11.702  -0.119  13.549  1.00  0.00     0.020 A 
ATOM     64  C   UNL     1      11.021   0.020  14.760  1.00  0.00     0.054 A 
BRANCH  64  65
ATOM     65  S   UNL     1      11.937   0.032  16.323  1.00  0.00     0.124 S 
ATOM     66  O   UNL     1      11.867   1.440  16.704  1.00  0.00    -0.237 OA
ATOM     67  O   UNL     1      11.161  -0.885  17.156  1.00  0.00    -0.237 OA
ATOM     68  O   UNL     1      13.265  -0.449  15.949  1.00  0.00    -0.744 OA
ENDBRANCH  64  65
ENDBRANCH  38  59
ENDBRANCH  12  13
ENDBRANCH   5   7
ENDBRANCH   4   5
ENDBRANCH   3   4
ENDBRANCH   2   3
ENDBRANCH   1   2
BRANCH   1  69
ATOM     69  C   UNL     1       2.776   2.040  -0.373  1.00  0.00     0.202 C 
BRANCH  69  70
ATOM     70  C   UNL     1       2.636   3.534  -0.671  1.00  0.00     0.261 C 
BRANCH  70  71
ATOM     71  O   UNL     1       2.979   3.748  -2.049  1.00  0.00    -0.462 OA
BRANCH  71  72
ATOM     72  C   UNL     1       4.307   3.680  -2.314  1.00  0.00     0.328 C 
ATOM     73  O   UNL     1       5.189   3.992  -1.520  1.00  0.00    -0.250 OA
BRANCH  72  74
ATOM     74  C   UNL     1       4.591   3.224  -3.750  1.00  0.00     0.194 C 
BRANCH  74  75
ATOM     75  C   UNL     1       3.862   1.980  -4.332  1.00  0.00     0.072 C 
BRANCH  75  76
ATOM     76  C   UNL     1       2.390   1.712  -4.107  1.00  0.00    -0.045 A 
ATOM     77  C   UNL     1       1.413   2.709  -4.223  1.00  0.00     0.007 A 
ATOM     78  C   UNL     1       1.961   0.396  -3.851  1.00  0.00     0.007 A 
ATOM     79  C   UNL     1       0.059   2.419  -4.037  1.00  0.00     0.046 A 
ATOM     80  C   UNL     1       0.607   0.099  -3.681  1.00  0.00     0.046 A 
ATOM     81  C   UNL     1      -0.334   1.113  -3.773  1.00  0.00     0.115 A 
BRANCH  81  82
ATOM     82  O   UNL     1      -1.647   0.786  -3.610  1.00  0.00    -0.508 OA
ATOM     83  H   UNL     1      -2.305   1.451  -3.666  1.00  0.00     0.293 HD
ENDBRANCH  81  82
ENDBRANCH  75  76
ENDBRANCH  74  75
BRANCH  74  84
ATOM     84  N   UNL     1       4.431   4.336  -4.693  1.00  0.00    -0.371 N 
ATOM     85  H   UNL     1       3.589   4.448  -5.191  1.00  0.00     0.161 HD
BRANCH  84  86
ATOM     86  C   UNL     1       5.491   5.239  -4.879  1.00  0.00     0.054 A 
ATOM     87  C   UNL     1       6.717   4.834  -5.481  1.00  0.00     0.024 A 
ATOM     88  C   UNL     1       5.331   6.579  -4.436  1.00  0.00     0.024 A 
ATOM     89  C   UNL     1       7.040   3.503  -5.867  1.00  0.00     0.012 A 
ATOM     90  C   UNL     1       7.665   5.842  -5.727  1.00  0.00     0.073 A 
ATOM     91  C   UNL     1       6.338   7.492  -4.783  1.00  0.00     0.073 A 
ATOM     92  C   UNL     1       4.234   7.035  -3.656  1.00  0.00     0.012 A 
ATOM     93  C   UNL     1       8.279   3.171  -6.410  1.00  0.00     0.001 A 
ATOM     94  C   UNL     1       8.877   5.495  -6.315  1.00  0.00     0.029 A 
ATOM     95  N   UNL     1       7.456   7.133  -5.432  1.00  0.00    -0.248 NA
ATOM     96  C   UNL     1       6.174   8.828  -4.434  1.00  0.00     0.029 A 
ATOM     97  C   UNL     1       4.114   8.369  -3.279  1.00  0.00     0.001 A 
ATOM     98  C   UNL     1       9.201   4.176  -6.641  1.00  0.00     0.002 A 
ATOM     99  C   UNL     1       5.076   9.275  -3.693  1.00  0.00     0.002 A 
ENDBRANCH  84  86
ENDBRANCH  74  84
ENDBRANCH  72  74
ENDBRANCH  71  72
ENDBRANCH  70  71
ENDBRANCH  69  70
ENDBRANCH   1  69
TORSDOF 22
