REMARK SMILES Nc1cc(=O)[nH]c(SCC(=O)Nc2ccccc2C(=O)OCCOCCOC(=O)c2ccc(-c3c4nc(c(-c5ccc(S(=O)(=O)[O-])cc5)c5ccc([nH]5)c(-c5ccc(S(=O)(=O)[O-])cc5)c5nc(c(-c6ccc(S(=O)(=O)[O-])cc6)c6ccc3[nH]6)C=C5)C=C4)cc2)n1
REMARK SMILES IDX 23 1 22 2 21 3 19 4 20 5 18 6 13 7 14 8 15 9 17 10 16 11
REMARK SMILES IDX 12 12 10 13 11 14 9 16 8 17 7 18 2 19 3 20 90 21 4 22 5 23
REMARK SMILES IDX 6 24 1 26 24 29 25 30 26 31 27 32 28 33 29 34 30 35 31 36
REMARK SMILES IDX 89 37 32 38 88 39 33 40 34 41 35 42 82 43 36 44 87 45 81 46
REMARK SMILES IDX 83 47 37 48 86 49 80 50 79 51 38 53 68 54 49 55 67 56 50 57
REMARK SMILES IDX 53 58 66 59 84 60 51 61 52 62 65 64 85 65 54 66 39 67 40 68
REMARK SMILES IDX 48 69 41 70 47 71 42 72 43 73 44 74 45 75 46 76 69 77 70 78
REMARK SMILES IDX 78 79 71 80 77 81 72 82 73 83 74 84 75 85 76 86 55 87 56 88
REMARK SMILES IDX 64 89 57 90 63 91 58 92 59 93 60 94 61 95 62 96
REMARK H PARENT 12 15 6 25 1 27 1 28 83 52 53 63
REMARK Flexibility Score: inf
ROOT
ATOM      1  C   UNL     1      -0.335   2.193  -2.127  1.00  0.00     0.202 C 
ENDROOT
BRANCH   1   2
ATOM      2  C   UNL     1       1.448   2.303  -1.528  1.00  0.00     0.261 C 
BRANCH   2   3
ATOM      3  O   UNL     1       2.150   2.612   0.073  1.00  0.00    -0.460 OA
BRANCH   3   4
ATOM      4  C   UNL     1       1.832   2.778   1.491  1.00  0.00     0.340 C 
ATOM      5  O   UNL     1       1.405   1.903   2.237  1.00  0.00    -0.246 OA
BRANCH   4   6
ATOM      6  C   UNL     1       1.599   4.078   2.242  1.00  0.00     0.083 A 
ATOM      7  C   UNL     1       2.387   5.165   2.006  1.00  0.00     0.055 A 
ATOM      8  C   UNL     1       2.488   6.184   2.960  1.00  0.00     0.027 A 
ATOM      9  C   UNL     1       1.560   6.253   4.008  1.00  0.00     0.002 A 
ATOM     10  C   UNL     1       0.616   4.183   3.268  1.00  0.00     0.018 A 
ATOM     11  C   UNL     1       0.561   5.293   4.112  1.00  0.00     0.001 A 
BRANCH   7  12
ATOM     12  N   UNL     1       2.976   5.271   0.765  1.00  0.00    -0.325 N 
ATOM     13  C   UNL     1       2.361   4.888  -0.410  1.00  0.00     0.234 C 
ATOM     14  O   UNL     1       3.082   4.896  -1.417  1.00  0.00    -0.274 OA
ATOM     15  H   UNL     1       3.887   5.641   0.714  1.00  0.00     0.169 HD
BRANCH  13  16
ATOM     16  C   UNL     1       0.752   4.609  -0.545  1.00  0.00     0.178 C 
BRANCH  16  17
ATOM     17  S   UNL     1      -0.343   3.048   0.309  1.00  0.00    -0.078 SA
BRANCH  17  18
ATOM     18  C   UNL     1      -0.028   0.918  -0.223  1.00  0.00     0.170 A 
ATOM     19  C   UNL     1       1.108  -1.102  -0.557  1.00  0.00     0.131 A 
ATOM     20  C   UNL     1       0.040  -1.892  -0.394  1.00  0.00     0.118 A 
ATOM     21  N   UNL     1       1.092   0.272  -0.310  1.00  0.00    -0.207 NA
ATOM     22  C   UNL     1      -1.248  -1.229  -0.462  1.00  0.00     0.253 A 
ATOM     23  O   UNL     1      -2.303  -1.810  -0.463  1.00  0.00    -0.269 OA
ATOM     24  N   UNL     1      -1.129   0.120  -0.604  1.00  0.00    -0.301 N 
ATOM     25  H   UNL     1      -1.891   0.589  -1.017  1.00  0.00     0.172 HD
BRANCH  19  26
ATOM     26  N   UNL     1       2.278  -1.706  -0.901  1.00  0.00    -0.383 N 
ATOM     27  H   UNL     1       2.298  -2.675  -1.077  1.00  0.00     0.158 HD
ATOM     28  H   UNL     1       3.103  -1.175  -0.975  1.00  0.00     0.158 HD
ENDBRANCH  19  26
ENDBRANCH  17  18
ENDBRANCH  16  17
ENDBRANCH  13  16
ENDBRANCH   7  12
ENDBRANCH   4   6
ENDBRANCH   3   4
ENDBRANCH   2   3
ENDBRANCH   1   2
BRANCH   1  29
ATOM     29  O   UNL     1      -1.879   2.045  -1.443  1.00  0.00    -0.374 OA
BRANCH  29  30
ATOM     30  C   UNL     1      -2.567   1.906   0.114  1.00  0.00     0.202 C 
BRANCH  30  31
ATOM     31  C   UNL     1      -2.015   1.052   1.666  1.00  0.00     0.261 C 
BRANCH  31  32
ATOM     32  O   UNL     1      -0.618   0.339   1.903  1.00  0.00    -0.460 OA
BRANCH  32  33
ATOM     33  C   UNL     1       0.045  -0.152   3.042  1.00  0.00     0.338 C 
ATOM     34  O   UNL     1      -0.524  -0.192   4.129  1.00  0.00    -0.246 OA
BRANCH  33  35
ATOM     35  C   UNL     1       1.593  -0.702   2.903  1.00  0.00     0.060 A 
ATOM     36  C   UNL     1       2.509  -0.306   1.929  1.00  0.00     0.016 A 
ATOM     37  C   UNL     1       2.246  -1.541   3.809  1.00  0.00     0.016 A 
ATOM     38  C   UNL     1       3.816  -0.774   1.663  1.00  0.00     0.010 A 
ATOM     39  C   UNL     1       3.635  -1.996   3.606  1.00  0.00     0.010 A 
ATOM     40  C   UNL     1       4.434  -1.688   2.466  1.00  0.00    -0.014 A 
BRANCH  40  41
ATOM     41  C   UNL     1       5.764  -2.331   2.018  1.00  0.00     0.031 A 
ATOM     42  C   UNL     1       5.991  -3.811   2.296  1.00  0.00     0.074 A 
ATOM     43  C   UNL     1       6.753  -1.758   1.262  1.00  0.00     0.049 A 
ATOM     44  N   UNL     1       7.103  -4.510   2.285  1.00  0.00    -0.248 NA
ATOM     45  C   UNL     1       4.802  -4.604   2.632  1.00  0.00     0.031 C 
ATOM     46  C   UNL     1       6.780  -0.406   0.693  1.00  0.00     0.029 A 
ATOM     47  N   UNL     1       7.972  -2.283   0.819  1.00  0.00    -0.354 N 
ATOM     48  C   UNL     1       6.764  -5.778   2.749  1.00  0.00     0.074 A 
ATOM     49  C   UNL     1       5.338  -5.757   2.999  1.00  0.00     0.031 C 
ATOM     50  C   UNL     1       7.890  -0.235  -0.046  1.00  0.00     0.029 A 
ATOM     51  C   UNL     1       8.756  -1.400   0.096  1.00  0.00     0.049 A 
ATOM     52  H   UNL     1       8.250  -3.208   1.006  1.00  0.00     0.167 HD
ATOM     53  C   UNL     1       7.549  -6.863   2.966  1.00  0.00     0.031 A 
ATOM     54  C   UNL     1      10.039  -1.439  -0.348  1.00  0.00     0.031 A 
ATOM     55  C   UNL     1       8.943  -6.976   2.619  1.00  0.00     0.049 A 
ATOM     56  C   UNL     1      10.931  -2.619  -0.053  1.00  0.00     0.074 A 
ATOM     57  C   UNL     1       9.788  -8.058   2.819  1.00  0.00     0.029 A 
ATOM     58  N   UNL     1       9.690  -6.009   1.973  1.00  0.00    -0.354 N 
ATOM     59  N   UNL     1      10.634  -3.743   0.548  1.00  0.00    -0.248 NA
ATOM     60  C   UNL     1      12.344  -2.521  -0.467  1.00  0.00     0.031 C 
ATOM     61  C   UNL     1      11.059  -7.726   2.339  1.00  0.00     0.029 A 
ATOM     62  C   UNL     1      10.991  -6.459   1.787  1.00  0.00     0.049 A 
ATOM     63  H   UNL     1       9.351  -5.130   1.687  1.00  0.00     0.167 HD
ATOM     64  C   UNL     1      11.817  -4.479   0.589  1.00  0.00     0.074 A 
ATOM     65  C   UNL     1      12.832  -3.690  -0.073  1.00  0.00     0.031 C 
ATOM     66  C   UNL     1      12.028  -5.699   1.140  1.00  0.00     0.031 A 
BRANCH  53  67
ATOM     67  C   UNL     1       6.930  -8.011   3.722  1.00  0.00    -0.014 A 
ATOM     68  C   UNL     1       5.992  -8.882   3.144  1.00  0.00     0.010 A 
ATOM     69  C   UNL     1       7.328  -8.219   5.058  1.00  0.00     0.010 A 
ATOM     70  C   UNL     1       5.413  -9.899   3.911  1.00  0.00     0.020 A 
ATOM     71  C   UNL     1       6.779  -9.254   5.815  1.00  0.00     0.020 A 
ATOM     72  C   UNL     1       5.803 -10.070   5.244  1.00  0.00     0.054 A 
BRANCH  72  73
ATOM     73  S   UNL     1       5.024 -11.380   6.227  1.00  0.00     0.124 S 
ATOM     74  O   UNL     1       3.713 -10.801   6.511  1.00  0.00    -0.237 OA
ATOM     75  O   UNL     1       5.022 -12.516   5.308  1.00  0.00    -0.237 OA
ATOM     76  O   UNL     1       5.907 -11.520   7.382  1.00  0.00    -0.744 OA
ENDBRANCH  72  73
ENDBRANCH  53  67
BRANCH  54  77
ATOM     77  C   UNL     1      10.628  -0.237  -1.028  1.00  0.00    -0.014 A 
ATOM     78  C   UNL     1      10.985  -0.259  -2.389  1.00  0.00     0.010 A 
ATOM     79  C   UNL     1      10.830   0.949  -0.296  1.00  0.00     0.010 A 
ATOM     80  C   UNL     1      11.498   0.890  -3.009  1.00  0.00     0.020 A 
ATOM     81  C   UNL     1      11.309   2.106  -0.918  1.00  0.00     0.020 A 
ATOM     82  C   UNL     1      11.639   2.071  -2.273  1.00  0.00     0.054 A 
BRANCH  82  83
ATOM     83  S   UNL     1      12.174   3.587  -3.119  1.00  0.00     0.124 S 
ATOM     84  O   UNL     1      13.610   3.372  -3.257  1.00  0.00    -0.237 OA
ATOM     85  O   UNL     1      11.405   3.547  -4.360  1.00  0.00    -0.237 OA
ATOM     86  O   UNL     1      11.786   4.649  -2.191  1.00  0.00    -0.744 OA
ENDBRANCH  82  83
ENDBRANCH  54  77
BRANCH  66  87
ATOM     87  C   UNL     1      13.410  -6.297   1.043  1.00  0.00    -0.014 A 
ATOM     88  C   UNL     1      14.473  -5.815   1.827  1.00  0.00     0.010 A 
ATOM     89  C   UNL     1      13.639  -7.396   0.193  1.00  0.00     0.010 A 
ATOM     90  C   UNL     1      15.743  -6.401   1.744  1.00  0.00     0.020 A 
ATOM     91  C   UNL     1      14.900  -7.997   0.121  1.00  0.00     0.020 A 
ATOM     92  C   UNL     1      15.949  -7.487   0.888  1.00  0.00     0.054 A 
BRANCH  92  93
ATOM     93  S   UNL     1      17.595  -8.254   0.823  1.00  0.00     0.124 S 
ATOM     94  O   UNL     1      18.360  -7.271   0.062  1.00  0.00    -0.237 OA
ATOM     95  O   UNL     1      17.952  -8.373   2.235  1.00  0.00    -0.237 OA
ATOM     96  O   UNL     1      17.359  -9.524   0.139  1.00  0.00    -0.744 OA
ENDBRANCH  92  93
ENDBRANCH  66  87
ENDBRANCH  40  41
ENDBRANCH  33  35
ENDBRANCH  32  33
ENDBRANCH  31  32
ENDBRANCH  30  31
ENDBRANCH  29  30
ENDBRANCH   1  29
TORSDOF 22
