REMARK SMILES O=C(OCCOCCOC(=O)c1cccn2c(=O)c3ccc(Cl)cc3nc12)c1ccc(-c2c3nc(c(-c4ccc(S(=O)(=O)[O-])cc4)c4ccc([nH]4)c(-c4ccc(S(=O)(=O)[O-])cc4)c4nc(c(-c5ccc(S(=O)(=O)[O-])cc5)c5ccc2[nH]5)C=C4)C=C3)cc1
REMARK SMILES IDX 4 1 3 2 2 3 1 4 28 5 29 6 87 7 30 8 86 9 31 10 32 11 33 12
REMARK SMILES IDX 80 13 34 14 85 15 79 16 81 17 35 18 84 19 78 20 77 21 36 23
REMARK SMILES IDX 66 24 47 25 65 26 48 27 51 28 64 29 82 30 49 31 50 32 63 34
REMARK SMILES IDX 83 35 52 36 37 37 38 38 46 39 39 40 45 41 40 42 41 43 42 44
REMARK SMILES IDX 43 45 44 46 67 47 68 48 76 49 69 50 75 51 70 52 71 53 72 54
REMARK SMILES IDX 73 55 74 56 53 57 54 58 62 59 55 60 61 61 56 62 57 63 58 64
REMARK SMILES IDX 59 65 60 66 5 67 6 68 7 69 8 70 9 71 10 72 11 73 12 74 13 75
REMARK SMILES IDX 27 76 14 77 16 78 26 79 15 80 17 81 25 82 18 83 19 84 24 85
REMARK SMILES IDX 20 86 22 87 21 88 23 89
REMARK H PARENT 81 22 51 33
REMARK Flexibility Score: inf
ROOT
ATOM      1  C   UNL     1       4.238  -0.295   1.319  1.00  0.00     0.261 C 
ENDROOT
BRANCH   1   2
ATOM      2  O   UNL     1       2.897   0.164   1.511  1.00  0.00    -0.460 OA
BRANCH   2   3
ATOM      3  C   UNL     1       2.241   1.132   0.829  1.00  0.00     0.338 C 
ATOM      4  O   UNL     1       1.040   1.266   1.069  1.00  0.00    -0.246 OA
BRANCH   3   5
ATOM      5  C   UNL     1       2.851   2.048  -0.201  1.00  0.00     0.060 A 
ATOM      6  C   UNL     1       2.020   3.087  -0.666  1.00  0.00     0.016 A 
ATOM      7  C   UNL     1       4.110   1.927  -0.796  1.00  0.00     0.016 A 
ATOM      8  C   UNL     1       2.406   3.914  -1.725  1.00  0.00     0.010 A 
ATOM      9  C   UNL     1       4.495   2.725  -1.867  1.00  0.00     0.010 A 
ATOM     10  C   UNL     1       3.637   3.709  -2.346  1.00  0.00    -0.014 A 
BRANCH  10  11
ATOM     11  C   UNL     1       4.126   4.565  -3.436  1.00  0.00     0.031 A 
ATOM     12  C   UNL     1       4.060   4.095  -4.855  1.00  0.00     0.074 A 
ATOM     13  C   UNL     1       4.771   5.691  -3.080  1.00  0.00     0.049 A 
ATOM     14  N   UNL     1       4.498   4.692  -5.929  1.00  0.00    -0.248 NA
ATOM     15  C   UNL     1       3.440   2.781  -5.107  1.00  0.00     0.031 C 
ATOM     16  C   UNL     1       4.947   6.146  -1.698  1.00  0.00     0.029 A 
ATOM     17  N   UNL     1       5.434   6.622  -3.829  1.00  0.00    -0.354 N 
ATOM     18  C   UNL     1       4.187   3.847  -6.987  1.00  0.00     0.074 A 
ATOM     19  C   UNL     1       3.564   2.670  -6.425  1.00  0.00     0.031 C 
ATOM     20  C   UNL     1       5.698   7.256  -1.696  1.00  0.00     0.029 A 
ATOM     21  C   UNL     1       6.061   7.582  -3.071  1.00  0.00     0.049 A 
ATOM     22  H   UNL     1       5.461   6.607  -4.813  1.00  0.00     0.167 HD
ATOM     23  C   UNL     1       4.396   4.066  -8.304  1.00  0.00     0.031 A 
ATOM     24  C   UNL     1       6.849   8.607  -3.446  1.00  0.00     0.031 A 
ATOM     25  C   UNL     1       5.042   5.252  -8.807  1.00  0.00     0.049 A 
ATOM     26  C   UNL     1       7.054   8.835  -4.915  1.00  0.00     0.074 A 
ATOM     27  C   UNL     1       5.236   5.625 -10.124  1.00  0.00     0.029 A 
ATOM     28  N   UNL     1       5.606   6.245  -8.019  1.00  0.00    -0.354 N 
ATOM     29  N   UNL     1       6.629   8.103  -5.918  1.00  0.00    -0.248 NA
ATOM     30  C   UNL     1       7.803  10.031  -5.314  1.00  0.00     0.031 C 
ATOM     31  C   UNL     1       5.981   6.803 -10.133  1.00  0.00     0.029 A 
ATOM     32  C   UNL     1       6.177   7.215  -8.822  1.00  0.00     0.049 A 
ATOM     33  H   UNL     1       5.601   6.258  -7.034  1.00  0.00     0.167 HD
ATOM     34  C   UNL     1       7.036   8.761  -7.069  1.00  0.00     0.074 A 
ATOM     35  C   UNL     1       7.732   9.958  -6.639  1.00  0.00     0.031 C 
ATOM     36  C   UNL     1       6.852   8.405  -8.362  1.00  0.00     0.031 A 
BRANCH  23  37
ATOM     37  C   UNL     1       3.891   3.069  -9.318  1.00  0.00    -0.014 A 
ATOM     38  C   UNL     1       4.796   2.416 -10.177  1.00  0.00     0.010 A 
ATOM     39  C   UNL     1       2.512   2.955  -9.569  1.00  0.00     0.010 A 
ATOM     40  C   UNL     1       4.337   1.731 -11.307  1.00  0.00     0.020 A 
ATOM     41  C   UNL     1       2.047   2.249 -10.684  1.00  0.00     0.020 A 
ATOM     42  C   UNL     1       2.965   1.673 -11.566  1.00  0.00     0.054 A 
BRANCH  42  43
ATOM     43  S   UNL     1       2.396   0.890 -13.101  1.00  0.00     0.124 S 
ATOM     44  O   UNL     1       2.839   1.839 -14.117  1.00  0.00    -0.237 OA
ATOM     45  O   UNL     1       3.097  -0.392 -13.083  1.00  0.00    -0.237 OA
ATOM     46  O   UNL     1       0.948   0.798 -12.924  1.00  0.00    -0.744 OA
ENDBRANCH  42  43
ENDBRANCH  23  37
BRANCH  24  47
ATOM     47  C   UNL     1       7.420   9.495  -2.397  1.00  0.00    -0.014 A 
ATOM     48  C   UNL     1       8.382   8.999  -1.496  1.00  0.00     0.010 A 
ATOM     49  C   UNL     1       6.911  10.790  -2.206  1.00  0.00     0.010 A 
ATOM     50  C   UNL     1       8.785   9.760  -0.395  1.00  0.00     0.020 A 
ATOM     51  C   UNL     1       7.335  11.567  -1.122  1.00  0.00     0.020 A 
ATOM     52  C   UNL     1       8.246  11.035  -0.208  1.00  0.00     0.054 A 
BRANCH  52  53
ATOM     53  S   UNL     1       8.739  11.983   1.259  1.00  0.00     0.124 S 
ATOM     54  O   UNL     1       7.995  11.306   2.317  1.00  0.00    -0.237 OA
ATOM     55  O   UNL     1      10.187  11.794   1.289  1.00  0.00    -0.237 OA
ATOM     56  O   UNL     1       8.297  13.341   0.953  1.00  0.00    -0.744 OA
ENDBRANCH  52  53
ENDBRANCH  24  47
BRANCH  36  57
ATOM     57  C   UNL     1       7.403   9.305  -9.434  1.00  0.00    -0.014 A 
ATOM     58  C   UNL     1       6.516   9.970 -10.302  1.00  0.00     0.010 A 
ATOM     59  C   UNL     1       8.780   9.315  -9.711  1.00  0.00     0.010 A 
ATOM     60  C   UNL     1       6.990  10.568 -11.470  1.00  0.00     0.020 A 
ATOM     61  C   UNL     1       9.261   9.940 -10.864  1.00  0.00     0.020 A 
ATOM     62  C   UNL     1       8.358  10.528 -11.753  1.00  0.00     0.054 A 
BRANCH  62  63
ATOM     63  S   UNL     1       8.939  11.211 -13.329  1.00  0.00     0.124 S 
ATOM     64  O   UNL     1       8.467  10.217 -14.288  1.00  0.00    -0.237 OA
ATOM     65  O   UNL     1       8.266  12.507 -13.382  1.00  0.00    -0.237 OA
ATOM     66  O   UNL     1      10.389  11.277 -13.161  1.00  0.00    -0.744 OA
ENDBRANCH  62  63
ENDBRANCH  36  57
ENDBRANCH  10  11
ENDBRANCH   3   5
ENDBRANCH   2   3
ENDBRANCH   1   2
BRANCH   1  67
ATOM     67  C   UNL     1       4.337  -1.273   0.149  1.00  0.00     0.202 C 
BRANCH  67  68
ATOM     68  O   UNL     1       3.735  -0.806  -1.055  1.00  0.00    -0.374 OA
BRANCH  68  69
ATOM     69  C   UNL     1       2.520  -1.448  -1.431  1.00  0.00     0.202 C 
BRANCH  69  70
ATOM     70  C   UNL     1       2.785  -2.615  -2.384  1.00  0.00     0.261 C 
BRANCH  70  71
ATOM     71  O   UNL     1       3.426  -3.688  -1.671  1.00  0.00    -0.460 OA
BRANCH  71  72
ATOM     72  C   UNL     1       4.783  -3.757  -1.771  1.00  0.00     0.342 C 
ATOM     73  O   UNL     1       5.490  -3.120  -2.533  1.00  0.00    -0.246 OA
BRANCH  72  74
ATOM     74  C   UNL     1       5.287  -4.681  -0.729  1.00  0.00     0.103 A 
ATOM     75  C   UNL     1       4.683  -5.873  -0.584  1.00  0.00     0.021 A 
ATOM     76  C   UNL     1       6.415  -4.311   0.193  1.00  0.00     0.154 A 
ATOM     77  C   UNL     1       5.124  -6.807   0.413  1.00  0.00     0.019 A 
ATOM     78  N   UNL     1       6.826  -5.285   1.109  1.00  0.00    -0.267 N 
ATOM     79  N   UNL     1       6.933  -3.123   0.162  1.00  0.00    -0.229 NA
ATOM     80  C   UNL     1       6.166  -6.506   1.194  1.00  0.00     0.096 A 
ATOM     81  C   UNL     1       7.896  -5.049   1.980  1.00  0.00     0.265 A 
ATOM     82  C   UNL     1       7.920  -2.767   1.083  1.00  0.00     0.080 A 
ATOM     83  O   UNL     1       8.368  -5.883   2.752  1.00  0.00    -0.268 OA
ATOM     84  C   UNL     1       8.456  -3.685   1.979  1.00  0.00     0.066 A 
ATOM     85  C   UNL     1       8.353  -1.438   1.131  1.00  0.00     0.049 A 
ATOM     86  C   UNL     1       9.447  -3.306   2.893  1.00  0.00     0.017 A 
ATOM     87  C   UNL     1       9.319  -1.047   2.059  1.00  0.00     0.043 A 
ATOM     88  C   UNL     1       9.879  -1.979   2.932  1.00  0.00     0.021 A 
ATOM     89  Cl  UNL     1       9.809   0.599   2.146  1.00  0.00    -0.084 Cl
ENDBRANCH  72  74
ENDBRANCH  71  72
ENDBRANCH  70  71
ENDBRANCH  69  70
ENDBRANCH  68  69
ENDBRANCH  67  68
ENDBRANCH   1  67
TORSDOF 17
