REMARK SMILES Cc1ccc(Cl)c(Nc2ccccc2C(=O)NCC(=O)OCCOCCOC(=O)c2ccc(-c3c4nc(c(-c5ccc(S(=O)(=O)[O-])cc5)c5ccc([nH]5)c(-c5ccc(S(=O)(=O)[O-])cc5)c5nc(c(-c6ccc(S(=O)(=O)[O-])cc6)c6ccc3[nH]6)C=C5)C=C4)cc2)c1Cl
REMARK SMILES IDX 23 1 22 2 21 3 19 4 20 5 18 6 17 7 15 8 16 9 14 11 9 12
REMARK SMILES IDX 10 13 11 14 13 15 12 16 8 17 7 19 1 20 2 21 3 22 90 23 4 24
REMARK SMILES IDX 91 25 5 26 6 27 24 28 25 29 26 30 27 31 28 32 29 33 30 34
REMARK SMILES IDX 31 35 89 36 32 37 88 38 33 39 34 40 35 41 82 42 36 43 87 44
REMARK SMILES IDX 81 45 83 46 37 47 86 48 80 49 79 50 38 52 68 53 49 54 67 55
REMARK SMILES IDX 50 56 53 57 66 58 84 59 51 60 52 61 65 63 85 64 54 65 39 66
REMARK SMILES IDX 40 67 48 68 41 69 47 70 42 71 43 72 44 73 45 74 46 75 69 76
REMARK SMILES IDX 70 77 78 78 71 79 77 80 72 81 73 82 74 83 75 84 76 85 55 86
REMARK SMILES IDX 56 87 64 88 57 89 63 90 58 91 59 92 60 93 61 94 62 95
REMARK H PARENT 17 10 8 18 83 51 53 62
REMARK Flexibility Score: inf
ROOT
ATOM      1  C   UNL     1      -4.961  -1.216   3.229  1.00  0.00     0.202 C 
ENDROOT
BRANCH   1   2
ATOM      2  C   UNL     1      -4.258  -2.291   2.385  1.00  0.00     0.261 C 
BRANCH   2   3
ATOM      3  O   UNL     1      -2.831  -2.216   2.530  1.00  0.00    -0.462 OA
BRANCH   3   4
ATOM      4  C   UNL     1      -2.124  -2.065   1.377  1.00  0.00     0.325 C 
ATOM      5  O   UNL     1      -2.562  -2.246   0.249  1.00  0.00    -0.250 OA
BRANCH   4   6
ATOM      6  C   UNL     1      -0.787  -1.405   1.671  1.00  0.00     0.239 C 
BRANCH   6   7
ATOM      7  N   UNL     1       0.291  -2.157   2.251  1.00  0.00    -0.341 N 
ATOM      8  C   UNL     1       1.499  -2.289   1.606  1.00  0.00     0.253 C 
ATOM      9  O   UNL     1       2.513  -1.867   2.160  1.00  0.00    -0.269 OA
ATOM     10  H   UNL     1       0.162  -2.587   3.127  1.00  0.00     0.164 HD
BRANCH   8  11
ATOM     11  C   UNL     1       1.600  -3.241   0.469  1.00  0.00     0.063 A 
ATOM     12  C   UNL     1       1.017  -3.156  -0.811  1.00  0.00     0.051 A 
ATOM     13  C   UNL     1       1.144  -4.293  -1.645  1.00  0.00     0.027 A 
ATOM     14  C   UNL     1       1.859  -5.432  -1.264  1.00  0.00     0.002 A 
ATOM     15  C   UNL     1       2.346  -4.386   0.832  1.00  0.00     0.016 A 
ATOM     16  C   UNL     1       2.484  -5.470  -0.029  1.00  0.00     0.001 A 
BRANCH  12  17
ATOM     17  N   UNL     1       0.394  -2.051  -1.431  1.00  0.00    -0.352 N 
ATOM     18  H   UNL     1      -0.312  -2.329  -2.058  1.00  0.00     0.167 HD
BRANCH  17  19
ATOM     19  C   UNL     1       0.531  -0.641  -1.374  1.00  0.00     0.077 A 
ATOM     20  C   UNL     1       2.777   2.130   0.051  1.00  0.00     0.046 C 
ATOM     21  C   UNL     1       1.599   1.409  -0.547  1.00  0.00    -0.030 A 
ATOM     22  C   UNL     1       0.400   2.112  -0.732  1.00  0.00     0.006 A 
ATOM     23  C   UNL     1       1.671   0.043  -0.910  1.00  0.00     0.069 A 
ATOM     24  C   UNL     1      -0.690   1.493  -1.330  1.00  0.00     0.023 A 
ATOM     25  Cl  UNL     1       3.228  -0.731  -0.917  1.00  0.00    -0.082 Cl
ATOM     26  C   UNL     1      -0.615   0.142  -1.666  1.00  0.00     0.066 A 
ATOM     27  Cl  UNL     1      -1.998  -0.560  -2.441  1.00  0.00    -0.082 Cl
ENDBRANCH  17  19
ENDBRANCH  12  17
ENDBRANCH   8  11
ENDBRANCH   6   7
ENDBRANCH   4   6
ENDBRANCH   3   4
ENDBRANCH   2   3
ENDBRANCH   1   2
BRANCH   1  28
ATOM     28  O   UNL     1      -4.738   0.153   2.893  1.00  0.00    -0.374 OA
BRANCH  28  29
ATOM     29  C   UNL     1      -3.417   0.676   2.991  1.00  0.00     0.202 C 
BRANCH  29  30
ATOM     30  C   UNL     1      -2.687   0.600   4.346  1.00  0.00     0.261 C 
BRANCH  30  31
ATOM     31  O   UNL     1      -2.473  -0.746   4.814  1.00  0.00    -0.460 OA
BRANCH  31  32
ATOM     32  C   UNL     1      -2.948  -1.003   6.057  1.00  0.00     0.338 C 
ATOM     33  O   UNL     1      -3.428  -0.193   6.840  1.00  0.00    -0.246 OA
BRANCH  32  34
ATOM     34  C   UNL     1      -3.002  -2.454   6.309  1.00  0.00     0.060 A 
ATOM     35  C   UNL     1      -4.268  -3.050   6.388  1.00  0.00     0.016 A 
ATOM     36  C   UNL     1      -1.855  -3.187   6.620  1.00  0.00     0.016 A 
ATOM     37  C   UNL     1      -4.396  -4.370   6.809  1.00  0.00     0.010 A 
ATOM     38  C   UNL     1      -1.988  -4.511   7.063  1.00  0.00     0.010 A 
ATOM     39  C   UNL     1      -3.261  -5.093   7.196  1.00  0.00    -0.014 A 
BRANCH  39  40
ATOM     40  C   UNL     1      -3.459  -6.385   7.899  1.00  0.00     0.031 A 
ATOM     41  C   UNL     1      -3.479  -6.402   9.404  1.00  0.00     0.074 A 
ATOM     42  C   UNL     1      -3.716  -7.510   7.209  1.00  0.00     0.049 A 
ATOM     43  N   UNL     1      -3.728  -7.395  10.219  1.00  0.00    -0.248 NA
ATOM     44  C   UNL     1      -3.188  -5.126  10.078  1.00  0.00     0.031 C 
ATOM     45  C   UNL     1      -3.769  -7.613   5.752  1.00  0.00     0.029 A 
ATOM     46  N   UNL     1      -3.994  -8.779   7.649  1.00  0.00    -0.354 N 
ATOM     47  C   UNL     1      -3.634  -6.864  11.500  1.00  0.00     0.074 A 
ATOM     48  C   UNL     1      -3.268  -5.472  11.355  1.00  0.00     0.031 C 
ATOM     49  C   UNL     1      -4.061  -8.881   5.416  1.00  0.00     0.029 A 
ATOM     50  C   UNL     1      -4.198  -9.681   6.633  1.00  0.00     0.049 A 
ATOM     51  H   UNL     1      -4.043  -9.021   8.602  1.00  0.00     0.167 HD
ATOM     52  C   UNL     1      -3.841  -7.476  12.692  1.00  0.00     0.031 A 
ATOM     53  C   UNL     1      -4.459 -11.002   6.677  1.00  0.00     0.031 A 
ATOM     54  C   UNL     1      -4.170  -8.870  12.839  1.00  0.00     0.049 A 
ATOM     55  C   UNL     1      -4.624 -11.678   8.011  1.00  0.00     0.074 A 
ATOM     56  C   UNL     1      -4.385  -9.588  14.002  1.00  0.00     0.029 A 
ATOM     57  N   UNL     1      -4.321  -9.760  11.786  1.00  0.00    -0.354 N 
ATOM     58  N   UNL     1      -4.546 -11.159   9.214  1.00  0.00    -0.248 NA
ATOM     59  C   UNL     1      -4.931 -13.115   7.992  1.00  0.00     0.031 C 
ATOM     60  C   UNL     1      -4.619 -10.924  13.653  1.00  0.00     0.029 A 
ATOM     61  C   UNL     1      -4.606 -11.026  12.271  1.00  0.00     0.049 A 
ATOM     62  H   UNL     1      -4.237  -9.527  10.833  1.00  0.00     0.167 HD
ATOM     63  C   UNL     1      -4.811 -12.202  10.096  1.00  0.00     0.074 A 
ATOM     64  C   UNL     1      -5.071 -13.376   9.285  1.00  0.00     0.031 C 
ATOM     65  C   UNL     1      -4.841 -12.190  11.453  1.00  0.00     0.031 A 
BRANCH  52  66
ATOM     66  C   UNL     1      -3.671  -6.635  13.930  1.00  0.00    -0.014 A 
ATOM     67  C   UNL     1      -4.605  -5.636  14.265  1.00  0.00     0.010 A 
ATOM     68  C   UNL     1      -2.559  -6.838  14.766  1.00  0.00     0.010 A 
ATOM     69  C   UNL     1      -4.400  -4.820  15.381  1.00  0.00     0.020 A 
ATOM     70  C   UNL     1      -2.364  -6.041  15.898  1.00  0.00     0.020 A 
ATOM     71  C   UNL     1      -3.274  -5.021  16.185  1.00  0.00     0.054 A 
BRANCH  71  72
ATOM     72  S   UNL     1      -3.020  -3.940  17.619  1.00  0.00     0.124 S 
ATOM     73  O   UNL     1      -2.574  -2.701  16.985  1.00  0.00    -0.237 OA
ATOM     74  O   UNL     1      -4.348  -3.891  18.226  1.00  0.00    -0.237 OA
ATOM     75  O   UNL     1      -2.005  -4.638  18.404  1.00  0.00    -0.744 OA
ENDBRANCH  71  72
ENDBRANCH  52  66
BRANCH  53  76
ATOM     76  C   UNL     1      -4.572 -11.769   5.407  1.00  0.00    -0.014 A 
ATOM     77  C   UNL     1      -5.815 -12.241   4.952  1.00  0.00     0.010 A 
ATOM     78  C   UNL     1      -3.424 -12.000   4.626  1.00  0.00     0.010 A 
ATOM     79  C   UNL     1      -5.908 -12.930   3.739  1.00  0.00     0.020 A 
ATOM     80  C   UNL     1      -3.517 -12.667   3.401  1.00  0.00     0.020 A 
ATOM     81  C   UNL     1      -4.759 -13.132   2.968  1.00  0.00     0.054 A 
BRANCH  81  82
ATOM     82  S   UNL     1      -4.916 -13.952   1.356  1.00  0.00     0.124 S 
ATOM     83  O   UNL     1      -5.104 -15.347   1.742  1.00  0.00    -0.237 OA
ATOM     84  O   UNL     1      -6.083 -13.291   0.778  1.00  0.00    -0.237 OA
ATOM     85  O   UNL     1      -3.648 -13.649   0.695  1.00  0.00    -0.744 OA
ENDBRANCH  81  82
ENDBRANCH  53  76
BRANCH  65  86
ATOM     86  C   UNL     1      -5.183 -13.484  12.143  1.00  0.00    -0.014 A 
ATOM     87  C   UNL     1      -4.278 -14.560  12.169  1.00  0.00     0.010 A 
ATOM     88  C   UNL     1      -6.424 -13.618  12.793  1.00  0.00     0.010 A 
ATOM     89  C   UNL     1      -4.628 -15.764  12.788  1.00  0.00     0.020 A 
ATOM     90  C   UNL     1      -6.767 -14.810  13.436  1.00  0.00     0.020 A 
ATOM     91  C   UNL     1      -5.874 -15.884  13.410  1.00  0.00     0.054 A 
BRANCH  91  92
ATOM     92  S   UNL     1      -6.307 -17.453  14.211  1.00  0.00     0.124 S 
ATOM     93  O   UNL     1      -6.636 -18.297  13.065  1.00  0.00    -0.237 OA
ATOM     94  O   UNL     1      -5.078 -17.805  14.919  1.00  0.00    -0.237 OA
ATOM     95  O   UNL     1      -7.435 -17.102  15.071  1.00  0.00    -0.744 OA
ENDBRANCH  91  92
ENDBRANCH  65  86
ENDBRANCH  39  40
ENDBRANCH  32  34
ENDBRANCH  31  32
ENDBRANCH  30  31
ENDBRANCH  29  30
ENDBRANCH  28  29
ENDBRANCH   1  28
TORSDOF 21
