REMARK SMILES COc1cc(OC(F)(F)F)cc2c1O[C@@H](C(F)(F)F)C(C(=O)OCCOCCOC(=O)c1ccc(-c3c4nc(c(-c5ccc(S(=O)(=O)[O-])cc5)c5ccc([nH]5)c(-c5ccc(S(=O)(=O)[O-])cc5)c5nc(c(-c6ccc(S(=O)(=O)[O-])cc6)c6ccc3[nH]6)C=C5)C=C4)cc1)=C2
REMARK SMILES IDX 27 1 26 2 25 3 24 4 23 5 21 6 22 7 20 8 3 9 4 10 13 11 5 12
REMARK SMILES IDX 12 13 14 14 11 15 92 16 15 17 2 18 1 19 6 20 7 21 8 22 9 23
REMARK SMILES IDX 10 24 16 25 17 26 18 27 19 28 28 29 29 30 30 31 31 32 32 33
REMARK SMILES IDX 33 34 91 35 34 36 90 37 35 38 36 39 37 40 84 41 38 42 89 43
REMARK SMILES IDX 83 44 85 45 39 46 88 47 82 48 81 49 40 51 70 52 51 53 69 54
REMARK SMILES IDX 52 55 55 56 68 57 86 58 53 59 54 60 67 62 87 63 56 64 41 65
REMARK SMILES IDX 42 66 50 67 43 68 49 69 44 70 45 71 46 72 47 73 48 74 71 75
REMARK SMILES IDX 72 76 80 77 73 78 79 79 74 80 75 81 76 82 77 83 78 84 57 85
REMARK SMILES IDX 58 86 66 87 59 88 65 89 60 90 61 91 62 92 63 93 64 94
REMARK H PARENT 85 50 55 61
REMARK Flexibility Score: inf
ROOT
ATOM      1  C   UNL     1       7.106   3.668   1.003  1.00  0.00     0.202 C 
ENDROOT
BRANCH   1   2
ATOM      2  O   UNL     1       8.421   3.513   0.473  1.00  0.00    -0.374 OA
BRANCH   2   3
ATOM      3  C   UNL     1       8.803   4.321  -0.637  1.00  0.00     0.202 C 
BRANCH   3   4
ATOM      4  C   UNL     1       8.236   3.954  -2.013  1.00  0.00     0.261 C 
BRANCH   4   5
ATOM      5  O   UNL     1       6.801   3.887  -2.006  1.00  0.00    -0.460 OA
BRANCH   5   6
ATOM      6  C   UNL     1       6.296   2.646  -2.198  1.00  0.00     0.338 C 
ATOM      7  O   UNL     1       6.925   1.641  -2.489  1.00  0.00    -0.246 OA
BRANCH   6   8
ATOM      8  C   UNL     1       4.862   2.606  -1.871  1.00  0.00     0.087 C 
ATOM      9  C   UNL     1       0.798   1.704  -1.618  1.00  0.00     0.165 A 
ATOM     10  C   UNL     1      -0.152   2.640  -2.034  1.00  0.00     0.097 A 
ATOM     11  C   UNL     1       2.158   2.013  -1.691  1.00  0.00     0.170 A 
ATOM     12  C   UNL     1       0.249   3.899  -2.485  1.00  0.00     0.134 A 
ATOM     13  C   UNL     1       2.577   3.271  -2.158  1.00  0.00     0.025 A 
ATOM     14  O   UNL     1       3.067   1.026  -1.404  1.00  0.00    -0.471 OA
ATOM     15  C   UNL     1       1.615   4.216  -2.527  1.00  0.00     0.059 A 
ATOM     16  C   UNL     1       4.007   3.506  -2.387  1.00  0.00     0.027 C 
ATOM     17  C   UNL     1       4.353   1.519  -0.956  1.00  0.00     0.316 C 
BRANCH   9  18
ATOM     18  O   UNL     1       0.307   0.476  -1.253  1.00  0.00    -0.493 OA
ATOM     19  C   UNL     1       0.713   0.071   0.053  1.00  0.00     0.278 C 
ENDBRANCH   9  18
BRANCH  12  20
ATOM     20  O   UNL     1      -0.581   4.893  -2.924  1.00  0.00    -0.406 OA
BRANCH  20  21
ATOM     21  C   UNL     1      -1.936   4.553  -3.174  1.00  0.00     0.573 C 
ATOM     22  F   UNL     1      -2.033   3.520  -4.039  1.00  0.00    -0.132 F 
ATOM     23  F   UNL     1      -2.574   4.237  -2.026  1.00  0.00    -0.132 F 
ATOM     24  F   UNL     1      -2.562   5.618  -3.720  1.00  0.00    -0.132 F 
ENDBRANCH  20  21
ENDBRANCH  12  20
BRANCH  17  25
ATOM     25  C   UNL     1       5.250   0.310  -0.640  1.00  0.00     0.430 C 
ATOM     26  F   UNL     1       6.400   0.691  -0.038  1.00  0.00    -0.167 F 
ATOM     27  F   UNL     1       4.619  -0.502   0.256  1.00  0.00    -0.167 F 
ATOM     28  F   UNL     1       5.539  -0.448  -1.714  1.00  0.00    -0.167 F 
ENDBRANCH  17  25
ENDBRANCH   6   8
ENDBRANCH   5   6
ENDBRANCH   4   5
ENDBRANCH   3   4
ENDBRANCH   2   3
ENDBRANCH   1   2
BRANCH   1  29
ATOM     29  C   UNL     1       6.774   4.956   1.767  1.00  0.00     0.261 C 
BRANCH  29  30
ATOM     30  O   UNL     1       6.804   6.126   0.935  1.00  0.00    -0.460 OA
BRANCH  30  31
ATOM     31  C   UNL     1       7.830   6.975   1.188  1.00  0.00     0.338 C 
ATOM     32  O   UNL     1       8.691   6.857   2.049  1.00  0.00    -0.246 OA
BRANCH  31  33
ATOM     33  C   UNL     1       7.891   8.002   0.136  1.00  0.00     0.060 A 
ATOM     34  C   UNL     1       9.084   8.136  -0.588  1.00  0.00     0.016 A 
ATOM     35  C   UNL     1       6.818   8.865  -0.089  1.00  0.00     0.016 A 
ATOM     36  C   UNL     1       9.222   9.162  -1.520  1.00  0.00     0.010 A 
ATOM     37  C   UNL     1       6.963   9.899  -1.015  1.00  0.00     0.010 A 
ATOM     38  C   UNL     1       8.174  10.070  -1.711  1.00  0.00    -0.014 A 
BRANCH  38  39
ATOM     39  C   UNL     1       8.379  11.286  -2.531  1.00  0.00     0.031 A 
ATOM     40  C   UNL     1       8.609  12.599  -1.838  1.00  0.00     0.074 A 
ATOM     41  C   UNL     1       8.330  11.223  -3.873  1.00  0.00     0.049 A 
ATOM     42  N   UNL     1       8.692  13.800  -2.346  1.00  0.00    -0.248 NA
ATOM     43  C   UNL     1       8.754  12.547  -0.374  1.00  0.00     0.031 C 
ATOM     44  C   UNL     1       8.153  10.002  -4.656  1.00  0.00     0.029 A 
ATOM     45  N   UNL     1       8.402  12.221  -4.811  1.00  0.00    -0.354 N 
ATOM     46  C   UNL     1       8.880  14.652  -1.264  1.00  0.00     0.074 A 
ATOM     47  C   UNL     1       8.869  13.832  -0.072  1.00  0.00     0.031 C 
ATOM     48  C   UNL     1       8.104  10.326  -5.959  1.00  0.00     0.029 A 
ATOM     49  C   UNL     1       8.204  11.778  -6.096  1.00  0.00     0.049 A 
ATOM     50  H   UNL     1       8.579  13.163  -4.585  1.00  0.00     0.167 HD
ATOM     51  C   UNL     1       9.048  15.997  -1.264  1.00  0.00     0.031 A 
ATOM     52  C   UNL     1       8.081  12.467  -7.247  1.00  0.00     0.031 A 
ATOM     53  C   UNL     1       9.029  16.807  -2.454  1.00  0.00     0.049 A 
ATOM     54  C   UNL     1       8.198  13.967  -7.223  1.00  0.00     0.074 A 
ATOM     55  C   UNL     1       9.198  18.175  -2.568  1.00  0.00     0.029 A 
ATOM     56  N   UNL     1       8.817  16.322  -3.737  1.00  0.00    -0.354 N 
ATOM     57  N   UNL     1       8.393  14.762  -6.197  1.00  0.00    -0.248 NA
ATOM     58  C   UNL     1       8.089  14.663  -8.512  1.00  0.00     0.031 C 
ATOM     59  C   UNL     1       9.028  18.524  -3.912  1.00  0.00     0.029 A 
ATOM     60  C   UNL     1       8.823  17.366  -4.646  1.00  0.00     0.049 A 
ATOM     61  H   UNL     1       8.681  15.374  -3.967  1.00  0.00     0.167 HD
ATOM     62  C   UNL     1       8.458  16.050  -6.720  1.00  0.00     0.074 A 
ATOM     63  C   UNL     1       8.290  15.925  -8.154  1.00  0.00     0.031 C 
ATOM     64  C   UNL     1       8.647  17.227  -6.072  1.00  0.00     0.031 A 
BRANCH  51  65
ATOM     65  C   UNL     1       9.210  16.670   0.074  1.00  0.00    -0.014 A 
ATOM     66  C   UNL     1      10.359  16.468   0.862  1.00  0.00     0.010 A 
ATOM     67  C   UNL     1       8.192  17.512   0.558  1.00  0.00     0.010 A 
ATOM     68  C   UNL     1      10.456  17.042   2.133  1.00  0.00     0.020 A 
ATOM     69  C   UNL     1       8.300  18.115   1.814  1.00  0.00     0.020 A 
ATOM     70  C   UNL     1       9.421  17.854   2.605  1.00  0.00     0.054 A 
BRANCH  70  71
ATOM     71  S   UNL     1       9.562  18.568   4.266  1.00  0.00     0.124 S 
ATOM     72  O   UNL     1       9.339  17.399   5.114  1.00  0.00    -0.237 OA
ATOM     73  O   UNL     1      10.922  19.099   4.273  1.00  0.00    -0.237 OA
ATOM     74  O   UNL     1       8.503  19.574   4.303  1.00  0.00    -0.744 OA
ENDBRANCH  70  71
ENDBRANCH  51  65
BRANCH  52  75
ATOM     75  C   UNL     1       7.811  11.731  -8.511  1.00  0.00    -0.014 A 
ATOM     76  C   UNL     1       8.806  11.602  -9.494  1.00  0.00     0.010 A 
ATOM     77  C   UNL     1       6.565  11.107  -8.712  1.00  0.00     0.010 A 
ATOM     78  C   UNL     1       8.564  10.857 -10.652  1.00  0.00     0.020 A 
ATOM     79  C   UNL     1       6.328  10.339  -9.854  1.00  0.00     0.020 A 
ATOM     80  C   UNL     1       7.330  10.220 -10.819  1.00  0.00     0.054 A 
BRANCH  80  81
ATOM     81  S   UNL     1       7.074   9.180 -12.283  1.00  0.00     0.124 S 
ATOM     82  O   UNL     1       6.966  10.172 -13.347  1.00  0.00    -0.237 OA
ATOM     83  O   UNL     1       8.285   8.361 -12.300  1.00  0.00    -0.237 OA
ATOM     84  O   UNL     1       5.845   8.453 -11.975  1.00  0.00    -0.744 OA
ENDBRANCH  80  81
ENDBRANCH  52  75
BRANCH  64  85
ATOM     85  C   UNL     1       8.722  18.478  -6.908  1.00  0.00    -0.014 A 
ATOM     86  C   UNL     1       7.580  19.020  -7.524  1.00  0.00     0.010 A 
ATOM     87  C   UNL     1       9.950  19.157  -7.024  1.00  0.00     0.010 A 
ATOM     88  C   UNL     1       7.672  20.204  -8.264  1.00  0.00     0.020 A 
ATOM     89  C   UNL     1      10.039  20.355  -7.737  1.00  0.00     0.020 A 
ATOM     90  C   UNL     1       8.900  20.865  -8.364  1.00  0.00     0.054 A 
BRANCH  90  91
ATOM     91  S   UNL     1       8.982  22.424  -9.287  1.00  0.00     0.124 S 
ATOM     92  O   UNL     1       8.861  21.965 -10.669  1.00  0.00    -0.237 OA
ATOM     93  O   UNL     1       7.834  23.164  -8.768  1.00  0.00    -0.237 OA
ATOM     94  O   UNL     1      10.286  22.974  -8.925  1.00  0.00    -0.744 OA
ENDBRANCH  90  91
ENDBRANCH  64  85
ENDBRANCH  38  39
ENDBRANCH  31  33
ENDBRANCH  30  31
ENDBRANCH  29  30
ENDBRANCH   1  29
TORSDOF 21
