REMARK SMILES C=CCS(=O)(=O)N[C@H](CC(N)=O)C(=O)OCCOCCOC(=O)c1ccc(-c2c3nc(c(-c4ccc(S(=O)(=O)[O-])cc4)c4ccc([nH]4)c(-c4ccc(S(=O)(=O)[O-])cc4)c4nc(c(-c5ccc(S(=O)(=O)[O-])cc5)c5ccc2[nH]5)C=C4)C=C3)cc1
REMARK SMILES IDX 17 1 16 2 15 3 13 4 14 5 8 6 7 7 4 9 5 10 6 11 3 12 2 13
REMARK SMILES IDX 1 14 9 15 10 16 11 17 12 18 18 21 19 22 20 23 21 24 22 25
REMARK SMILES IDX 23 26 24 27 25 28 83 29 26 30 82 31 27 32 28 33 29 34 76 35
REMARK SMILES IDX 30 36 81 37 75 38 77 39 31 40 80 41 74 42 73 43 32 45 62 46
REMARK SMILES IDX 43 47 61 48 44 49 47 50 60 51 78 52 45 53 46 54 59 56 79 57
REMARK SMILES IDX 48 58 33 59 34 60 42 61 35 62 41 63 36 64 37 65 38 66 39 67
REMARK SMILES IDX 40 68 63 69 64 70 72 71 65 72 71 73 66 74 67 75 68 76 69 77
REMARK SMILES IDX 70 78 49 79 50 80 58 81 51 82 57 83 52 84 53 85 54 86 55 87
REMARK SMILES IDX 56 88
REMARK H PARENT 7 8 11 19 11 20 77 44 47 55
REMARK Flexibility Score: inf
ROOT
ATOM      1  C   UNL     1       1.524   0.504   6.696  1.00  0.00     0.202 C 
ENDROOT
BRANCH   1   2
ATOM      2  C   UNL     1       1.582   1.863   5.988  1.00  0.00     0.261 C 
BRANCH   2   3
ATOM      3  O   UNL     1       0.646   1.958   4.897  1.00  0.00    -0.462 OA
BRANCH   3   4
ATOM      4  C   UNL     1       1.146   2.435   3.727  1.00  0.00     0.324 C 
ATOM      5  O   UNL     1       2.277   2.897   3.586  1.00  0.00    -0.250 OA
BRANCH   4   6
ATOM      6  C   UNL     1       0.170   2.299   2.538  1.00  0.00     0.188 C 
BRANCH   6   7
ATOM      7  N   UNL     1       0.610   3.372   1.576  1.00  0.00    -0.200 NA
ATOM      8  H   UNL     1       0.108   4.221   1.838  1.00  0.00     0.142 HD
BRANCH   7   9
ATOM      9  S   UNL     1       0.399   3.182  -0.070  1.00  0.00     0.215 S 
ATOM     10  O   UNL     1       0.665   1.808  -0.394  1.00  0.00    -0.212 OA
ATOM     11  O   UNL     1       1.208   4.245  -0.654  1.00  0.00    -0.212 OA
BRANCH   9  12
ATOM     12  C   UNL     1      -1.346   3.618  -0.377  1.00  0.00     0.180 C 
BRANCH  12  13
ATOM     13  C   UNL     1      -2.189   2.382  -0.574  1.00  0.00    -0.017 C 
ATOM     14  C   UNL     1      -3.408   2.190  -0.049  1.00  0.00     0.005 C 
ENDBRANCH  12  13
ENDBRANCH   9  12
ENDBRANCH   7   9
ENDBRANCH   6   7
BRANCH   6  15
ATOM     15  C   UNL     1      -1.267   2.600   2.905  1.00  0.00     0.131 C 
BRANCH  15  16
ATOM     16  C   UNL     1      -1.956   1.529   3.689  1.00  0.00     0.219 C 
ATOM     17  N   UNL     1      -2.757   2.007   4.679  1.00  0.00    -0.370 N 
ATOM     18  O   UNL     1      -1.898   0.338   3.414  1.00  0.00    -0.275 OA
ATOM     19  H   UNL     1      -2.779   2.972   4.873  1.00  0.00     0.159 HD
ATOM     20  H   UNL     1      -3.317   1.388   5.202  1.00  0.00     0.159 HD
ENDBRANCH  15  16
ENDBRANCH   6  15
ENDBRANCH   4   6
ENDBRANCH   3   4
ENDBRANCH   2   3
ENDBRANCH   1   2
BRANCH   1  21
ATOM     21  O   UNL     1       1.670  -0.641   5.858  1.00  0.00    -0.374 OA
BRANCH  21  22
ATOM     22  C   UNL     1       0.551  -0.999   5.037  1.00  0.00     0.202 C 
BRANCH  22  23
ATOM     23  C   UNL     1      -0.740  -1.353   5.787  1.00  0.00     0.261 C 
BRANCH  23  24
ATOM     24  O   UNL     1      -1.318  -0.190   6.413  1.00  0.00    -0.460 OA
BRANCH  24  25
ATOM     25  C   UNL     1      -2.049  -0.462   7.516  1.00  0.00     0.338 C 
ATOM     26  O   UNL     1      -2.395  -1.558   7.925  1.00  0.00    -0.246 OA
BRANCH  25  27
ATOM     27  C   UNL     1      -2.269   0.781   8.274  1.00  0.00     0.060 A 
ATOM     28  C   UNL     1      -1.423   1.050   9.353  1.00  0.00     0.016 A 
ATOM     29  C   UNL     1      -3.375   1.596   8.020  1.00  0.00     0.016 A 
ATOM     30  C   UNL     1      -1.725   2.098  10.221  1.00  0.00     0.010 A 
ATOM     31  C   UNL     1      -3.647   2.678   8.866  1.00  0.00     0.010 A 
ATOM     32  C   UNL     1      -2.862   2.895  10.010  1.00  0.00    -0.014 A 
BRANCH  32  33
ATOM     33  C   UNL     1      -3.297   3.827  11.085  1.00  0.00     0.031 A 
ATOM     34  C   UNL     1      -4.489   3.472  11.941  1.00  0.00     0.074 A 
ATOM     35  C   UNL     1      -2.582   4.933  11.365  1.00  0.00     0.049 A 
ATOM     36  N   UNL     1      -4.938   4.065  13.018  1.00  0.00    -0.248 NA
ATOM     37  C   UNL     1      -5.280   2.300  11.531  1.00  0.00     0.031 C 
ATOM     38  C   UNL     1      -1.410   5.394  10.620  1.00  0.00     0.029 A 
ATOM     39  N   UNL     1      -2.725   5.857  12.371  1.00  0.00    -0.354 N 
ATOM     40  C   UNL     1      -6.056   3.338  13.416  1.00  0.00     0.074 A 
ATOM     41  C   UNL     1      -6.248   2.292  12.436  1.00  0.00     0.031 C 
ATOM     42  C   UNL     1      -0.920   6.495  11.215  1.00  0.00     0.029 A 
ATOM     43  C   UNL     1      -1.752   6.828  12.370  1.00  0.00     0.049 A 
ATOM     44  H   UNL     1      -3.455   5.826  13.030  1.00  0.00     0.167 HD
ATOM     45  C   UNL     1      -6.842   3.506  14.506  1.00  0.00     0.031 A 
ATOM     46  C   UNL     1      -1.542   7.860  13.211  1.00  0.00     0.031 A 
ATOM     47  C   UNL     1      -6.659   4.544  15.486  1.00  0.00     0.049 A 
ATOM     48  C   UNL     1      -2.439   8.039  14.407  1.00  0.00     0.074 A 
ATOM     49  C   UNL     1      -7.387   4.776  16.641  1.00  0.00     0.029 A 
ATOM     50  N   UNL     1      -5.683   5.526  15.427  1.00  0.00    -0.354 N 
ATOM     51  N   UNL     1      -3.458   7.308  14.792  1.00  0.00    -0.248 NA
ATOM     52  C   UNL     1      -2.139   9.172  15.294  1.00  0.00     0.031 C 
ATOM     53  C   UNL     1      -6.884   5.929  17.252  1.00  0.00     0.029 A 
ATOM     54  C   UNL     1      -5.804   6.380  16.511  1.00  0.00     0.049 A 
ATOM     55  H   UNL     1      -5.003   5.605  14.719  1.00  0.00     0.167 HD
ATOM     56  C   UNL     1      -3.904   7.878  15.980  1.00  0.00     0.074 A 
ATOM     57  C   UNL     1      -3.032   9.001  16.259  1.00  0.00     0.031 C 
ATOM     58  C   UNL     1      -4.941   7.504  16.771  1.00  0.00     0.031 A 
BRANCH  45  59
ATOM     59  C   UNL     1      -7.992   2.549  14.687  1.00  0.00    -0.014 A 
ATOM     60  C   UNL     1      -7.774   1.206  15.046  1.00  0.00     0.010 A 
ATOM     61  C   UNL     1      -9.312   3.010  14.533  1.00  0.00     0.010 A 
ATOM     62  C   UNL     1      -8.853   0.332  15.206  1.00  0.00     0.020 A 
ATOM     63  C   UNL     1     -10.395   2.146  14.719  1.00  0.00     0.020 A 
ATOM     64  C   UNL     1     -10.157   0.808  15.038  1.00  0.00     0.054 A 
BRANCH  64  65
ATOM     65  S   UNL     1     -11.541  -0.342  15.271  1.00  0.00     0.124 S 
ATOM     66  O   UNL     1     -11.460  -1.158  14.062  1.00  0.00    -0.237 OA
ATOM     67  O   UNL     1     -11.187  -1.023  16.514  1.00  0.00    -0.237 OA
ATOM     68  O   UNL     1     -12.708   0.533  15.355  1.00  0.00    -0.744 OA
ENDBRANCH  64  65
ENDBRANCH  45  59
BRANCH  46  69
ATOM     69  C   UNL     1      -0.415   8.800  12.960  1.00  0.00    -0.014 A 
ATOM     70  C   UNL     1       0.713   8.816  13.798  1.00  0.00     0.010 A 
ATOM     71  C   UNL     1      -0.469   9.684  11.867  1.00  0.00     0.010 A 
ATOM     72  C   UNL     1       1.760   9.711  13.557  1.00  0.00     0.020 A 
ATOM     73  C   UNL     1       0.588  10.560  11.607  1.00  0.00     0.020 A 
ATOM     74  C   UNL     1       1.692  10.575  12.461  1.00  0.00     0.054 A 
BRANCH  74  75
ATOM     75  S   UNL     1       3.088  11.686  12.129  1.00  0.00     0.124 S 
ATOM     76  O   UNL     1       2.913  12.708  13.155  1.00  0.00    -0.237 OA
ATOM     77  O   UNL     1       4.240  10.804  12.300  1.00  0.00    -0.237 OA
ATOM     78  O   UNL     1       2.851  12.127  10.756  1.00  0.00    -0.744 OA
ENDBRANCH  74  75
ENDBRANCH  46  69
BRANCH  58  79
ATOM     79  C   UNL     1      -5.171   8.301  18.029  1.00  0.00    -0.014 A 
ATOM     80  C   UNL     1      -5.656   9.621  17.981  1.00  0.00     0.010 A 
ATOM     81  C   UNL     1      -4.909   7.715  19.281  1.00  0.00     0.010 A 
ATOM     82  C   UNL     1      -5.818  10.358  19.157  1.00  0.00     0.020 A 
ATOM     83  C   UNL     1      -5.098   8.439  20.461  1.00  0.00     0.020 A 
ATOM     84  C   UNL     1      -5.528   9.765  20.390  1.00  0.00     0.054 A 
BRANCH  84  85
ATOM     85  S   UNL     1      -5.740  10.742  21.904  1.00  0.00     0.124 S 
ATOM     86  O   UNL     1      -4.567  11.610  21.870  1.00  0.00    -0.237 OA
ATOM     87  O   UNL     1      -7.021  11.407  21.682  1.00  0.00    -0.237 OA
ATOM     88  O   UNL     1      -5.742   9.737  22.965  1.00  0.00    -0.744 OA
ENDBRANCH  84  85
ENDBRANCH  58  79
ENDBRANCH  32  33
ENDBRANCH  25  27
ENDBRANCH  24  25
ENDBRANCH  23  24
ENDBRANCH  22  23
ENDBRANCH  21  22
ENDBRANCH   1  21
TORSDOF 23
