REMARK SMILES Cc1cscc1-c1nc(C)c(C(=O)OCCOCCOC(=O)c2ccc(-c3c4nc(c(-c5ccc(S(=O)(=O)[O-])cc5)c5ccc([nH]5)c(-c5ccc(S(=O)(=O)[O-])cc5)c5nc(c(-c6ccc(S(=O)(=O)[O-])cc6)c6ccc3[nH]6)C=C5)C=C4)cc2)c(C)n1
REMARK SMILES IDX 18 1 17 2 16 3 15 4 14 5 12 6 13 7 11 8 7 9 8 10 85 11 9 12
REMARK SMILES IDX 83 13 10 14 84 15 6 16 1 17 2 18 3 19 4 20 5 21 19 22 20 23
REMARK SMILES IDX 21 24 22 25 23 26 24 27 82 28 25 29 81 30 26 31 27 32 28 33
REMARK SMILES IDX 75 34 29 35 80 36 74 37 76 38 30 39 79 40 73 41 72 42 31 44
REMARK SMILES IDX 61 45 42 46 60 47 43 48 46 49 59 50 77 51 44 52 45 53 58 55
REMARK SMILES IDX 78 56 47 57 32 58 33 59 41 60 34 61 40 62 35 63 36 64 37 65
REMARK SMILES IDX 38 66 39 67 62 68 63 69 71 70 64 71 70 72 65 73 66 74 67 75
REMARK SMILES IDX 68 76 69 77 48 78 49 79 57 80 50 81 56 82 51 83 52 84 53 85
REMARK SMILES IDX 54 86 55 87
REMARK H PARENT 76 43 46 54
REMARK Flexibility Score: inf
ROOT
ATOM      1  C   UNL     1       2.371   8.033  -0.157  1.00  0.00     0.202 C 
ENDROOT
BRANCH   1   2
ATOM      2  O   UNL     1       3.534   8.774   0.208  1.00  0.00    -0.374 OA
BRANCH   2   3
ATOM      3  C   UNL     1       4.760   8.467  -0.459  1.00  0.00     0.202 C 
BRANCH   3   4
ATOM      4  C   UNL     1       5.448   7.166  -0.044  1.00  0.00     0.261 C 
BRANCH   4   5
ATOM      5  O   UNL     1       4.614   6.040  -0.365  1.00  0.00    -0.460 OA
BRANCH   5   6
ATOM      6  C   UNL     1       4.334   5.214   0.664  1.00  0.00     0.341 C 
ATOM      7  O   UNL     1       4.835   5.244   1.779  1.00  0.00    -0.246 OA
BRANCH   6   8
ATOM      8  C   UNL     1       3.227   4.308   0.320  1.00  0.00     0.102 A 
ATOM      9  C   UNL     1       1.345   2.413  -0.067  1.00  0.00     0.160 A 
ATOM     10  N   UNL     1       2.273   2.570  -1.026  1.00  0.00    -0.232 NA
ATOM     11  N   UNL     1       1.213   3.188   1.019  1.00  0.00    -0.232 NA
ATOM     12  C   UNL     1       3.200   3.539  -0.838  1.00  0.00     0.056 A 
ATOM     13  C   UNL     1       2.166   4.131   1.208  1.00  0.00     0.056 A 
ATOM     14  C   UNL     1       4.162   3.724  -1.974  1.00  0.00     0.068 C 
ATOM     15  C   UNL     1       1.945   5.015   2.404  1.00  0.00     0.068 C 
BRANCH   9  16
ATOM     16  C   UNL     1       0.571   1.184  -0.091  1.00  0.00     0.033 A 
ATOM     17  C   UNL     1       2.558  -0.493  -0.106  1.00  0.00     0.046 C 
ATOM     18  C   UNL     1       1.100  -0.160  -0.100  1.00  0.00    -0.029 A 
ATOM     19  C   UNL     1       0.080  -1.093  -0.073  1.00  0.00     0.069 A 
ATOM     20  S   UNL     1      -1.471  -0.378  -0.018  1.00  0.00    -0.151 S 
ATOM     21  C   UNL     1      -0.807   1.197  -0.020  1.00  0.00     0.077 A 
ENDBRANCH   9  16
ENDBRANCH   6   8
ENDBRANCH   5   6
ENDBRANCH   4   5
ENDBRANCH   3   4
ENDBRANCH   2   3
ENDBRANCH   1   2
BRANCH   1  22
ATOM     22  C   UNL     1       1.687   8.382  -1.484  1.00  0.00     0.261 C 
BRANCH  22  23
ATOM     23  O   UNL     1       2.534   8.177  -2.626  1.00  0.00    -0.460 OA
BRANCH  23  24
ATOM     24  C   UNL     1       2.990   9.321  -3.193  1.00  0.00     0.338 C 
ATOM     25  O   UNL     1       2.728  10.465  -2.856  1.00  0.00    -0.246 OA
BRANCH  24  26
ATOM     26  C   UNL     1       4.025   9.009  -4.195  1.00  0.00     0.060 A 
ATOM     27  C   UNL     1       5.263   9.654  -4.069  1.00  0.00     0.016 A 
ATOM     28  C   UNL     1       3.768   8.167  -5.278  1.00  0.00     0.016 A 
ATOM     29  C   UNL     1       6.235   9.494  -5.053  1.00  0.00     0.010 A 
ATOM     30  C   UNL     1       4.742   8.017  -6.271  1.00  0.00     0.010 A 
ATOM     31  C   UNL     1       5.965   8.706  -6.179  1.00  0.00    -0.014 A 
BRANCH  31  32
ATOM     32  C   UNL     1       6.906   8.722  -7.325  1.00  0.00     0.031 A 
ATOM     33  C   UNL     1       6.593   9.594  -8.512  1.00  0.00     0.074 A 
ATOM     34  C   UNL     1       8.042   8.002  -7.291  1.00  0.00     0.049 A 
ATOM     35  N   UNL     1       7.258   9.740  -9.628  1.00  0.00    -0.248 NA
ATOM     36  C   UNL     1       5.371  10.411  -8.426  1.00  0.00     0.031 C 
ATOM     37  C   UNL     1       8.482   7.166  -6.174  1.00  0.00     0.029 A 
ATOM     38  N   UNL     1       9.036   7.863  -8.227  1.00  0.00    -0.354 N 
ATOM     39  C   UNL     1       6.539  10.664 -10.378  1.00  0.00     0.074 A 
ATOM     40  C   UNL     1       5.368  11.018  -9.604  1.00  0.00     0.031 C 
ATOM     41  C   UNL     1       9.659   6.599  -6.492  1.00  0.00     0.029 A 
ATOM     42  C   UNL     1      10.037   7.003  -7.845  1.00  0.00     0.049 A 
ATOM     43  H   UNL     1       9.032   8.335  -9.091  1.00  0.00     0.167 HD
ATOM     44  C   UNL     1       6.831  11.180 -11.595  1.00  0.00     0.031 A 
ATOM     45  C   UNL     1      11.123   6.575  -8.518  1.00  0.00     0.031 A 
ATOM     46  C   UNL     1       7.986  10.812 -12.370  1.00  0.00     0.049 A 
ATOM     47  C   UNL     1      11.373   7.089  -9.913  1.00  0.00     0.074 A 
ATOM     48  C   UNL     1       8.365  11.269 -13.621  1.00  0.00     0.029 A 
ATOM     49  N   UNL     1       8.949   9.898 -11.970  1.00  0.00    -0.354 N 
ATOM     50  N   UNL     1      10.685   7.964 -10.606  1.00  0.00    -0.248 NA
ATOM     51  C   UNL     1      12.553   6.560 -10.613  1.00  0.00     0.031 C 
ATOM     52  C   UNL     1       9.531  10.594 -13.997  1.00  0.00     0.029 A 
ATOM     53  C   UNL     1       9.910   9.761 -12.956  1.00  0.00     0.049 A 
ATOM     54  H   UNL     1       8.948   9.417 -11.111  1.00  0.00     0.167 HD
ATOM     55  C   UNL     1      11.367   8.116 -11.809  1.00  0.00     0.074 A 
ATOM     56  C   UNL     1      12.527   7.251 -11.744  1.00  0.00     0.031 C 
ATOM     57  C   UNL     1      11.063   8.902 -12.872  1.00  0.00     0.031 A 
BRANCH  44  58
ATOM     58  C   UNL     1       5.870  12.183 -12.175  1.00  0.00    -0.014 A 
ATOM     59  C   UNL     1       5.779  13.486 -11.653  1.00  0.00     0.010 A 
ATOM     60  C   UNL     1       5.079  11.834 -13.285  1.00  0.00     0.010 A 
ATOM     61  C   UNL     1       4.893  14.411 -12.209  1.00  0.00     0.020 A 
ATOM     62  C   UNL     1       4.210  12.765 -13.861  1.00  0.00     0.020 A 
ATOM     63  C   UNL     1       4.112  14.044 -13.310  1.00  0.00     0.054 A 
BRANCH  63  64
ATOM     64  S   UNL     1       2.991  15.276 -14.030  1.00  0.00     0.124 S 
ATOM     65  O   UNL     1       1.944  15.358 -13.015  1.00  0.00    -0.237 OA
ATOM     66  O   UNL     1       3.845  16.455 -14.148  1.00  0.00    -0.237 OA
ATOM     67  O   UNL     1       2.584  14.675 -15.298  1.00  0.00    -0.744 OA
ENDBRANCH  63  64
ENDBRANCH  44  58
BRANCH  45  68
ATOM     68  C   UNL     1      12.052   5.591  -7.897  1.00  0.00    -0.014 A 
ATOM     69  C   UNL     1      13.364   5.962  -7.552  1.00  0.00     0.010 A 
ATOM     70  C   UNL     1      11.636   4.266  -7.674  1.00  0.00     0.010 A 
ATOM     71  C   UNL     1      14.250   5.019  -7.023  1.00  0.00     0.020 A 
ATOM     72  C   UNL     1      12.509   3.328  -7.117  1.00  0.00     0.020 A 
ATOM     73  C   UNL     1      13.817   3.707  -6.810  1.00  0.00     0.054 A 
BRANCH  73  74
ATOM     74  S   UNL     1      14.975   2.506  -6.097  1.00  0.00     0.124 S 
ATOM     75  O   UNL     1      15.860   2.232  -7.224  1.00  0.00    -0.237 OA
ATOM     76  O   UNL     1      15.567   3.256  -4.993  1.00  0.00    -0.237 OA
ATOM     77  O   UNL     1      14.111   1.398  -5.695  1.00  0.00    -0.744 OA
ENDBRANCH  73  74
ENDBRANCH  45  68
BRANCH  57  78
ATOM     78  C   UNL     1      12.022   8.902 -14.034  1.00  0.00    -0.014 A 
ATOM     79  C   UNL     1      12.119   7.801 -14.903  1.00  0.00     0.010 A 
ATOM     80  C   UNL     1      12.799  10.047 -14.288  1.00  0.00     0.010 A 
ATOM     81  C   UNL     1      13.001   7.833 -15.987  1.00  0.00     0.020 A 
ATOM     82  C   UNL     1      13.660  10.094 -15.388  1.00  0.00     0.020 A 
ATOM     83  C   UNL     1      13.766   8.980 -16.222  1.00  0.00     0.054 A 
BRANCH  83  84
ATOM     84  S   UNL     1      14.870   9.014 -17.661  1.00  0.00     0.124 S 
ATOM     85  O   UNL     1      15.956   8.139 -17.231  1.00  0.00    -0.237 OA
ATOM     86  O   UNL     1      14.022   8.486 -18.728  1.00  0.00    -0.237 OA
ATOM     87  O   UNL     1      15.222  10.426 -17.795  1.00  0.00    -0.744 OA
ENDBRANCH  83  84
ENDBRANCH  57  78
ENDBRANCH  31  32
ENDBRANCH  24  26
ENDBRANCH  23  24
ENDBRANCH  22  23
ENDBRANCH   1  22
TORSDOF 18
