REMARK SMILES Cc1ccc(S(=O)(=O)n2cc(C(=O)C(=O)N[C@@H](Cc3c[nH]c4ccccc34)C(=O)NCC(=O)OCCOCCOC(=O)c3ccc(-c4c5nc(c(-c6ccc(S(=O)(=O)[O-])cc6)c6ccc([nH]6)c(-c6ccc(S(=O)(=O)[O-])cc6)c6nc(c(-c7ccc(S(=O)(=O)[O-])cc7)c7ccc4[nH]7)C=C6)C=C5)cc3)c3ccccc32)cc1
REMARK SMILES IDX 35 1 34 2 32 3 33 4 31 5 30 6 28 7 29 8 17 10 16 11 14 12
REMARK SMILES IDX 15 13 12 15 13 16 11 17 9 18 10 19 108 20 103 21 107 22
REMARK SMILES IDX 104 23 106 24 105 25 6 26 7 27 8 28 5 29 1 30 2 31 3 32
REMARK SMILES IDX 110 33 4 34 109 35 18 36 19 37 20 38 27 39 21 40 22 41 26 42
REMARK SMILES IDX 23 44 25 45 24 46 36 47 37 48 38 49 39 50 40 51 41 52 42 53
REMARK SMILES IDX 43 54 44 55 102 56 45 57 101 58 46 59 47 60 48 61 95 62
REMARK SMILES IDX 49 63 100 64 94 65 96 66 50 67 99 68 93 69 92 70 51 72 81 73
REMARK SMILES IDX 62 74 80 75 63 76 66 77 79 78 97 79 64 80 65 81 78 83 98 84
REMARK SMILES IDX 67 85 52 86 53 87 61 88 54 89 60 90 55 91 56 92 57 93 58 94
REMARK SMILES IDX 59 95 82 96 83 97 91 98 84 99 90 100 85 101 86 102 87 103
REMARK SMILES IDX 88 104 89 105 68 106 69 107 77 108 70 109 76 110 71 111
REMARK SMILES IDX 72 112 73 113 74 114 75 115
REMARK H PARENT 30 9 16 14 21 43 96 71 66 82
REMARK Flexibility Score: inf
ROOT
ATOM      1  C   UNL     1     -10.620   4.814  -3.046  1.00  0.00     0.261 C 
ENDROOT
BRANCH   1   2
ATOM      2  O   UNL     1     -10.951   4.273  -1.756  1.00  0.00    -0.462 OA
BRANCH   2   3
ATOM      3  C   UNL     1     -12.139   4.691  -1.266  1.00  0.00     0.325 C 
ATOM      4  O   UNL     1     -12.377   5.832  -0.879  1.00  0.00    -0.250 OA
BRANCH   3   5
ATOM      5  C   UNL     1     -13.147   3.579  -1.280  1.00  0.00     0.238 C 
BRANCH   5   6
ATOM      6  N   UNL     1     -12.709   2.266  -1.714  1.00  0.00    -0.343 N 
ATOM      7  C   UNL     1     -12.083   1.265  -1.044  1.00  0.00     0.243 C 
ATOM      8  O   UNL     1     -12.180   0.146  -1.568  1.00  0.00    -0.273 OA
ATOM      9  H   UNL     1     -12.900   2.066  -2.659  1.00  0.00     0.164 HD
BRANCH   7  10
ATOM     10  C   UNL     1     -11.350   1.418   0.327  1.00  0.00     0.176 C 
BRANCH  10  11
ATOM     11  N   UNL     1     -10.199   2.359   0.383  1.00  0.00    -0.337 N 
ATOM     12  C   UNL     1      -8.823   2.121   0.217  1.00  0.00     0.293 C 
ATOM     13  O   UNL     1      -8.008   2.946   0.624  1.00  0.00    -0.265 OA
ATOM     14  H   UNL     1     -10.439   3.296   0.565  1.00  0.00     0.164 HD
BRANCH  12  15
ATOM     15  C   UNL     1      -8.270   0.831  -0.431  1.00  0.00     0.252 C 
ATOM     16  O   UNL     1      -9.065   0.197  -1.124  1.00  0.00    -0.283 OA
BRANCH  15  17
ATOM     17  C   UNL     1      -6.915   0.253  -0.140  1.00  0.00     0.054 A 
ATOM     18  N   UNL     1      -4.815  -0.255   0.589  1.00  0.00    -0.240 N 
ATOM     19  C   UNL     1      -5.641   0.792   0.154  1.00  0.00     0.117 A 
ATOM     20  C   UNL     1      -5.631  -1.405   0.666  1.00  0.00     0.065 A 
ATOM     21  C   UNL     1      -6.681  -1.157  -0.207  1.00  0.00     0.012 A 
ATOM     22  C   UNL     1      -5.344  -2.709   1.123  1.00  0.00     0.028 A 
ATOM     23  C   UNL     1      -7.298  -2.259  -0.837  1.00  0.00     0.011 A 
ATOM     24  C   UNL     1      -5.902  -3.776   0.424  1.00  0.00     0.002 A 
ATOM     25  C   UNL     1      -6.829  -3.552  -0.582  1.00  0.00     0.001 A 
BRANCH  18  26
ATOM     26  S   UNL     1      -3.193  -0.729   0.157  1.00  0.00     0.268 S 
ATOM     27  O   UNL     1      -3.405  -1.368  -1.136  1.00  0.00    -0.201 OA
ATOM     28  O   UNL     1      -2.863  -1.530   1.336  1.00  0.00    -0.201 OA
BRANCH  26  29
ATOM     29  C   UNL     1      -1.622   0.030  -0.049  1.00  0.00     0.088 A 
ATOM     30  C   UNL     1       2.672   0.658  -0.050  1.00  0.00     0.044 C 
ATOM     31  C   UNL     1       1.180   0.495  -0.115  1.00  0.00    -0.051 A 
ATOM     32  C   UNL     1       0.704  -0.791  -0.294  1.00  0.00     0.005 A 
ATOM     33  C   UNL     1       0.246   1.548   0.047  1.00  0.00     0.005 A 
ATOM     34  C   UNL     1      -0.661  -1.002  -0.278  1.00  0.00     0.022 A 
ATOM     35  C   UNL     1      -1.165   1.326   0.089  1.00  0.00     0.022 A 
ENDBRANCH  26  29
ENDBRANCH  18  26
ENDBRANCH  15  17
ENDBRANCH  12  15
ENDBRANCH  10  11
BRANCH  10  36
ATOM     36  C   UNL     1     -12.270   1.441   1.599  1.00  0.00     0.072 C 
BRANCH  36  37
ATOM     37  C   UNL     1     -13.316   2.515   1.780  1.00  0.00    -0.020 A 
ATOM     38  C   UNL     1     -14.683   2.377   1.573  1.00  0.00     0.087 A 
ATOM     39  C   UNL     1     -13.123   3.883   2.178  1.00  0.00     0.003 A 
ATOM     40  N   UNL     1     -15.268   3.618   1.648  1.00  0.00    -0.361 N 
ATOM     41  C   UNL     1     -14.318   4.568   1.930  1.00  0.00     0.046 A 
ATOM     42  C   UNL     1     -12.021   4.624   2.624  1.00  0.00     0.010 A 
ATOM     43  H   UNL     1     -16.227   3.800   1.518  1.00  0.00     0.166 HD
ATOM     44  C   UNL     1     -14.421   5.965   1.937  1.00  0.00     0.026 A 
ATOM     45  C   UNL     1     -12.150   6.009   2.744  1.00  0.00     0.001 A 
ATOM     46  C   UNL     1     -13.296   6.681   2.330  1.00  0.00     0.002 A 
ENDBRANCH  36  37
ENDBRANCH  10  36
ENDBRANCH   7  10
ENDBRANCH   5   6
ENDBRANCH   3   5
ENDBRANCH   2   3
ENDBRANCH   1   2
BRANCH   1  47
ATOM     47  C   UNL     1     -11.677   4.610  -4.111  1.00  0.00     0.202 C 
BRANCH  47  48
ATOM     48  O   UNL     1     -12.820   5.370  -3.710  1.00  0.00    -0.374 OA
BRANCH  48  49
ATOM     49  C   UNL     1     -13.992   5.229  -4.489  1.00  0.00     0.202 C 
BRANCH  49  50
ATOM     50  C   UNL     1     -13.803   5.575  -5.966  1.00  0.00     0.261 C 
BRANCH  50  51
ATOM     51  O   UNL     1     -13.685   6.999  -6.166  1.00  0.00    -0.460 OA
BRANCH  51  52
ATOM     52  C   UNL     1     -12.421   7.473  -6.385  1.00  0.00     0.338 C 
ATOM     53  O   UNL     1     -11.902   7.529  -7.483  1.00  0.00    -0.246 OA
BRANCH  52  54
ATOM     54  C   UNL     1     -11.836   8.009  -5.125  1.00  0.00     0.060 A 
ATOM     55  C   UNL     1     -10.448   8.153  -4.962  1.00  0.00     0.016 A 
ATOM     56  C   UNL     1     -12.687   8.235  -4.047  1.00  0.00     0.016 A 
ATOM     57  C   UNL     1      -9.909   8.400  -3.689  1.00  0.00     0.010 A 
ATOM     58  C   UNL     1     -12.150   8.362  -2.788  1.00  0.00     0.010 A 
ATOM     59  C   UNL     1     -10.762   8.430  -2.591  1.00  0.00    -0.014 A 
BRANCH  59  60
ATOM     60  C   UNL     1     -10.390   8.538  -1.177  1.00  0.00     0.031 A 
ATOM     61  C   UNL     1     -10.979   9.695  -0.456  1.00  0.00     0.074 A 
ATOM     62  C   UNL     1      -9.853   7.495  -0.501  1.00  0.00     0.049 A 
ATOM     63  N   UNL     1     -11.109   9.768   0.814  1.00  0.00    -0.248 NA
ATOM     64  C   UNL     1     -11.557  10.857  -1.138  1.00  0.00     0.031 C 
ATOM     65  C   UNL     1      -9.855   7.261   0.939  1.00  0.00     0.029 A 
ATOM     66  N   UNL     1      -9.147   6.387  -0.975  1.00  0.00    -0.354 N 
ATOM     67  C   UNL     1     -11.860  10.868   1.130  1.00  0.00     0.074 A 
ATOM     68  C   UNL     1     -12.168  11.493  -0.130  1.00  0.00     0.031 C 
ATOM     69  C   UNL     1      -9.022   6.256   1.256  1.00  0.00     0.029 A 
ATOM     70  C   UNL     1      -8.283   5.964   0.045  1.00  0.00     0.049 A 
ATOM     71  H   UNL     1      -9.240   5.976  -1.865  1.00  0.00     0.167 HD
ATOM     72  C   UNL     1     -12.137  11.071   2.445  1.00  0.00     0.031 A 
ATOM     73  C   UNL     1      -6.939   6.130  -0.096  1.00  0.00     0.031 A 
ATOM     74  C   UNL     1     -11.178  10.313   3.270  1.00  0.00     0.049 A 
ATOM     75  C   UNL     1      -6.531   7.162   0.939  1.00  0.00     0.074 A 
ATOM     76  C   UNL     1     -11.260   9.255   4.154  1.00  0.00     0.029 A 
ATOM     77  N   UNL     1      -9.809  10.470   2.987  1.00  0.00    -0.354 N 
ATOM     78  N   UNL     1      -7.230   8.238   1.243  1.00  0.00    -0.248 NA
ATOM     79  C   UNL     1      -5.521   6.832   1.944  1.00  0.00     0.031 C 
ATOM     80  C   UNL     1      -9.949   8.687   4.266  1.00  0.00     0.029 A 
ATOM     81  C   UNL     1      -9.062   9.416   3.478  1.00  0.00     0.049 A 
ATOM     82  H   UNL     1      -9.430  11.236   2.499  1.00  0.00     0.167 HD
ATOM     83  C   UNL     1      -6.907   8.612   2.529  1.00  0.00     0.074 A 
ATOM     84  C   UNL     1      -5.797   7.734   2.897  1.00  0.00     0.031 C 
ATOM     85  C   UNL     1      -7.603   9.420   3.390  1.00  0.00     0.031 A 
BRANCH  72  86
ATOM     86  C   UNL     1     -13.324  11.858   2.960  1.00  0.00    -0.014 A 
ATOM     87  C   UNL     1     -13.648  11.812   4.332  1.00  0.00     0.010 A 
ATOM     88  C   UNL     1     -14.231  12.569   2.143  1.00  0.00     0.010 A 
ATOM     89  C   UNL     1     -14.800  12.431   4.853  1.00  0.00     0.020 A 
ATOM     90  C   UNL     1     -15.374  13.211   2.651  1.00  0.00     0.020 A 
ATOM     91  C   UNL     1     -15.658  13.131   4.007  1.00  0.00     0.054 A 
BRANCH  91  92
ATOM     92  S   UNL     1     -17.140  13.921   4.694  1.00  0.00     0.124 S 
ATOM     93  O   UNL     1     -17.908  12.777   5.179  1.00  0.00    -0.237 OA
ATOM     94  O   UNL     1     -16.585  14.791   5.727  1.00  0.00    -0.237 OA
ATOM     95  O   UNL     1     -17.726  14.617   3.550  1.00  0.00    -0.744 OA
ENDBRANCH  91  92
ENDBRANCH  72  86
BRANCH  73  96
ATOM     96  C   UNL     1      -6.490   5.838  -1.502  1.00  0.00    -0.014 A 
ATOM     97  C   UNL     1      -6.524   4.471  -1.888  1.00  0.00     0.010 A 
ATOM     98  C   UNL     1      -6.579   6.793  -2.527  1.00  0.00     0.010 A 
ATOM     99  C   UNL     1      -6.846   4.073  -3.198  1.00  0.00     0.020 A 
ATOM    100  C   UNL     1      -6.888   6.398  -3.851  1.00  0.00     0.020 A 
ATOM    101  C   UNL     1      -7.082   5.046  -4.164  1.00  0.00     0.054 A 
BRANCH 101 102
ATOM    102  S   UNL     1      -7.901   4.559  -5.732  1.00  0.00     0.124 S 
ATOM    103  O   UNL     1      -6.790   4.039  -6.520  1.00  0.00    -0.237 OA
ATOM    104  O   UNL     1      -8.885   3.562  -5.310  1.00  0.00    -0.237 OA
ATOM    105  O   UNL     1      -8.488   5.809  -6.203  1.00  0.00    -0.744 OA
ENDBRANCH 101 102
ENDBRANCH  73  96
BRANCH  85 106
ATOM    106  C   UNL     1      -6.855  10.311   4.352  1.00  0.00    -0.014 A 
ATOM    107  C   UNL     1      -5.465  10.500   4.282  1.00  0.00     0.010 A 
ATOM    108  C   UNL     1      -7.579  11.144   5.237  1.00  0.00     0.010 A 
ATOM    109  C   UNL     1      -4.819  11.423   5.098  1.00  0.00     0.020 A 
ATOM    110  C   UNL     1      -6.949  12.111   6.017  1.00  0.00     0.020 A 
ATOM    111  C   UNL     1      -5.566  12.225   5.959  1.00  0.00     0.054 A 
BRANCH 111 112
ATOM    112  S   UNL     1      -4.704  13.457   6.951  1.00  0.00     0.124 S 
ATOM    113  O   UNL     1      -4.160  12.637   8.030  1.00  0.00    -0.237 OA
ATOM    114  O   UNL     1      -3.719  13.992   6.012  1.00  0.00    -0.237 OA
ATOM    115  O   UNL     1      -5.758  14.389   7.338  1.00  0.00    -0.744 OA
ENDBRANCH 111 112
ENDBRANCH  85 106
ENDBRANCH  59  60
ENDBRANCH  52  54
ENDBRANCH  51  52
ENDBRANCH  50  51
ENDBRANCH  49  50
ENDBRANCH  48  49
ENDBRANCH  47  48
ENDBRANCH   1  47
TORSDOF 26
