REMARK SMILES COC[C@H]1CC[N@@H+]([C@H]2CCC[C@]([NH2+]C(C)C)(C(=O)OCCOCCOC(=O)c3ccc(-c4c5nc(c(-c6ccc(S(=O)(=O)[O-])cc6)c6ccc([nH]6)c(-c6ccc(S(=O)(=O)[O-])cc6)c6nc(c(-c7ccc(S(=O)(=O)[O-])cc7)c7ccc4[nH]7)C=C6)C=C5)cc3)C2)C1
REMARK SMILES IDX 22 1 21 2 20 3 19 4 17 5 18 6 12 7 8 8 9 9 88 10 10 11 11 12
REMARK SMILES IDX 7 13 4 14 5 15 89 16 6 17 3 19 2 20 1 21 13 22 14 25 15 26
REMARK SMILES IDX 16 27 23 28 24 29 25 30 26 31 27 32 28 33 29 34 87 35 30 36
REMARK SMILES IDX 86 37 31 38 32 39 33 40 80 41 34 42 85 43 79 44 81 45 35 46
REMARK SMILES IDX 84 47 78 48 77 49 36 51 66 52 47 53 65 54 48 55 51 56 64 57
REMARK SMILES IDX 82 58 49 59 50 60 63 62 83 63 52 64 37 65 38 66 46 67 39 68
REMARK SMILES IDX 45 69 40 70 41 71 42 72 43 73 44 74 67 75 68 76 76 77 69 78
REMARK SMILES IDX 75 79 70 80 71 81 72 82 73 83 74 84 53 85 54 86 62 87 55 88
REMARK SMILES IDX 61 89 56 90 57 91 58 92 59 93 60 94
REMARK H PARENT 7 18 13 23 13 24 81 50 51 61
REMARK Flexibility Score: inf
ROOT
ATOM      1  O   UNL     1      -0.649  -9.117   3.796  1.00  0.00    -0.374 OA
ENDROOT
BRANCH   1   2
ATOM      2  C   UNL     1       0.461  -8.938   2.912  1.00  0.00     0.202 C 
BRANCH   2   3
ATOM      3  C   UNL     1       0.333  -7.835   1.854  1.00  0.00     0.261 C 
BRANCH   3   4
ATOM      4  O   UNL     1       0.099  -6.568   2.481  1.00  0.00    -0.459 OA
BRANCH   4   5
ATOM      5  C   UNL     1      -0.626  -5.659   1.767  1.00  0.00     0.368 C 
ATOM      6  O   UNL     1      -0.892  -5.790   0.578  1.00  0.00    -0.245 OA
BRANCH   5   7
ATOM      7  C   UNL     1      -1.176  -4.512   2.694  1.00  0.00     0.200 C 
ATOM      8  C   UNL     1      -1.266  -1.869   2.770  1.00  0.00     0.190 C 
ATOM      9  C   UNL     1      -0.192  -1.853   3.862  1.00  0.00     0.065 C 
ATOM     10  C   UNL     1      -1.096  -3.167   1.941  1.00  0.00     0.146 C 
ATOM     11  C   UNL     1      -0.173  -3.094   4.735  1.00  0.00     0.013 C 
ATOM     12  C   UNL     1      -0.224  -4.401   3.945  1.00  0.00     0.081 C 
BRANCH   8  13
ATOM     13  N   UNL     1      -2.652  -1.513   3.139  1.00  0.00    -0.332 N 
ATOM     14  C   UNL     1      -3.641  -1.145   5.332  1.00  0.00     0.076 C 
ATOM     15  C   UNL     1      -2.948   0.118   4.856  1.00  0.00     0.073 C 
ATOM     16  C   UNL     1      -3.302  -2.193   4.263  1.00  0.00     0.268 C 
ATOM     17  C   UNL     1      -2.870  -0.077   3.352  1.00  0.00     0.263 C 
ATOM     18  H   UNL     1      -3.095  -1.863   2.290  1.00  0.00     0.348 HD
BRANCH  14  19
ATOM     19  C   UNL     1      -3.373  -1.619   6.769  1.00  0.00     0.169 C 
BRANCH  19  20
ATOM     20  O   UNL     1      -2.615  -0.701   7.554  1.00  0.00    -0.384 OA
ATOM     21  C   UNL     1      -1.244  -1.067   7.672  1.00  0.00     0.194 C 
ENDBRANCH  19  20
ENDBRANCH  14  19
ENDBRANCH   8  13
BRANCH   7  22
ATOM     22  N   UNL     1      -2.562  -4.860   3.139  1.00  0.00    -0.330 N 
ATOM     23  H   UNL     1      -2.955  -4.020   3.564  1.00  0.00     0.347 HD
ATOM     24  H   UNL     1      -2.418  -5.669   3.744  1.00  0.00     0.347 HD
BRANCH  22  25
ATOM     25  C   UNL     1      -3.556  -5.345   2.155  1.00  0.00     0.176 C 
ATOM     26  C   UNL     1      -4.900  -5.482   2.893  1.00  0.00     0.075 C 
ATOM     27  C   UNL     1      -3.817  -4.495   0.908  1.00  0.00     0.075 C 
ENDBRANCH  22  25
ENDBRANCH   7  22
ENDBRANCH   5   7
ENDBRANCH   4   5
ENDBRANCH   3   4
ENDBRANCH   2   3
ENDBRANCH   1   2
BRANCH   1  28
ATOM     28  C   UNL     1      -0.905  -8.091   4.754  1.00  0.00     0.202 C 
BRANCH  28  29
ATOM     29  C   UNL     1       0.103  -7.917   5.900  1.00  0.00     0.261 C 
BRANCH  29  30
ATOM     30  O   UNL     1       1.425  -7.577   5.446  1.00  0.00    -0.460 OA
BRANCH  30  31
ATOM     31  C   UNL     1       2.384  -8.456   5.824  1.00  0.00     0.338 C 
ATOM     32  O   UNL     1       2.250  -9.414   6.577  1.00  0.00    -0.246 OA
BRANCH  31  33
ATOM     33  C   UNL     1       3.627  -8.240   5.067  1.00  0.00     0.060 A 
ATOM     34  C   UNL     1       4.044  -9.275   4.221  1.00  0.00     0.016 A 
ATOM     35  C   UNL     1       4.444  -7.130   5.292  1.00  0.00     0.016 A 
ATOM     36  C   UNL     1       5.311  -9.236   3.647  1.00  0.00     0.010 A 
ATOM     37  C   UNL     1       5.724  -7.098   4.720  1.00  0.00     0.010 A 
ATOM     38  C   UNL     1       6.179  -8.177   3.940  1.00  0.00    -0.014 A 
BRANCH  38  39
ATOM     39  C   UNL     1       7.614  -8.335   3.591  1.00  0.00     0.031 A 
ATOM     40  C   UNL     1       8.563  -8.841   4.646  1.00  0.00     0.074 A 
ATOM     41  C   UNL     1       8.044  -8.145   2.331  1.00  0.00     0.049 A 
ATOM     42  N   UNL     1       9.826  -9.167   4.537  1.00  0.00    -0.248 NA
ATOM     43  C   UNL     1       8.013  -9.009   6.002  1.00  0.00     0.031 C 
ATOM     44  C   UNL     1       7.215  -7.697   1.213  1.00  0.00     0.029 A 
ATOM     45  N   UNL     1       9.287  -8.327   1.778  1.00  0.00    -0.354 N 
ATOM     46  C   UNL     1      10.218  -9.587   5.804  1.00  0.00     0.074 A 
ATOM     47  C   UNL     1       9.072  -9.434   6.674  1.00  0.00     0.031 C 
ATOM     48  C   UNL     1       7.972  -7.644   0.103  1.00  0.00     0.029 A 
ATOM     49  C   UNL     1       9.340  -8.042   0.435  1.00  0.00     0.049 A 
ATOM     50  H   UNL     1      10.066  -8.633   2.295  1.00  0.00     0.167 HD
ATOM     51  C   UNL     1      11.417 -10.072   6.207  1.00  0.00     0.031 A 
ATOM     52  C   UNL     1      10.372  -8.097  -0.429  1.00  0.00     0.031 A 
ATOM     53  C   UNL     1      12.563 -10.205   5.348  1.00  0.00     0.049 A 
ATOM     54  C   UNL     1      11.711  -8.594   0.050  1.00  0.00     0.074 A 
ATOM     55  C   UNL     1      13.828 -10.671   5.663  1.00  0.00     0.029 A 
ATOM     56  N   UNL     1      12.585  -9.869   4.003  1.00  0.00    -0.354 N 
ATOM     57  N   UNL     1      12.059  -9.001   1.248  1.00  0.00    -0.248 NA
ATOM     58  C   UNL     1      12.788  -8.663  -0.947  1.00  0.00     0.031 C 
ATOM     59  C   UNL     1      14.626 -10.576   4.518  1.00  0.00     0.029 A 
ATOM     60  C   UNL     1      13.843 -10.105   3.476  1.00  0.00     0.049 A 
ATOM     61  H   UNL     1      11.818  -9.515   3.497  1.00  0.00     0.167 HD
ATOM     62  C   UNL     1      13.388  -9.400   1.142  1.00  0.00     0.074 A 
ATOM     63  C   UNL     1      13.774  -9.199  -0.240  1.00  0.00     0.031 C 
ATOM     64  C   UNL     1      14.213  -9.894   2.099  1.00  0.00     0.031 A 
BRANCH  51  65
ATOM     65  C   UNL     1      11.549 -10.463   7.655  1.00  0.00    -0.014 A 
ATOM     66  C   UNL     1      10.910 -11.611   8.159  1.00  0.00     0.010 A 
ATOM     67  C   UNL     1      12.327  -9.676   8.523  1.00  0.00     0.010 A 
ATOM     68  C   UNL     1      11.010 -11.940   9.514  1.00  0.00     0.020 A 
ATOM     69  C   UNL     1      12.451 -10.016   9.873  1.00  0.00     0.020 A 
ATOM     70  C   UNL     1      11.775 -11.135  10.364  1.00  0.00     0.054 A 
BRANCH  70  71
ATOM     71  S   UNL     1      11.891 -11.583  12.118  1.00  0.00     0.124 S 
ATOM     72  O   UNL     1      10.575 -11.191  12.616  1.00  0.00    -0.237 OA
ATOM     73  O   UNL     1      12.140 -13.021  12.068  1.00  0.00    -0.237 OA
ATOM     74  O   UNL     1      13.007 -10.778  12.608  1.00  0.00    -0.744 OA
ENDBRANCH  70  71
ENDBRANCH  51  65
BRANCH  52  75
ATOM     75  C   UNL     1      10.176  -7.670  -1.841  1.00  0.00    -0.014 A 
ATOM     76  C   UNL     1      10.174  -8.606  -2.890  1.00  0.00     0.010 A 
ATOM     77  C   UNL     1       9.976  -6.309  -2.139  1.00  0.00     0.010 A 
ATOM     78  C   UNL     1       9.990  -8.187  -4.212  1.00  0.00     0.020 A 
ATOM     79  C   UNL     1       9.766  -5.890  -3.455  1.00  0.00     0.020 A 
ATOM     80  C   UNL     1       9.783  -6.832  -4.485  1.00  0.00     0.054 A 
BRANCH  80  81
ATOM     81  S   UNL     1       9.483  -6.316  -6.199  1.00  0.00     0.124 S 
ATOM     82  O   UNL     1      10.819  -6.398  -6.779  1.00  0.00    -0.237 OA
ATOM     83  O   UNL     1       8.526  -7.317  -6.667  1.00  0.00    -0.237 OA
ATOM     84  O   UNL     1       8.940  -4.967  -6.058  1.00  0.00    -0.744 OA
ENDBRANCH  80  81
ENDBRANCH  52  75
BRANCH  64  85
ATOM     85  C   UNL     1      15.604 -10.287   1.676  1.00  0.00    -0.014 A 
ATOM     86  C   UNL     1      16.572  -9.320   1.351  1.00  0.00     0.010 A 
ATOM     87  C   UNL     1      15.955 -11.649   1.634  1.00  0.00     0.010 A 
ATOM     88  C   UNL     1      17.851  -9.712   0.943  1.00  0.00     0.020 A 
ATOM     89  C   UNL     1      17.240 -12.043   1.254  1.00  0.00     0.020 A 
ATOM     90  C   UNL     1      18.174 -11.071   0.890  1.00  0.00     0.054 A 
BRANCH  90  91
ATOM     91  S   UNL     1      19.843 -11.557   0.369  1.00  0.00     0.124 S 
ATOM     92  O   UNL     1      19.776 -11.365  -1.077  1.00  0.00    -0.237 OA
ATOM     93  O   UNL     1      20.694 -10.613   1.089  1.00  0.00    -0.237 OA
ATOM     94  O   UNL     1      19.952 -12.945   0.810  1.00  0.00    -0.744 OA
ENDBRANCH  90  91
ENDBRANCH  64  85
ENDBRANCH  38  39
ENDBRANCH  31  33
ENDBRANCH  30  31
ENDBRANCH  29  30
ENDBRANCH  28  29
ENDBRANCH   1  28
TORSDOF 22
