REMARK SMILES Cc1ccc(S(=O)(=O)N(C)c2cccc(C)c2C)cc1C(=O)OCCOCCOC(=O)c1ccc(-c2c3nc(c(-c4ccc(S(=O)(=O)[O-])cc4)c4ccc([nH]4)c(-c4ccc(S(=O)(=O)[O-])cc4)c4nc(c(-c5ccc(S(=O)(=O)[O-])cc5)c5ccc2[nH]5)C=C4)C=C3)cc1
REMARK SMILES IDX 26 1 25 2 24 3 23 4 21 5 22 6 20 7 1 8 2 9 3 10 4 11 19 12
REMARK SMILES IDX 5 13 6 14 7 15 8 16 9 17 10 18 11 19 12 20 17 21 13 22 15 23
REMARK SMILES IDX 18 24 14 25 16 26 27 27 28 28 29 29 30 30 31 31 32 32 33 33
REMARK SMILES IDX 91 34 34 35 90 36 35 37 36 38 37 39 84 40 38 41 89 42 83 43
REMARK SMILES IDX 85 44 39 45 88 46 82 47 81 48 40 50 70 51 51 52 69 53 52 54
REMARK SMILES IDX 55 55 68 56 86 57 53 58 54 59 67 61 87 62 56 63 41 64 42 65
REMARK SMILES IDX 50 66 43 67 49 68 44 69 45 70 46 71 47 72 48 73 71 74 72 75
REMARK SMILES IDX 80 76 73 77 79 78 74 79 75 80 76 81 77 82 78 83 57 84 58 85
REMARK SMILES IDX 66 86 59 87 65 88 60 89 61 90 62 91 63 92 64 93
REMARK H PARENT 85 49 55 60
REMARK Flexibility Score: inf
ROOT
ATOM      1  O   UNL     1       1.057   3.139  -2.266  1.00  0.00    -0.374 OA
ENDROOT
BRANCH   1   2
ATOM      2  C   UNL     1       2.298   2.475  -2.508  1.00  0.00     0.202 C 
BRANCH   2   3
ATOM      3  C   UNL     1       2.881   2.266  -1.149  1.00  0.00     0.261 C 
BRANCH   3   4
ATOM      4  O   UNL     1       2.154   1.232  -0.476  1.00  0.00    -0.460 OA
BRANCH   4   5
ATOM      5  C   UNL     1       0.955   1.528   0.060  1.00  0.00     0.338 C 
ATOM      6  O   UNL     1       0.527   2.610   0.402  1.00  0.00    -0.246 OA
BRANCH   5   7
ATOM      7  C   UNL     1       0.112   0.317   0.000  1.00  0.00     0.064 A 
ATOM      8  C   UNL     1       2.009  -1.455  -0.018  1.00  0.00     0.045 C 
ATOM      9  C   UNL     1       0.567  -1.016  -0.045  1.00  0.00    -0.036 A 
ATOM     10  C   UNL     1      -0.398  -2.026  -0.174  1.00  0.00     0.006 A 
ATOM     11  C   UNL     1      -1.763  -1.723  -0.195  1.00  0.00     0.022 A 
ATOM     12  C   UNL     1      -1.262   0.616  -0.058  1.00  0.00     0.038 A 
ATOM     13  C   UNL     1      -2.199  -0.395  -0.114  1.00  0.00     0.088 A 
BRANCH  13  14
ATOM     14  S   UNL     1      -3.944  -0.113   0.050  1.00  0.00     0.264 S 
ATOM     15  O   UNL     1      -4.553  -0.856  -1.040  1.00  0.00    -0.201 OA
ATOM     16  O   UNL     1      -4.232  -0.467   1.427  1.00  0.00    -0.201 OA
BRANCH  14  17
ATOM     17  N   UNL     1      -4.336   1.559  -0.187  1.00  0.00    -0.269 N 
ATOM     18  C   UNL     1      -3.702   2.553   0.732  1.00  0.00     0.164 C 
BRANCH  17  19
ATOM     19  C   UNL     1      -5.781   1.805  -0.299  1.00  0.00     0.055 A 
ATOM     20  C   UNL     1      -6.663   1.239   0.637  1.00  0.00     0.027 A 
ATOM     21  C   UNL     1      -6.264   2.809  -1.173  1.00  0.00    -0.024 A 
ATOM     22  C   UNL     1      -8.011   1.575   0.662  1.00  0.00     0.002 A 
ATOM     23  C   UNL     1      -7.638   3.169  -1.125  1.00  0.00    -0.046 A 
ATOM     24  C   UNL     1      -5.309   3.550  -2.076  1.00  0.00     0.047 C 
ATOM     25  C   UNL     1      -8.497   2.529  -0.218  1.00  0.00     0.004 A 
ATOM     26  C   UNL     1      -8.217   4.255  -1.992  1.00  0.00     0.044 C 
ENDBRANCH  17  19
ENDBRANCH  14  17
ENDBRANCH  13  14
ENDBRANCH   5   7
ENDBRANCH   4   5
ENDBRANCH   3   4
ENDBRANCH   2   3
ENDBRANCH   1   2
BRANCH   1  27
ATOM     27  C   UNL     1       0.246   3.362  -3.393  1.00  0.00     0.202 C 
BRANCH  27  28
ATOM     28  C   UNL     1       0.970   4.130  -4.501  1.00  0.00     0.261 C 
BRANCH  28  29
ATOM     29  O   UNL     1       1.202   5.504  -4.114  1.00  0.00    -0.460 OA
BRANCH  29  30
ATOM     30  C   UNL     1       2.474   5.824  -3.721  1.00  0.00     0.338 C 
ATOM     31  O   UNL     1       3.386   6.045  -4.497  1.00  0.00    -0.246 OA
BRANCH  30  32
ATOM     32  C   UNL     1       2.553   5.936  -2.234  1.00  0.00     0.060 A 
ATOM     33  C   UNL     1       3.777   5.847  -1.543  1.00  0.00     0.016 A 
ATOM     34  C   UNL     1       1.360   5.947  -1.519  1.00  0.00     0.016 A 
ATOM     35  C   UNL     1       3.797   5.639  -0.150  1.00  0.00     0.010 A 
ATOM     36  C   UNL     1       1.381   5.638  -0.178  1.00  0.00     0.010 A 
ATOM     37  C   UNL     1       2.588   5.469   0.522  1.00  0.00    -0.014 A 
BRANCH  37  38
ATOM     38  C   UNL     1       2.382   5.051   1.915  1.00  0.00     0.031 A 
ATOM     39  C   UNL     1       1.606   5.969   2.783  1.00  0.00     0.074 A 
ATOM     40  C   UNL     1       2.537   3.750   2.273  1.00  0.00     0.049 A 
ATOM     41  N   UNL     1       1.316   5.720   4.008  1.00  0.00    -0.248 NA
ATOM     42  C   UNL     1       1.093   7.273   2.351  1.00  0.00     0.031 C 
ATOM     43  C   UNL     1       1.812   2.989   3.295  1.00  0.00     0.029 A 
ATOM     44  N   UNL     1       3.407   2.796   1.750  1.00  0.00    -0.354 N 
ATOM     45  C   UNL     1       0.347   6.606   4.408  1.00  0.00     0.074 A 
ATOM     46  C   UNL     1       0.318   7.618   3.385  1.00  0.00     0.031 C 
ATOM     47  C   UNL     1       2.412   1.800   3.491  1.00  0.00     0.029 A 
ATOM     48  C   UNL     1       3.628   1.787   2.693  1.00  0.00     0.049 A 
ATOM     49  H   UNL     1       3.806   2.828   0.851  1.00  0.00     0.167 HD
ATOM     50  C   UNL     1      -0.388   6.289   5.508  1.00  0.00     0.031 A 
ATOM     51  C   UNL     1       4.898   1.538   3.112  1.00  0.00     0.031 A 
ATOM     52  C   UNL     1       0.176   5.106   6.174  1.00  0.00     0.049 A 
ATOM     53  C   UNL     1       4.981   2.029   4.532  1.00  0.00     0.074 A 
ATOM     54  C   UNL     1      -0.217   3.783   6.266  1.00  0.00     0.029 A 
ATOM     55  N   UNL     1       1.516   5.144   6.567  1.00  0.00    -0.354 N 
ATOM     56  N   UNL     1       4.174   2.944   5.003  1.00  0.00    -0.248 NA
ATOM     57  C   UNL     1       5.823   1.437   5.566  1.00  0.00     0.031 C 
ATOM     58  C   UNL     1       0.943   3.012   6.591  1.00  0.00     0.029 A 
ATOM     59  C   UNL     1       2.026   3.870   6.738  1.00  0.00     0.049 A 
ATOM     60  H   UNL     1       2.031   5.971   6.706  1.00  0.00     0.167 HD
ATOM     61  C   UNL     1       4.258   2.965   6.356  1.00  0.00     0.074 A 
ATOM     62  C   UNL     1       5.354   2.058   6.664  1.00  0.00     0.031 C 
ATOM     63  C   UNL     1       3.415   3.680   7.152  1.00  0.00     0.031 A 
BRANCH  50  64
ATOM     64  C   UNL     1      -1.703   6.930   5.895  1.00  0.00    -0.014 A 
ATOM     65  C   UNL     1      -2.380   6.469   7.043  1.00  0.00     0.010 A 
ATOM     66  C   UNL     1      -2.365   7.929   5.150  1.00  0.00     0.010 A 
ATOM     67  C   UNL     1      -3.633   6.975   7.426  1.00  0.00     0.020 A 
ATOM     68  C   UNL     1      -3.607   8.462   5.534  1.00  0.00     0.020 A 
ATOM     69  C   UNL     1      -4.238   7.977   6.671  1.00  0.00     0.054 A 
BRANCH  69  70
ATOM     70  S   UNL     1      -5.850   8.627   7.184  1.00  0.00     0.124 S 
ATOM     71  O   UNL     1      -6.711   7.452   7.075  1.00  0.00    -0.237 OA
ATOM     72  O   UNL     1      -5.585   9.092   8.543  1.00  0.00    -0.237 OA
ATOM     73  O   UNL     1      -6.125   9.685   6.213  1.00  0.00    -0.744 OA
ENDBRANCH  69  70
ENDBRANCH  50  64
BRANCH  51  74
ATOM     74  C   UNL     1       5.892   1.619   1.984  1.00  0.00    -0.014 A 
ATOM     75  C   UNL     1       5.901   0.527   1.077  1.00  0.00     0.010 A 
ATOM     76  C   UNL     1       6.365   2.859   1.510  1.00  0.00     0.010 A 
ATOM     77  C   UNL     1       6.206   0.702  -0.284  1.00  0.00     0.020 A 
ATOM     78  C   UNL     1       6.655   3.042   0.140  1.00  0.00     0.020 A 
ATOM     79  C   UNL     1       6.527   1.974  -0.758  1.00  0.00     0.054 A 
BRANCH  79  80
ATOM     80  S   UNL     1       6.426   2.291  -2.565  1.00  0.00     0.124 S 
ATOM     81  O   UNL     1       7.747   1.892  -3.032  1.00  0.00    -0.237 OA
ATOM     82  O   UNL     1       5.324   1.427  -2.995  1.00  0.00    -0.237 OA
ATOM     83  O   UNL     1       6.125   3.717  -2.633  1.00  0.00    -0.744 OA
ENDBRANCH  79  80
ENDBRANCH  51  74
BRANCH  63  84
ATOM     84  C   UNL     1       3.884   4.238   8.459  1.00  0.00    -0.014 A 
ATOM     85  C   UNL     1       5.249   4.384   8.758  1.00  0.00     0.010 A 
ATOM     86  C   UNL     1       2.953   4.810   9.350  1.00  0.00     0.010 A 
ATOM     87  C   UNL     1       5.667   4.967   9.950  1.00  0.00     0.020 A 
ATOM     88  C   UNL     1       3.363   5.460  10.511  1.00  0.00     0.020 A 
ATOM     89  C   UNL     1       4.718   5.490  10.824  1.00  0.00     0.054 A 
BRANCH  89  90
ATOM     90  S   UNL     1       5.281   6.225  12.370  1.00  0.00     0.124 S 
ATOM     91  O   UNL     1       5.490   5.039  13.197  1.00  0.00    -0.237 OA
ATOM     92  O   UNL     1       6.496   6.932  11.970  1.00  0.00    -0.237 OA
ATOM     93  O   UNL     1       4.170   7.083  12.770  1.00  0.00    -0.744 OA
ENDBRANCH  89  90
ENDBRANCH  63  84
ENDBRANCH  37  38
ENDBRANCH  30  32
ENDBRANCH  29  30
ENDBRANCH  28  29
ENDBRANCH  27  28
ENDBRANCH   1  27
TORSDOF 20
