REMARK SMILES O=C(OCCOCCOC(=O)c1ccc(-c2c3nc(c(-c4ccc(S(=O)(=O)[O-])cc4)c4ccc([nH]4)c(-c4ccc(S(=O)(=O)[O-])cc4)c4nc(c(-c5ccc(S(=O)(=O)[O-])cc5)c5ccc2[nH]5)C=C4)C=C3)cc1)c1ccc(/C=C/c2ccnc(-c3cccc([N+](=O)[O-])c3)[n+]2[O-])cc1
REMARK SMILES IDX 5 1 4 2 3 3 2 4 1 5 72 6 73 7 95 8 74 9 94 10 75 11 76 12
REMARK SMILES IDX 77 13 78 14 79 15 92 16 80 17 82 18 93 19 81 20 83 21 84 22
REMARK SMILES IDX 91 23 85 24 87 25 86 26 88 27 89 28 90 29 6 30 7 31 8 32
REMARK SMILES IDX 9 33 10 34 11 35 12 36 13 37 71 38 14 39 70 40 15 41 16 42
REMARK SMILES IDX 17 43 64 44 18 45 69 46 63 47 65 48 19 49 68 50 62 51 61 52
REMARK SMILES IDX 20 54 50 55 31 56 49 57 32 58 35 59 48 60 66 61 33 62 34 63
REMARK SMILES IDX 47 65 67 66 36 67 21 68 22 69 30 70 23 71 29 72 24 73 25 74
REMARK SMILES IDX 26 75 27 76 28 77 51 78 52 79 60 80 53 81 59 82 54 83 55 84
REMARK SMILES IDX 56 85 57 86 58 87 37 88 38 89 46 90 39 91 45 92 40 93 41 94
REMARK SMILES IDX 42 95 43 96 44 97
REMARK H PARENT 65 53 35 64
REMARK Flexibility Score: inf
ROOT
ATOM      1  C   UNL     1       4.233   1.610  -0.476  1.00  0.00     0.202 C 
ENDROOT
BRANCH   1   2
ATOM      2  C   UNL     1       3.885   0.293  -1.168  1.00  0.00     0.261 C 
BRANCH   2   3
ATOM      3  O   UNL     1       2.493  -0.033  -0.963  1.00  0.00    -0.460 OA
BRANCH   3   4
ATOM      4  C   UNL     1       2.024  -1.145  -0.345  1.00  0.00     0.338 C 
ATOM      5  O   UNL     1       0.838  -1.453  -0.407  1.00  0.00    -0.246 OA
BRANCH   4   6
ATOM      6  C   UNL     1       2.942  -2.011   0.430  1.00  0.00     0.060 A 
ATOM      7  C   UNL     1       3.813  -1.486   1.380  1.00  0.00     0.016 A 
ATOM      8  C   UNL     1       2.871  -3.396   0.275  1.00  0.00     0.016 A 
ATOM      9  C   UNL     1       4.684  -2.298   2.089  1.00  0.00     0.009 A 
ATOM     10  C   UNL     1       3.730  -4.223   1.009  1.00  0.00     0.009 A 
ATOM     11  C   UNL     1       4.667  -3.676   1.901  1.00  0.00    -0.025 A 
BRANCH  11  12
ATOM     12  C   UNL     1       5.592  -4.552   2.624  1.00  0.00     0.012 C 
ATOM     13  C   UNL     1       6.670  -4.130   3.308  1.00  0.00     0.053 C 
BRANCH  13  14
ATOM     14  C   UNL     1       7.593  -5.068   3.948  1.00  0.00     0.134 A 
ATOM     15  C   UNL     1       7.942  -4.892   5.286  1.00  0.00     0.100 A 
ATOM     16  N   UNL     1       8.110  -6.141   3.215  1.00  0.00    -0.228 N 
ATOM     17  C   UNL     1       8.752  -5.840   5.866  1.00  0.00     0.259 A 
ATOM     18  C   UNL     1       8.923  -7.051   3.884  1.00  0.00     0.333 A 
ATOM     19  O   UNL     1       7.836  -6.293   1.970  1.00  0.00    -0.710 OA
ATOM     20  N   UNL     1       9.227  -6.917   5.211  1.00  0.00    -0.049 NA
BRANCH  18  21
ATOM     21  C   UNL     1       9.405  -8.221   3.158  1.00  0.00     0.076 A 
ATOM     22  C   UNL     1       8.921  -9.502   3.469  1.00  0.00     0.017 A 
ATOM     23  C   UNL     1      10.256  -8.069   2.050  1.00  0.00     0.102 A 
ATOM     24  C   UNL     1       9.240 -10.601   2.670  1.00  0.00     0.008 A 
ATOM     25  C   UNL     1      10.573  -9.171   1.251  1.00  0.00     0.270 A 
ATOM     26  C   UNL     1      10.062 -10.439   1.554  1.00  0.00     0.085 A 
BRANCH  25  27
ATOM     27  N   UNL     1      11.426  -8.989   0.071  1.00  0.00     0.062 N 
ATOM     28  O   UNL     1      11.643  -9.981  -0.640  1.00  0.00    -0.258 OA
ATOM     29  O   UNL     1      11.898  -7.862  -0.134  1.00  0.00    -0.258 OA
ENDBRANCH  25  27
ENDBRANCH  18  21
ENDBRANCH  13  14
ENDBRANCH  11  12
ENDBRANCH   4   6
ENDBRANCH   3   4
ENDBRANCH   2   3
ENDBRANCH   1   2
BRANCH   1  30
ATOM     30  O   UNL     1       3.998   1.605   0.930  1.00  0.00    -0.374 OA
BRANCH  30  31
ATOM     31  C   UNL     1       2.653   1.898   1.336  1.00  0.00     0.202 C 
BRANCH  31  32
ATOM     32  C   UNL     1       2.696   2.684   2.651  1.00  0.00     0.261 C 
BRANCH  32  33
ATOM     33  O   UNL     1       3.222   3.987   2.369  1.00  0.00    -0.460 OA
BRANCH  33  34
ATOM     34  C   UNL     1       4.572   4.021   2.227  1.00  0.00     0.338 C 
ATOM     35  O   UNL     1       5.390   3.345   2.830  1.00  0.00    -0.246 OA
BRANCH  34  36
ATOM     36  C   UNL     1       4.876   4.861   1.046  1.00  0.00     0.060 A 
ATOM     37  C   UNL     1       6.026   4.580   0.293  1.00  0.00     0.016 A 
ATOM     38  C   UNL     1       4.003   5.879   0.647  1.00  0.00     0.016 A 
ATOM     39  C   UNL     1       6.336   5.352  -0.828  1.00  0.00     0.010 A 
ATOM     40  C   UNL     1       4.307   6.644  -0.471  1.00  0.00     0.010 A 
ATOM     41  C   UNL     1       5.497   6.414  -1.180  1.00  0.00    -0.014 A 
BRANCH  41  42
ATOM     42  C   UNL     1       5.935   7.474  -2.110  1.00  0.00     0.031 A 
ATOM     43  C   UNL     1       6.463   8.739  -1.495  1.00  0.00     0.074 A 
ATOM     44  C   UNL     1       5.734   7.370  -3.432  1.00  0.00     0.049 A 
ATOM     45  N   UNL     1       6.674   9.904  -2.042  1.00  0.00    -0.248 NA
ATOM     46  C   UNL     1       6.754   8.684  -0.051  1.00  0.00     0.031 C 
ATOM     47  C   UNL     1       5.239   6.181  -4.123  1.00  0.00     0.029 A 
ATOM     48  N   UNL     1       5.878   8.306  -4.422  1.00  0.00    -0.354 N 
ATOM     49  C   UNL     1       7.081  10.733  -1.003  1.00  0.00     0.074 A 
ATOM     50  C   UNL     1       7.067   9.943   0.207  1.00  0.00     0.031 C 
ATOM     51  C   UNL     1       5.084   6.472  -5.426  1.00  0.00     0.029 A 
ATOM     52  C   UNL     1       5.425   7.877  -5.646  1.00  0.00     0.049 A 
ATOM     53  H   UNL     1       6.268   9.197  -4.272  1.00  0.00     0.167 HD
ATOM     54  C   UNL     1       7.426  12.040  -1.054  1.00  0.00     0.031 A 
ATOM     55  C   UNL     1       5.263   8.558  -6.798  1.00  0.00     0.031 A 
ATOM     56  C   UNL     1       7.406  12.811  -2.266  1.00  0.00     0.049 A 
ATOM     57  C   UNL     1       5.628  10.018  -6.837  1.00  0.00     0.074 A 
ATOM     58  C   UNL     1       7.766  14.132  -2.454  1.00  0.00     0.029 A 
ATOM     59  N   UNL     1       6.989  12.326  -3.498  1.00  0.00    -0.354 N 
ATOM     60  N   UNL     1       6.051  10.788  -5.861  1.00  0.00    -0.248 NA
ATOM     61  C   UNL     1       5.504  10.701  -8.132  1.00  0.00     0.031 C 
ATOM     62  C   UNL     1       7.516  14.460  -3.791  1.00  0.00     0.029 A 
ATOM     63  C   UNL     1       7.064  13.326  -4.450  1.00  0.00     0.049 A 
ATOM     64  H   UNL     1       6.685  11.405  -3.669  1.00  0.00     0.167 HD
ATOM     65  C   UNL     1       6.276  12.037  -6.429  1.00  0.00     0.074 A 
ATOM     66  C   UNL     1       5.940  11.919  -7.835  1.00  0.00     0.031 C 
ATOM     67  C   UNL     1       6.728  13.175  -5.845  1.00  0.00     0.031 A 
BRANCH  54  68
ATOM     68  C   UNL     1       7.792  12.706   0.246  1.00  0.00    -0.014 A 
ATOM     69  C   UNL     1       8.954  12.347   0.954  1.00  0.00     0.010 A 
ATOM     70  C   UNL     1       6.941  13.688   0.786  1.00  0.00     0.010 A 
ATOM     71  C   UNL     1       9.221  12.904   2.207  1.00  0.00     0.020 A 
ATOM     72  C   UNL     1       7.223  14.273   2.023  1.00  0.00     0.020 A 
ATOM     73  C   UNL     1       8.347  13.856   2.739  1.00  0.00     0.054 A 
BRANCH  73  74
ATOM     74  S   UNL     1       8.704  14.547   4.377  1.00  0.00     0.124 S 
ATOM     75  O   UNL     1       8.351  13.434   5.255  1.00  0.00    -0.237 OA
ATOM     76  O   UNL     1      10.130  14.852   4.294  1.00  0.00    -0.237 OA
ATOM     77  O   UNL     1       7.824  15.710   4.463  1.00  0.00    -0.744 OA
ENDBRANCH  73  74
ENDBRANCH  54  68
BRANCH  55  78
ATOM     78  C   UNL     1       4.727   7.852  -7.992  1.00  0.00    -0.014 A 
ATOM     79  C   UNL     1       5.578   7.507  -9.056  1.00  0.00     0.010 A 
ATOM     80  C   UNL     1       3.378   7.451  -8.038  1.00  0.00     0.010 A 
ATOM     81  C   UNL     1       5.095   6.764 -10.137  1.00  0.00     0.020 A 
ATOM     82  C   UNL     1       2.897   6.687  -9.106  1.00  0.00     0.020 A 
ATOM     83  C   UNL     1       3.760   6.347 -10.149  1.00  0.00     0.054 A 
BRANCH  83  84
ATOM     84  S   UNL     1       3.188   5.291 -11.510  1.00  0.00     0.124 S 
ATOM     85  O   UNL     1       3.146   6.228 -12.627  1.00  0.00    -0.237 OA
ATOM     86  O   UNL     1       4.235   4.273 -11.577  1.00  0.00    -0.237 OA
ATOM     87  O   UNL     1       1.890   4.808 -11.046  1.00  0.00    -0.744 OA
ENDBRANCH  83  84
ENDBRANCH  55  78
BRANCH  67  88
ATOM     88  C   UNL     1       6.943  14.376  -6.727  1.00  0.00    -0.014 A 
ATOM     89  C   UNL     1       5.864  15.137  -7.207  1.00  0.00     0.010 A 
ATOM     90  C   UNL     1       8.258  14.805  -6.988  1.00  0.00     0.010 A 
ATOM     91  C   UNL     1       6.098  16.301  -7.944  1.00  0.00     0.020 A 
ATOM     92  C   UNL     1       8.495  15.981  -7.700  1.00  0.00     0.020 A 
ATOM     93  C   UNL     1       7.412  16.719  -8.181  1.00  0.00     0.054 A 
BRANCH  93  94
ATOM     94  S   UNL     1       7.689  18.274  -9.073  1.00  0.00     0.124 S 
ATOM     95  O   UNL     1       7.340  17.904 -10.442  1.00  0.00    -0.237 OA
ATOM     96  O   UNL     1       6.762  19.190  -8.413  1.00  0.00    -0.237 OA
ATOM     97  O   UNL     1       9.104  18.557  -8.845  1.00  0.00    -0.744 OA
ENDBRANCH  93  94
ENDBRANCH  67  88
ENDBRANCH  41  42
ENDBRANCH  34  36
ENDBRANCH  33  34
ENDBRANCH  32  33
ENDBRANCH  31  32
ENDBRANCH  30  31
ENDBRANCH   1  30
TORSDOF 21
