REMARK SMILES O=C(Cn1c(-c2nc(-c3ccc(C(F)(F)F)cc3)no2)cc2ccccc21)OCCOCCOC(=O)c1ccc(-c2c3nc(c(-c4ccc(S(=O)(=O)[O-])cc4)c4ccc([nH]4)c(-c4ccc(S(=O)(=O)[O-])cc4)c4nc(c(-c5ccc(S(=O)(=O)[O-])cc5)c5ccc2[nH]5)C=C4)C=C3)cc1
REMARK SMILES IDX 30 1 29 2 28 3 2 4 1 5 3 6 4 7 5 8 27 9 21 10 22 11 26 12
REMARK SMILES IDX 23 13 25 14 24 15 6 16 7 17 20 18 8 19 19 20 9 21 10 22
REMARK SMILES IDX 18 23 11 24 17 25 12 26 13 27 14 28 15 29 16 30 31 31 32 32
REMARK SMILES IDX 33 33 34 34 35 35 36 36 37 37 38 38 96 39 39 40 95 41 40 42
REMARK SMILES IDX 41 43 42 44 89 45 43 46 94 47 88 48 90 49 44 50 93 51 87 52
REMARK SMILES IDX 86 53 45 55 75 56 56 57 74 58 57 59 60 60 73 61 91 62 58 63
REMARK SMILES IDX 59 64 72 66 92 67 61 68 46 69 47 70 55 71 48 72 54 73 49 74
REMARK SMILES IDX 50 75 51 76 52 77 53 78 76 79 77 80 85 81 78 82 84 83 79 84
REMARK SMILES IDX 80 85 81 86 82 87 83 88 62 89 63 90 71 91 64 92 70 93 65 94
REMARK SMILES IDX 66 95 67 96 68 97 69 98
REMARK H PARENT 90 54 60 65
REMARK Flexibility Score: inf
ROOT
ATOM      1  C   UNL     1       4.172   1.347   1.382  1.00  0.00     0.202 C 
ENDROOT
BRANCH   1   2
ATOM      2  C   UNL     1       3.579   0.766   0.092  1.00  0.00     0.261 C 
BRANCH   2   3
ATOM      3  O   UNL     1       2.440  -0.063   0.245  1.00  0.00    -0.462 OA
BRANCH   3   4
ATOM      4  C   UNL     1       2.613  -1.349   0.573  1.00  0.00     0.326 C 
ATOM      5  O   UNL     1       1.693  -2.140   0.390  1.00  0.00    -0.250 OA
BRANCH   4   6
ATOM      6  C   UNL     1       3.912  -1.700   1.265  1.00  0.00     0.245 C 
BRANCH   6   7
ATOM      7  N   UNL     1       4.909  -2.297   0.396  1.00  0.00    -0.325 N 
ATOM      8  C   UNL     1       6.184  -1.861  -0.042  1.00  0.00     0.109 A 
ATOM      9  C   UNL     1       4.681  -3.645   0.071  1.00  0.00     0.049 A 
ATOM     10  C   UNL     1       6.724  -3.030  -0.599  1.00  0.00     0.042 A 
ATOM     11  C   UNL     1       5.780  -4.094  -0.631  1.00  0.00     0.000 A 
ATOM     12  C   UNL     1       3.593  -4.506   0.369  1.00  0.00     0.027 A 
ATOM     13  C   UNL     1       5.760  -5.414  -1.137  1.00  0.00     0.010 A 
ATOM     14  C   UNL     1       3.607  -5.816  -0.101  1.00  0.00     0.002 A 
ATOM     15  C   UNL     1       4.670  -6.260  -0.868  1.00  0.00     0.001 A 
BRANCH   8  16
ATOM     16  C   UNL     1       6.995  -0.587   0.078  1.00  0.00     0.274 A 
ATOM     17  N   UNL     1       6.900   0.575  -0.591  1.00  0.00    -0.185 NA
ATOM     18  O   UNL     1       8.209  -0.609   0.747  1.00  0.00    -0.332 OA
ATOM     19  C   UNL     1       8.140   1.272  -0.341  1.00  0.00     0.202 A 
ATOM     20  N   UNL     1       8.902   0.582   0.515  1.00  0.00    -0.057 NA
BRANCH  19  21
ATOM     21  C   UNL     1       8.576   2.620  -0.907  1.00  0.00     0.023 A 
ATOM     22  C   UNL     1       9.413   3.584  -0.324  1.00  0.00     0.013 A 
ATOM     23  C   UNL     1       8.165   3.012  -2.158  1.00  0.00     0.013 A 
ATOM     24  C   UNL     1       9.577   4.923  -0.862  1.00  0.00     0.014 A 
ATOM     25  C   UNL     1       8.230   4.355  -2.665  1.00  0.00     0.014 A 
ATOM     26  C   UNL     1       8.883   5.360  -1.990  1.00  0.00     0.056 A 
BRANCH  26  27
ATOM     27  C   UNL     1       8.808   6.785  -2.519  1.00  0.00     0.416 C 
ATOM     28  F   UNL     1       9.113   7.732  -1.588  1.00  0.00    -0.166 F 
ATOM     29  F   UNL     1       9.636   7.016  -3.576  1.00  0.00    -0.166 F 
ATOM     30  F   UNL     1       7.557   7.118  -2.966  1.00  0.00    -0.166 F 
ENDBRANCH  26  27
ENDBRANCH  19  21
ENDBRANCH   8  16
ENDBRANCH   6   7
ENDBRANCH   4   6
ENDBRANCH   3   4
ENDBRANCH   2   3
ENDBRANCH   1   2
BRANCH   1  31
ATOM     31  O   UNL     1       3.378   1.177   2.556  1.00  0.00    -0.374 OA
BRANCH  31  32
ATOM     32  C   UNL     1       2.085   1.796   2.554  1.00  0.00     0.202 C 
BRANCH  32  33
ATOM     33  C   UNL     1       2.077   3.265   2.106  1.00  0.00     0.261 C 
BRANCH  33  34
ATOM     34  O   UNL     1       2.056   3.313   0.653  1.00  0.00    -0.460 OA
BRANCH  34  35
ATOM     35  C   UNL     1       2.868   4.259   0.070  1.00  0.00     0.338 C 
ATOM     36  O   UNL     1       3.349   5.187   0.622  1.00  0.00    -0.246 OA
BRANCH  35  37
ATOM     37  C   UNL     1       3.387   3.682  -1.233  1.00  0.00     0.060 A 
ATOM     38  C   UNL     1       2.692   3.089  -2.308  1.00  0.00     0.016 A 
ATOM     39  C   UNL     1       4.751   3.606  -1.290  1.00  0.00     0.016 A 
ATOM     40  C   UNL     1       3.372   2.277  -3.326  1.00  0.00     0.010 A 
ATOM     41  C   UNL     1       5.317   2.947  -2.387  1.00  0.00     0.010 A 
ATOM     42  C   UNL     1       4.755   2.083  -3.320  1.00  0.00    -0.014 A 
BRANCH  42  43
ATOM     43  C   UNL     1       5.740   1.395  -4.313  1.00  0.00     0.031 A 
ATOM     44  C   UNL     1       6.407   2.320  -5.315  1.00  0.00     0.074 A 
ATOM     45  C   UNL     1       6.461   0.220  -4.253  1.00  0.00     0.049 A 
ATOM     46  N   UNL     1       5.839   3.052  -6.224  1.00  0.00    -0.248 NA
ATOM     47  C   UNL     1       7.870   2.590  -5.212  1.00  0.00     0.031 C 
ATOM     48  C   UNL     1       6.496  -0.850  -3.262  1.00  0.00     0.029 A 
ATOM     49  N   UNL     1       7.462  -0.223  -5.123  1.00  0.00    -0.354 N 
ATOM     50  C   UNL     1       6.903   3.656  -6.896  1.00  0.00     0.074 A 
ATOM     51  C   UNL     1       7.976   3.694  -5.948  1.00  0.00     0.031 C 
ATOM     52  C   UNL     1       7.586  -1.652  -3.455  1.00  0.00     0.029 A 
ATOM     53  C   UNL     1       8.258  -1.287  -4.680  1.00  0.00     0.049 A 
ATOM     54  H   UNL     1       7.601   0.193  -6.004  1.00  0.00     0.167 HD
ATOM     55  C   UNL     1       7.125   3.562  -8.245  1.00  0.00     0.031 A 
ATOM     56  C   UNL     1       9.299  -1.900  -5.323  1.00  0.00     0.031 A 
ATOM     57  C   UNL     1       6.210   2.631  -8.863  1.00  0.00     0.049 A 
ATOM     58  C   UNL     1       9.023  -1.702  -6.764  1.00  0.00     0.074 A 
ATOM     59  C   UNL     1       4.843   2.438  -8.848  1.00  0.00     0.029 A 
ATOM     60  N   UNL     1       6.758   1.438  -9.288  1.00  0.00    -0.354 N 
ATOM     61  N   UNL     1       7.969  -2.188  -7.356  1.00  0.00    -0.248 NA
ATOM     62  C   UNL     1       9.782  -0.733  -7.535  1.00  0.00     0.031 C 
ATOM     63  C   UNL     1       4.662   1.026  -8.828  1.00  0.00     0.029 A 
ATOM     64  C   UNL     1       5.914   0.415  -8.925  1.00  0.00     0.049 A 
ATOM     65  H   UNL     1       7.610   1.337  -9.771  1.00  0.00     0.167 HD
ATOM     66  C   UNL     1       7.656  -1.238  -8.303  1.00  0.00     0.074 A 
ATOM     67  C   UNL     1       8.898  -0.501  -8.509  1.00  0.00     0.031 C 
ATOM     68  C   UNL     1       6.352  -0.922  -8.552  1.00  0.00     0.031 A 
BRANCH  55  69
ATOM     69  C   UNL     1       8.387   4.008  -8.966  1.00  0.00    -0.014 A 
ATOM     70  C   UNL     1       9.678   4.102  -8.407  1.00  0.00     0.010 A 
ATOM     71  C   UNL     1       8.283   4.301 -10.340  1.00  0.00     0.010 A 
ATOM     72  C   UNL     1      10.773   4.595  -9.124  1.00  0.00     0.020 A 
ATOM     73  C   UNL     1       9.388   4.736 -11.089  1.00  0.00     0.020 A 
ATOM     74  C   UNL     1      10.617   4.922 -10.463  1.00  0.00     0.054 A 
BRANCH  74  75
ATOM     75  S   UNL     1      12.056   5.539 -11.371  1.00  0.00     0.124 S 
ATOM     76  O   UNL     1      12.163   6.907 -10.869  1.00  0.00    -0.237 OA
ATOM     77  O   UNL     1      13.114   4.628 -10.946  1.00  0.00    -0.237 OA
ATOM     78  O   UNL     1      11.653   5.415 -12.769  1.00  0.00    -0.744 OA
ENDBRANCH  74  75
ENDBRANCH  55  69
BRANCH  56  79
ATOM     79  C   UNL     1      10.522  -2.692  -4.955  1.00  0.00    -0.014 A 
ATOM     80  C   UNL     1      11.365  -2.263  -3.911  1.00  0.00     0.010 A 
ATOM     81  C   UNL     1      11.070  -3.627  -5.870  1.00  0.00     0.010 A 
ATOM     82  C   UNL     1      12.720  -2.662  -3.850  1.00  0.00     0.020 A 
ATOM     83  C   UNL     1      12.422  -4.029  -5.815  1.00  0.00     0.020 A 
ATOM     84  C   UNL     1      13.253  -3.505  -4.829  1.00  0.00     0.054 A 
BRANCH  84  85
ATOM     85  S   UNL     1      15.053  -3.813  -4.861  1.00  0.00     0.124 S 
ATOM     86  O   UNL     1      15.583  -2.490  -5.180  1.00  0.00    -0.237 OA
ATOM     87  O   UNL     1      15.321  -4.284  -3.504  1.00  0.00    -0.237 OA
ATOM     88  O   UNL     1      15.219  -4.818  -5.908  1.00  0.00    -0.744 OA
ENDBRANCH  84  85
ENDBRANCH  56  79
BRANCH  68  89
ATOM     89  C   UNL     1       5.260  -1.899  -8.129  1.00  0.00    -0.014 A 
ATOM     90  C   UNL     1       4.262  -2.200  -9.073  1.00  0.00     0.010 A 
ATOM     91  C   UNL     1       5.081  -2.377  -6.814  1.00  0.00     0.010 A 
ATOM     92  C   UNL     1       3.101  -2.889  -8.707  1.00  0.00     0.020 A 
ATOM     93  C   UNL     1       3.932  -3.094  -6.443  1.00  0.00     0.020 A 
ATOM     94  C   UNL     1       2.932  -3.313  -7.388  1.00  0.00     0.054 A 
BRANCH  94  95
ATOM     95  S   UNL     1       1.373  -4.122  -6.936  1.00  0.00     0.124 S 
ATOM     96  O   UNL     1       0.437  -3.000  -6.930  1.00  0.00    -0.237 OA
ATOM     97  O   UNL     1       1.183  -5.085  -8.020  1.00  0.00    -0.237 OA
ATOM     98  O   UNL     1       1.647  -4.714  -5.630  1.00  0.00    -0.744 OA
ENDBRANCH  94  95
ENDBRANCH  68  89
ENDBRANCH  42  43
ENDBRANCH  35  37
ENDBRANCH  34  35
ENDBRANCH  33  34
ENDBRANCH  32  33
ENDBRANCH  31  32
ENDBRANCH   1  31
TORSDOF 21
