REMARK SMILES Cc1ccc(C(=O)N2CCC3(CCC(=O)N(CC(=O)OCCOCCOC(=O)c4ccc(-c5c6nc(c(-c7ccc(S(=O)(=O)[O-])cc7)c7ccc([nH]7)c(-c7ccc(S(=O)(=O)[O-])cc7)c7nc(c(-c8ccc(S(=O)(=O)[O-])cc8)c8ccc5[nH]8)C=C7)C=C6)cc4)C3)CC2)cc1O
REMARK SMILES IDX 23 1 22 2 21 3 20 4 18 5 19 6 17 7 16 8 6 9 7 10 8 11 9 12
REMARK SMILES IDX 91 13 10 14 90 15 11 16 12 17 89 18 13 19 14 20 15 21 5 22
REMARK SMILES IDX 1 23 2 24 3 25 93 26 4 27 92 28 94 29 24 31 25 32 26 33
REMARK SMILES IDX 27 34 28 35 29 36 30 37 88 38 31 39 87 40 32 41 33 42 34 43
REMARK SMILES IDX 81 44 35 45 86 46 80 47 82 48 36 49 85 50 79 51 78 52 37 54
REMARK SMILES IDX 67 55 48 56 66 57 49 58 52 59 65 60 83 61 50 62 51 63 64 65
REMARK SMILES IDX 84 66 53 67 38 68 39 69 47 70 40 71 46 72 41 73 42 74 43 75
REMARK SMILES IDX 44 76 45 77 68 78 69 79 77 80 70 81 76 82 71 83 72 84 73 85
REMARK SMILES IDX 74 86 75 87 54 88 55 89 63 90 56 91 62 92 57 93 58 94 59 95
REMARK SMILES IDX 60 96 61 97
REMARK H PARENT 94 30 82 53 52 64
REMARK Flexibility Score: inf
ROOT
ATOM      1  O   UNL     1      11.550  -3.742   5.392  1.00  0.00    -0.374 OA
ENDROOT
BRANCH   1   2
ATOM      2  C   UNL     1      11.053  -5.012   4.966  1.00  0.00     0.202 C 
BRANCH   2   3
ATOM      3  C   UNL     1       9.529  -5.134   4.834  1.00  0.00     0.261 C 
BRANCH   3   4
ATOM      4  O   UNL     1       8.954  -4.195   3.908  1.00  0.00    -0.462 OA
BRANCH   4   5
ATOM      5  C   UNL     1       8.084  -3.304   4.445  1.00  0.00     0.325 C 
ATOM      6  O   UNL     1       7.738  -3.280   5.624  1.00  0.00    -0.250 OA
BRANCH   5   7
ATOM      7  C   UNL     1       7.642  -2.200   3.487  1.00  0.00     0.242 C 
BRANCH   7   8
ATOM      8  N   UNL     1       7.832  -2.311   2.039  1.00  0.00    -0.331 N 
ATOM      9  C   UNL     1       2.848   1.506   0.278  1.00  0.00     0.253 C 
ATOM     10  O   UNL     1       2.716   2.647   0.718  1.00  0.00    -0.269 OA
ATOM     11  N   UNL     1       4.089   0.890   0.190  1.00  0.00    -0.339 N 
ATOM     12  C   UNL     1       5.096   1.234   1.174  1.00  0.00     0.120 C 
ATOM     13  C   UNL     1       4.552   0.120  -0.959  1.00  0.00     0.120 C 
ATOM     14  C   UNL     1       5.705  -0.055   1.718  1.00  0.00     0.030 C 
ATOM     15  C   UNL     1       5.256  -1.163  -0.522  1.00  0.00     0.030 C 
ATOM     16  C   UNL     1       6.306  -0.953   0.602  1.00  0.00    -0.008 C 
ATOM     17  C   UNL     1       7.592  -0.316   0.006  1.00  0.00     0.019 C 
ATOM     18  C   UNL     1       6.667  -2.350   1.177  1.00  0.00     0.127 C 
ATOM     19  C   UNL     1       8.763  -0.355   0.979  1.00  0.00     0.101 C 
ATOM     20  C   UNL     1       8.968  -1.768   1.462  1.00  0.00     0.223 C 
ATOM     21  O   UNL     1      10.040  -2.340   1.370  1.00  0.00    -0.275 OA
BRANCH   9  22
ATOM     22  C   UNL     1       1.627   0.696   0.005  1.00  0.00     0.043 A 
ATOM     23  C   UNL     1      -2.052  -1.571  -0.124  1.00  0.00     0.048 C 
ATOM     24  C   UNL     1      -0.787  -0.764  -0.122  1.00  0.00    -0.009 A 
ATOM     25  C   UNL     1       0.434  -1.420   0.070  1.00  0.00     0.008 A 
ATOM     26  C   UNL     1      -0.778   0.632  -0.246  1.00  0.00     0.119 A 
ATOM     27  C   UNL     1       1.625  -0.695   0.153  1.00  0.00     0.014 A 
ATOM     28  C   UNL     1       0.412   1.357  -0.198  1.00  0.00     0.060 A 
BRANCH  26  29
ATOM     29  O   UNL     1      -1.924   1.365  -0.381  1.00  0.00    -0.508 OA
ATOM     30  H   UNL     1      -2.755   0.933  -0.419  1.00  0.00     0.293 HD
ENDBRANCH  26  29
ENDBRANCH   9  22
ENDBRANCH   7   8
ENDBRANCH   5   7
ENDBRANCH   4   5
ENDBRANCH   3   4
ENDBRANCH   2   3
ENDBRANCH   1   2
BRANCH   1  31
ATOM     31  C   UNL     1      11.534  -2.677   4.435  1.00  0.00     0.202 C 
BRANCH  31  32
ATOM     32  C   UNL     1      12.383  -2.897   3.181  1.00  0.00     0.261 C 
BRANCH  32  33
ATOM     33  O   UNL     1      11.835  -3.966   2.399  1.00  0.00    -0.460 OA
BRANCH  33  34
ATOM     34  C   UNL     1      12.673  -4.512   1.505  1.00  0.00     0.338 C 
ATOM     35  O   UNL     1      13.827  -4.175   1.263  1.00  0.00    -0.246 OA
BRANCH  34  36
ATOM     36  C   UNL     1      12.038  -5.707   0.933  1.00  0.00     0.060 A 
ATOM     37  C   UNL     1      12.363  -6.956   1.472  1.00  0.00     0.016 A 
ATOM     38  C   UNL     1      11.231  -5.606  -0.202  1.00  0.00     0.016 A 
ATOM     39  C   UNL     1      11.939  -8.119   0.827  1.00  0.00     0.010 A 
ATOM     40  C   UNL     1      10.808  -6.774  -0.846  1.00  0.00     0.010 A 
ATOM     41  C   UNL     1      11.200  -8.035  -0.362  1.00  0.00    -0.014 A 
BRANCH  41  42
ATOM     42  C   UNL     1      10.979  -9.254  -1.183  1.00  0.00     0.031 A 
ATOM     43  C   UNL     1      11.885  -9.517  -2.358  1.00  0.00     0.074 A 
ATOM     44  C   UNL     1      10.005 -10.132  -0.880  1.00  0.00     0.049 A 
ATOM     45  N   UNL     1      11.854 -10.499  -3.223  1.00  0.00    -0.248 NA
ATOM     46  C   UNL     1      12.969  -8.548  -2.587  1.00  0.00     0.031 C 
ATOM     47  C   UNL     1       9.088 -10.021   0.254  1.00  0.00     0.029 A 
ATOM     48  N   UNL     1       9.625 -11.292  -1.510  1.00  0.00    -0.354 N 
ATOM     49  C   UNL     1      12.906 -10.264  -4.101  1.00  0.00     0.074 A 
ATOM     50  C   UNL     1      13.544  -9.036  -3.677  1.00  0.00     0.031 C 
ATOM     51  C   UNL     1       8.243 -11.068   0.233  1.00  0.00     0.029 A 
ATOM     52  C   UNL     1       8.539 -11.904  -0.930  1.00  0.00     0.049 A 
ATOM     53  H   UNL     1      10.086 -11.651  -2.301  1.00  0.00     0.167 HD
ATOM     54  C   UNL     1      13.309 -11.002  -5.162  1.00  0.00     0.031 A 
ATOM     55  C   UNL     1       7.847 -12.999  -1.305  1.00  0.00     0.031 A 
ATOM     56  C   UNL     1      12.675 -12.218  -5.594  1.00  0.00     0.049 A 
ATOM     57  C   UNL     1       8.271 -13.768  -2.530  1.00  0.00     0.074 A 
ATOM     58  C   UNL     1      13.021 -13.038  -6.654  1.00  0.00     0.029 A 
ATOM     59  N   UNL     1      11.562 -12.786  -4.995  1.00  0.00    -0.354 N 
ATOM     60  N   UNL     1       9.279 -13.540  -3.336  1.00  0.00    -0.248 NA
ATOM     61  C   UNL     1       7.465 -14.944  -2.892  1.00  0.00     0.031 C 
ATOM     62  C   UNL     1      12.089 -14.078  -6.724  1.00  0.00     0.029 A 
ATOM     63  C   UNL     1      11.194 -13.934  -5.676  1.00  0.00     0.049 A 
ATOM     64  H   UNL     1      11.101 -12.427  -4.203  1.00  0.00     0.167 HD
ATOM     65  C   UNL     1       9.247 -14.561  -4.281  1.00  0.00     0.074 A 
ATOM     66  C   UNL     1       8.122 -15.408  -3.947  1.00  0.00     0.031 C 
ATOM     67  C   UNL     1      10.080 -14.778  -5.328  1.00  0.00     0.031 A 
BRANCH  54  68
ATOM     68  C   UNL     1      14.482 -10.495  -5.956  1.00  0.00    -0.014 A 
ATOM     69  C   UNL     1      15.794 -10.598  -5.460  1.00  0.00     0.010 A 
ATOM     70  C   UNL     1      14.272  -9.954  -7.237  1.00  0.00     0.010 A 
ATOM     71  C   UNL     1      16.873 -10.139  -6.220  1.00  0.00     0.020 A 
ATOM     72  C   UNL     1      15.351  -9.513  -8.008  1.00  0.00     0.020 A 
ATOM     73  C   UNL     1      16.644  -9.595  -7.488  1.00  0.00     0.054 A 
BRANCH  73  74
ATOM     74  S   UNL     1      18.064  -9.029  -8.465  1.00  0.00     0.124 S 
ATOM     75  O   UNL     1      18.405  -7.774  -7.801  1.00  0.00    -0.237 OA
ATOM     76  O   UNL     1      19.027 -10.113  -8.293  1.00  0.00    -0.237 OA
ATOM     77  O   UNL     1      17.522  -8.891  -9.815  1.00  0.00    -0.744 OA
ENDBRANCH  73  74
ENDBRANCH  54  68
BRANCH  55  78
ATOM     78  C   UNL     1       6.655 -13.423  -0.522  1.00  0.00    -0.014 A 
ATOM     79  C   UNL     1       6.688 -14.585   0.269  1.00  0.00     0.010 A 
ATOM     80  C   UNL     1       5.475 -12.659  -0.568  1.00  0.00     0.010 A 
ATOM     81  C   UNL     1       5.558 -14.981   0.990  1.00  0.00     0.020 A 
ATOM     82  C   UNL     1       4.351 -13.039   0.170  1.00  0.00     0.020 A 
ATOM     83  C   UNL     1       4.396 -14.205   0.936  1.00  0.00     0.054 A 
BRANCH  83  84
ATOM     84  S   UNL     1       2.956 -14.703   1.921  1.00  0.00     0.124 S 
ATOM     85  O   UNL     1       2.406 -15.794   1.124  1.00  0.00    -0.237 OA
ATOM     86  O   UNL     1       3.559 -15.088   3.195  1.00  0.00    -0.237 OA
ATOM     87  O   UNL     1       2.143 -13.489   1.970  1.00  0.00    -0.744 OA
ENDBRANCH  83  84
ENDBRANCH  55  78
BRANCH  67  88
ATOM     88  C   UNL     1       9.848 -16.001  -6.173  1.00  0.00    -0.014 A 
ATOM     89  C   UNL     1       8.808 -16.049  -7.117  1.00  0.00     0.010 A 
ATOM     90  C   UNL     1      10.744 -17.083  -6.083  1.00  0.00     0.010 A 
ATOM     91  C   UNL     1       8.661 -17.163  -7.949  1.00  0.00     0.020 A 
ATOM     92  C   UNL     1      10.612 -18.189  -6.926  1.00  0.00     0.020 A 
ATOM     93  C   UNL     1       9.566 -18.225  -7.850  1.00  0.00     0.054 A 
BRANCH  93  94
ATOM     94  S   UNL     1       9.400 -19.627  -8.990  1.00  0.00     0.124 S 
ATOM     95  O   UNL     1       8.267 -20.350  -8.420  1.00  0.00    -0.237 OA
ATOM     96  O   UNL     1       9.147 -18.973 -10.272  1.00  0.00    -0.237 OA
ATOM     97  O   UNL     1      10.689 -20.309  -8.891  1.00  0.00    -0.744 OA
ENDBRANCH  93  94
ENDBRANCH  67  88
ENDBRANCH  41  42
ENDBRANCH  34  36
ENDBRANCH  33  34
ENDBRANCH  32  33
ENDBRANCH  31  32
ENDBRANCH   1  31
TORSDOF 20
