REMARK SMILES O=C(OCCOCCOC(=O)C1(C/C=C/c2ccccc2)CCCCC1)c1ccc(-c2c3nc(c(-c4ccc(S(=O)(=O)[O-])cc4)c4ccc([nH]4)c(-c4ccc(S(=O)(=O)[O-])cc4)c4nc(c(-c5ccc(S(=O)(=O)[O-])cc5)c5ccc2[nH]5)C=C4)C=C3)cc1
REMARK SMILES IDX 6 1 5 2 4 3 3 4 2 5 1 6 27 7 28 8 86 9 29 10 85 11 30 12
REMARK SMILES IDX 31 13 32 14 79 15 33 16 84 17 78 18 80 19 34 20 83 21 77 22
REMARK SMILES IDX 76 23 35 25 65 26 46 27 64 28 47 29 50 30 63 31 81 32 48 33
REMARK SMILES IDX 49 34 62 36 82 37 51 38 36 39 37 40 45 41 38 42 44 43 39 44
REMARK SMILES IDX 40 45 41 46 42 47 43 48 66 49 67 50 75 51 68 52 74 53 69 54
REMARK SMILES IDX 70 55 71 56 72 57 73 58 52 59 53 60 61 61 54 62 60 63 55 64
REMARK SMILES IDX 56 65 57 66 58 67 59 68 7 69 8 70 9 71 10 72 11 73 12 74
REMARK SMILES IDX 22 75 26 76 23 77 25 78 24 79 13 80 14 81 15 82 16 83 17 84
REMARK SMILES IDX 21 85 18 86 20 87 19 88
REMARK H PARENT 80 24 50 35
REMARK Flexibility Score: inf
ROOT
ATOM      1  O   UNL     1       3.803  -1.448   0.783  1.00  0.00    -0.374 OA
ENDROOT
BRANCH   1   2
ATOM      2  C   UNL     1       4.346  -0.211   1.240  1.00  0.00     0.202 C 
BRANCH   2   3
ATOM      3  C   UNL     1       4.137   1.026   0.362  1.00  0.00     0.261 C 
BRANCH   3   4
ATOM      4  O   UNL     1       2.738   1.209   0.086  1.00  0.00    -0.460 OA
BRANCH   4   5
ATOM      5  C   UNL     1       2.074   0.758  -1.007  1.00  0.00     0.338 C 
ATOM      6  O   UNL     1       0.855   0.893  -1.076  1.00  0.00    -0.246 OA
BRANCH   5   7
ATOM      7  C   UNL     1       2.794   0.140  -2.151  1.00  0.00     0.060 A 
ATOM      8  C   UNL     1       3.902  -0.691  -1.998  1.00  0.00     0.016 A 
ATOM      9  C   UNL     1       2.300   0.354  -3.441  1.00  0.00     0.016 A 
ATOM     10  C   UNL     1       4.562  -1.242  -3.059  1.00  0.00     0.010 A 
ATOM     11  C   UNL     1       2.922  -0.253  -4.534  1.00  0.00     0.010 A 
ATOM     12  C   UNL     1       4.052  -1.054  -4.327  1.00  0.00    -0.014 A 
BRANCH  12  13
ATOM     13  C   UNL     1       4.835  -1.663  -5.395  1.00  0.00     0.031 A 
ATOM     14  C   UNL     1       5.709  -0.766  -6.197  1.00  0.00     0.074 A 
ATOM     15  C   UNL     1       4.891  -3.005  -5.459  1.00  0.00     0.049 A 
ATOM     16  N   UNL     1       6.420  -1.049  -7.246  1.00  0.00    -0.248 NA
ATOM     17  C   UNL     1       5.809   0.638  -5.751  1.00  0.00     0.031 C 
ATOM     18  C   UNL     1       4.220  -3.930  -4.532  1.00  0.00     0.029 A 
ATOM     19  N   UNL     1       5.573  -3.828  -6.306  1.00  0.00    -0.354 N 
ATOM     20  C   UNL     1       6.992   0.153  -7.634  1.00  0.00     0.074 A 
ATOM     21  C   UNL     1       6.579   1.163  -6.690  1.00  0.00     0.031 C 
ATOM     22  C   UNL     1       4.532  -5.191  -4.863  1.00  0.00     0.029 A 
ATOM     23  C   UNL     1       5.328  -5.162  -6.080  1.00  0.00     0.049 A 
ATOM     24  H   UNL     1       6.179  -3.501  -7.009  1.00  0.00     0.167 HD
ATOM     25  C   UNL     1       7.761   0.369  -8.720  1.00  0.00     0.031 A 
ATOM     26  C   UNL     1       5.654  -6.226  -6.833  1.00  0.00     0.031 A 
ATOM     27  C   UNL     1       8.126  -0.690  -9.618  1.00  0.00     0.049 A 
ATOM     28  C   UNL     1       6.405  -5.939  -8.104  1.00  0.00     0.074 A 
ATOM     29  C   UNL     1       8.843  -0.619 -10.794  1.00  0.00     0.029 A 
ATOM     30  N   UNL     1       7.787  -2.026  -9.425  1.00  0.00    -0.354 N 
ATOM     31  N   UNL     1       6.871  -4.789  -8.538  1.00  0.00    -0.248 NA
ATOM     32  C   UNL     1       6.652  -7.072  -8.998  1.00  0.00     0.031 C 
ATOM     33  C   UNL     1       8.880  -1.904 -11.345  1.00  0.00     0.029 A 
ATOM     34  C   UNL     1       8.250  -2.787 -10.477  1.00  0.00     0.049 A 
ATOM     35  H   UNL     1       7.290  -2.375  -8.650  1.00  0.00     0.167 HD
ATOM     36  C   UNL     1       7.478  -5.060  -9.754  1.00  0.00     0.074 A 
ATOM     37  C   UNL     1       7.340  -6.490  -9.971  1.00  0.00     0.031 C 
ATOM     38  C   UNL     1       8.086  -4.214 -10.623  1.00  0.00     0.031 A 
BRANCH  25  39
ATOM     39  C   UNL     1       8.120   1.791  -9.038  1.00  0.00    -0.014 A 
ATOM     40  C   UNL     1       9.044   2.520  -8.270  1.00  0.00     0.010 A 
ATOM     41  C   UNL     1       7.484   2.419 -10.125  1.00  0.00     0.010 A 
ATOM     42  C   UNL     1       9.306   3.861  -8.570  1.00  0.00     0.020 A 
ATOM     43  C   UNL     1       7.763   3.749 -10.444  1.00  0.00     0.020 A 
ATOM     44  C   UNL     1       8.664   4.466  -9.656  1.00  0.00     0.054 A 
BRANCH  44  45
ATOM     45  S   UNL     1       9.048   6.195 -10.043  1.00  0.00     0.124 S 
ATOM     46  O   UNL     1       8.406   6.902  -8.937  1.00  0.00    -0.237 OA
ATOM     47  O   UNL     1      10.509   6.207 -10.032  1.00  0.00    -0.237 OA
ATOM     48  O   UNL     1       8.436   6.403 -11.353  1.00  0.00    -0.744 OA
ENDBRANCH  44  45
ENDBRANCH  25  39
BRANCH  26  49
ATOM     49  C   UNL     1       5.169  -7.588  -6.478  1.00  0.00    -0.014 A 
ATOM     50  C   UNL     1       6.066  -8.630  -6.197  1.00  0.00     0.010 A 
ATOM     51  C   UNL     1       3.785  -7.855  -6.428  1.00  0.00     0.010 A 
ATOM     52  C   UNL     1       5.593  -9.915  -5.904  1.00  0.00     0.020 A 
ATOM     53  C   UNL     1       3.307  -9.127  -6.102  1.00  0.00     0.020 A 
ATOM     54  C   UNL     1       4.216 -10.155  -5.861  1.00  0.00     0.054 A 
BRANCH  54  55
ATOM     55  S   UNL     1       3.627 -11.828  -5.475  1.00  0.00     0.124 S 
ATOM     56  O   UNL     1       3.976 -12.559  -6.688  1.00  0.00    -0.237 OA
ATOM     57  O   UNL     1       4.402 -12.168  -4.285  1.00  0.00    -0.237 OA
ATOM     58  O   UNL     1       2.196 -11.643  -5.245  1.00  0.00    -0.744 OA
ENDBRANCH  54  55
ENDBRANCH  26  49
BRANCH  38  59
ATOM     59  C   UNL     1       8.674  -4.828 -11.857  1.00  0.00    -0.014 A 
ATOM     60  C   UNL     1       7.852  -5.259 -12.912  1.00  0.00     0.010 A 
ATOM     61  C   UNL     1      10.072  -4.879 -11.994  1.00  0.00     0.010 A 
ATOM     62  C   UNL     1       8.425  -5.745 -14.086  1.00  0.00     0.020 A 
ATOM     63  C   UNL     1      10.647  -5.331 -13.180  1.00  0.00     0.020 A 
ATOM     64  C   UNL     1       9.818  -5.768 -14.216  1.00  0.00     0.054 A 
BRANCH  64  65
ATOM     65  S   UNL     1      10.533  -6.320 -15.785  1.00  0.00     0.124 S 
ATOM     66  O   UNL     1      10.284  -7.758 -15.741  1.00  0.00    -0.237 OA
ATOM     67  O   UNL     1       9.753  -5.575 -16.770  1.00  0.00    -0.237 OA
ATOM     68  O   UNL     1      11.937  -5.927 -15.683  1.00  0.00    -0.744 OA
ENDBRANCH  64  65
ENDBRANCH  38  59
ENDBRANCH  12  13
ENDBRANCH   5   7
ENDBRANCH   4   5
ENDBRANCH   3   4
ENDBRANCH   2   3
ENDBRANCH   1   2
BRANCH   1  69
ATOM     69  C   UNL     1       2.421  -1.685   1.060  1.00  0.00     0.202 C 
BRANCH  69  70
ATOM     70  C   UNL     1       2.278  -2.851   2.032  1.00  0.00     0.261 C 
BRANCH  70  71
ATOM     71  O   UNL     1       2.888  -2.464   3.277  1.00  0.00    -0.463 OA
BRANCH  71  72
ATOM     72  C   UNL     1       4.234  -2.704   3.330  1.00  0.00     0.312 C 
ATOM     73  O   UNL     1       4.807  -3.448   2.555  1.00  0.00    -0.252 OA
BRANCH  72  74
ATOM     74  C   UNL     1       4.894  -1.950   4.509  1.00  0.00     0.071 C 
ATOM     75  C   UNL     1       4.446  -0.455   4.528  1.00  0.00     0.019 C 
ATOM     76  C   UNL     1       4.402  -2.668   5.786  1.00  0.00     0.019 C 
ATOM     77  C   UNL     1       4.637   0.284   5.843  1.00  0.00     0.001 C 
ATOM     78  C   UNL     1       4.630  -1.883   7.073  1.00  0.00     0.001 C 
ATOM     79  C   UNL     1       4.025  -0.488   6.993  1.00  0.00     0.000 C 
BRANCH  74  80
ATOM     80  C   UNL     1       6.454  -1.950   4.343  1.00  0.00     0.046 C 
BRANCH  80  81
ATOM     81  C   UNL     1       7.107  -3.286   4.102  1.00  0.00    -0.025 C 
ATOM     82  C   UNL     1       7.783  -3.571   2.973  1.00  0.00     0.004 C 
BRANCH  82  83
ATOM     83  C   UNL     1       8.152  -4.941   2.598  1.00  0.00    -0.026 A 
ATOM     84  C   UNL     1       9.445  -5.237   2.160  1.00  0.00     0.008 A 
ATOM     85  C   UNL     1       7.176  -5.947   2.570  1.00  0.00     0.008 A 
ATOM     86  C   UNL     1       9.766  -6.533   1.743  1.00  0.00     0.001 A 
ATOM     87  C   UNL     1       7.494  -7.238   2.150  1.00  0.00     0.001 A 
ATOM     88  C   UNL     1       8.793  -7.533   1.743  1.00  0.00     0.000 A 
ENDBRANCH  82  83
ENDBRANCH  80  81
ENDBRANCH  74  80
ENDBRANCH  72  74
ENDBRANCH  71  72
ENDBRANCH  70  71
ENDBRANCH  69  70
ENDBRANCH   1  69
TORSDOF 20
