REMARK SMILES O=C(OCCOCCOC(=O)c1ccccc1C(=O)N1CCCc2ccccc21)c1ccc(-c2c3nc(c(-c4ccc(S(=O)(=O)[O-])cc4)c4ccc([nH]4)c(-c4ccc(S(=O)(=O)[O-])cc4)c4nc(c(-c5ccc(S(=O)(=O)[O-])cc5)c5ccc2[nH]5)C=C4)C=C3)cc1
REMARK SMILES IDX 5 1 4 2 3 3 2 4 1 5 30 6 31 7 89 8 32 9 88 10 33 11 34 12
REMARK SMILES IDX 35 13 82 14 36 15 87 16 81 17 83 18 37 19 86 20 80 21 79 22
REMARK SMILES IDX 38 24 68 25 49 26 67 27 50 28 53 29 66 30 84 31 51 32 52 33
REMARK SMILES IDX 65 35 85 36 54 37 39 38 40 39 48 40 41 41 47 42 42 43 43 44
REMARK SMILES IDX 44 45 45 46 46 47 69 48 70 49 78 50 71 51 77 52 72 53 73 54
REMARK SMILES IDX 74 55 75 56 76 57 55 58 56 59 64 60 57 61 63 62 58 63 59 64
REMARK SMILES IDX 60 65 61 66 62 67 6 68 7 69 8 70 9 71 10 72 11 73 12 74
REMARK SMILES IDX 13 75 17 76 14 77 16 78 15 79 18 80 19 81 20 82 21 83 29 84
REMARK SMILES IDX 22 85 24 86 28 87 23 88 25 89 27 90 26 91
REMARK H PARENT 83 23 53 34
REMARK Flexibility Score: inf
ROOT
ATOM      1  C   UNL     1       4.453  -0.720  -1.181  1.00  0.00     0.202 C 
ENDROOT
BRANCH   1   2
ATOM      2  C   UNL     1       4.072  -1.538   0.061  1.00  0.00     0.261 C 
BRANCH   2   3
ATOM      3  O   UNL     1       2.682  -1.373   0.397  1.00  0.00    -0.460 OA
BRANCH   3   4
ATOM      4  C   UNL     1       2.107  -0.532   1.290  1.00  0.00     0.338 C 
ATOM      5  O   UNL     1       0.885  -0.580   1.428  1.00  0.00    -0.246 OA
BRANCH   4   6
ATOM      6  C   UNL     1       2.861   0.482   2.092  1.00  0.00     0.060 A 
ATOM      7  C   UNL     1       4.144   0.935   1.797  1.00  0.00     0.016 A 
ATOM      8  C   UNL     1       2.198   1.078   3.180  1.00  0.00     0.016 A 
ATOM      9  C   UNL     1       4.764   1.925   2.524  1.00  0.00     0.010 A 
ATOM     10  C   UNL     1       2.824   2.065   3.951  1.00  0.00     0.010 A 
ATOM     11  C   UNL     1       4.120   2.470   3.623  1.00  0.00    -0.014 A 
BRANCH  11  12
ATOM     12  C   UNL     1       4.988   3.257   4.504  1.00  0.00     0.031 A 
ATOM     13  C   UNL     1       5.638   2.525   5.638  1.00  0.00     0.074 A 
ATOM     14  C   UNL     1       5.390   4.476   4.104  1.00  0.00     0.049 A 
ATOM     15  N   UNL     1       6.519   2.950   6.498  1.00  0.00    -0.248 NA
ATOM     16  C   UNL     1       5.274   1.103   5.800  1.00  0.00     0.031 C 
ATOM     17  C   UNL     1       4.954   5.147   2.873  1.00  0.00     0.029 A 
ATOM     18  N   UNL     1       6.306   5.333   4.644  1.00  0.00    -0.354 N 
ATOM     19  C   UNL     1       6.782   1.864   7.325  1.00  0.00     0.074 A 
ATOM     20  C   UNL     1       5.985   0.756   6.860  1.00  0.00     0.031 C 
ATOM     21  C   UNL     1       5.627   6.301   2.742  1.00  0.00     0.029 A 
ATOM     22  C   UNL     1       6.483   6.480   3.908  1.00  0.00     0.049 A 
ATOM     23  H   UNL     1       6.793   5.147   5.479  1.00  0.00     0.167 HD
ATOM     24  C   UNL     1       7.607   1.818   8.394  1.00  0.00     0.031 A 
ATOM     25  C   UNL     1       7.237   7.562   4.179  1.00  0.00     0.031 A 
ATOM     26  C   UNL     1       8.369   2.954   8.827  1.00  0.00     0.049 A 
ATOM     27  C   UNL     1       8.043   7.534   5.451  1.00  0.00     0.074 A 
ATOM     28  C   UNL     1       9.166   3.088   9.946  1.00  0.00     0.029 A 
ATOM     29  N   UNL     1       8.420   4.163   8.142  1.00  0.00    -0.354 N 
ATOM     30  N   UNL     1       8.199   6.545   6.303  1.00  0.00    -0.248 NA
ATOM     31  C   UNL     1       8.761   8.761   5.806  1.00  0.00     0.031 C 
ATOM     32  C   UNL     1       9.652   4.400   9.968  1.00  0.00     0.029 A 
ATOM     33  C   UNL     1       9.218   5.059   8.825  1.00  0.00     0.049 A 
ATOM     34  H   UNL     1       7.955   4.353   7.295  1.00  0.00     0.167 HD
ATOM     35  C   UNL     1       9.056   7.023   7.285  1.00  0.00     0.074 A 
ATOM     36  C   UNL     1       9.395   8.383   6.908  1.00  0.00     0.031 C 
ATOM     37  C   UNL     1       9.524   6.403   8.398  1.00  0.00     0.031 A 
BRANCH  24  38
ATOM     38  C   UNL     1       7.602   0.553   9.207  1.00  0.00    -0.014 A 
ATOM     39  C   UNL     1       8.178  -0.641   8.738  1.00  0.00     0.010 A 
ATOM     40  C   UNL     1       6.950   0.554  10.454  1.00  0.00     0.010 A 
ATOM     41  C   UNL     1       8.062  -1.821   9.482  1.00  0.00     0.020 A 
ATOM     42  C   UNL     1       6.856  -0.615  11.212  1.00  0.00     0.020 A 
ATOM     43  C   UNL     1       7.396  -1.800  10.712  1.00  0.00     0.054 A 
BRANCH  43  44
ATOM     44  S   UNL     1       7.253  -3.343  11.656  1.00  0.00     0.124 S 
ATOM     45  O   UNL     1       6.276  -4.089  10.868  1.00  0.00    -0.237 OA
ATOM     46  O   UNL     1       8.617  -3.865  11.623  1.00  0.00    -0.237 OA
ATOM     47  O   UNL     1       6.788  -2.904  12.970  1.00  0.00    -0.744 OA
ENDBRANCH  43  44
ENDBRANCH  24  38
BRANCH  25  48
ATOM     48  C   UNL     1       7.202   8.757   3.290  1.00  0.00    -0.014 A 
ATOM     49  C   UNL     1       8.352   9.206   2.618  1.00  0.00     0.010 A 
ATOM     50  C   UNL     1       5.998   9.470   3.120  1.00  0.00     0.010 A 
ATOM     51  C   UNL     1       8.305  10.354   1.817  1.00  0.00     0.020 A 
ATOM     52  C   UNL     1       5.939  10.598   2.297  1.00  0.00     0.020 A 
ATOM     53  C   UNL     1       7.098  11.043   1.663  1.00  0.00     0.054 A 
BRANCH  53  54
ATOM     54  S   UNL     1       7.054  12.518   0.606  1.00  0.00     0.124 S 
ATOM     55  O   UNL     1       7.791  13.488   1.409  1.00  0.00    -0.237 OA
ATOM     56  O   UNL     1       7.725  12.057  -0.606  1.00  0.00    -0.237 OA
ATOM     57  O   UNL     1       5.626  12.788   0.455  1.00  0.00    -0.744 OA
ENDBRANCH  53  54
ENDBRANCH  25  48
BRANCH  37  58
ATOM     58  C   UNL     1      10.493   7.177   9.245  1.00  0.00    -0.014 A 
ATOM     59  C   UNL     1      10.072   8.259  10.036  1.00  0.00     0.010 A 
ATOM     60  C   UNL     1      11.838   6.769   9.284  1.00  0.00     0.010 A 
ATOM     61  C   UNL     1      10.994   8.948  10.824  1.00  0.00     0.020 A 
ATOM     62  C   UNL     1      12.754   7.433  10.098  1.00  0.00     0.020 A 
ATOM     63  C   UNL     1      12.329   8.530  10.849  1.00  0.00     0.054 A 
BRANCH  63  64
ATOM     64  S   UNL     1      13.500   9.416  11.911  1.00  0.00     0.124 S 
ATOM     65  O   UNL     1      13.703  10.656  11.168  1.00  0.00    -0.237 OA
ATOM     66  O   UNL     1      12.760   9.546  13.164  1.00  0.00    -0.237 OA
ATOM     67  O   UNL     1      14.657   8.525  11.967  1.00  0.00    -0.744 OA
ENDBRANCH  63  64
ENDBRANCH  37  58
ENDBRANCH  11  12
ENDBRANCH   4   6
ENDBRANCH   3   4
ENDBRANCH   2   3
ENDBRANCH   1   2
BRANCH   1  68
ATOM     68  O   UNL     1       4.318   0.698  -1.042  1.00  0.00    -0.374 OA
BRANCH  68  69
ATOM     69  C   UNL     1       3.005   1.216  -1.277  1.00  0.00     0.202 C 
BRANCH  69  70
ATOM     70  C   UNL     1       2.976   1.889  -2.626  1.00  0.00     0.261 C 
BRANCH  70  71
ATOM     71  O   UNL     1       3.423   0.902  -3.565  1.00  0.00    -0.460 OA
BRANCH  71  72
ATOM     72  C   UNL     1       4.578   1.173  -4.223  1.00  0.00     0.339 C 
ATOM     73  O   UNL     1       5.256   2.170  -4.204  1.00  0.00    -0.246 OA
BRANCH  72  74
ATOM     74  C   UNL     1       4.920  -0.089  -4.867  1.00  0.00     0.072 A 
ATOM     75  C   UNL     1       5.968  -0.799  -4.253  1.00  0.00     0.016 A 
ATOM     76  C   UNL     1       4.197  -0.626  -5.933  1.00  0.00     0.054 A 
ATOM     77  C   UNL     1       6.271  -2.092  -4.661  1.00  0.00     0.001 A 
ATOM     78  C   UNL     1       4.528  -1.934  -6.338  1.00  0.00     0.015 A 
ATOM     79  C   UNL     1       5.537  -2.667  -5.694  1.00  0.00     0.001 A 
BRANCH  76  80
ATOM     80  C   UNL     1       3.337   0.147  -6.882  1.00  0.00     0.259 C 
ATOM     81  O   UNL     1       3.768   0.213  -8.036  1.00  0.00    -0.269 OA
BRANCH  80  82
ATOM     82  N   UNL     1       2.051   0.582  -6.519  1.00  0.00    -0.308 N 
ATOM     83  C   UNL     1       1.873   1.881  -5.845  1.00  0.00     0.126 C 
ATOM     84  C   UNL     1       1.017   0.473  -7.509  1.00  0.00     0.047 A 
ATOM     85  C   UNL     1       1.964   3.103  -6.756  1.00  0.00     0.027 C 
ATOM     86  C   UNL     1       0.708   1.624  -8.265  1.00  0.00    -0.024 A 
ATOM     87  C   UNL     1       0.155  -0.621  -7.506  1.00  0.00     0.026 A 
ATOM     88  C   UNL     1       1.669   2.777  -8.207  1.00  0.00     0.039 C 
ATOM     89  C   UNL     1      -0.479   1.690  -8.989  1.00  0.00     0.006 A 
ATOM     90  C   UNL     1      -1.043  -0.539  -8.222  1.00  0.00     0.002 A 
ATOM     91  C   UNL     1      -1.364   0.616  -8.946  1.00  0.00     0.000 A 
ENDBRANCH  80  82
ENDBRANCH  76  80
ENDBRANCH  72  74
ENDBRANCH  71  72
ENDBRANCH  70  71
ENDBRANCH  69  70
ENDBRANCH  68  69
ENDBRANCH   1  68
TORSDOF 19
