REMARK SMILES CC[C@H](C)[C@H]([NH3+])C(=O)N1CC[C@@H](C(=O)OCCOCCOC(=O)c2ccc(-c3c4nc(c(-c5ccc(S(=O)(=O)[O-])cc5)c5ccc([nH]5)c(-c5ccc(S(=O)(=O)[O-])cc5)c5nc(c(-c6ccc(S(=O)(=O)[O-])cc6)c6ccc3[nH]6)C=C5)C=C4)cc2)[C@@H]1C
REMARK SMILES IDX 17 1 16 2 15 3 13 4 14 5 12 6 9 7 10 8 84 9 11 10 85 11 7 12
REMARK SMILES IDX 8 13 5 14 3 15 4 16 2 17 1 18 6 19 18 23 19 24 20 25 21 26
REMARK SMILES IDX 22 27 23 28 24 29 25 30 83 31 26 32 82 33 27 34 28 35 29 36
REMARK SMILES IDX 76 37 30 38 81 39 75 40 77 41 31 42 80 43 74 44 73 45 32 47
REMARK SMILES IDX 62 48 43 49 61 50 44 51 47 52 60 53 78 54 45 55 46 56 59 58
REMARK SMILES IDX 79 59 48 60 33 61 34 62 42 63 35 64 41 65 36 66 37 67 38 68
REMARK SMILES IDX 39 69 40 70 63 71 64 72 72 73 65 74 71 75 66 76 67 77 68 78
REMARK SMILES IDX 69 79 70 80 49 81 50 82 58 83 51 84 57 85 52 86 53 87 54 88
REMARK SMILES IDX 55 89 56 90
REMARK H PARENT 6 20 6 21 6 22 77 46 47 57
REMARK Flexibility Score: inf
ROOT
ATOM      1  C   UNL     1       6.760   0.363   2.961  1.00  0.00     0.202 C 
ENDROOT
BRANCH   1   2
ATOM      2  C   UNL     1       6.614   1.345   4.127  1.00  0.00     0.261 C 
BRANCH   2   3
ATOM      3  O   UNL     1       5.556   2.294   3.890  1.00  0.00    -0.463 OA
BRANCH   3   4
ATOM      4  C   UNL     1       5.947   3.578   3.695  1.00  0.00     0.311 C 
ATOM      5  O   UNL     1       7.096   3.989   3.809  1.00  0.00    -0.252 OA
BRANCH   4   6
ATOM      6  C   UNL     1       4.808   4.503   3.336  1.00  0.00     0.123 C 
ATOM      7  N   UNL     1       2.429   4.488   3.391  1.00  0.00    -0.334 N 
ATOM      8  C   UNL     1       2.882   5.614   4.183  1.00  0.00     0.121 C 
ATOM      9  C   UNL     1       3.553   3.880   2.676  1.00  0.00     0.096 C 
ATOM     10  C   UNL     1       4.285   5.207   4.585  1.00  0.00     0.039 C 
ATOM     11  C   UNL     1       3.503   4.287   1.194  1.00  0.00     0.032 C 
BRANCH   7  12
ATOM     12  C   UNL     1       1.090   4.176   3.383  1.00  0.00     0.281 C 
ATOM     13  O   UNL     1       0.258   5.060   3.626  1.00  0.00    -0.268 OA
BRANCH  12  14
ATOM     14  C   UNL     1       0.599   2.718   3.170  1.00  0.00     0.273 C 
BRANCH  14  15
ATOM     15  C   UNL     1       0.991   1.659   4.252  1.00  0.00     0.054 C 
ATOM     16  C   UNL     1       1.809   0.489   3.703  1.00  0.00     0.014 C 
BRANCH  15  17
ATOM     17  C   UNL     1       1.676   2.183   5.529  1.00  0.00     0.006 C 
ATOM     18  C   UNL     1       0.770   3.015   6.422  1.00  0.00     0.004 C 
ENDBRANCH  15  17
ENDBRANCH  14  15
BRANCH  14  19
ATOM     19  N   UNL     1       0.761   2.278   1.769  1.00  0.00    -0.347 N 
ATOM     20  H   UNL     1       1.754   2.209   1.548  1.00  0.00     0.345 HD
ATOM     21  H   UNL     1       0.320   2.954   1.146  1.00  0.00     0.345 HD
ATOM     22  H   UNL     1       0.321   1.366   1.647  1.00  0.00     0.345 HD
ENDBRANCH  14  19
ENDBRANCH  12  14
ENDBRANCH   7  12
ENDBRANCH   4   6
ENDBRANCH   3   4
ENDBRANCH   2   3
ENDBRANCH   1   2
BRANCH   1  23
ATOM     23  O   UNL     1       7.151   0.923   1.706  1.00  0.00    -0.374 OA
BRANCH  23  24
ATOM     24  C   UNL     1       6.138   1.567   0.939  1.00  0.00     0.202 C 
BRANCH  24  25
ATOM     25  C   UNL     1       5.182   0.671   0.141  1.00  0.00     0.261 C 
BRANCH  25  26
ATOM     26  O   UNL     1       4.391  -0.183   0.983  1.00  0.00    -0.460 OA
BRANCH  26  27
ATOM     27  C   UNL     1       4.791  -1.478   0.997  1.00  0.00     0.338 C 
ATOM     28  O   UNL     1       5.698  -1.972   0.337  1.00  0.00    -0.246 OA
BRANCH  27  29
ATOM     29  C   UNL     1       4.098  -2.218   2.066  1.00  0.00     0.060 A 
ATOM     30  C   UNL     1       4.877  -2.985   2.941  1.00  0.00     0.016 A 
ATOM     31  C   UNL     1       2.708  -2.224   2.172  1.00  0.00     0.016 A 
ATOM     32  C   UNL     1       4.263  -3.815   3.878  1.00  0.00     0.010 A 
ATOM     33  C   UNL     1       2.094  -3.028   3.139  1.00  0.00     0.010 A 
ATOM     34  C   UNL     1       2.865  -3.880   3.950  1.00  0.00    -0.014 A 
BRANCH  34  35
ATOM     35  C   UNL     1       2.220  -5.004   4.681  1.00  0.00     0.031 A 
ATOM     36  C   UNL     1       1.586  -6.110   3.869  1.00  0.00     0.074 A 
ATOM     37  C   UNL     1       2.242  -5.085   6.026  1.00  0.00     0.049 A 
ATOM     38  N   UNL     1       0.957  -7.183   4.274  1.00  0.00    -0.248 NA
ATOM     39  C   UNL     1       1.659  -5.982   2.402  1.00  0.00     0.031 C 
ATOM     40  C   UNL     1       2.844  -4.103   6.929  1.00  0.00     0.029 A 
ATOM     41  N   UNL     1       1.744  -6.050   6.868  1.00  0.00    -0.354 N 
ATOM     42  C   UNL     1       0.539  -7.834   3.118  1.00  0.00     0.074 A 
ATOM     43  C   UNL     1       0.946  -7.020   1.997  1.00  0.00     0.031 C 
ATOM     44  C   UNL     1       2.689  -4.523   8.198  1.00  0.00     0.029 A 
ATOM     45  C   UNL     1       1.952  -5.786   8.202  1.00  0.00     0.049 A 
ATOM     46  H   UNL     1       1.282  -6.857   6.546  1.00  0.00     0.167 HD
ATOM     47  C   UNL     1      -0.109  -9.015   2.993  1.00  0.00     0.031 A 
ATOM     48  C   UNL     1       1.584  -6.480   9.298  1.00  0.00     0.031 A 
ATOM     49  C   UNL     1      -0.479  -9.850   4.102  1.00  0.00     0.049 A 
ATOM     50  C   UNL     1       0.847  -7.787   9.132  1.00  0.00     0.074 A 
ATOM     51  C   UNL     1      -1.104 -11.084   4.075  1.00  0.00     0.029 A 
ATOM     52  N   UNL     1      -0.250  -9.542   5.432  1.00  0.00    -0.354 N 
ATOM     53  N   UNL     1       0.488  -8.399   8.028  1.00  0.00    -0.248 NA
ATOM     54  C   UNL     1       0.485  -8.508  10.361  1.00  0.00     0.031 C 
ATOM     55  C   UNL     1      -1.297 -11.501   5.395  1.00  0.00     0.029 A 
ATOM     56  C   UNL     1      -0.733 -10.557   6.238  1.00  0.00     0.049 A 
ATOM     57  H   UNL     1       0.190  -8.723   5.756  1.00  0.00     0.167 HD
ATOM     58  C   UNL     1      -0.102  -9.595   8.431  1.00  0.00     0.074 A 
ATOM     59  C   UNL     1      -0.041  -9.624   9.877  1.00  0.00     0.031 C 
ATOM     60  C   UNL     1      -0.642 -10.582   7.675  1.00  0.00     0.031 A 
BRANCH  47  61
ATOM     61  C   UNL     1      -0.469  -9.476   1.606  1.00  0.00    -0.014 A 
ATOM     62  C   UNL     1       0.513  -9.929   0.707  1.00  0.00     0.010 A 
ATOM     63  C   UNL     1      -1.822  -9.512   1.220  1.00  0.00     0.010 A 
ATOM     64  C   UNL     1       0.150 -10.390  -0.561  1.00  0.00     0.020 A 
ATOM     65  C   UNL     1      -2.191  -9.999  -0.036  1.00  0.00     0.020 A 
ATOM     66  C   UNL     1      -1.200 -10.427  -0.923  1.00  0.00     0.054 A 
BRANCH  66  67
ATOM     67  S   UNL     1      -1.646 -11.089  -2.551  1.00  0.00     0.124 S 
ATOM     68  O   UNL     1      -1.192 -10.025  -3.444  1.00  0.00    -0.237 OA
ATOM     69  O   UNL     1      -0.878 -12.330  -2.612  1.00  0.00    -0.237 OA
ATOM     70  O   UNL     1      -3.095 -11.259  -2.472  1.00  0.00    -0.744 OA
ENDBRANCH  66  67
ENDBRANCH  47  61
BRANCH  48  71
ATOM     71  C   UNL     1       1.890  -5.961  10.663  1.00  0.00    -0.014 A 
ATOM     72  C   UNL     1       2.789  -6.636  11.509  1.00  0.00     0.010 A 
ATOM     73  C   UNL     1       1.237  -4.811  11.144  1.00  0.00     0.010 A 
ATOM     74  C   UNL     1       2.997  -6.197  12.821  1.00  0.00     0.020 A 
ATOM     75  C   UNL     1       1.467  -4.350  12.444  1.00  0.00     0.020 A 
ATOM     76  C   UNL     1       2.330  -5.058  13.281  1.00  0.00     0.054 A 
BRANCH  76  77
ATOM     77  S   UNL     1       2.619  -4.499  14.983  1.00  0.00     0.124 S 
ATOM     78  O   UNL     1       1.877  -5.489  15.758  1.00  0.00    -0.237 OA
ATOM     79  O   UNL     1       4.074  -4.567  15.095  1.00  0.00    -0.237 OA
ATOM     80  O   UNL     1       2.064  -3.147  14.997  1.00  0.00    -0.744 OA
ENDBRANCH  76  77
ENDBRANCH  48  71
BRANCH  60  81
ATOM     81  C   UNL     1      -1.142 -11.814   8.383  1.00  0.00    -0.014 A 
ATOM     82  C   UNL     1      -2.305 -11.793   9.172  1.00  0.00     0.010 A 
ATOM     83  C   UNL     1      -0.456 -13.031   8.206  1.00  0.00     0.010 A 
ATOM     84  C   UNL     1      -2.746 -12.956   9.809  1.00  0.00     0.020 A 
ATOM     85  C   UNL     1      -0.911 -14.202   8.815  1.00  0.00     0.020 A 
ATOM     86  C   UNL     1      -2.043 -14.153   9.629  1.00  0.00     0.054 A 
BRANCH  86  87
ATOM     87  S   UNL     1      -2.648 -15.654  10.447  1.00  0.00     0.124 S 
ATOM     88  O   UNL     1      -2.272 -15.415  11.837  1.00  0.00    -0.237 OA
ATOM     89  O   UNL     1      -4.082 -15.617  10.168  1.00  0.00    -0.237 OA
ATOM     90  O   UNL     1      -1.918 -16.730   9.780  1.00  0.00    -0.744 OA
ENDBRANCH  86  87
ENDBRANCH  60  81
ENDBRANCH  34  35
ENDBRANCH  27  29
ENDBRANCH  26  27
ENDBRANCH  25  26
ENDBRANCH  24  25
ENDBRANCH  23  24
ENDBRANCH   1  23
TORSDOF 22
