REMARK SMILES CC[C@@](O)(C(=O)OCCOCCOC(=O)c1ccc(-c2c3nc(c(-c4ccc(S(=O)(=O)[O-])cc4)c4ccc([nH]4)c(-c4ccc(S(=O)(=O)[O-])cc4)c4nc(c(-c5ccc(S(=O)(=O)[O-])cc5)c5ccc2[nH]5)C=C4)C=C3)cc1)[C@H](C)c1cc(F)c(C)cc1F
REMARK SMILES IDX 11 1 10 2 9 3 8 4 7 5 5 6 6 7 3 8 2 9 1 10 4 11 76 13 77 14
REMARK SMILES IDX 78 15 79 16 85 17 80 18 84 19 86 20 81 21 82 22 83 23 12 24
REMARK SMILES IDX 13 25 14 26 15 27 16 28 17 29 75 30 18 31 74 32 19 33 20 34
REMARK SMILES IDX 21 35 68 36 22 37 73 38 67 39 69 40 23 41 72 42 66 43 65 44
REMARK SMILES IDX 24 46 54 47 35 48 53 49 36 50 39 51 52 52 70 53 37 54 38 55
REMARK SMILES IDX 51 57 71 58 40 59 25 60 26 61 34 62 27 63 33 64 28 65 29 66
REMARK SMILES IDX 30 67 31 68 32 69 55 70 56 71 64 72 57 73 63 74 58 75 59 76
REMARK SMILES IDX 60 77 61 78 62 79 41 80 42 81 50 82 43 83 49 84 44 85 45 86
REMARK SMILES IDX 46 87 47 88 48 89
REMARK H PARENT 4 12 69 45 39 56
REMARK Flexibility Score: inf
ROOT
ATOM      1  C   UNL     1      -0.483   1.821   3.205  1.00  0.00     0.202 C 
ENDROOT
BRANCH   1   2
ATOM      2  O   UNL     1      -0.858   0.466   3.432  1.00  0.00    -0.374 OA
BRANCH   2   3
ATOM      3  C   UNL     1      -0.142  -0.273   4.418  1.00  0.00     0.202 C 
BRANCH   3   4
ATOM      4  C   UNL     1       1.320  -0.651   4.148  1.00  0.00     0.261 C 
BRANCH   4   5
ATOM      5  O   UNL     1       2.111   0.449   3.671  1.00  0.00    -0.461 OA
BRANCH   5   6
ATOM      6  C   UNL     1       2.543   0.341   2.380  1.00  0.00     0.338 C 
ATOM      7  O   UNL     1       2.324  -0.648   1.692  1.00  0.00    -0.249 OA
BRANCH   6   8
ATOM      8  C   UNL     1       3.339   1.590   1.885  1.00  0.00     0.168 C 
BRANCH   8   9
ATOM      9  C   UNL     1       3.332   2.741   2.934  1.00  0.00     0.044 C 
ATOM     10  C   UNL     1       4.315   3.876   2.653  1.00  0.00     0.007 C 
ENDBRANCH   8   9
BRANCH   8  11
ATOM     11  O   UNL     1       4.721   1.175   1.819  1.00  0.00    -0.378 OA
ATOM     12  H   UNL     1       5.011   0.876   2.695  1.00  0.00     0.212 HD
ENDBRANCH   8  11
BRANCH   8  13
ATOM     13  C   UNL     1       2.836   2.087   0.461  1.00  0.00     0.062 C 
ATOM     14  C   UNL     1       1.368   2.530   0.402  1.00  0.00     0.016 C 
BRANCH  13  15
ATOM     15  C   UNL     1       3.157   1.164  -0.718  1.00  0.00    -0.003 A 
ATOM     16  C   UNL     1       2.421   0.007  -1.009  1.00  0.00     0.046 A 
ATOM     17  C   UNL     1       4.250   1.453  -1.548  1.00  0.00     0.127 A 
ATOM     18  C   UNL     1       2.841  -0.874  -2.004  1.00  0.00     0.126 A 
ATOM     19  C   UNL     1       4.648   0.595  -2.573  1.00  0.00     0.046 A 
ATOM     20  F   UNL     1       4.963   2.570  -1.342  1.00  0.00    -0.207 F 
ATOM     21  F   UNL     1       2.162  -2.016  -2.187  1.00  0.00    -0.207 F 
ATOM     22  C   UNL     1       3.957  -0.599  -2.793  1.00  0.00    -0.012 A 
ATOM     23  C   UNL     1       4.436  -1.605  -3.791  1.00  0.00     0.047 C 
ENDBRANCH  13  15
ENDBRANCH   8  13
ENDBRANCH   6   8
ENDBRANCH   5   6
ENDBRANCH   4   5
ENDBRANCH   3   4
ENDBRANCH   2   3
ENDBRANCH   1   2
BRANCH   1  24
ATOM     24  C   UNL     1      -0.729   2.871   4.293  1.00  0.00     0.261 C 
BRANCH  24  25
ATOM     25  O   UNL     1      -0.042   2.577   5.517  1.00  0.00    -0.460 OA
BRANCH  25  26
ATOM     26  C   UNL     1      -0.861   2.284   6.555  1.00  0.00     0.338 C 
ATOM     27  O   UNL     1      -2.085   2.346   6.570  1.00  0.00    -0.246 OA
BRANCH  26  28
ATOM     28  C   UNL     1      -0.091   1.649   7.634  1.00  0.00     0.060 A 
ATOM     29  C   UNL     1      -0.509   0.378   8.054  1.00  0.00     0.016 A 
ATOM     30  C   UNL     1       0.975   2.296   8.262  1.00  0.00     0.016 A 
ATOM     31  C   UNL     1       0.104  -0.231   9.140  1.00  0.00     0.010 A 
ATOM     32  C   UNL     1       1.578   1.689   9.367  1.00  0.00     0.010 A 
ATOM     33  C   UNL     1       1.116   0.445   9.832  1.00  0.00    -0.014 A 
BRANCH  33  34
ATOM     34  C   UNL     1       1.544  -0.075  11.150  1.00  0.00     0.031 A 
ATOM     35  C   UNL     1       0.929   0.519  12.387  1.00  0.00     0.074 A 
ATOM     36  C   UNL     1       2.413  -1.096  11.237  1.00  0.00     0.049 A 
ATOM     37  N   UNL     1       1.146   0.225  13.642  1.00  0.00    -0.248 NA
ATOM     38  C   UNL     1      -0.067   1.585  12.181  1.00  0.00     0.031 C 
ATOM     39  C   UNL     1       3.025  -1.784  10.101  1.00  0.00     0.029 A 
ATOM     40  N   UNL     1       2.928  -1.733  12.336  1.00  0.00    -0.354 N 
ATOM     41  C   UNL     1       0.320   1.071  14.374  1.00  0.00     0.074 A 
ATOM     42  C   UNL     1      -0.379   1.910  13.426  1.00  0.00     0.031 C 
ATOM     43  C   UNL     1       3.842  -2.746  10.564  1.00  0.00     0.029 A 
ATOM     44  C   UNL     1       3.834  -2.718  12.025  1.00  0.00     0.049 A 
ATOM     45  H   UNL     1       2.673  -1.507  13.259  1.00  0.00     0.167 HD
ATOM     46  C   UNL     1       0.155   1.136  15.716  1.00  0.00     0.031 A 
ATOM     47  C   UNL     1       4.587  -3.491  12.832  1.00  0.00     0.031 A 
ATOM     48  C   UNL     1       0.870   0.310  16.651  1.00  0.00     0.049 A 
ATOM     49  C   UNL     1       4.446  -3.346  14.324  1.00  0.00     0.074 A 
ATOM     50  C   UNL     1       0.781   0.296  18.032  1.00  0.00     0.029 A 
ATOM     51  N   UNL     1       1.813  -0.645  16.300  1.00  0.00    -0.354 N 
ATOM     52  N   UNL     1       3.654  -2.550  15.004  1.00  0.00    -0.248 NA
ATOM     53  C   UNL     1       5.294  -4.208  15.158  1.00  0.00     0.031 C 
ATOM     54  C   UNL     1       1.712  -0.628  18.518  1.00  0.00     0.029 A 
ATOM     55  C   UNL     1       2.333  -1.237  17.438  1.00  0.00     0.049 A 
ATOM     56  H   UNL     1       2.073  -0.870  15.378  1.00  0.00     0.167 HD
ATOM     57  C   UNL     1       3.889  -2.834  16.345  1.00  0.00     0.074 A 
ATOM     58  C   UNL     1       4.886  -3.885  16.379  1.00  0.00     0.031 C 
ATOM     59  C   UNL     1       3.329  -2.279  17.449  1.00  0.00     0.031 A 
BRANCH  46  60
ATOM     60  C   UNL     1      -0.807   2.166  16.247  1.00  0.00    -0.014 A 
ATOM     61  C   UNL     1      -2.196   2.030  16.068  1.00  0.00     0.010 A 
ATOM     62  C   UNL     1      -0.315   3.278  16.955  1.00  0.00     0.010 A 
ATOM     63  C   UNL     1      -3.071   3.007  16.552  1.00  0.00     0.020 A 
ATOM     64  C   UNL     1      -1.188   4.242  17.465  1.00  0.00     0.020 A 
ATOM     65  C   UNL     1      -2.560   4.110  17.245  1.00  0.00     0.054 A 
BRANCH  65  66
ATOM     66  S   UNL     1      -3.719   5.354  17.875  1.00  0.00     0.124 S 
ATOM     67  O   UNL     1      -4.143   6.022  16.647  1.00  0.00    -0.237 OA
ATOM     68  O   UNL     1      -4.739   4.540  18.531  1.00  0.00    -0.237 OA
ATOM     69  O   UNL     1      -2.902   6.166  18.774  1.00  0.00    -0.744 OA
ENDBRANCH  65  66
ENDBRANCH  46  60
BRANCH  47  70
ATOM     70  C   UNL     1       5.558  -4.452  12.240  1.00  0.00    -0.014 A 
ATOM     71  C   UNL     1       5.356  -5.839  12.341  1.00  0.00     0.010 A 
ATOM     72  C   UNL     1       6.692  -3.975  11.556  1.00  0.00     0.010 A 
ATOM     73  C   UNL     1       6.276  -6.731  11.780  1.00  0.00     0.020 A 
ATOM     74  C   UNL     1       7.598  -4.863  10.970  1.00  0.00     0.020 A 
ATOM     75  C   UNL     1       7.390  -6.237  11.095  1.00  0.00     0.054 A 
BRANCH  75  76
ATOM     76  S   UNL     1       8.540  -7.412  10.328  1.00  0.00     0.124 S 
ATOM     77  O   UNL     1       9.228  -7.965  11.490  1.00  0.00    -0.237 OA
ATOM     78  O   UNL     1       7.638  -8.325   9.630  1.00  0.00    -0.237 OA
ATOM     79  O   UNL     1       9.358  -6.570   9.457  1.00  0.00    -0.744 OA
ENDBRANCH  75  76
ENDBRANCH  47  70
BRANCH  59  80
ATOM     80  C   UNL     1       3.756  -2.819  18.789  1.00  0.00    -0.014 A 
ATOM     81  C   UNL     1       5.031  -2.545  19.314  1.00  0.00     0.010 A 
ATOM     82  C   UNL     1       2.842  -3.561  19.559  1.00  0.00     0.010 A 
ATOM     83  C   UNL     1       5.395  -3.033  20.573  1.00  0.00     0.020 A 
ATOM     84  C   UNL     1       3.191  -4.024  20.829  1.00  0.00     0.020 A 
ATOM     85  C   UNL     1       4.472  -3.769  21.322  1.00  0.00     0.054 A 
BRANCH  85  86
ATOM     86  S   UNL     1       4.953  -4.353  22.971  1.00  0.00     0.124 S 
ATOM     87  O   UNL     1       5.878  -5.437  22.651  1.00  0.00    -0.237 OA
ATOM     88  O   UNL     1       5.560  -3.165  23.567  1.00  0.00    -0.237 OA
ATOM     89  O   UNL     1       3.689  -4.769  23.574  1.00  0.00    -0.744 OA
ENDBRANCH  85  86
ENDBRANCH  59  80
ENDBRANCH  33  34
ENDBRANCH  26  28
ENDBRANCH  25  26
ENDBRANCH  24  25
ENDBRANCH   1  24
TORSDOF 21
