REMARK SMILES O=C(OCCOCCOC(=O)C1CCN(C(=O)CCN2C(=O)[C@H]3Cc4ccccc4CN3C2=O)CC1)c1ccc(-c2c3nc(c(-c4ccc(S(=O)(=O)[O-])cc4)c4ccc([nH]4)c(-c4ccc(S(=O)(=O)[O-])cc4)c4nc(c(-c5ccc(S(=O)(=O)[O-])cc5)c5ccc2[nH]5)C=C4)C=C3)cc1
REMARK SMILES IDX 6 1 5 2 4 3 3 4 2 5 1 6 37 7 38 8 96 9 39 10 95 11 40 12
REMARK SMILES IDX 41 13 42 14 89 15 43 16 94 17 88 18 90 19 44 20 93 21 87 22
REMARK SMILES IDX 86 23 45 25 75 26 56 27 74 28 57 29 60 30 73 31 91 32 58 33
REMARK SMILES IDX 59 34 72 36 92 37 61 38 46 39 47 40 55 41 48 42 54 43 49 44
REMARK SMILES IDX 50 45 51 46 52 47 53 48 76 49 77 50 85 51 78 52 84 53 79 54
REMARK SMILES IDX 80 55 81 56 82 57 83 58 62 59 63 60 71 61 64 62 70 63 65 64
REMARK SMILES IDX 66 65 67 66 68 67 69 68 7 69 8 70 9 71 10 72 11 73 12 74
REMARK SMILES IDX 13 75 36 76 14 77 35 78 15 79 16 80 17 81 18 82 19 83 20 84
REMARK SMILES IDX 21 85 33 86 22 87 23 88 32 89 34 90 24 91 31 92 25 93 30 94
REMARK SMILES IDX 26 95 29 96 27 97 28 98
REMARK H PARENT 90 24 60 35
REMARK Flexibility Score: inf
ROOT
ATOM      1  O   UNL     1       4.876   0.430   1.251  1.00  0.00    -0.374 OA
ENDROOT
BRANCH   1   2
ATOM      2  C   UNL     1       4.903   1.089  -0.013  1.00  0.00     0.202 C 
BRANCH   2   3
ATOM      3  C   UNL     1       5.220   0.188  -1.207  1.00  0.00     0.261 C 
BRANCH   3   4
ATOM      4  O   UNL     1       4.107  -0.572  -1.735  1.00  0.00    -0.460 OA
BRANCH   4   5
ATOM      5  C   UNL     1       3.511  -1.701  -1.288  1.00  0.00     0.338 C 
ATOM      6  O   UNL     1       2.601  -2.211  -1.935  1.00  0.00    -0.246 OA
BRANCH   5   7
ATOM      7  C   UNL     1       3.827  -2.246   0.046  1.00  0.00     0.060 A 
ATOM      8  C   UNL     1       2.771  -2.756   0.826  1.00  0.00     0.016 A 
ATOM      9  C   UNL     1       5.131  -2.307   0.527  1.00  0.00     0.016 A 
ATOM     10  C   UNL     1       3.025  -3.295   2.089  1.00  0.00     0.010 A 
ATOM     11  C   UNL     1       5.376  -2.730   1.819  1.00  0.00     0.010 A 
ATOM     12  C   UNL     1       4.338  -3.288   2.576  1.00  0.00    -0.014 A 
BRANCH  12  13
ATOM     13  C   UNL     1       4.790  -4.195   3.642  1.00  0.00     0.031 A 
ATOM     14  C   UNL     1       5.111  -3.708   5.012  1.00  0.00     0.074 A 
ATOM     15  C   UNL     1       5.189  -5.402   3.193  1.00  0.00     0.049 A 
ATOM     16  N   UNL     1       5.631  -4.375   6.005  1.00  0.00    -0.248 NA
ATOM     17  C   UNL     1       4.840  -2.293   5.306  1.00  0.00     0.031 C 
ATOM     18  C   UNL     1       5.032  -5.867   1.805  1.00  0.00     0.029 A 
ATOM     19  N   UNL     1       5.889  -6.403   3.798  1.00  0.00    -0.354 N 
ATOM     20  C   UNL     1       5.705  -3.481   7.063  1.00  0.00     0.074 A 
ATOM     21  C   UNL     1       5.245  -2.200   6.568  1.00  0.00     0.031 C 
ATOM     22  C   UNL     1       5.682  -7.023   1.650  1.00  0.00     0.029 A 
ATOM     23  C   UNL     1       6.257  -7.403   2.930  1.00  0.00     0.049 A 
ATOM     24  H   UNL     1       6.109  -6.409   4.757  1.00  0.00     0.167 HD
ATOM     25  C   UNL     1       6.099  -3.739   8.333  1.00  0.00     0.031 A 
ATOM     26  C   UNL     1       6.961  -8.525   3.147  1.00  0.00     0.031 A 
ATOM     27  C   UNL     1       6.630  -5.020   8.736  1.00  0.00     0.049 A 
ATOM     28  C   UNL     1       7.351  -8.815   4.558  1.00  0.00     0.074 A 
ATOM     29  C   UNL     1       7.000  -5.448   9.997  1.00  0.00     0.029 A 
ATOM     30  N   UNL     1       6.889  -6.075   7.865  1.00  0.00    -0.354 N 
ATOM     31  N   UNL     1       7.253  -8.028   5.605  1.00  0.00    -0.248 NA
ATOM     32  C   UNL     1       7.875 -10.151   4.839  1.00  0.00     0.031 C 
ATOM     33  C   UNL     1       7.536  -6.736   9.879  1.00  0.00     0.029 A 
ATOM     34  C   UNL     1       7.438  -7.142   8.556  1.00  0.00     0.049 A 
ATOM     35  H   UNL     1       6.708  -6.064   6.898  1.00  0.00     0.167 HD
ATOM     36  C   UNL     1       7.694  -8.777   6.682  1.00  0.00     0.074 A 
ATOM     37  C   UNL     1       8.029 -10.091   6.156  1.00  0.00     0.031 C 
ATOM     38  C   UNL     1       7.813  -8.416   7.984  1.00  0.00     0.031 A 
BRANCH  25  39
ATOM     39  C   UNL     1       5.922  -2.657   9.371  1.00  0.00    -0.014 A 
ATOM     40  C   UNL     1       7.021  -2.146  10.085  1.00  0.00     0.010 A 
ATOM     41  C   UNL     1       4.629  -2.220   9.723  1.00  0.00     0.010 A 
ATOM     42  C   UNL     1       6.831  -1.244  11.141  1.00  0.00     0.020 A 
ATOM     43  C   UNL     1       4.436  -1.299  10.757  1.00  0.00     0.020 A 
ATOM     44  C   UNL     1       5.538  -0.834  11.476  1.00  0.00     0.054 A 
BRANCH  44  45
ATOM     45  S   UNL     1       5.303   0.310  12.866  1.00  0.00     0.124 S 
ATOM     46  O   UNL     1       5.540  -0.553  14.019  1.00  0.00    -0.237 OA
ATOM     47  O   UNL     1       6.321   1.328  12.619  1.00  0.00    -0.237 OA
ATOM     48  O   UNL     1       3.925   0.769  12.703  1.00  0.00    -0.744 OA
ENDBRANCH  44  45
ENDBRANCH  25  39
BRANCH  26  49
ATOM     49  C   UNL     1       7.123  -9.475   2.017  1.00  0.00    -0.014 A 
ATOM     50  C   UNL     1       7.993  -9.184   0.948  1.00  0.00     0.010 A 
ATOM     51  C   UNL     1       6.222 -10.547   1.895  1.00  0.00     0.010 A 
ATOM     52  C   UNL     1       7.915  -9.911  -0.244  1.00  0.00     0.020 A 
ATOM     53  C   UNL     1       6.155 -11.287   0.712  1.00  0.00     0.020 A 
ATOM     54  C   UNL     1       6.978 -10.942  -0.362  1.00  0.00     0.054 A 
BRANCH  54  55
ATOM     55  S   UNL     1       6.806 -11.794  -1.955  1.00  0.00     0.124 S 
ATOM     56  O   UNL     1       6.122 -10.787  -2.761  1.00  0.00    -0.237 OA
ATOM     57  O   UNL     1       8.194 -12.061  -2.325  1.00  0.00    -0.237 OA
ATOM     58  O   UNL     1       6.013 -12.976  -1.627  1.00  0.00    -0.744 OA
ENDBRANCH  54  55
ENDBRANCH  26  49
BRANCH  38  59
ATOM     59  C   UNL     1       8.396  -9.445   8.911  1.00  0.00    -0.014 A 
ATOM     60  C   UNL     1       7.600 -10.023   9.914  1.00  0.00     0.010 A 
ATOM     61  C   UNL     1       9.756  -9.790   8.821  1.00  0.00     0.010 A 
ATOM     62  C   UNL     1       8.159 -10.920  10.825  1.00  0.00     0.020 A 
ATOM     63  C   UNL     1      10.310 -10.712   9.708  1.00  0.00     0.020 A 
ATOM     64  C   UNL     1       9.512 -11.256  10.717  1.00  0.00     0.054 A 
BRANCH  64  65
ATOM     65  S   UNL     1      10.220 -12.434  11.897  1.00  0.00     0.124 S 
ATOM     66  O   UNL     1      10.423 -11.599  13.077  1.00  0.00    -0.237 OA
ATOM     67  O   UNL     1       9.171 -13.444  12.013  1.00  0.00    -0.237 OA
ATOM     68  O   UNL     1      11.440 -12.889  11.234  1.00  0.00    -0.744 OA
ENDBRANCH  64  65
ENDBRANCH  38  59
ENDBRANCH  12  13
ENDBRANCH   5   7
ENDBRANCH   4   5
ENDBRANCH   3   4
ENDBRANCH   2   3
ENDBRANCH   1   2
BRANCH   1  69
ATOM     69  C   UNL     1       3.626   0.507   1.944  1.00  0.00     0.202 C 
BRANCH  69  70
ATOM     70  C   UNL     1       3.406   1.790   2.747  1.00  0.00     0.261 C 
BRANCH  70  71
ATOM     71  O   UNL     1       3.746   2.940   1.970  1.00  0.00    -0.463 OA
BRANCH  71  72
ATOM     72  C   UNL     1       4.978   3.474   2.201  1.00  0.00     0.309 C 
ATOM     73  O   UNL     1       5.726   3.159   3.114  1.00  0.00    -0.252 OA
BRANCH  72  74
ATOM     74  C   UNL     1       5.349   4.447   1.091  1.00  0.00     0.103 C 
ATOM     75  C   UNL     1       6.378   5.484   1.574  1.00  0.00     0.037 C 
ATOM     76  C   UNL     1       4.116   5.130   0.482  1.00  0.00     0.037 C 
ATOM     77  C   UNL     1       5.729   6.569   2.432  1.00  0.00     0.120 C 
ATOM     78  C   UNL     1       3.536   6.148   1.457  1.00  0.00     0.120 C 
ATOM     79  N   UNL     1       4.579   7.126   1.721  1.00  0.00    -0.343 N 
ATOM     80  C   UNL     1       4.701   8.346   1.074  1.00  0.00     0.224 C 
ATOM     81  O   UNL     1       5.758   8.981   1.067  1.00  0.00    -0.275 OA
BRANCH  80  82
ATOM     82  C   UNL     1       3.489   8.930   0.371  1.00  0.00     0.122 C 
BRANCH  82  83
ATOM     83  C   UNL     1       3.465   8.658  -1.139  1.00  0.00     0.140 C 
BRANCH  83  84
ATOM     84  N   UNL     1       2.686   7.502  -1.573  1.00  0.00    -0.262 N 
ATOM     85  C   UNL     1       3.066   6.611  -2.549  1.00  0.00     0.253 C 
ATOM     86  C   UNL     1       1.431   7.193  -1.130  1.00  0.00     0.327 C 
ATOM     87  O   UNL     1       4.102   6.644  -3.199  1.00  0.00    -0.272 OA
ATOM     88  C   UNL     1       1.953   5.572  -2.741  1.00  0.00     0.181 C 
ATOM     89  N   UNL     1       1.084   5.981  -1.668  1.00  0.00    -0.308 N 
ATOM     90  O   UNL     1       0.746   7.834  -0.349  1.00  0.00    -0.248 OA
ATOM     91  C   UNL     1       2.427   4.124  -2.664  1.00  0.00     0.071 C 
ATOM     92  C   UNL     1       0.021   5.138  -1.194  1.00  0.00     0.158 C 
ATOM     93  C   UNL     1       1.545   3.215  -1.833  1.00  0.00    -0.040 A 
ATOM     94  C   UNL     1       0.499   3.718  -1.036  1.00  0.00    -0.025 A 
ATOM     95  C   UNL     1       1.827   1.845  -1.793  1.00  0.00     0.004 A 
ATOM     96  C   UNL     1      -0.160   2.867  -0.135  1.00  0.00     0.006 A 
ATOM     97  C   UNL     1       1.139   1.004  -0.918  1.00  0.00     0.000 A 
ATOM     98  C   UNL     1       0.176   1.519  -0.060  1.00  0.00     0.000 A 
ENDBRANCH  83  84
ENDBRANCH  82  83
ENDBRANCH  80  82
ENDBRANCH  72  74
ENDBRANCH  71  72
ENDBRANCH  70  71
ENDBRANCH  69  70
ENDBRANCH   1  69
TORSDOF 20
