REMARK SMILES O=C(OCCOCCOC(=O)c1ccc(-c2c3nc(c(-c4ccc(S(=O)(=O)[O-])cc4)c4ccc([nH]4)c(-c4ccc(S(=O)(=O)[O-])cc4)c4nc(c(-c5ccc(S(=O)(=O)[O-])cc5)c5ccc2[nH]5)C=C4)C=C3)cc1)C1=Cc2cc(Cl)cc(-c3ccc(O)cc3)c2O[C@@H]1C(F)(F)F
REMARK SMILES IDX 7 1 6 2 5 3 4 4 3 5 2 6 1 7 72 8 73 9 89 10 74 11 88 12
REMARK SMILES IDX 75 13 87 14 76 15 79 16 77 17 78 18 90 19 91 20 92 21 93 22
REMARK SMILES IDX 80 23 81 24 86 25 82 26 85 27 83 28 84 29 8 31 9 32 10 33
REMARK SMILES IDX 11 34 12 35 13 36 71 37 14 38 70 39 15 40 16 41 17 42 64 43
REMARK SMILES IDX 18 44 69 45 63 46 65 47 19 48 68 49 62 50 61 51 20 53 50 54
REMARK SMILES IDX 31 55 49 56 32 57 35 58 48 59 66 60 33 61 34 62 47 64 67 65
REMARK SMILES IDX 36 66 21 67 22 68 30 69 23 70 29 71 24 72 25 73 26 74 27 75
REMARK SMILES IDX 28 76 51 77 52 78 60 79 53 80 59 81 54 82 55 83 56 84 57 85
REMARK SMILES IDX 58 86 37 87 38 88 46 89 39 90 45 91 40 92 41 93 42 94 43 95
REMARK SMILES IDX 44 96
REMARK H PARENT 84 30 65 52 35 63
REMARK Flexibility Score: inf
ROOT
ATOM      1  C   UNL     1       2.677  -2.361   1.886  1.00  0.00     0.202 C 
ENDROOT
BRANCH   1   2
ATOM      2  O   UNL     1       3.965  -2.107   1.246  1.00  0.00    -0.374 OA
BRANCH   2   3
ATOM      3  C   UNL     1       4.507  -1.004   0.124  1.00  0.00     0.202 C 
BRANCH   3   4
ATOM      4  C   UNL     1       3.619   0.890  -0.479  1.00  0.00     0.261 C 
BRANCH   4   5
ATOM      5  O   UNL     1       2.611   1.090  -1.642  1.00  0.00    -0.460 OA
BRANCH   5   6
ATOM      6  C   UNL     1       2.764   0.198  -2.627  1.00  0.00     0.338 C 
ATOM      7  O   UNL     1       2.077  -0.002  -3.597  1.00  0.00    -0.246 OA
BRANCH   6   8
ATOM      8  C   UNL     1       3.699  -0.650  -1.915  1.00  0.00     0.087 C 
ATOM      9  C   UNL     1       5.055  -0.116  -1.913  1.00  0.00     0.027 C 
ATOM     10  C   UNL     1       2.597  -0.842  -0.344  1.00  0.00     0.316 C 
ATOM     11  C   UNL     1       5.832   0.656  -0.489  1.00  0.00     0.019 A 
ATOM     12  O   UNL     1       3.406   0.025   1.216  1.00  0.00    -0.475 OA
ATOM     13  C   UNL     1       7.042   1.247  -0.737  1.00  0.00     0.032 A 
ATOM     14  C   UNL     1       5.044   0.860   1.060  1.00  0.00     0.135 A 
ATOM     15  C   UNL     1       7.523   2.061   0.286  1.00  0.00     0.042 A 
ATOM     16  C   UNL     1       5.678   1.661   2.070  1.00  0.00     0.026 A 
ATOM     17  Cl  UNL     1       9.056   2.825   0.018  1.00  0.00    -0.084 Cl
ATOM     18  C   UNL     1       6.865   2.293   1.555  1.00  0.00     0.033 A 
BRANCH  10  19
ATOM     19  C   UNL     1       2.231  -2.398  -0.754  1.00  0.00     0.430 C 
ATOM     20  F   UNL     1       1.262  -2.992  -0.031  1.00  0.00    -0.167 F 
ATOM     21  F   UNL     1       1.708  -2.383  -2.021  1.00  0.00    -0.167 F 
ATOM     22  F   UNL     1       3.286  -3.241  -0.850  1.00  0.00    -0.167 F 
ENDBRANCH  10  19
BRANCH  16  23
ATOM     23  C   UNL     1       5.348   1.933   3.639  1.00  0.00    -0.014 A 
ATOM     24  C   UNL     1       3.833   2.932   3.608  1.00  0.00     0.012 A 
ATOM     25  C   UNL     1       5.776   1.030   5.411  1.00  0.00     0.012 A 
ATOM     26  C   UNL     1       2.823   3.010   5.054  1.00  0.00     0.047 A 
ATOM     27  C   UNL     1       4.630   1.187   6.790  1.00  0.00     0.047 A 
ATOM     28  C   UNL     1       3.216   2.167   6.556  1.00  0.00     0.115 A 
BRANCH  28  29
ATOM     29  O   UNL     1       2.388   2.359   7.627  1.00  0.00    -0.508 OA
ATOM     30  H   UNL     1       1.617   2.883   7.535  1.00  0.00     0.293 HD
ENDBRANCH  28  29
ENDBRANCH  16  23
ENDBRANCH   6   8
ENDBRANCH   5   6
ENDBRANCH   4   5
ENDBRANCH   3   4
ENDBRANCH   2   3
ENDBRANCH   1   2
BRANCH   1  31
ATOM     31  C   UNL     1       2.578  -2.465   3.406  1.00  0.00     0.261 C 
BRANCH  31  32
ATOM     32  O   UNL     1       3.247  -1.387   3.982  1.00  0.00    -0.460 OA
BRANCH  32  33
ATOM     33  C   UNL     1       4.572  -1.528   3.841  1.00  0.00     0.338 C 
ATOM     34  O   UNL     1       5.246  -2.519   3.638  1.00  0.00    -0.246 OA
BRANCH  33  35
ATOM     35  C   UNL     1       5.058  -0.187   3.937  1.00  0.00     0.060 A 
ATOM     36  C   UNL     1       6.801   0.103   3.721  1.00  0.00     0.016 A 
ATOM     37  C   UNL     1       4.042   1.102   4.723  1.00  0.00     0.016 A 
ATOM     38  C   UNL     1       7.604   1.583   4.303  1.00  0.00     0.010 A 
ATOM     39  C   UNL     1       5.026   2.749   5.354  1.00  0.00     0.010 A 
ATOM     40  C   UNL     1       6.782   2.885   5.130  1.00  0.00    -0.014 A 
BRANCH  40  41
ATOM     41  C   UNL     1       7.435   3.901   6.019  1.00  0.00     0.031 A 
ATOM     42  C   UNL     1       7.696   3.618   7.494  1.00  0.00     0.074 A 
ATOM     43  C   UNL     1       7.483   5.178   5.604  1.00  0.00     0.049 A 
ATOM     44  N   UNL     1       8.101   4.419   8.453  1.00  0.00    -0.248 NA
ATOM     45  C   UNL     1       7.382   2.272   7.982  1.00  0.00     0.031 C 
ATOM     46  C   UNL     1       7.069   5.650   4.285  1.00  0.00     0.029 A 
ATOM     47  N   UNL     1       7.867   6.319   6.265  1.00  0.00    -0.354 N 
ATOM     48  C   UNL     1       8.050   3.672   9.634  1.00  0.00     0.074 A 
ATOM     49  C   UNL     1       7.459   2.404   9.296  1.00  0.00     0.031 C 
ATOM     50  C   UNL     1       7.250   6.980   4.221  1.00  0.00     0.029 A 
ATOM     51  C   UNL     1       7.792   7.453   5.493  1.00  0.00     0.049 A 
ATOM     52  H   UNL     1       8.168   6.324   7.202  1.00  0.00     0.167 HD
ATOM     53  C   UNL     1       8.510   3.970  10.877  1.00  0.00     0.031 A 
ATOM     54  C   UNL     1       8.155   8.721   5.771  1.00  0.00     0.031 A 
ATOM     55  C   UNL     1       9.123   5.229  11.201  1.00  0.00     0.049 A 
ATOM     56  C   UNL     1       8.761   9.034   7.117  1.00  0.00     0.074 A 
ATOM     57  C   UNL     1       9.771   5.608  12.363  1.00  0.00     0.029 A 
ATOM     58  N   UNL     1       9.150   6.320  10.349  1.00  0.00    -0.354 N 
ATOM     59  N   UNL     1       8.911   8.254   8.162  1.00  0.00    -0.248 NA
ATOM     60  C   UNL     1       9.293  10.391   7.299  1.00  0.00     0.031 C 
ATOM     61  C   UNL     1      10.127   6.955  12.239  1.00  0.00     0.029 A 
ATOM     62  C   UNL     1       9.781   7.383  10.966  1.00  0.00     0.049 A 
ATOM     63  H   UNL     1       8.776   6.336   9.439  1.00  0.00     0.167 HD
ATOM     64  C   UNL     1       9.608   9.010   9.102  1.00  0.00     0.074 A 
ATOM     65  C   UNL     1       9.854  10.302   8.496  1.00  0.00     0.031 C 
ATOM     66  C   UNL     1      10.021   8.663  10.348  1.00  0.00     0.031 A 
BRANCH  53  67
ATOM     67  C   UNL     1       8.425   2.908  11.958  1.00  0.00    -0.014 A 
ATOM     68  C   UNL     1       9.104   1.680  11.825  1.00  0.00     0.010 A 
ATOM     69  C   UNL     1       7.719   3.154  13.151  1.00  0.00     0.010 A 
ATOM     70  C   UNL     1       9.029   0.704  12.824  1.00  0.00     0.020 A 
ATOM     71  C   UNL     1       7.675   2.196  14.174  1.00  0.00     0.020 A 
ATOM     72  C   UNL     1       8.315   0.969  13.995  1.00  0.00     0.054 A 
BRANCH  72  73
ATOM     73  S   UNL     1       8.265  -0.308  15.283  1.00  0.00     0.124 S 
ATOM     74  O   UNL     1       7.453  -1.344  14.649  1.00  0.00    -0.237 OA
ATOM     75  O   UNL     1       9.677  -0.638  15.458  1.00  0.00    -0.237 OA
ATOM     76  O   UNL     1       7.639   0.366  16.418  1.00  0.00    -0.744 OA
ENDBRANCH  72  73
ENDBRANCH  53  67
BRANCH  54  77
ATOM     77  C   UNL     1       8.090   9.760   4.705  1.00  0.00    -0.014 A 
ATOM     78  C   UNL     1       9.279  10.239   4.123  1.00  0.00     0.010 A 
ATOM     79  C   UNL     1       6.859  10.266   4.253  1.00  0.00     0.010 A 
ATOM     80  C   UNL     1       9.243  11.227   3.137  1.00  0.00     0.020 A 
ATOM     81  C   UNL     1       6.816  11.231   3.240  1.00  0.00     0.020 A 
ATOM     82  C   UNL     1       8.010  11.714   2.698  1.00  0.00     0.054 A 
BRANCH  82  83
ATOM     83  S   UNL     1       7.991  12.964   1.383  1.00  0.00     0.124 S 
ATOM     84  O   UNL     1       8.570  14.123   2.055  1.00  0.00    -0.237 OA
ATOM     85  O   UNL     1       8.825  12.347   0.354  1.00  0.00    -0.237 OA
ATOM     86  O   UNL     1       6.575  13.081   1.041  1.00  0.00    -0.744 OA
ENDBRANCH  82  83
ENDBRANCH  54  77
BRANCH  66  87
ATOM     87  C   UNL     1      10.849   9.661  11.116  1.00  0.00    -0.014 A 
ATOM     88  C   UNL     1      10.317  10.880  11.569  1.00  0.00     0.010 A 
ATOM     89  C   UNL     1      12.186   9.342  11.422  1.00  0.00     0.010 A 
ATOM     90  C   UNL     1      11.124  11.787  12.261  1.00  0.00     0.020 A 
ATOM     91  C   UNL     1      12.982  10.225  12.152  1.00  0.00     0.020 A 
ATOM     92  C   UNL     1      12.452  11.453  12.546  1.00  0.00     0.054 A 
BRANCH  92  93
ATOM     93  S   UNL     1      13.473  12.641  13.457  1.00  0.00     0.124 S 
ATOM     94  O   UNL     1      13.654  13.704  12.472  1.00  0.00    -0.237 OA
ATOM     95  O   UNL     1      12.626  12.979  14.599  1.00  0.00    -0.237 OA
ATOM     96  O   UNL     1      14.679  11.884  13.785  1.00  0.00    -0.744 OA
ENDBRANCH  92  93
ENDBRANCH  66  87
ENDBRANCH  40  41
ENDBRANCH  33  35
ENDBRANCH  32  33
ENDBRANCH  31  32
ENDBRANCH   1  31
TORSDOF 20
