REMARK SMILES C[C@@H](C(=O)OCCOCCOC(=O)c1ccc(-c2c3nc(c(-c4ccc(S(=O)(=O)[O-])cc4)c4ccc([nH]4)c(-c4ccc(S(=O)(=O)[O-])cc4)c4nc(c(-c5ccc(S(=O)(=O)[O-])cc5)c5ccc2[nH]5)C=C4)C=C3)cc1)c1ccc(-c2cccc(OC(=O)NCCC3CCCCC3)c2)c(F)c1
REMARK SMILES IDX 6 1 5 2 3 3 4 4 2 5 1 6 74 7 75 8 98 9 76 10 96 11 77 12
REMARK SMILES IDX 97 13 78 14 79 15 95 16 80 17 82 18 81 19 83 20 84 21 85 22
REMARK SMILES IDX 86 23 87 25 88 26 89 27 90 28 94 29 91 30 93 31 92 32 7 33
REMARK SMILES IDX 8 34 9 35 10 36 11 37 12 38 13 39 14 40 15 41 73 42 16 43
REMARK SMILES IDX 72 44 17 45 18 46 19 47 66 48 20 49 71 50 65 51 67 52 21 53
REMARK SMILES IDX 70 54 64 55 63 56 22 58 52 59 33 60 51 61 34 62 37 63 50 64
REMARK SMILES IDX 68 65 35 66 36 67 49 69 69 70 38 71 23 72 24 73 32 74 25 75
REMARK SMILES IDX 31 76 26 77 27 78 28 79 29 80 30 81 53 82 54 83 62 84 55 85
REMARK SMILES IDX 61 86 56 87 57 88 58 89 59 90 60 91 39 92 40 93 48 94 41 95
REMARK SMILES IDX 47 96 42 97 43 98 44 99 45 100 46 101
REMARK H PARENT 86 24 67 57 37 68
REMARK Flexibility Score: inf
ROOT
ATOM      1  C   UNL     1       2.368  -3.696   1.509  1.00  0.00     0.261 C 
ENDROOT
BRANCH   1   2
ATOM      2  O   UNL     1       1.987  -2.551   0.733  1.00  0.00    -0.463 OA
BRANCH   2   3
ATOM      3  C   UNL     1       1.171  -2.797  -0.330  1.00  0.00     0.313 C 
ATOM      4  O   UNL     1       0.929  -3.919  -0.763  1.00  0.00    -0.252 OA
BRANCH   3   5
ATOM      5  C   UNL     1       0.534  -1.518  -0.904  1.00  0.00     0.126 C 
ATOM      6  C   UNL     1       1.313  -0.258  -0.489  1.00  0.00     0.025 C 
BRANCH   5   7
ATOM      7  C   UNL     1      -0.987  -1.424  -0.678  1.00  0.00    -0.031 A 
ATOM      8  C   UNL     1      -1.651  -0.197  -0.493  1.00  0.00     0.005 A 
ATOM      9  C   UNL     1      -1.793  -2.574  -0.731  1.00  0.00     0.044 A 
ATOM     10  C   UNL     1      -3.049  -0.128  -0.341  1.00  0.00     0.012 A 
ATOM     11  C   UNL     1      -3.179  -2.501  -0.570  1.00  0.00     0.131 A 
ATOM     12  C   UNL     1      -3.838  -1.284  -0.370  1.00  0.00     0.018 A 
ATOM     13  F   UNL     1      -3.880  -3.644  -0.623  1.00  0.00    -0.206 F 
BRANCH  12  14
ATOM     14  C   UNL     1      -5.293  -1.239  -0.163  1.00  0.00    -0.012 A 
ATOM     15  C   UNL     1      -6.147  -0.544  -1.034  1.00  0.00     0.009 A 
ATOM     16  C   UNL     1      -5.864  -1.925   0.924  1.00  0.00     0.056 A 
ATOM     17  C   UNL     1      -7.531  -0.549  -0.832  1.00  0.00     0.004 A 
ATOM     18  C   UNL     1      -7.241  -1.910   1.140  1.00  0.00     0.133 A 
ATOM     19  C   UNL     1      -8.079  -1.233   0.254  1.00  0.00     0.047 A 
BRANCH  18  20
ATOM     20  O   UNL     1      -7.888  -2.559   2.223  1.00  0.00    -0.410 OA
BRANCH  20  21
ATOM     21  C   UNL     1      -7.236  -3.084   3.336  1.00  0.00     0.412 C 
ATOM     22  O   UNL     1      -6.024  -3.121   3.527  1.00  0.00    -0.224 OA
ATOM     23  N   UNL     1      -8.073  -3.568   4.296  1.00  0.00    -0.321 N 
ATOM     24  H   UNL     1      -7.638  -3.931   5.101  1.00  0.00     0.167 HD
BRANCH  23  25
ATOM     25  C   UNL     1      -9.518  -3.619   4.286  1.00  0.00     0.119 C 
BRANCH  25  26
ATOM     26  C   UNL     1     -10.028  -5.061   4.312  1.00  0.00     0.025 C 
BRANCH  26  27
ATOM     27  C   UNL     1      -9.602  -5.873   5.556  1.00  0.00    -0.009 C 
ATOM     28  C   UNL     1     -10.252  -5.342   6.845  1.00  0.00     0.003 C 
ATOM     29  C   UNL     1      -9.940  -7.360   5.351  1.00  0.00     0.003 C 
ATOM     30  C   UNL     1      -9.903  -6.199   8.061  1.00  0.00     0.000 C 
ATOM     31  C   UNL     1      -9.569  -8.199   6.571  1.00  0.00     0.000 C 
ATOM     32  C   UNL     1     -10.237  -7.669   7.834  1.00  0.00     0.000 C 
ENDBRANCH  26  27
ENDBRANCH  25  26
ENDBRANCH  23  25
ENDBRANCH  20  21
ENDBRANCH  18  20
ENDBRANCH  12  14
ENDBRANCH   5   7
ENDBRANCH   3   5
ENDBRANCH   2   3
ENDBRANCH   1   2
BRANCH   1  33
ATOM     33  C   UNL     1       2.029  -3.513   2.992  1.00  0.00     0.202 C 
BRANCH  33  34
ATOM     34  O   UNL     1       0.710  -3.090   3.325  1.00  0.00    -0.374 OA
BRANCH  34  35
ATOM     35  C   UNL     1       0.322  -1.756   2.995  1.00  0.00     0.202 C 
BRANCH  35  36
ATOM     36  C   UNL     1       1.033  -0.588   3.695  1.00  0.00     0.261 C 
BRANCH  36  37
ATOM     37  O   UNL     1       2.446  -0.521   3.424  1.00  0.00    -0.460 OA
BRANCH  37  38
ATOM     38  C   UNL     1       3.236  -0.729   4.509  1.00  0.00     0.338 C 
ATOM     39  O   UNL     1       2.874  -0.918   5.658  1.00  0.00    -0.246 OA
BRANCH  38  40
ATOM     40  C   UNL     1       4.642  -0.894   4.096  1.00  0.00     0.060 A 
ATOM     41  C   UNL     1       5.270  -2.110   4.400  1.00  0.00     0.016 A 
ATOM     42  C   UNL     1       5.365   0.155   3.529  1.00  0.00     0.016 A 
ATOM     43  C   UNL     1       6.636  -2.267   4.176  1.00  0.00     0.010 A 
ATOM     44  C   UNL     1       6.740  -0.002   3.313  1.00  0.00     0.010 A 
ATOM     45  C   UNL     1       7.388  -1.200   3.669  1.00  0.00    -0.014 A 
BRANCH  45  46
ATOM     46  C   UNL     1       8.869  -1.296   3.643  1.00  0.00     0.031 A 
ATOM     47  C   UNL     1       9.669  -0.580   4.699  1.00  0.00     0.074 A 
ATOM     48  C   UNL     1       9.493  -2.039   2.712  1.00  0.00     0.049 A 
ATOM     49  N   UNL     1      10.966  -0.500   4.842  1.00  0.00    -0.248 NA
ATOM     50  C   UNL     1       8.904   0.142   5.729  1.00  0.00     0.031 C 
ATOM     51  C   UNL     1       8.828  -2.819   1.669  1.00  0.00     0.029 A 
ATOM     52  N   UNL     1      10.830  -2.256   2.493  1.00  0.00    -0.354 N 
ATOM     53  C   UNL     1      11.175   0.288   5.969  1.00  0.00     0.074 A 
ATOM     54  C   UNL     1       9.871   0.689   6.451  1.00  0.00     0.031 C 
ATOM     55  C   UNL     1       9.761  -3.423   0.914  1.00  0.00     0.029 A 
ATOM     56  C   UNL     1      11.088  -3.042   1.395  1.00  0.00     0.049 A 
ATOM     57  H   UNL     1      11.538  -1.885   3.068  1.00  0.00     0.167 HD
ATOM     58  C   UNL     1      12.346   0.640   6.553  1.00  0.00     0.031 A 
ATOM     59  C   UNL     1      12.258  -3.392   0.826  1.00  0.00     0.031 A 
ATOM     60  C   UNL     1      13.641   0.251   6.060  1.00  0.00     0.049 A 
ATOM     61  C   UNL     1      13.549  -2.922   1.445  1.00  0.00     0.074 A 
ATOM     62  C   UNL     1      14.887   0.548   6.585  1.00  0.00     0.029 A 
ATOM     63  N   UNL     1      13.861  -0.513   4.923  1.00  0.00    -0.354 N 
ATOM     64  N   UNL     1      13.730  -2.191   2.520  1.00  0.00    -0.248 NA
ATOM     65  C   UNL     1      14.793  -3.331   0.779  1.00  0.00     0.031 C 
ATOM     66  C   UNL     1      15.860   0.021   5.730  1.00  0.00     0.029 A 
ATOM     67  C   UNL     1      15.221  -0.671   4.713  1.00  0.00     0.049 A 
ATOM     68  H   UNL     1      13.153  -0.888   4.350  1.00  0.00     0.167 HD
ATOM     69  C   UNL     1      15.109  -2.080   2.675  1.00  0.00     0.074 A 
ATOM     70  C   UNL     1      15.712  -2.830   1.593  1.00  0.00     0.031 C 
ATOM     71  C   UNL     1      15.811  -1.419   3.630  1.00  0.00     0.031 A 
BRANCH  58  72
ATOM     72  C   UNL     1      12.279   1.524   7.773  1.00  0.00    -0.014 A 
ATOM     73  C   UNL     1      11.775   1.048   8.997  1.00  0.00     0.010 A 
ATOM     74  C   UNL     1      12.764   2.844   7.703  1.00  0.00     0.010 A 
ATOM     75  C   UNL     1      11.718   1.887  10.114  1.00  0.00     0.020 A 
ATOM     76  C   UNL     1      12.738   3.675   8.826  1.00  0.00     0.020 A 
ATOM     77  C   UNL     1      12.199   3.196  10.021  1.00  0.00     0.054 A 
BRANCH  77  78
ATOM     78  S   UNL     1      12.129   4.255  11.492  1.00  0.00     0.124 S 
ATOM     79  O   UNL     1      10.694   4.502  11.617  1.00  0.00    -0.237 OA
ATOM     80  O   UNL     1      12.712   3.405  12.525  1.00  0.00    -0.237 OA
ATOM     81  O   UNL     1      12.929   5.420  11.121  1.00  0.00    -0.744 OA
ENDBRANCH  77  78
ENDBRANCH  58  72
BRANCH  59  82
ATOM     82  C   UNL     1      12.260  -4.213  -0.417  1.00  0.00    -0.014 A 
ATOM     83  C   UNL     1      12.743  -5.533  -0.411  1.00  0.00     0.010 A 
ATOM     84  C   UNL     1      11.767  -3.672  -1.620  1.00  0.00     0.010 A 
ATOM     85  C   UNL     1      12.745  -6.292  -1.586  1.00  0.00     0.020 A 
ATOM     86  C   UNL     1      11.738  -4.438  -2.788  1.00  0.00     0.020 A 
ATOM     87  C   UNL     1      12.237  -5.740  -2.766  1.00  0.00     0.054 A 
BRANCH  87  88
ATOM     88  S   UNL     1      12.198  -6.764  -4.264  1.00  0.00     0.124 S 
ATOM     89  O   UNL     1      13.612  -6.845  -4.614  1.00  0.00    -0.237 OA
ATOM     90  O   UNL     1      11.592  -8.002  -3.781  1.00  0.00    -0.237 OA
ATOM     91  O   UNL     1      11.367  -5.990  -5.184  1.00  0.00    -0.744 OA
ENDBRANCH  87  88
ENDBRANCH  59  82
BRANCH  71  92
ATOM     92  C   UNL     1      17.315  -1.506   3.576  1.00  0.00    -0.014 A 
ATOM     93  C   UNL     1      18.054  -0.857   2.571  1.00  0.00     0.010 A 
ATOM     94  C   UNL     1      18.003  -2.205   4.586  1.00  0.00     0.010 A 
ATOM     95  C   UNL     1      19.450  -0.934   2.558  1.00  0.00     0.020 A 
ATOM     96  C   UNL     1      19.399  -2.257   4.595  1.00  0.00     0.020 A 
ATOM     97  C   UNL     1      20.114  -1.632   3.572  1.00  0.00     0.054 A 
BRANCH  97  98
ATOM     98  S   UNL     1      21.927  -1.680   3.555  1.00  0.00     0.124 S 
ATOM     99  O   UNL     1      22.198  -2.565   2.426  1.00  0.00    -0.237 OA
ATOM    100  O   UNL     1      22.282  -0.277   3.354  1.00  0.00    -0.237 OA
ATOM    101  O   UNL     1      22.273  -2.222   4.867  1.00  0.00    -0.744 OA
ENDBRANCH  97  98
ENDBRANCH  71  92
ENDBRANCH  45  46
ENDBRANCH  38  40
ENDBRANCH  37  38
ENDBRANCH  36  37
ENDBRANCH  35  36
ENDBRANCH  34  35
ENDBRANCH  33  34
ENDBRANCH   1  33
TORSDOF 24
