REMARK SMILES COc1ccc(NC(=O)[C@@H]2[C@@H](C(=O)OCCOCCOC(=O)c3ccc(-c4c5nc(c(-c6ccc(S(=O)(=O)[O-])cc6)c6ccc([nH]6)c(-c6ccc(S(=O)(=O)[O-])cc6)c6nc(c(-c7ccc(S(=O)(=O)[O-])cc7)c7ccc4[nH]7)C=C6)C=C5)cc3)[C@@H]3CC[C@H]2C3=C(C)C)cc1
REMARK SMILES IDX 17 1 16 2 15 3 14 4 12 5 13 6 11 7 10 8 86 9 83 10 85 11
REMARK SMILES IDX 87 12 84 13 88 14 89 15 90 16 8 17 7 18 9 20 6 21 3 22 4 23
REMARK SMILES IDX 92 24 5 25 91 26 2 27 1 28 18 29 19 30 20 31 21 32 22 33
REMARK SMILES IDX 23 34 24 35 82 36 25 37 81 38 26 39 27 40 28 41 75 42 29 43
REMARK SMILES IDX 80 44 74 45 76 46 30 47 79 48 73 49 72 50 31 52 61 53 42 54
REMARK SMILES IDX 60 55 43 56 46 57 59 58 77 59 44 60 45 61 58 63 78 64 47 65
REMARK SMILES IDX 32 66 33 67 41 68 34 69 40 70 35 71 36 72 37 73 38 74 39 75
REMARK SMILES IDX 62 76 63 77 71 78 64 79 70 80 65 81 66 82 67 83 68 84 69 85
REMARK SMILES IDX 48 86 49 87 57 88 50 89 56 90 51 91 52 92 53 93 54 94 55 95
REMARK H PARENT 7 19 76 51 46 62
REMARK Flexibility Score: inf
ROOT
ATOM      1  O   UNL     1      -5.419   7.137   6.489  1.00  0.00    -0.374 OA
ENDROOT
BRANCH   1   2
ATOM      2  C   UNL     1      -4.931   8.130   5.581  1.00  0.00     0.202 C 
BRANCH   2   3
ATOM      3  C   UNL     1      -3.405   8.242   5.461  1.00  0.00     0.261 C 
BRANCH   3   4
ATOM      4  O   UNL     1      -2.789   7.074   4.871  1.00  0.00    -0.463 OA
BRANCH   4   5
ATOM      5  C   UNL     1      -1.600   6.725   5.431  1.00  0.00     0.310 C 
ATOM      6  O   UNL     1      -1.049   7.365   6.321  1.00  0.00    -0.252 OA
BRANCH   5   7
ATOM      7  C   UNL     1      -0.993   5.444   4.890  1.00  0.00     0.119 C 
ATOM      8  C   UNL     1      -0.069   5.667   3.645  1.00  0.00     0.101 C 
ATOM      9  C   UNL     1      -0.479   4.477   2.791  1.00  0.00     0.029 C 
ATOM     10  C   UNL     1      -1.986   4.319   4.452  1.00  0.00     0.030 C 
ATOM     11  C   UNL     1      -0.174   3.118   3.472  1.00  0.00     0.009 C 
ATOM     12  C   UNL     1      -1.966   4.448   2.961  1.00  0.00    -0.064 C 
ATOM     13  C   UNL     1      -1.252   2.982   4.558  1.00  0.00     0.009 C 
ATOM     14  C   UNL     1      -2.847   4.269   1.962  1.00  0.00    -0.077 C 
ATOM     15  C   UNL     1      -4.156   3.566   2.152  1.00  0.00     0.039 C 
ATOM     16  C   UNL     1      -2.490   4.601   0.535  1.00  0.00     0.039 C 
BRANCH   8  17
ATOM     17  C   UNL     1       1.413   5.787   4.042  1.00  0.00     0.228 C 
ATOM     18  N   UNL     1       2.478   5.278   3.346  1.00  0.00    -0.326 N 
ATOM     19  H   UNL     1       3.359   5.564   3.679  1.00  0.00     0.169 HD
ATOM     20  O   UNL     1       1.708   6.386   5.085  1.00  0.00    -0.274 OA
BRANCH  18  21
ATOM     21  C   UNL     1       2.524   4.419   2.242  1.00  0.00     0.041 A 
ATOM     22  C   UNL     1       2.148   2.413   0.336  1.00  0.00     0.119 A 
ATOM     23  C   UNL     1       1.772   3.729   0.057  1.00  0.00     0.048 A 
ATOM     24  C   UNL     1       2.869   2.140   1.497  1.00  0.00     0.048 A 
ATOM     25  C   UNL     1       1.968   4.740   1.008  1.00  0.00     0.030 A 
ATOM     26  C   UNL     1       3.083   3.152   2.438  1.00  0.00     0.030 A 
BRANCH  22  27
ATOM     27  O   UNL     1       1.761   1.472  -0.579  1.00  0.00    -0.497 OA
ATOM     28  C   UNL     1       1.524   0.169  -0.046  1.00  0.00     0.278 C 
ENDBRANCH  22  27
ENDBRANCH  18  21
ENDBRANCH   8  17
ENDBRANCH   5   7
ENDBRANCH   4   5
ENDBRANCH   3   4
ENDBRANCH   2   3
ENDBRANCH   1   2
BRANCH   1  29
ATOM     29  C   UNL     1      -5.174   5.775   6.142  1.00  0.00     0.202 C 
BRANCH  29  30
ATOM     30  C   UNL     1      -5.954   5.258   4.929  1.00  0.00     0.261 C 
BRANCH  30  31
ATOM     31  O   UNL     1      -5.646   6.002   3.739  1.00  0.00    -0.460 OA
BRANCH  31  32
ATOM     32  C   UNL     1      -6.659   6.064   2.847  1.00  0.00     0.338 C 
ATOM     33  O   UNL     1      -7.693   5.407   2.863  1.00  0.00    -0.246 OA
BRANCH  32  34
ATOM     34  C   UNL     1      -6.404   7.127   1.863  1.00  0.00     0.060 A 
ATOM     35  C   UNL     1      -6.997   8.376   2.063  1.00  0.00     0.016 A 
ATOM     36  C   UNL     1      -5.719   6.852   0.678  1.00  0.00     0.016 A 
ATOM     37  C   UNL     1      -6.952   9.333   1.047  1.00  0.00     0.010 A 
ATOM     38  C   UNL     1      -5.648   7.822  -0.326  1.00  0.00     0.010 A 
ATOM     39  C   UNL     1      -6.310   9.049  -0.169  1.00  0.00    -0.014 A 
BRANCH  39  40
ATOM     40  C   UNL     1      -6.453   9.983  -1.316  1.00  0.00     0.031 A 
ATOM     41  C   UNL     1      -7.382   9.632  -2.451  1.00  0.00     0.074 A 
ATOM     42  C   UNL     1      -5.787  11.153  -1.331  1.00  0.00     0.049 A 
ATOM     43  N   UNL     1      -7.697  10.336  -3.509  1.00  0.00    -0.248 NA
ATOM     44  C   UNL     1      -8.038   8.315  -2.390  1.00  0.00     0.031 C 
ATOM     45  C   UNL     1      -4.854  11.608  -0.301  1.00  0.00     0.029 A 
ATOM     46  N   UNL     1      -5.804  12.176  -2.246  1.00  0.00    -0.354 N 
ATOM     47  C   UNL     1      -8.583   9.550  -4.238  1.00  0.00     0.074 A 
ATOM     48  C   UNL     1      -8.723   8.300  -3.525  1.00  0.00     0.031 C 
ATOM     49  C   UNL     1      -4.401  12.829  -0.632  1.00  0.00     0.029 A 
ATOM     50  C   UNL     1      -4.996  13.234  -1.904  1.00  0.00     0.049 A 
ATOM     51  H   UNL     1      -6.343  12.154  -3.069  1.00  0.00     0.167 HD
ATOM     52  C   UNL     1      -9.235   9.845  -5.389  1.00  0.00     0.031 A 
ATOM     53  C   UNL     1      -4.763  14.399  -2.540  1.00  0.00     0.031 A 
ATOM     54  C   UNL     1      -9.101  11.088  -6.100  1.00  0.00     0.049 A 
ATOM     55  C   UNL     1      -5.484  14.699  -3.826  1.00  0.00     0.074 A 
ATOM     56  C   UNL     1      -9.750  11.495  -7.253  1.00  0.00     0.029 A 
ATOM     57  N   UNL     1      -8.258  12.124  -5.728  1.00  0.00    -0.354 N 
ATOM     58  N   UNL     1      -6.359  13.964  -4.470  1.00  0.00    -0.248 NA
ATOM     59  C   UNL     1      -5.197  15.992  -4.463  1.00  0.00     0.031 C 
ATOM     60  C   UNL     1      -9.267  12.761  -7.603  1.00  0.00     0.029 A 
ATOM     61  C   UNL     1      -8.353  13.161  -6.641  1.00  0.00     0.049 A 
ATOM     62  H   UNL     1      -7.678  12.123  -4.933  1.00  0.00     0.167 HD
ATOM     63  C   UNL     1      -6.741  14.714  -5.578  1.00  0.00     0.074 A 
ATOM     64  C   UNL     1      -6.013  15.965  -5.508  1.00  0.00     0.031 C 
ATOM     65  C   UNL     1      -7.617  14.397  -6.562  1.00  0.00     0.031 A 
BRANCH  52  66
ATOM     66  C   UNL     1     -10.150   8.792  -5.957  1.00  0.00    -0.014 A 
ATOM     67  C   UNL     1     -11.384   8.499  -5.350  1.00  0.00     0.010 A 
ATOM     68  C   UNL     1      -9.786   8.111  -7.133  1.00  0.00     0.010 A 
ATOM     69  C   UNL     1     -12.220   7.515  -5.885  1.00  0.00     0.020 A 
ATOM     70  C   UNL     1     -10.630   7.142  -7.684  1.00  0.00     0.020 A 
ATOM     71  C   UNL     1     -11.834   6.837  -7.045  1.00  0.00     0.054 A 
BRANCH  71  72
ATOM     72  S   UNL     1     -12.942   5.573  -7.728  1.00  0.00     0.124 S 
ATOM     73  O   UNL     1     -12.727   4.458  -6.809  1.00  0.00    -0.237 OA
ATOM     74  O   UNL     1     -14.252   6.212  -7.643  1.00  0.00    -0.237 OA
ATOM     75  O   UNL     1     -12.439   5.368  -9.084  1.00  0.00    -0.744 OA
ENDBRANCH  71  72
ENDBRANCH  52  66
BRANCH  53  76
ATOM     76  C   UNL     1      -3.810  15.379  -1.955  1.00  0.00    -0.014 A 
ATOM     77  C   UNL     1      -4.275  16.566  -1.363  1.00  0.00     0.010 A 
ATOM     78  C   UNL     1      -2.428  15.117  -1.973  1.00  0.00     0.010 A 
ATOM     79  C   UNL     1      -3.374  17.479  -0.806  1.00  0.00     0.020 A 
ATOM     80  C   UNL     1      -1.526  16.016  -1.396  1.00  0.00     0.020 A 
ATOM     81  C   UNL     1      -2.005  17.196  -0.824  1.00  0.00     0.054 A 
BRANCH  81  82
ATOM     82  S   UNL     1      -0.857  18.361  -0.037  1.00  0.00     0.124 S 
ATOM     83  O   UNL     1      -0.778  19.427  -1.030  1.00  0.00    -0.237 OA
ATOM     84  O   UNL     1      -1.551  18.701   1.204  1.00  0.00    -0.237 OA
ATOM     85  O   UNL     1       0.361  17.572   0.137  1.00  0.00    -0.744 OA
ENDBRANCH  81  82
ENDBRANCH  53  76
BRANCH  65  86
ATOM     86  C   UNL     1      -7.853  15.423  -7.637  1.00  0.00    -0.014 A 
ATOM     87  C   UNL     1      -6.895  15.658  -8.638  1.00  0.00     0.010 A 
ATOM     88  C   UNL     1      -9.072  16.124  -7.675  1.00  0.00     0.010 A 
ATOM     89  C   UNL     1      -7.139  16.598  -9.643  1.00  0.00     0.020 A 
ATOM     90  C   UNL     1      -9.329  17.049  -8.691  1.00  0.00     0.020 A 
ATOM     91  C   UNL     1      -8.354  17.290  -9.661  1.00  0.00     0.054 A 
BRANCH  91  92
ATOM     92  S   UNL     1      -8.667  18.476 -10.998  1.00  0.00     0.124 S 
ATOM     93  O   UNL     1      -7.870  19.625 -10.576  1.00  0.00    -0.237 OA
ATOM     94  O   UNL     1      -8.177  17.770 -12.179  1.00  0.00    -0.237 OA
ATOM     95  O   UNL     1     -10.115  18.672 -10.954  1.00  0.00    -0.744 OA
ENDBRANCH  91  92
ENDBRANCH  65  86
ENDBRANCH  39  40
ENDBRANCH  32  34
ENDBRANCH  31  32
ENDBRANCH  30  31
ENDBRANCH  29  30
ENDBRANCH   1  29
TORSDOF 20
