REMARK SMILES CCn1ccnc1[C@H](F)C(=O)OCCOCCOC(=O)c1ccc(-c2c3nc(c(-c4ccc(S(=O)(=O)[O-])cc4)c4ccc([nH]4)c(-c4ccc(S(=O)(=O)[O-])cc4)c4nc(c(-c5ccc(S(=O)(=O)[O-])cc5)c5ccc2[nH]5)C=C4)C=C3)cc1
REMARK SMILES IDX 16 1 15 2 14 3 13 4 12 5 10 6 11 7 8 8 9 9 7 10 3 11 4 12
REMARK SMILES IDX 5 13 6 14 2 15 1 16 17 17 18 18 19 19 20 20 21 21 22 22
REMARK SMILES IDX 80 23 23 24 79 25 24 26 25 27 26 28 73 29 27 30 78 31 72 32
REMARK SMILES IDX 74 33 28 34 77 35 71 36 70 37 29 39 59 40 40 41 58 42 41 43
REMARK SMILES IDX 44 44 57 45 75 46 42 47 43 48 56 50 76 51 45 52 30 53 31 54
REMARK SMILES IDX 39 55 32 56 38 57 33 58 34 59 35 60 36 61 37 62 60 63 61 64
REMARK SMILES IDX 69 65 62 66 68 67 63 68 64 69 65 70 66 71 67 72 46 73 47 74
REMARK SMILES IDX 55 75 48 76 54 77 49 78 50 79 51 80 52 81 53 82
REMARK H PARENT 74 38 44 49
REMARK Flexibility Score: inf
ROOT
ATOM      1  C   UNL     1       5.111   1.065  -0.518  1.00  0.00     0.202 C 
ENDROOT
BRANCH   1   2
ATOM      2  O   UNL     1       6.320   0.914  -1.254  1.00  0.00    -0.374 OA
BRANCH   2   3
ATOM      3  C   UNL     1       6.545   1.661  -2.450  1.00  0.00     0.202 C 
BRANCH   3   4
ATOM      4  C   UNL     1       5.686   1.342  -3.672  1.00  0.00     0.261 C 
BRANCH   4   5
ATOM      5  O   UNL     1       4.304   1.610  -3.419  1.00  0.00    -0.461 OA
BRANCH   5   6
ATOM      6  C   UNL     1       3.501   0.513  -3.347  1.00  0.00     0.348 C 
ATOM      7  O   UNL     1       3.869  -0.645  -3.536  1.00  0.00    -0.248 OA
BRANCH   6   8
ATOM      8  C   UNL     1       2.107   0.870  -2.868  1.00  0.00     0.341 C 
ATOM      9  F   UNL     1       1.991   2.145  -2.386  1.00  0.00    -0.226 F 
BRANCH   8  10
ATOM     10  C   UNL     1       1.171   0.635  -3.997  1.00  0.00     0.155 A 
ATOM     11  N   UNL     1      -0.033  -0.030  -3.945  1.00  0.00    -0.332 N 
ATOM     12  C   UNL     1      -0.486  -0.127  -5.245  1.00  0.00     0.107 A 
ATOM     13  C   UNL     1       0.424   0.543  -6.016  1.00  0.00     0.131 A 
ATOM     14  N   UNL     1       1.429   1.024  -5.237  1.00  0.00    -0.238 NA
BRANCH  11  15
ATOM     15  C   UNL     1      -0.806  -0.594  -2.853  1.00  0.00     0.120 C 
ATOM     16  C   UNL     1      -0.403  -0.355  -1.408  1.00  0.00     0.027 C 
ENDBRANCH  11  15
ENDBRANCH   8  10
ENDBRANCH   6   8
ENDBRANCH   5   6
ENDBRANCH   4   5
ENDBRANCH   3   4
ENDBRANCH   2   3
ENDBRANCH   1   2
BRANCH   1  17
ATOM     17  C   UNL     1       4.814   2.394   0.161  1.00  0.00     0.261 C 
BRANCH  17  18
ATOM     18  O   UNL     1       4.746   3.463  -0.766  1.00  0.00    -0.460 OA
BRANCH  18  19
ATOM     19  C   UNL     1       5.834   4.256  -0.766  1.00  0.00     0.338 C 
ATOM     20  O   UNL     1       6.941   3.991  -0.293  1.00  0.00    -0.246 OA
BRANCH  19  21
ATOM     21  C   UNL     1       5.466   5.577  -1.264  1.00  0.00     0.060 A 
ATOM     22  C   UNL     1       6.474   6.545  -1.230  1.00  0.00     0.016 A 
ATOM     23  C   UNL     1       4.106   5.909  -1.326  1.00  0.00     0.016 A 
ATOM     24  C   UNL     1       6.109   7.840  -0.957  1.00  0.00     0.010 A 
ATOM     25  C   UNL     1       3.747   7.193  -1.018  1.00  0.00     0.010 A 
ATOM     26  C   UNL     1       4.756   8.111  -0.738  1.00  0.00    -0.014 A 
BRANCH  26  27
ATOM     27  C   UNL     1       4.382   9.432  -0.298  1.00  0.00     0.031 A 
ATOM     28  C   UNL     1       4.309  10.372  -1.432  1.00  0.00     0.074 A 
ATOM     29  C   UNL     1       4.018   9.700   0.968  1.00  0.00     0.049 A 
ATOM     30  N   UNL     1       5.200  11.237  -1.784  1.00  0.00    -0.248 NA
ATOM     31  C   UNL     1       3.261  10.135  -2.441  1.00  0.00     0.031 C 
ATOM     32  C   UNL     1       3.775   8.768   2.071  1.00  0.00     0.029 A 
ATOM     33  N   UNL     1       3.675  10.896   1.506  1.00  0.00    -0.354 N 
ATOM     34  C   UNL     1       4.679  11.831  -2.924  1.00  0.00     0.074 A 
ATOM     35  C   UNL     1       3.682  10.924  -3.428  1.00  0.00     0.031 C 
ATOM     36  C   UNL     1       3.087   9.408   3.048  1.00  0.00     0.029 A 
ATOM     37  C   UNL     1       2.961  10.814   2.695  1.00  0.00     0.049 A 
ATOM     38  H   UNL     1       3.912  11.754   1.088  1.00  0.00     0.167 HD
ATOM     39  C   UNL     1       4.834  13.162  -3.159  1.00  0.00     0.031 A 
ATOM     40  C   UNL     1       2.256  11.823   3.273  1.00  0.00     0.031 A 
ATOM     41  C   UNL     1       5.843  13.734  -2.302  1.00  0.00     0.049 A 
ATOM     42  C   UNL     1       2.753  13.094   2.676  1.00  0.00     0.074 A 
ATOM     43  C   UNL     1       7.186  13.496  -2.090  1.00  0.00     0.029 A 
ATOM     44  N   UNL     1       5.394  14.420  -1.195  1.00  0.00    -0.354 N 
ATOM     45  N   UNL     1       3.964  13.543   2.860  1.00  0.00    -0.248 NA
ATOM     46  C   UNL     1       2.080  13.596   1.486  1.00  0.00     0.031 C 
ATOM     47  C   UNL     1       7.371  13.644  -0.685  1.00  0.00     0.029 A 
ATOM     48  C   UNL     1       6.157  14.041  -0.120  1.00  0.00     0.049 A 
ATOM     49  H   UNL     1       4.654  15.069  -1.178  1.00  0.00     0.167 HD
ATOM     50  C   UNL     1       4.363  14.018   1.617  1.00  0.00     0.074 A 
ATOM     51  C   UNL     1       3.131  14.104   0.832  1.00  0.00     0.031 C 
ATOM     52  C   UNL     1       5.679  14.014   1.248  1.00  0.00     0.031 A 
BRANCH  39  53
ATOM     53  C   UNL     1       3.766  14.004  -3.813  1.00  0.00    -0.014 A 
ATOM     54  C   UNL     1       4.039  15.361  -4.063  1.00  0.00     0.010 A 
ATOM     55  C   UNL     1       2.423  13.588  -3.949  1.00  0.00     0.010 A 
ATOM     56  C   UNL     1       3.011  16.262  -4.367  1.00  0.00     0.020 A 
ATOM     57  C   UNL     1       1.399  14.465  -4.298  1.00  0.00     0.020 A 
ATOM     58  C   UNL     1       1.696  15.806  -4.473  1.00  0.00     0.054 A 
BRANCH  58  59
ATOM     59  S   UNL     1       0.364  16.987  -4.778  1.00  0.00     0.124 S 
ATOM     60  O   UNL     1       0.384  17.783  -3.555  1.00  0.00    -0.237 OA
ATOM     61  O   UNL     1       0.827  17.664  -5.987  1.00  0.00    -0.237 OA
ATOM     62  O   UNL     1      -0.812  16.139  -4.956  1.00  0.00    -0.744 OA
ENDBRANCH  58  59
ENDBRANCH  39  53
BRANCH  40  63
ATOM     63  C   UNL     1       0.955  11.737   3.992  1.00  0.00    -0.014 A 
ATOM     64  C   UNL     1       0.440  12.837   4.708  1.00  0.00     0.010 A 
ATOM     65  C   UNL     1       0.077  10.663   3.737  1.00  0.00     0.010 A 
ATOM     66  C   UNL     1      -0.914  12.886   5.096  1.00  0.00     0.020 A 
ATOM     67  C   UNL     1      -1.269  10.702   4.123  1.00  0.00     0.020 A 
ATOM     68  C   UNL     1      -1.766  11.824   4.781  1.00  0.00     0.054 A 
BRANCH  68  69
ATOM     69  S   UNL     1      -3.549  11.966   5.119  1.00  0.00     0.124 S 
ATOM     70  O   UNL     1      -3.598  11.888   6.576  1.00  0.00    -0.237 OA
ATOM     71  O   UNL     1      -3.881  13.266   4.544  1.00  0.00    -0.237 OA
ATOM     72  O   UNL     1      -4.124  10.819   4.418  1.00  0.00    -0.744 OA
ENDBRANCH  68  69
ENDBRANCH  40  63
BRANCH  52  73
ATOM     73  C   UNL     1       6.723  13.757   2.312  1.00  0.00    -0.014 A 
ATOM     74  C   UNL     1       6.833  12.558   3.045  1.00  0.00     0.010 A 
ATOM     75  C   UNL     1       7.731  14.725   2.460  1.00  0.00     0.010 A 
ATOM     76  C   UNL     1       7.912  12.350   3.921  1.00  0.00     0.020 A 
ATOM     77  C   UNL     1       8.815  14.517   3.314  1.00  0.00     0.020 A 
ATOM     78  C   UNL     1       8.897  13.335   4.049  1.00  0.00     0.054 A 
BRANCH  78  79
ATOM     79  S   UNL     1      10.310  13.056   5.155  1.00  0.00     0.124 S 
ATOM     80  O   UNL     1       9.689  13.083   6.476  1.00  0.00    -0.237 OA
ATOM     81  O   UNL     1      10.811  11.754   4.721  1.00  0.00    -0.237 OA
ATOM     82  O   UNL     1      11.202  14.179   4.869  1.00  0.00    -0.744 OA
ENDBRANCH  78  79
ENDBRANCH  52  73
ENDBRANCH  26  27
ENDBRANCH  19  21
ENDBRANCH  18  19
ENDBRANCH  17  18
ENDBRANCH   1  17
TORSDOF 19
