REMARK SMILES Cc1ccc2oc(CCCC(=O)OCCOCCOC(=O)c3ccc(-c4c5nc(c(-c6ccc(S(=O)(=O)[O-])cc6)c6ccc([nH]6)c(-c6ccc(S(=O)(=O)[O-])cc6)c6nc(c(-c7ccc(S(=O)(=O)[O-])cc7)c7ccc4[nH]7)C=C6)C=C5)cc3)cc(=O)c2c1
REMARK SMILES IDX 16 1 15 2 14 3 13 4 11 5 12 6 10 7 9 8 8 9 7 10 1 11 2 12
REMARK SMILES IDX 3 13 86 14 4 15 85 16 5 17 83 18 6 19 82 20 84 21 17 22
REMARK SMILES IDX 18 23 19 24 20 25 21 26 22 27 23 28 81 29 24 30 80 31 25 32
REMARK SMILES IDX 26 33 27 34 74 35 28 36 79 37 73 38 75 39 29 40 78 41 72 42
REMARK SMILES IDX 71 43 30 45 60 46 41 47 59 48 42 49 45 50 58 51 76 52 43 53
REMARK SMILES IDX 44 54 57 56 77 57 46 58 31 59 32 60 40 61 33 62 39 63 34 64
REMARK SMILES IDX 35 65 36 66 37 67 38 68 61 69 62 70 70 71 63 72 69 73 64 74
REMARK SMILES IDX 65 75 66 76 67 77 68 78 47 79 48 80 56 81 49 82 55 83 50 84
REMARK SMILES IDX 51 85 52 86 53 87 54 88
REMARK H PARENT 75 44 45 55
REMARK Flexibility Score: inf
ROOT
ATOM      1  O   UNL     1       4.237  -6.591  -1.315  1.00  0.00    -0.374 OA
ENDROOT
BRANCH   1   2
ATOM      2  C   UNL     1       3.452  -5.822  -2.230  1.00  0.00     0.202 C 
BRANCH   2   3
ATOM      3  C   UNL     1       2.116  -5.310  -1.685  1.00  0.00     0.261 C 
BRANCH   3   4
ATOM      4  O   UNL     1       2.353  -4.293  -0.695  1.00  0.00    -0.463 OA
BRANCH   4   5
ATOM      5  C   UNL     1       1.769  -4.463   0.513  1.00  0.00     0.305 C 
ATOM      6  O   UNL     1       0.952  -5.336   0.780  1.00  0.00    -0.252 OA
BRANCH   5   7
ATOM      7  C   UNL     1       2.232  -3.454   1.548  1.00  0.00     0.123 C 
BRANCH   7   8
ATOM      8  C   UNL     1       3.504  -2.629   1.296  1.00  0.00     0.020 C 
BRANCH   8   9
ATOM      9  C   UNL     1       3.560  -1.708   0.065  1.00  0.00     0.076 C 
BRANCH   9  10
ATOM     10  C   UNL     1       2.365  -0.808  -0.073  1.00  0.00     0.108 A 
ATOM     11  C   UNL     1      -3.815   1.113   0.003  1.00  0.00     0.044 C 
ATOM     12  C   UNL     1      -2.481   0.432  -0.067  1.00  0.00    -0.050 A 
ATOM     13  C   UNL     1      -2.396  -0.964  -0.176  1.00  0.00     0.007 A 
ATOM     14  C   UNL     1      -1.304   1.196  -0.048  1.00  0.00     0.019 A 
ATOM     15  C   UNL     1      -1.154  -1.590  -0.272  1.00  0.00     0.048 A 
ATOM     16  C   UNL     1      -0.063   0.561  -0.126  1.00  0.00     0.065 A 
ATOM     17  C   UNL     1       0.008  -0.822  -0.248  1.00  0.00     0.138 A 
ATOM     18  C   UNL     1       1.194   1.322  -0.035  1.00  0.00     0.192 A 
ATOM     19  O   UNL     1       1.194  -1.495  -0.340  1.00  0.00    -0.461 OA
ATOM     20  C   UNL     1       2.434   0.526   0.039  1.00  0.00     0.095 A 
ATOM     21  O   UNL     1       1.226   2.542   0.048  1.00  0.00    -0.289 OA
ENDBRANCH   9  10
ENDBRANCH   8   9
ENDBRANCH   7   8
ENDBRANCH   5   7
ENDBRANCH   4   5
ENDBRANCH   3   4
ENDBRANCH   2   3
ENDBRANCH   1   2
BRANCH   1  22
ATOM     22  C   UNL     1       4.918  -5.878  -0.284  1.00  0.00     0.202 C 
BRANCH  22  23
ATOM     23  C   UNL     1       6.236  -5.199  -0.678  1.00  0.00     0.261 C 
BRANCH  23  24
ATOM     24  O   UNL     1       6.060  -4.182  -1.680  1.00  0.00    -0.460 OA
BRANCH  24  25
ATOM     25  C   UNL     1       6.520  -4.524  -2.909  1.00  0.00     0.338 C 
ATOM     26  O   UNL     1       7.112  -5.552  -3.211  1.00  0.00    -0.246 OA
BRANCH  25  27
ATOM     27  C   UNL     1       6.067  -3.553  -3.922  1.00  0.00     0.060 A 
ATOM     28  C   UNL     1       5.445  -4.065  -5.068  1.00  0.00     0.016 A 
ATOM     29  C   UNL     1       6.313  -2.183  -3.802  1.00  0.00     0.016 A 
ATOM     30  C   UNL     1       5.112  -3.217  -6.122  1.00  0.00     0.010 A 
ATOM     31  C   UNL     1       5.984  -1.333  -4.866  1.00  0.00     0.010 A 
ATOM     32  C   UNL     1       5.415  -1.851  -6.045  1.00  0.00    -0.014 A 
BRANCH  32  33
ATOM     33  C   UNL     1       5.261  -1.000  -7.250  1.00  0.00     0.031 A 
ATOM     34  C   UNL     1       6.473  -0.682  -8.084  1.00  0.00     0.074 A 
ATOM     35  C   UNL     1       4.050  -0.546  -7.622  1.00  0.00     0.049 A 
ATOM     36  N   UNL     1       6.567   0.052  -9.163  1.00  0.00    -0.248 NA
ATOM     37  C   UNL     1       7.748  -1.272  -7.645  1.00  0.00     0.031 C 
ATOM     38  C   UNL     1       2.793  -0.824  -6.929  1.00  0.00     0.029 A 
ATOM     39  N   UNL     1       3.683   0.249  -8.679  1.00  0.00    -0.354 N 
ATOM     40  C   UNL     1       7.908   0.020  -9.528  1.00  0.00     0.074 A 
ATOM     41  C   UNL     1       8.595  -0.786  -8.541  1.00  0.00     0.031 C 
ATOM     42  C   UNL     1       1.792  -0.203  -7.577  1.00  0.00     0.029 A 
ATOM     43  C   UNL     1       2.341   0.542  -8.708  1.00  0.00     0.049 A 
ATOM     44  H   UNL     1       4.321   0.578  -9.353  1.00  0.00     0.167 HD
ATOM     45  C   UNL     1       8.513   0.603 -10.590  1.00  0.00     0.031 A 
ATOM     46  C   UNL     1       1.637   1.339  -9.538  1.00  0.00     0.031 A 
ATOM     47  C   UNL     1       7.832   1.415 -11.564  1.00  0.00     0.049 A 
ATOM     48  C   UNL     1       2.346   2.045 -10.664  1.00  0.00     0.074 A 
ATOM     49  C   UNL     1       8.357   2.036 -12.684  1.00  0.00     0.029 A 
ATOM     50  N   UNL     1       6.482   1.728 -11.529  1.00  0.00    -0.354 N 
ATOM     51  N   UNL     1       3.611   1.984 -11.009  1.00  0.00    -0.248 NA
ATOM     52  C   UNL     1       1.531   2.924 -11.515  1.00  0.00     0.031 C 
ATOM     53  C   UNL     1       7.335   2.770 -13.296  1.00  0.00     0.029 A 
ATOM     54  C   UNL     1       6.161   2.559 -12.589  1.00  0.00     0.049 A 
ATOM     55  H   UNL     1       5.845   1.406 -10.851  1.00  0.00     0.167 HD
ATOM     56  C   UNL     1       3.738   2.801 -12.129  1.00  0.00     0.074 A 
ATOM     57  C   UNL     1       2.420   3.330 -12.412  1.00  0.00     0.031 C 
ATOM     58  C   UNL     1       4.846   3.086 -12.856  1.00  0.00     0.031 A 
BRANCH  45  59
ATOM     59  C   UNL     1       9.999   0.413 -10.733  1.00  0.00    -0.014 A 
ATOM     60  C   UNL     1      10.543  -0.824 -11.124  1.00  0.00     0.010 A 
ATOM     61  C   UNL     1      10.864   1.500 -10.506  1.00  0.00     0.010 A 
ATOM     62  C   UNL     1      11.927  -0.980 -11.249  1.00  0.00     0.020 A 
ATOM     63  C   UNL     1      12.246   1.355 -10.654  1.00  0.00     0.020 A 
ATOM     64  C   UNL     1      12.770   0.110 -11.008  1.00  0.00     0.054 A 
BRANCH  64  65
ATOM     65  S   UNL     1      14.560  -0.117 -11.192  1.00  0.00     0.124 S 
ATOM     66  O   UNL     1      14.887  -0.905 -10.006  1.00  0.00    -0.237 OA
ATOM     67  O   UNL     1      14.665  -0.825 -12.465  1.00  0.00    -0.237 OA
ATOM     68  O   UNL     1      15.084   1.247 -11.196  1.00  0.00    -0.744 OA
ENDBRANCH  64  65
ENDBRANCH  45  59
BRANCH  46  69
ATOM     69  C   UNL     1       0.178   1.535  -9.317  1.00  0.00    -0.014 A 
ATOM     70  C   UNL     1      -0.763   1.004 -10.216  1.00  0.00     0.010 A 
ATOM     71  C   UNL     1      -0.277   2.257  -8.198  1.00  0.00     0.010 A 
ATOM     72  C   UNL     1      -2.131   1.201 -10.006  1.00  0.00     0.020 A 
ATOM     73  C   UNL     1      -1.644   2.433  -7.971  1.00  0.00     0.020 A 
ATOM     74  C   UNL     1      -2.563   1.912  -8.882  1.00  0.00     0.054 A 
BRANCH  74  75
ATOM     75  S   UNL     1      -4.345   2.104  -8.598  1.00  0.00     0.124 S 
ATOM     76  O   UNL     1      -4.705   3.107  -9.595  1.00  0.00    -0.237 OA
ATOM     77  O   UNL     1      -4.852   0.756  -8.844  1.00  0.00    -0.237 OA
ATOM     78  O   UNL     1      -4.424   2.546  -7.207  1.00  0.00    -0.744 OA
ENDBRANCH  74  75
ENDBRANCH  46  69
BRANCH  58  79
ATOM     79  C   UNL     1       4.683   3.995 -14.046  1.00  0.00    -0.014 A 
ATOM     80  C   UNL     1       4.471   5.375 -13.883  1.00  0.00     0.010 A 
ATOM     81  C   UNL     1       4.802   3.469 -15.346  1.00  0.00     0.010 A 
ATOM     82  C   UNL     1       4.352   6.209 -14.999  1.00  0.00     0.020 A 
ATOM     83  C   UNL     1       4.710   4.303 -16.463  1.00  0.00     0.020 A 
ATOM     84  C   UNL     1       4.472   5.667 -16.282  1.00  0.00     0.054 A 
BRANCH  84  85
ATOM     85  S   UNL     1       4.360   6.777 -17.713  1.00  0.00     0.124 S 
ATOM     86  O   UNL     1       2.929   7.061 -17.766  1.00  0.00    -0.237 OA
ATOM     87  O   UNL     1       5.210   7.898 -17.319  1.00  0.00    -0.237 OA
ATOM     88  O   UNL     1       4.877   5.971 -18.818  1.00  0.00    -0.744 OA
ENDBRANCH  84  85
ENDBRANCH  58  79
ENDBRANCH  32  33
ENDBRANCH  25  27
ENDBRANCH  24  25
ENDBRANCH  23  24
ENDBRANCH  22  23
ENDBRANCH   1  22
TORSDOF 20
