REMARK SMILES CC1=C[C@@H]([C@@H]2N=N[C@H](S)N2/N=C/c2ccc(C(=O)OCCOCCOC(=O)c3ccc(-c4c5nc(c(-c6ccc(S(=O)(=O)[O-])cc6)c6ccc([nH]6)c(-c6ccc(S(=O)(=O)[O-])cc6)c6nc(c(-c7ccc(S(=O)(=O)[O-])cc7)c7ccc4[nH]7)C=C6)C=C5)cc3)cc2)N=N1
REMARK SMILES IDX 22 1 21 2 20 3 19 4 17 5 18 6 16 7 13 8 14 9 89 10 15 11
REMARK SMILES IDX 88 12 12 13 11 14 10 15 5 16 6 17 7 18 8 19 4 20 1 21 2 22
REMARK SMILES IDX 3 23 91 24 90 25 9 26 23 28 24 29 25 30 26 31 27 32 28 33
REMARK SMILES IDX 29 34 87 35 30 36 86 37 31 38 32 39 33 40 80 41 34 42 85 43
REMARK SMILES IDX 79 44 81 45 35 46 84 47 78 48 77 49 36 51 66 52 47 53 65 54
REMARK SMILES IDX 48 55 51 56 64 57 82 58 49 59 50 60 63 62 83 63 52 64 37 65
REMARK SMILES IDX 38 66 46 67 39 68 45 69 40 70 41 71 42 72 43 73 44 74 67 75
REMARK SMILES IDX 68 76 76 77 69 78 75 79 70 80 71 81 72 82 73 83 74 84 53 85
REMARK SMILES IDX 54 86 62 87 55 88 61 89 56 90 57 91 58 92 59 93 60 94
REMARK H PARENT 9 27 81 50 51 61
REMARK Flexibility Score: inf
ROOT
ATOM      1  O   UNL     1       9.807  -0.038  -1.486  1.00  0.00    -0.374 OA
ENDROOT
BRANCH   1   2
ATOM      2  C   UNL     1       9.183   1.028  -2.200  1.00  0.00     0.202 C 
BRANCH   2   3
ATOM      3  C   UNL     1       7.659   1.024  -2.337  1.00  0.00     0.261 C 
BRANCH   3   4
ATOM      4  O   UNL     1       6.983   1.082  -1.072  1.00  0.00    -0.460 OA
BRANCH   4   5
ATOM      5  C   UNL     1       6.383  -0.079  -0.717  1.00  0.00     0.338 C 
ATOM      6  O   UNL     1       6.316  -1.106  -1.373  1.00  0.00    -0.246 OA
BRANCH   5   7
ATOM      7  C   UNL     1       5.939  -0.029   0.690  1.00  0.00     0.060 A 
ATOM      8  C   UNL     1       4.809  -0.242   3.212  1.00  0.00    -0.005 A 
ATOM      9  C   UNL     1       5.597  -1.287   2.733  1.00  0.00     0.010 A 
ATOM     10  C   UNL     1       4.673   0.952   2.486  1.00  0.00     0.010 A 
ATOM     11  C   UNL     1       6.146  -1.184   1.460  1.00  0.00     0.016 A 
ATOM     12  C   UNL     1       5.255   1.067   1.221  1.00  0.00     0.016 A 
BRANCH   8  13
ATOM     13  C   UNL     1       3.964  -0.521   4.387  1.00  0.00     0.141 C 
ATOM     14  N   UNL     1       2.888   0.169   4.571  1.00  0.00    -0.180 NA
BRANCH  14  15
ATOM     15  N   UNL     1       2.039  -0.218   5.537  1.00  0.00    -0.233 NA
ATOM     16  C   UNL     1       0.702   0.360   5.645  1.00  0.00     0.274 C 
ATOM     17  N   UNL     1       0.124  -0.098   6.932  1.00  0.00    -0.161 NA
ATOM     18  N   UNL     1       0.952  -0.812   7.553  1.00  0.00    -0.153 NA
ATOM     19  C   UNL     1       2.249  -0.847   6.836  1.00  0.00     0.298 C 
BRANCH  16  20
ATOM     20  C   UNL     1       0.677   1.902   5.501  1.00  0.00     0.201 C 
ATOM     21  C   UNL     1       1.586   4.346   8.125  1.00  0.00     0.068 C 
ATOM     22  C   UNL     1       1.002   3.436   7.109  1.00  0.00     0.058 C 
ATOM     23  C   UNL     1       1.692   2.654   6.285  1.00  0.00     0.031 C 
ATOM     24  N   UNL     1      -0.353   3.315   6.935  1.00  0.00    -0.160 NA
ATOM     25  N   UNL     1      -0.603   2.470   6.025  1.00  0.00    -0.177 NA
ENDBRANCH  16  20
BRANCH  19  26
ATOM     26  S   UNL     1       3.624  -0.111   7.785  1.00  0.00    -0.128 SA
ATOM     27  H   UNL     1       3.355   1.200   8.031  1.00  0.00     0.106 HD
ENDBRANCH  19  26
ENDBRANCH  14  15
ENDBRANCH   8  13
ENDBRANCH   5   7
ENDBRANCH   4   5
ENDBRANCH   3   4
ENDBRANCH   2   3
ENDBRANCH   1   2
BRANCH   1  28
ATOM     28  C   UNL     1       9.639  -0.150  -0.077  1.00  0.00     0.202 C 
BRANCH  28  29
ATOM     29  C   UNL     1      10.262   0.899   0.833  1.00  0.00     0.261 C 
BRANCH  29  30
ATOM     30  O   UNL     1       9.786   2.206   0.558  1.00  0.00    -0.460 OA
BRANCH  30  31
ATOM     31  C   UNL     1      10.664   2.964  -0.142  1.00  0.00     0.338 C 
ATOM     32  O   UNL     1      11.632   2.577  -0.766  1.00  0.00    -0.246 OA
BRANCH  31  33
ATOM     33  C   UNL     1      10.338   4.376   0.080  1.00  0.00     0.060 A 
ATOM     34  C   UNL     1      11.189   5.304  -0.520  1.00  0.00     0.016 A 
ATOM     35  C   UNL     1       9.431   4.733   1.089  1.00  0.00     0.016 A 
ATOM     36  C   UNL     1      11.313   6.538   0.074  1.00  0.00     0.010 A 
ATOM     37  C   UNL     1       9.559   5.964   1.681  1.00  0.00     0.010 A 
ATOM     38  C   UNL     1      10.572   6.802   1.232  1.00  0.00    -0.014 A 
BRANCH  38  39
ATOM     39  C   UNL     1      10.834   8.034   1.937  1.00  0.00     0.031 A 
ATOM     40  C   UNL     1      10.348   9.216   1.196  1.00  0.00     0.074 A 
ATOM     41  C   UNL     1      11.390   8.071   3.162  1.00  0.00     0.049 A 
ATOM     42  N   UNL     1      11.062  10.098   0.583  1.00  0.00    -0.248 NA
ATOM     43  C   UNL     1       8.904   9.308   0.927  1.00  0.00     0.031 C 
ATOM     44  C   UNL     1      11.670   6.970   4.088  1.00  0.00     0.029 A 
ATOM     45  N   UNL     1      11.750   9.162   3.880  1.00  0.00    -0.354 N 
ATOM     46  C   UNL     1      10.154  10.986   0.025  1.00  0.00     0.074 A 
ATOM     47  C   UNL     1       8.863  10.349   0.096  1.00  0.00     0.031 C 
ATOM     48  C   UNL     1      11.918   7.478   5.321  1.00  0.00     0.029 A 
ATOM     49  C   UNL     1      11.966   8.928   5.232  1.00  0.00     0.049 A 
ATOM     50  H   UNL     1      11.851  10.053   3.475  1.00  0.00     0.167 HD
ATOM     51  C   UNL     1      10.489  12.279  -0.227  1.00  0.00     0.031 A 
ATOM     52  C   UNL     1      12.111   9.878   6.194  1.00  0.00     0.031 A 
ATOM     53  C   UNL     1      11.915  12.474  -0.213  1.00  0.00     0.049 A 
ATOM     54  C   UNL     1      12.497  11.135   5.499  1.00  0.00     0.074 A 
ATOM     55  C   UNL     1      12.958  11.982  -0.973  1.00  0.00     0.029 A 
ATOM     56  N   UNL     1      12.477  12.924   0.960  1.00  0.00    -0.354 N 
ATOM     57  N   UNL     1      13.628  11.275   4.863  1.00  0.00    -0.248 NA
ATOM     58  C   UNL     1      11.433  12.036   5.081  1.00  0.00     0.031 C 
ATOM     59  C   UNL     1      14.000  11.718  -0.037  1.00  0.00     0.029 A 
ATOM     60  C   UNL     1      13.574  12.140   1.224  1.00  0.00     0.049 A 
ATOM     61  H   UNL     1      12.152  13.673   1.510  1.00  0.00     0.167 HD
ATOM     62  C   UNL     1      13.303  11.957   3.698  1.00  0.00     0.074 A 
ATOM     63  C   UNL     1      11.948  12.464   3.923  1.00  0.00     0.031 C 
ATOM     64  C   UNL     1      14.040  11.809   2.557  1.00  0.00     0.031 A 
BRANCH  51  65
ATOM     65  C   UNL     1       9.504  13.407  -0.097  1.00  0.00    -0.014 A 
ATOM     66  C   UNL     1       9.880  14.702  -0.493  1.00  0.00     0.010 A 
ATOM     67  C   UNL     1       8.303  13.281   0.637  1.00  0.00     0.010 A 
ATOM     68  C   UNL     1       9.107  15.817  -0.141  1.00  0.00     0.020 A 
ATOM     69  C   UNL     1       7.505  14.377   0.955  1.00  0.00     0.020 A 
ATOM     70  C   UNL     1       7.927  15.645   0.586  1.00  0.00     0.054 A 
BRANCH  70  71
ATOM     71  S   UNL     1       6.976  17.095   1.098  1.00  0.00     0.124 S 
ATOM     72  O   UNL     1       7.899  17.750   2.020  1.00  0.00    -0.237 OA
ATOM     73  O   UNL     1       6.753  17.780  -0.172  1.00  0.00    -0.237 OA
ATOM     74  O   UNL     1       5.780  16.521   1.710  1.00  0.00    -0.744 OA
ENDBRANCH  70  71
ENDBRANCH  51  65
BRANCH  52  75
ATOM     75  C   UNL     1      11.547   9.869   7.572  1.00  0.00    -0.014 A 
ATOM     76  C   UNL     1      11.957  10.808   8.540  1.00  0.00     0.010 A 
ATOM     77  C   UNL     1      10.383   9.122   7.845  1.00  0.00     0.010 A 
ATOM     78  C   UNL     1      11.199  11.029   9.707  1.00  0.00     0.020 A 
ATOM     79  C   UNL     1       9.625   9.335   9.004  1.00  0.00     0.020 A 
ATOM     80  C   UNL     1      10.024  10.304   9.921  1.00  0.00     0.054 A 
BRANCH  80  81
ATOM     81  S   UNL     1       8.954  10.715  11.335  1.00  0.00     0.124 S 
ATOM     82  O   UNL     1       9.744  10.245  12.470  1.00  0.00    -0.237 OA
ATOM     83  O   UNL     1       8.815  12.164  11.219  1.00  0.00    -0.237 OA
ATOM     84  O   UNL     1       7.732   9.956  11.073  1.00  0.00    -0.744 OA
ENDBRANCH  80  81
ENDBRANCH  52  75
BRANCH  64  85
ATOM     85  C   UNL     1      15.358  11.065   2.644  1.00  0.00    -0.014 A 
ATOM     86  C   UNL     1      15.482   9.710   3.017  1.00  0.00     0.010 A 
ATOM     87  C   UNL     1      16.503  11.732   2.178  1.00  0.00     0.010 A 
ATOM     88  C   UNL     1      16.724   9.055   2.950  1.00  0.00     0.020 A 
ATOM     89  C   UNL     1      17.737  11.083   2.091  1.00  0.00     0.020 A 
ATOM     90  C   UNL     1      17.846   9.750   2.488  1.00  0.00     0.054 A 
BRANCH  90  91
ATOM     91  S   UNL     1      19.448   8.902   2.373  1.00  0.00     0.124 S 
ATOM     92  O   UNL     1      19.793   8.680   3.774  1.00  0.00    -0.237 OA
ATOM     93  O   UNL     1      19.126   7.700   1.606  1.00  0.00    -0.237 OA
ATOM     94  O   UNL     1      20.301   9.862   1.672  1.00  0.00    -0.744 OA
ENDBRANCH  90  91
ENDBRANCH  64  85
ENDBRANCH  38  39
ENDBRANCH  31  33
ENDBRANCH  30  31
ENDBRANCH  29  30
ENDBRANCH  28  29
ENDBRANCH   1  28
TORSDOF 21
