REMARK SMILES C[C@]([NH2+]Cc1nc(-c2ccsc2)no1)(C(=O)OCCOCCOC(=O)c1ccc(-c2c3nc(c(-c4ccc(S(=O)(=O)[O-])cc4)c4ccc([nH]4)c(-c4ccc(S(=O)(=O)[O-])cc4)c4nc(c(-c5ccc(S(=O)(=O)[O-])cc5)c5ccc2[nH]5)C=C4)C=C3)cc1)C(F)(F)F
REMARK SMILES IDX 19 1 18 2 17 3 15 4 16 5 2 6 1 7 86 8 87 9 88 10 89 11 3 12
REMARK SMILES IDX 4 15 5 16 6 17 14 18 7 19 13 20 8 21 9 22 12 23 10 24 11 25
REMARK SMILES IDX 20 26 21 27 22 28 23 29 24 30 25 31 26 32 27 33 85 34 28 35
REMARK SMILES IDX 84 36 29 37 30 38 31 39 78 40 32 41 83 42 77 43 79 44 33 45
REMARK SMILES IDX 82 46 76 47 75 48 34 50 64 51 45 52 63 53 46 54 49 55 62 56
REMARK SMILES IDX 80 57 47 58 48 59 61 61 81 62 50 63 35 64 36 65 44 66 37 67
REMARK SMILES IDX 43 68 38 69 39 70 40 71 41 72 42 73 65 74 66 75 74 76 67 77
REMARK SMILES IDX 73 78 68 79 69 80 70 81 71 82 72 83 51 84 52 85 60 86 53 87
REMARK SMILES IDX 59 88 54 89 55 90 56 91 57 92 58 93
REMARK H PARENT 3 13 3 14 79 49 49 60
REMARK Flexibility Score: inf
ROOT
ATOM      1  C   UNL     1      -3.606  -0.415  -0.673  1.00  0.00     0.202 C 
ENDROOT
BRANCH   1   2
ATOM      2  C   UNL     1      -2.876  -1.724  -0.985  1.00  0.00     0.261 C 
BRANCH   2   3
ATOM      3  O   UNL     1      -1.469  -1.638  -0.686  1.00  0.00    -0.458 OA
BRANCH   3   4
ATOM      4  C   UNL     1      -0.634  -1.695  -1.767  1.00  0.00     0.377 C 
ATOM      5  O   UNL     1      -1.013  -1.940  -2.906  1.00  0.00    -0.244 OA
BRANCH   4   6
ATOM      6  C   UNL     1       0.841  -1.508  -1.379  1.00  0.00     0.287 C 
ATOM      7  C   UNL     1       1.471  -2.909  -1.452  1.00  0.00     0.103 C 
BRANCH   6   8
ATOM      8  C   UNL     1       1.404  -0.605  -2.509  1.00  0.00     0.455 C 
ATOM      9  F   UNL     1       0.784   0.598  -2.558  1.00  0.00    -0.164 F 
ATOM     10  F   UNL     1       2.724  -0.351  -2.304  1.00  0.00    -0.164 F 
ATOM     11  F   UNL     1       1.327  -1.165  -3.735  1.00  0.00    -0.164 F 
ENDBRANCH   6   8
BRANCH   6  12
ATOM     12  N   UNL     1       0.976  -0.901   0.013  1.00  0.00    -0.317 N 
ATOM     13  H   UNL     1       0.322  -1.373   0.637  1.00  0.00     0.347 HD
ATOM     14  H   UNL     1       0.776   0.096  -0.072  1.00  0.00     0.347 HD
BRANCH  12  15
ATOM     15  C   UNL     1       2.333  -1.027   0.575  1.00  0.00     0.363 C 
BRANCH  15  16
ATOM     16  C   UNL     1       2.575  -0.281   1.845  1.00  0.00     0.282 A 
ATOM     17  N   UNL     1       3.185  -0.706   2.930  1.00  0.00    -0.186 NA
ATOM     18  O   UNL     1       2.263   1.047   1.883  1.00  0.00    -0.333 OA
ATOM     19  C   UNL     1       3.231   0.429   3.699  1.00  0.00     0.203 A 
ATOM     20  N   UNL     1       2.689   1.516   3.134  1.00  0.00    -0.057 NA
BRANCH  19  21
ATOM     21  C   UNL     1       3.867   0.396   5.017  1.00  0.00     0.033 A 
ATOM     22  C   UNL     1       4.809  -0.613   5.391  1.00  0.00     0.024 A 
ATOM     23  C   UNL     1       3.652   1.298   6.038  1.00  0.00     0.077 A 
ATOM     24  C   UNL     1       5.270  -0.444   6.678  1.00  0.00     0.065 A 
ATOM     25  S   UNL     1       4.569   0.921   7.436  1.00  0.00    -0.152 S 
ENDBRANCH  19  21
ENDBRANCH  15  16
ENDBRANCH  12  15
ENDBRANCH   6  12
ENDBRANCH   4   6
ENDBRANCH   3   4
ENDBRANCH   2   3
ENDBRANCH   1   2
BRANCH   1  26
ATOM     26  O   UNL     1      -3.219   0.725  -1.440  1.00  0.00    -0.374 OA
BRANCH  26  27
ATOM     27  C   UNL     1      -1.989   1.366  -1.101  1.00  0.00     0.202 C 
BRANCH  27  28
ATOM     28  C   UNL     1      -1.981   2.252   0.150  1.00  0.00     0.261 C 
BRANCH  28  29
ATOM     29  O   UNL     1      -2.260   1.512   1.351  1.00  0.00    -0.460 OA
BRANCH  29  30
ATOM     30  C   UNL     1      -3.465   1.785   1.904  1.00  0.00     0.338 C 
ATOM     31  O   UNL     1      -4.277   2.620   1.523  1.00  0.00    -0.246 OA
BRANCH  30  32
ATOM     32  C   UNL     1      -3.790   0.806   2.958  1.00  0.00     0.060 A 
ATOM     33  C   UNL     1      -5.065   0.229   2.916  1.00  0.00     0.016 A 
ATOM     34  C   UNL     1      -2.920   0.530   4.016  1.00  0.00     0.016 A 
ATOM     35  C   UNL     1      -5.509  -0.559   3.974  1.00  0.00     0.010 A 
ATOM     36  C   UNL     1      -3.370  -0.260   5.082  1.00  0.00     0.010 A 
ATOM     37  C   UNL     1      -4.685  -0.762   5.088  1.00  0.00    -0.014 A 
BRANCH  37  38
ATOM     38  C   UNL     1      -5.286  -1.328   6.320  1.00  0.00     0.031 A 
ATOM     39  C   UNL     1      -5.739  -0.384   7.404  1.00  0.00     0.074 A 
ATOM     40  C   UNL     1      -5.505  -2.649   6.441  1.00  0.00     0.049 A 
ATOM     41  N   UNL     1      -6.363  -0.646   8.524  1.00  0.00    -0.248 NA
ATOM     42  C   UNL     1      -5.456   1.046   7.194  1.00  0.00     0.031 C 
ATOM     43  C   UNL     1      -5.155  -3.659   5.442  1.00  0.00     0.029 A 
ATOM     44  N   UNL     1      -6.093  -3.365   7.453  1.00  0.00    -0.354 N 
ATOM     45  C   UNL     1      -6.542   0.581   9.153  1.00  0.00     0.074 A 
ATOM     46  C   UNL     1      -5.934   1.584   8.307  1.00  0.00     0.031 C 
ATOM     47  C   UNL     1      -5.548  -4.865   5.889  1.00  0.00     0.029 A 
ATOM     48  C   UNL     1      -6.155  -4.715   7.210  1.00  0.00     0.049 A 
ATOM     49  H   UNL     1      -6.437  -2.949   8.277  1.00  0.00     0.167 HD
ATOM     50  C   UNL     1      -7.161   0.853  10.327  1.00  0.00     0.031 A 
ATOM     51  C   UNL     1      -6.647  -5.716   7.967  1.00  0.00     0.031 A 
ATOM     52  C   UNL     1      -7.760  -0.144  11.173  1.00  0.00     0.049 A 
ATOM     53  C   UNL     1      -7.280  -5.396   9.295  1.00  0.00     0.074 A 
ATOM     54  C   UNL     1      -8.431   0.033  12.370  1.00  0.00     0.029 A 
ATOM     55  N   UNL     1      -7.754  -1.506  10.915  1.00  0.00    -0.354 N 
ATOM     56  N   UNL     1      -7.468  -4.227   9.860  1.00  0.00    -0.248 NA
ATOM     57  C   UNL     1      -7.779  -6.534  10.081  1.00  0.00     0.031 C 
ATOM     58  C   UNL     1      -8.786  -1.228  12.863  1.00  0.00     0.029 A 
ATOM     59  C   UNL     1      -8.385  -2.185  11.944  1.00  0.00     0.049 A 
ATOM     60  H   UNL     1      -7.359  -1.928  10.118  1.00  0.00     0.167 HD
ATOM     61  C   UNL     1      -8.137  -4.486  11.053  1.00  0.00     0.074 A 
ATOM     62  C   UNL     1      -8.326  -5.921  11.123  1.00  0.00     0.031 C 
ATOM     63  C   UNL     1      -8.562  -3.614  12.001  1.00  0.00     0.031 A 
BRANCH  50  64
ATOM     64  C   UNL     1      -7.183   2.288  10.780  1.00  0.00    -0.014 A 
ATOM     65  C   UNL     1      -7.995   3.245  10.144  1.00  0.00     0.010 A 
ATOM     66  C   UNL     1      -6.387   2.682  11.871  1.00  0.00     0.010 A 
ATOM     67  C   UNL     1      -7.976   4.578  10.563  1.00  0.00     0.020 A 
ATOM     68  C   UNL     1      -6.385   4.009  12.309  1.00  0.00     0.020 A 
ATOM     69  C   UNL     1      -7.165   4.953  11.639  1.00  0.00     0.054 A 
BRANCH  69  70
ATOM     70  S   UNL     1      -7.160   6.689  12.167  1.00  0.00     0.124 S 
ATOM     71  O   UNL     1      -6.367   7.321  11.116  1.00  0.00    -0.237 OA
ATOM     72  O   UNL     1      -8.581   7.028  12.172  1.00  0.00    -0.237 OA
ATOM     73  O   UNL     1      -6.529   6.648  13.484  1.00  0.00    -0.744 OA
ENDBRANCH  69  70
ENDBRANCH  50  64
BRANCH  51  74
ATOM     74  C   UNL     1      -6.567  -7.121   7.482  1.00  0.00    -0.014 A 
ATOM     75  C   UNL     1      -7.726  -7.808   7.081  1.00  0.00     0.010 A 
ATOM     76  C   UNL     1      -5.325  -7.778   7.418  1.00  0.00     0.010 A 
ATOM     77  C   UNL     1      -7.646  -9.131   6.636  1.00  0.00     0.020 A 
ATOM     78  C   UNL     1      -5.238  -9.092   6.952  1.00  0.00     0.020 A 
ATOM     79  C   UNL     1      -6.402  -9.764   6.572  1.00  0.00     0.054 A 
BRANCH  79  80
ATOM     80  S   UNL     1      -6.312 -11.461   5.936  1.00  0.00     0.124 S 
ATOM     81  O   UNL     1      -6.830 -12.235   7.060  1.00  0.00    -0.237 OA
ATOM     82  O   UNL     1      -7.171 -11.403   4.757  1.00  0.00    -0.237 OA
ATOM     83  O   UNL     1      -4.890 -11.643   5.651  1.00  0.00    -0.744 OA
ENDBRANCH  79  80
ENDBRANCH  51  74
BRANCH  63  84
ATOM     84  C   UNL     1      -9.308  -4.183  13.178  1.00  0.00    -0.014 A 
ATOM     85  C   UNL     1      -8.646  -4.914  14.181  1.00  0.00     0.010 A 
ATOM     86  C   UNL     1     -10.690  -3.947  13.301  1.00  0.00     0.010 A 
ATOM     87  C   UNL     1      -9.361  -5.433  15.264  1.00  0.00     0.020 A 
ATOM     88  C   UNL     1     -11.403  -4.442  14.396  1.00  0.00     0.020 A 
ATOM     89  C   UNL     1     -10.736  -5.198  15.361  1.00  0.00     0.054 A 
BRANCH  89  90
ATOM     90  S   UNL     1     -11.640  -5.861  16.788  1.00  0.00     0.124 S 
ATOM     91  O   UNL     1     -11.761  -7.274  16.440  1.00  0.00    -0.237 OA
ATOM     92  O   UNL     1     -10.745  -5.563  17.904  1.00  0.00    -0.237 OA
ATOM     93  O   UNL     1     -12.892  -5.108  16.784  1.00  0.00    -0.744 OA
ENDBRANCH  89  90
ENDBRANCH  63  84
ENDBRANCH  37  38
ENDBRANCH  30  32
ENDBRANCH  29  30
ENDBRANCH  28  29
ENDBRANCH  27  28
ENDBRANCH  26  27
ENDBRANCH   1  26
TORSDOF 22
