REMARK SMILES CCCN(C(=O)C[NH2+]C(C)(C)C)[C@H]1COC[C@H]1C(=O)OCCOCCOC(=O)c1ccc(-c2c3nc(c(-c4ccc(S(=O)(=O)[O-])cc4)c4ccc([nH]4)c(-c4ccc(S(=O)(=O)[O-])cc4)c4nc(c(-c5ccc(S(=O)(=O)[O-])cc5)c5ccc2[nH]5)C=C4)C=C3)cc1
REMARK SMILES IDX 22 1 21 2 20 3 18 4 19 5 17 6 13 7 14 8 15 9 16 10 4 11 3 12
REMARK SMILES IDX 2 13 1 14 5 15 6 16 7 17 8 18 9 21 10 22 11 23 12 24 23 25
REMARK SMILES IDX 24 26 25 27 26 28 27 29 28 30 29 31 30 32 88 33 31 34 87 35
REMARK SMILES IDX 32 36 33 37 34 38 81 39 35 40 86 41 80 42 82 43 36 44 85 45
REMARK SMILES IDX 79 46 78 47 37 49 67 50 48 51 66 52 49 53 52 54 65 55 83 56
REMARK SMILES IDX 50 57 51 58 64 60 84 61 53 62 38 63 39 64 47 65 40 66 46 67
REMARK SMILES IDX 41 68 42 69 43 70 44 71 45 72 68 73 69 74 77 75 70 76 76 77
REMARK SMILES IDX 71 78 72 79 73 80 74 81 75 82 54 83 55 84 63 85 56 86 62 87
REMARK SMILES IDX 57 88 58 89 59 90 60 91 61 92
REMARK H PARENT 8 19 8 20 82 48 52 59
REMARK Flexibility Score: inf
ROOT
ATOM      1  C   UNL     1      -1.127   1.324   1.710  1.00  0.00     0.202 C 
ENDROOT
BRANCH   1   2
ATOM      2  C   UNL     1      -1.423  -0.149   1.978  1.00  0.00     0.261 C 
BRANCH   2   3
ATOM      3  O   UNL     1      -0.652  -0.988   1.097  1.00  0.00    -0.463 OA
BRANCH   3   4
ATOM      4  C   UNL     1      -1.218  -2.177   0.814  1.00  0.00     0.313 C 
ATOM      5  O   UNL     1      -2.229  -2.606   1.362  1.00  0.00    -0.252 OA
BRANCH   4   6
ATOM      6  C   UNL     1      -0.568  -2.920  -0.316  1.00  0.00     0.150 C 
ATOM      7  C   UNL     1       0.692  -2.534  -1.083  1.00  0.00     0.127 C 
ATOM      8  C   UNL     1       0.940  -3.859  -1.837  1.00  0.00     0.186 C 
ATOM      9  O   UNL     1       0.442  -4.935  -1.020  1.00  0.00    -0.378 OA
ATOM     10  C   UNL     1      -0.389  -4.383   0.008  1.00  0.00     0.177 C 
BRANCH   7  11
ATOM     11  N   UNL     1       1.984  -2.081  -0.493  1.00  0.00    -0.332 N 
BRANCH  11  12
ATOM     12  C   UNL     1       2.498  -2.722   0.730  1.00  0.00     0.120 C 
BRANCH  12  13
ATOM     13  C   UNL     1       2.187  -1.966   2.024  1.00  0.00     0.018 C 
ATOM     14  C   UNL     1       1.384  -2.789   3.023  1.00  0.00     0.006 C 
ENDBRANCH  12  13
ENDBRANCH  11  12
BRANCH  11  15
ATOM     15  C   UNL     1       2.788  -1.328  -1.385  1.00  0.00     0.278 C 
ATOM     16  O   UNL     1       2.317  -0.914  -2.457  1.00  0.00    -0.268 OA
BRANCH  15  17
ATOM     17  C   UNL     1       4.285  -1.030  -1.116  1.00  0.00     0.362 C 
BRANCH  17  18
ATOM     18  N   UNL     1       4.483   0.419  -0.938  1.00  0.00    -0.334 N 
ATOM     19  H   UNL     1       3.976   0.701  -0.098  1.00  0.00     0.347 HD
ATOM     20  H   UNL     1       4.144   0.847  -1.799  1.00  0.00     0.347 HD
BRANCH  18  21
ATOM     21  C   UNL     1       5.882   0.877  -0.794  1.00  0.00     0.088 C 
ATOM     22  C   UNL     1       6.623   0.881  -2.141  1.00  0.00     0.078 C 
ATOM     23  C   UNL     1       5.829   2.342  -0.315  1.00  0.00     0.078 C 
ATOM     24  C   UNL     1       6.676   0.033   0.219  1.00  0.00     0.078 C 
ENDBRANCH  18  21
ENDBRANCH  17  18
ENDBRANCH  15  17
ENDBRANCH  11  15
ENDBRANCH   7  11
ENDBRANCH   4   6
ENDBRANCH   3   4
ENDBRANCH   2   3
ENDBRANCH   1   2
BRANCH   1  25
ATOM     25  O   UNL     1      -1.478   1.790   0.405  1.00  0.00    -0.374 OA
BRANCH  25  26
ATOM     26  C   UNL     1      -0.730   1.289  -0.703  1.00  0.00     0.202 C 
BRANCH  26  27
ATOM     27  C   UNL     1       0.701   1.809  -0.870  1.00  0.00     0.261 C 
BRANCH  27  28
ATOM     28  O   UNL     1       1.546   1.581   0.269  1.00  0.00    -0.460 OA
BRANCH  28  29
ATOM     29  C   UNL     1       1.811   2.691   1.008  1.00  0.00     0.338 C 
ATOM     30  O   UNL     1       1.337   3.801   0.825  1.00  0.00    -0.246 OA
BRANCH  29  31
ATOM     31  C   UNL     1       2.753   2.414   2.123  1.00  0.00     0.060 A 
ATOM     32  C   UNL     1       2.928   3.408   3.096  1.00  0.00     0.016 A 
ATOM     33  C   UNL     1       3.559   1.278   2.160  1.00  0.00     0.016 A 
ATOM     34  C   UNL     1       3.988   3.334   4.003  1.00  0.00     0.010 A 
ATOM     35  C   UNL     1       4.628   1.210   3.054  1.00  0.00     0.010 A 
ATOM     36  C   UNL     1       4.891   2.270   3.931  1.00  0.00    -0.014 A 
BRANCH  36  37
ATOM     37  C   UNL     1       6.171   2.296   4.679  1.00  0.00     0.031 A 
ATOM     38  C   UNL     1       7.292   3.201   4.227  1.00  0.00     0.074 A 
ATOM     39  C   UNL     1       6.370   1.417   5.676  1.00  0.00     0.049 A 
ATOM     40  N   UNL     1       8.466   3.394   4.773  1.00  0.00    -0.248 NA
ATOM     41  C   UNL     1       7.080   3.968   2.988  1.00  0.00     0.031 C 
ATOM     42  C   UNL     1       5.395   0.426   6.134  1.00  0.00     0.029 A 
ATOM     43  N   UNL     1       7.476   1.185   6.451  1.00  0.00    -0.354 N 
ATOM     44  C   UNL     1       9.126   4.309   3.956  1.00  0.00     0.074 A 
ATOM     45  C   UNL     1       8.234   4.611   2.858  1.00  0.00     0.031 C 
ATOM     46  C   UNL     1       5.966  -0.347   7.072  1.00  0.00     0.029 A 
ATOM     47  C   UNL     1       7.330   0.119   7.303  1.00  0.00     0.049 A 
ATOM     48  H   UNL     1       8.294   1.730   6.401  1.00  0.00     0.167 HD
ATOM     49  C   UNL     1      10.358   4.849   4.120  1.00  0.00     0.031 A 
ATOM     50  C   UNL     1       8.195  -0.415   8.184  1.00  0.00     0.031 A 
ATOM     51  C   UNL     1      11.231   4.527   5.221  1.00  0.00     0.049 A 
ATOM     52  C   UNL     1       9.521   0.254   8.402  1.00  0.00     0.074 A 
ATOM     53  C   UNL     1      12.431   5.124   5.572  1.00  0.00     0.029 A 
ATOM     54  N   UNL     1      11.013   3.507   6.132  1.00  0.00    -0.354 N 
ATOM     55  N   UNL     1      10.051   1.259   7.747  1.00  0.00    -0.248 NA
ATOM     56  C   UNL     1      10.339  -0.244   9.515  1.00  0.00     0.031 C 
ATOM     57  C   UNL     1      12.964   4.428   6.661  1.00  0.00     0.029 A 
ATOM     58  C   UNL     1      12.068   3.436   7.026  1.00  0.00     0.049 A 
ATOM     59  H   UNL     1      10.223   2.919   6.143  1.00  0.00     0.167 HD
ATOM     60  C   UNL     1      11.248   1.540   8.395  1.00  0.00     0.074 A 
ATOM     61  C   UNL     1      11.357   0.605   9.496  1.00  0.00     0.031 C 
ATOM     62  C   UNL     1      12.168   2.495   8.110  1.00  0.00     0.031 A 
BRANCH  49  63
ATOM     63  C   UNL     1      10.855   5.863   3.117  1.00  0.00    -0.014 A 
ATOM     64  C   UNL     1      10.310   7.159   3.067  1.00  0.00     0.010 A 
ATOM     65  C   UNL     1      11.985   5.572   2.329  1.00  0.00     0.010 A 
ATOM     66  C   UNL     1      10.883   8.140   2.250  1.00  0.00     0.020 A 
ATOM     67  C   UNL     1      12.575   6.556   1.527  1.00  0.00     0.020 A 
ATOM     68  C   UNL     1      12.018   7.836   1.493  1.00  0.00     0.054 A 
BRANCH  68  69
ATOM     69  S   UNL     1      12.799   9.157   0.523  1.00  0.00     0.124 S 
ATOM     70  O   UNL     1      11.848   9.331  -0.572  1.00  0.00    -0.237 OA
ATOM     71  O   UNL     1      12.863  10.261   1.478  1.00  0.00    -0.237 OA
ATOM     72  O   UNL     1      14.091   8.592   0.142  1.00  0.00    -0.744 OA
ENDBRANCH  68  69
ENDBRANCH  49  63
BRANCH  50  73
ATOM     73  C   UNL     1       7.792  -1.607   8.972  1.00  0.00    -0.014 A 
ATOM     74  C   UNL     1       7.425  -1.478  10.322  1.00  0.00     0.010 A 
ATOM     75  C   UNL     1       7.735  -2.872   8.359  1.00  0.00     0.010 A 
ATOM     76  C   UNL     1       7.034  -2.599  11.056  1.00  0.00     0.020 A 
ATOM     77  C   UNL     1       7.322  -3.992   9.085  1.00  0.00     0.020 A 
ATOM     78  C   UNL     1       6.987  -3.850  10.433  1.00  0.00     0.054 A 
BRANCH  78  79
ATOM     79  S   UNL     1       6.434  -5.284  11.395  1.00  0.00     0.124 S 
ATOM     80  O   UNL     1       7.603  -5.561  12.223  1.00  0.00    -0.237 OA
ATOM     81  O   UNL     1       5.266  -4.761  12.100  1.00  0.00    -0.237 OA
ATOM     82  O   UNL     1       6.138  -6.285  10.373  1.00  0.00    -0.744 OA
ENDBRANCH  78  79
ENDBRANCH  50  73
BRANCH  62  83
ATOM     83  C   UNL     1      13.360   2.594   9.023  1.00  0.00    -0.014 A 
ATOM     84  C   UNL     1      14.369   1.615   9.011  1.00  0.00     0.010 A 
ATOM     85  C   UNL     1      13.483   3.699   9.884  1.00  0.00     0.010 A 
ATOM     86  C   UNL     1      15.460   1.718   9.879  1.00  0.00     0.020 A 
ATOM     87  C   UNL     1      14.586   3.820  10.732  1.00  0.00     0.020 A 
ATOM     88  C   UNL     1      15.558   2.817  10.737  1.00  0.00     0.054 A 
BRANCH  88  89
ATOM     89  S   UNL     1      16.992   2.938  11.840  1.00  0.00     0.124 S 
ATOM     90  O   UNL     1      16.674   1.943  12.861  1.00  0.00    -0.237 OA
ATOM     91  O   UNL     1      18.106   2.598  10.958  1.00  0.00    -0.237 OA
ATOM     92  O   UNL     1      16.965   4.326  12.293  1.00  0.00    -0.744 OA
ENDBRANCH  88  89
ENDBRANCH  62  83
ENDBRANCH  36  37
ENDBRANCH  29  31
ENDBRANCH  28  29
ENDBRANCH  27  28
ENDBRANCH  26  27
ENDBRANCH  25  26
ENDBRANCH   1  25
TORSDOF 24
