REMARK SMILES Cc1ccc(NC(=O)c2ccccc2NC(=O)[C@H]2CCCC[C@H]2C(=O)OCCOCCOC(=O)c2ccc(-c3c4nc(c(-c5ccc(S(=O)(=O)[O-])cc5)c5ccc([nH]5)c(-c5ccc(S(=O)(=O)[O-])cc5)c5nc(c(-c6ccc(S(=O)(=O)[O-])cc6)c6ccc3[nH]6)C=C5)C=C4)cc2)cc1
REMARK SMILES IDX 28 1 27 2 26 3 24 4 25 5 23 6 18 7 19 8 20 9 22 10 21 11
REMARK SMILES IDX 16 12 15 13 17 15 14 16 9 17 10 18 11 19 13 20 12 21 7 22
REMARK SMILES IDX 6 23 8 25 5 26 1 27 2 28 3 29 96 30 4 31 95 32 29 33 30 34
REMARK SMILES IDX 31 35 32 36 33 37 34 38 35 39 36 40 94 41 37 42 93 43 38 44
REMARK SMILES IDX 39 45 40 46 87 47 41 48 92 49 86 50 88 51 42 52 91 53 85 54
REMARK SMILES IDX 84 55 43 57 73 58 54 59 72 60 55 61 58 62 71 63 89 64 56 65
REMARK SMILES IDX 57 66 70 68 90 69 59 70 44 71 45 72 53 73 46 74 52 75 47 76
REMARK SMILES IDX 48 77 49 78 50 79 51 80 74 81 75 82 83 83 76 84 82 85 77 86
REMARK SMILES IDX 78 87 79 88 80 89 81 90 60 91 61 92 69 93 62 94 68 95 63 96
REMARK SMILES IDX 64 97 65 98 66 99 67 100
REMARK H PARENT 15 14 6 24 88 56 58 67
REMARK Flexibility Score: inf
ROOT
ATOM      1  C   UNL     1      -0.216   1.151   4.667  1.00  0.00     0.202 C 
ENDROOT
BRANCH   1   2
ATOM      2  C   UNL     1       0.031   0.338   5.890  1.00  0.00     0.261 C 
BRANCH   2   3
ATOM      3  O   UNL     1      -0.250  -1.050   5.760  1.00  0.00    -0.463 OA
BRANCH   3   4
ATOM      4  C   UNL     1      -1.520  -1.449   5.533  1.00  0.00     0.309 C 
ATOM      5  O   UNL     1      -2.538  -0.940   5.949  1.00  0.00    -0.252 OA
BRANCH   4   6
ATOM      6  C   UNL     1      -1.473  -2.660   4.629  1.00  0.00     0.111 C 
ATOM      7  C   UNL     1      -0.470  -2.473   3.445  1.00  0.00     0.093 C 
ATOM      8  C   UNL     1      -0.386  -3.763   2.622  1.00  0.00     0.014 C 
ATOM      9  C   UNL     1      -0.163  -5.003   3.496  1.00  0.00     0.001 C 
ATOM     10  C   UNL     1      -1.301  -3.930   5.457  1.00  0.00     0.016 C 
ATOM     11  C   UNL     1      -1.239  -5.159   4.562  1.00  0.00     0.001 C 
BRANCH   7  12
ATOM     12  C   UNL     1       0.973  -2.057   3.801  1.00  0.00     0.228 C 
ATOM     13  N   UNL     1       1.655  -1.028   3.200  1.00  0.00    -0.325 N 
ATOM     14  H   UNL     1       2.482  -0.821   3.691  1.00  0.00     0.169 HD
ATOM     15  O   UNL     1       1.565  -2.671   4.699  1.00  0.00    -0.274 OA
BRANCH  13  16
ATOM     16  C   UNL     1       1.509  -0.172   2.069  1.00  0.00     0.054 A 
ATOM     17  C   UNL     1       2.384   0.938   1.861  1.00  0.00     0.063 A 
ATOM     18  C   UNL     1       2.000   1.927   0.919  1.00  0.00     0.016 A 
ATOM     19  C   UNL     1       0.856   1.806   0.139  1.00  0.00     0.001 A 
ATOM     20  C   UNL     1       0.442  -0.333   1.171  1.00  0.00     0.027 A 
ATOM     21  C   UNL     1       0.101   0.653   0.237  1.00  0.00     0.002 A 
BRANCH  17  22
ATOM     22  C   UNL     1       3.683   1.289   2.556  1.00  0.00     0.257 C 
ATOM     23  N   UNL     1       4.480   0.398   3.238  1.00  0.00    -0.322 N 
ATOM     24  H   UNL     1       5.042   0.812   3.932  1.00  0.00     0.170 HD
ATOM     25  O   UNL     1       4.074   2.460   2.490  1.00  0.00    -0.269 OA
BRANCH  23  26
ATOM     26  C   UNL     1       4.639  -0.988   3.128  1.00  0.00     0.041 A 
ATOM     27  C   UNL     1       3.938  -5.194   3.471  1.00  0.00     0.044 C 
ATOM     28  C   UNL     1       4.330  -3.758   3.307  1.00  0.00    -0.051 A 
ATOM     29  C   UNL     1       4.060  -3.094   2.105  1.00  0.00     0.005 A 
ATOM     30  C   UNL     1       4.900  -3.044   4.365  1.00  0.00     0.005 A 
ATOM     31  C   UNL     1       4.241  -1.714   2.007  1.00  0.00     0.026 A 
ATOM     32  C   UNL     1       5.088  -1.665   4.261  1.00  0.00     0.026 A 
ENDBRANCH  23  26
ENDBRANCH  17  22
ENDBRANCH  13  16
ENDBRANCH   7  12
ENDBRANCH   4   6
ENDBRANCH   3   4
ENDBRANCH   2   3
ENDBRANCH   1   2
BRANCH   1  33
ATOM     33  O   UNL     1      -1.614   1.260   4.441  1.00  0.00    -0.374 OA
BRANCH  33  34
ATOM     34  C   UNL     1      -1.955   1.925   3.238  1.00  0.00     0.202 C 
BRANCH  34  35
ATOM     35  C   UNL     1      -1.164   3.217   2.961  1.00  0.00     0.261 C 
BRANCH  35  36
ATOM     36  O   UNL     1      -1.557   4.280   3.859  1.00  0.00    -0.460 OA
BRANCH  36  37
ATOM     37  C   UNL     1      -0.650   4.640   4.820  1.00  0.00     0.338 C 
ATOM     38  O   UNL     1       0.294   5.383   4.614  1.00  0.00    -0.246 OA
BRANCH  37  39
ATOM     39  C   UNL     1      -1.009   4.032   6.138  1.00  0.00     0.060 A 
ATOM     40  C   UNL     1      -0.070   3.878   7.178  1.00  0.00     0.016 A 
ATOM     41  C   UNL     1      -2.238   3.391   6.226  1.00  0.00     0.016 A 
ATOM     42  C   UNL     1      -0.320   2.982   8.240  1.00  0.00     0.010 A 
ATOM     43  C   UNL     1      -2.405   2.410   7.174  1.00  0.00     0.010 A 
ATOM     44  C   UNL     1      -1.465   2.192   8.200  1.00  0.00    -0.014 A 
BRANCH  44  45
ATOM     45  C   UNL     1      -1.838   1.058   9.063  1.00  0.00     0.031 A 
ATOM     46  C   UNL     1      -3.148   1.199   9.751  1.00  0.00     0.074 A 
ATOM     47  C   UNL     1      -1.251  -0.170   8.973  1.00  0.00     0.049 A 
ATOM     48  N   UNL     1      -3.624   0.337  10.571  1.00  0.00    -0.248 NA
ATOM     49  C   UNL     1      -4.046   2.350   9.583  1.00  0.00     0.031 C 
ATOM     50  C   UNL     1      -1.830  -1.485   9.276  1.00  0.00     0.029 A 
ATOM     51  N   UNL     1       0.059  -0.508   8.614  1.00  0.00    -0.354 N 
ATOM     52  C   UNL     1      -4.958   0.611  10.740  1.00  0.00     0.074 A 
ATOM     53  C   UNL     1      -5.155   1.924  10.192  1.00  0.00     0.031 C 
ATOM     54  C   UNL     1      -0.847  -2.398   9.393  1.00  0.00     0.029 A 
ATOM     55  C   UNL     1       0.413  -1.685   9.288  1.00  0.00     0.049 A 
ATOM     56  H   UNL     1       0.634  -0.005   7.994  1.00  0.00     0.167 HD
ATOM     57  C   UNL     1      -5.752  -0.382  11.221  1.00  0.00     0.031 A 
ATOM     58  C   UNL     1       1.460  -1.673  10.155  1.00  0.00     0.031 A 
ATOM     59  C   UNL     1      -4.932  -1.510  11.679  1.00  0.00     0.049 A 
ATOM     60  C   UNL     1       0.917  -1.911  11.528  1.00  0.00     0.074 A 
ATOM     61  C   UNL     1      -4.674  -2.772  11.175  1.00  0.00     0.029 A 
ATOM     62  N   UNL     1      -3.943  -1.258  12.630  1.00  0.00    -0.354 N 
ATOM     63  N   UNL     1      -0.338  -1.703  11.821  1.00  0.00    -0.248 NA
ATOM     64  C   UNL     1       1.663  -2.494  12.634  1.00  0.00     0.031 C 
ATOM     65  C   UNL     1      -3.450  -3.225  11.759  1.00  0.00     0.029 A 
ATOM     66  C   UNL     1      -2.993  -2.261  12.647  1.00  0.00     0.049 A 
ATOM     67  H   UNL     1      -3.924  -0.466  13.214  1.00  0.00     0.167 HD
ATOM     68  C   UNL     1      -0.606  -2.187  13.056  1.00  0.00     0.074 A 
ATOM     69  C   UNL     1       0.688  -2.635  13.550  1.00  0.00     0.031 C 
ATOM     70  C   UNL     1      -1.864  -2.184  13.575  1.00  0.00     0.031 A 
BRANCH  57  71
ATOM     71  C   UNL     1      -7.259  -0.409  11.133  1.00  0.00    -0.014 A 
ATOM     72  C   UNL     1      -7.945  -1.538  11.622  1.00  0.00     0.010 A 
ATOM     73  C   UNL     1      -8.057   0.586  10.530  1.00  0.00     0.010 A 
ATOM     74  C   UNL     1      -9.339  -1.663  11.524  1.00  0.00     0.020 A 
ATOM     75  C   UNL     1      -9.454   0.486  10.445  1.00  0.00     0.020 A 
ATOM     76  C   UNL     1     -10.088  -0.644  10.941  1.00  0.00     0.054 A 
BRANCH  76  77
ATOM     77  S   UNL     1     -11.888  -0.816  10.841  1.00  0.00     0.124 S 
ATOM     78  O   UNL     1     -12.043  -1.991   9.988  1.00  0.00    -0.237 OA
ATOM     79  O   UNL     1     -12.265  -0.998  12.240  1.00  0.00    -0.237 OA
ATOM     80  O   UNL     1     -12.327   0.443  10.242  1.00  0.00    -0.744 OA
ENDBRANCH  76  77
ENDBRANCH  57  71
BRANCH  58  81
ATOM     81  C   UNL     1       2.551  -0.754   9.689  1.00  0.00    -0.014 A 
ATOM     82  C   UNL     1       3.231  -1.181   8.523  1.00  0.00     0.010 A 
ATOM     83  C   UNL     1       2.521   0.628   9.968  1.00  0.00     0.010 A 
ATOM     84  C   UNL     1       3.659  -0.256   7.567  1.00  0.00     0.020 A 
ATOM     85  C   UNL     1       2.989   1.559   9.016  1.00  0.00     0.020 A 
ATOM     86  C   UNL     1       3.487   1.107   7.791  1.00  0.00     0.054 A 
BRANCH  86  87
ATOM     87  S   UNL     1       3.740   2.232   6.378  1.00  0.00     0.124 S 
ATOM     88  O   UNL     1       5.101   1.901   5.956  1.00  0.00    -0.237 OA
ATOM     89  O   UNL     1       2.707   1.792   5.442  1.00  0.00    -0.237 OA
ATOM     90  O   UNL     1       3.540   3.555   6.957  1.00  0.00    -0.744 OA
ENDBRANCH  86  87
ENDBRANCH  58  81
BRANCH  70  91
ATOM     91  C   UNL     1      -2.118  -2.132  15.051  1.00  0.00    -0.014 A 
ATOM     92  C   UNL     1      -1.123  -1.794  15.981  1.00  0.00     0.010 A 
ATOM     93  C   UNL     1      -3.440  -2.257  15.530  1.00  0.00     0.010 A 
ATOM     94  C   UNL     1      -1.408  -1.697  17.340  1.00  0.00     0.020 A 
ATOM     95  C   UNL     1      -3.750  -2.085  16.877  1.00  0.00     0.020 A 
ATOM     96  C   UNL     1      -2.720  -1.853  17.779  1.00  0.00     0.054 A 
BRANCH  96  97
ATOM     97  S   UNL     1      -3.061  -1.728  19.543  1.00  0.00     0.124 S 
ATOM     98  O   UNL     1      -2.634  -3.042  20.017  1.00  0.00    -0.237 OA
ATOM     99  O   UNL     1      -2.217  -0.608  19.956  1.00  0.00    -0.237 OA
ATOM    100  O   UNL     1      -4.497  -1.474  19.601  1.00  0.00    -0.744 OA
ENDBRANCH  96  97
ENDBRANCH  70  91
ENDBRANCH  44  45
ENDBRANCH  37  39
ENDBRANCH  36  37
ENDBRANCH  35  36
ENDBRANCH  34  35
ENDBRANCH  33  34
ENDBRANCH   1  33
TORSDOF 21
