REMARK SMILES Cc1nsc(NC(=O)[C@@H]2C[NH2+]C[C@H]2C)c1C(=O)OCCOCCOC(=O)c1ccc(-c2c3nc(c(-c4ccc(S(=O)(=O)[O-])cc4)c4ccc([nH]4)c(-c4ccc(S(=O)(=O)[O-])cc4)c4nc(c(-c5ccc(S(=O)(=O)[O-])cc5)c5ccc2[nH]5)C=C4)C=C3)cc1
REMARK SMILES IDX 22 1 21 2 20 3 19 4 18 5 16 6 17 7 15 8 1 9 2 10 3 11 4 12
REMARK SMILES IDX 5 13 6 14 7 15 8 17 9 18 10 19 13 20 11 21 12 22 14 23 23 26
REMARK SMILES IDX 24 27 25 28 26 29 27 30 28 31 86 32 29 33 85 34 30 35 31 36
REMARK SMILES IDX 32 37 79 38 33 39 84 40 78 41 80 42 34 43 83 44 77 45 76 46
REMARK SMILES IDX 35 48 65 49 46 50 64 51 47 52 50 53 63 54 81 55 48 56 49 57
REMARK SMILES IDX 62 59 82 60 51 61 36 62 37 63 45 64 38 65 44 66 39 67 40 68
REMARK SMILES IDX 41 69 42 70 43 71 66 72 67 73 75 74 68 75 74 76 69 77 70 78
REMARK SMILES IDX 71 79 72 80 73 81 52 82 53 83 61 84 54 85 60 86 55 87 56 88
REMARK SMILES IDX 57 89 58 90 59 91
REMARK H PARENT 6 16 11 24 11 25 80 47 50 58
REMARK Flexibility Score: inf
ROOT
ATOM      1  C   UNL     1      -3.958  -1.148  -0.041  1.00  0.00     0.202 C 
ENDROOT
BRANCH   1   2
ATOM      2  O   UNL     1      -4.579  -0.179   0.796  1.00  0.00    -0.374 OA
BRANCH   2   3
ATOM      3  C   UNL     1      -3.931   1.063   1.072  1.00  0.00     0.202 C 
BRANCH   3   4
ATOM      4  C   UNL     1      -2.739   1.051   2.031  1.00  0.00     0.261 C 
BRANCH   4   5
ATOM      5  O   UNL     1      -1.603   0.373   1.469  1.00  0.00    -0.460 OA
BRANCH   5   6
ATOM      6  C   UNL     1      -1.353  -0.870   1.970  1.00  0.00     0.343 C 
ATOM      7  O   UNL     1      -1.937  -1.365   2.923  1.00  0.00    -0.246 OA
BRANCH   6   8
ATOM      8  C   UNL     1      -0.463  -1.639   1.115  1.00  0.00     0.117 A 
ATOM      9  C   UNL     1       1.143   0.246   0.219  1.00  0.00     0.069 C 
ATOM     10  C   UNL     1       0.641  -1.153   0.322  1.00  0.00     0.068 A 
ATOM     11  N   UNL     1       1.263  -2.068  -0.419  1.00  0.00    -0.195 NA
ATOM     12  S   UNL     1       0.474  -3.499  -0.274  1.00  0.00    -0.017 S 
ATOM     13  C   UNL     1      -0.660  -2.998   0.876  1.00  0.00     0.130 A 
BRANCH  13  14
ATOM     14  N   UNL     1      -1.727  -3.783   1.288  1.00  0.00    -0.315 N 
ATOM     15  C   UNL     1      -2.020  -5.103   1.070  1.00  0.00     0.234 C 
ATOM     16  H   UNL     1      -2.392  -3.306   1.834  1.00  0.00     0.170 HD
ATOM     17  O   UNL     1      -3.177  -5.371   0.730  1.00  0.00    -0.274 OA
BRANCH  15  18
ATOM     18  C   UNL     1      -1.062  -6.192   1.573  1.00  0.00     0.142 C 
ATOM     19  C   UNL     1       0.139  -6.469   0.680  1.00  0.00     0.274 C 
ATOM     20  C   UNL     1      -1.751  -7.583   1.686  1.00  0.00     0.059 C 
ATOM     21  N   UNL     1       0.346  -7.921   0.682  1.00  0.00    -0.345 N 
ATOM     22  C   UNL     1      -1.021  -8.441   0.656  1.00  0.00     0.264 C 
ATOM     23  C   UNL     1      -1.605  -8.167   3.095  1.00  0.00     0.015 C 
ATOM     24  H   UNL     1       0.838  -8.221   1.523  1.00  0.00     0.346 HD
ATOM     25  H   UNL     1       0.919  -8.249  -0.096  1.00  0.00     0.346 HD
ENDBRANCH  15  18
ENDBRANCH  13  14
ENDBRANCH   6   8
ENDBRANCH   5   6
ENDBRANCH   4   5
ENDBRANCH   3   4
ENDBRANCH   2   3
ENDBRANCH   1   2
BRANCH   1  26
ATOM     26  C   UNL     1      -3.805  -0.872  -1.528  1.00  0.00     0.261 C 
BRANCH  26  27
ATOM     27  O   UNL     1      -3.026   0.287  -1.762  1.00  0.00    -0.460 OA
BRANCH  27  28
ATOM     28  C   UNL     1      -3.767   1.378  -2.076  1.00  0.00     0.338 C 
ATOM     29  O   UNL     1      -4.957   1.532  -1.901  1.00  0.00    -0.246 OA
BRANCH  28  30
ATOM     30  C   UNL     1      -2.910   2.313  -2.809  1.00  0.00     0.060 A 
ATOM     31  C   UNL     1      -3.563   3.414  -3.363  1.00  0.00     0.016 A 
ATOM     32  C   UNL     1      -1.636   1.900  -3.228  1.00  0.00     0.016 A 
ATOM     33  C   UNL     1      -3.066   3.922  -4.537  1.00  0.00     0.010 A 
ATOM     34  C   UNL     1      -1.148   2.402  -4.405  1.00  0.00     0.010 A 
ATOM     35  C   UNL     1      -1.931   3.323  -5.092  1.00  0.00    -0.014 A 
BRANCH  35  36
ATOM     36  C   UNL     1      -1.510   3.759  -6.399  1.00  0.00     0.031 A 
ATOM     37  C   UNL     1      -0.864   5.083  -6.341  1.00  0.00     0.074 A 
ATOM     38  C   UNL     1      -1.621   2.985  -7.494  1.00  0.00     0.049 A 
ATOM     39  N   UNL     1      -1.378   6.215  -6.687  1.00  0.00    -0.248 NA
ATOM     40  C   UNL     1       0.389   5.195  -5.573  1.00  0.00     0.031 C 
ATOM     41  C   UNL     1      -1.982   1.569  -7.594  1.00  0.00     0.029 A 
ATOM     42  N   UNL     1      -1.320   3.304  -8.775  1.00  0.00    -0.354 N 
ATOM     43  C   UNL     1      -0.397   7.154  -6.407  1.00  0.00     0.074 A 
ATOM     44  C   UNL     1       0.528   6.518  -5.505  1.00  0.00     0.031 C 
ATOM     45  C   UNL     1      -1.618   1.106  -8.816  1.00  0.00     0.029 A 
ATOM     46  C   UNL     1      -1.133   2.218  -9.618  1.00  0.00     0.049 A 
ATOM     47  H   UNL     1      -1.241   4.236  -9.085  1.00  0.00     0.167 HD
ATOM     48  C   UNL     1      -0.245   8.262  -7.180  1.00  0.00     0.031 A 
ATOM     49  C   UNL     1      -0.534   2.251 -10.839  1.00  0.00     0.031 A 
ATOM     50  C   UNL     1      -1.399   8.493  -8.011  1.00  0.00     0.049 A 
ATOM     51  C   UNL     1      -0.563   3.671 -11.291  1.00  0.00     0.074 A 
ATOM     52  C   UNL     1      -2.739   8.713  -7.757  1.00  0.00     0.029 A 
ATOM     53  N   UNL     1      -1.322   8.074  -9.320  1.00  0.00    -0.354 N 
ATOM     54  N   UNL     1      -1.671   4.310 -11.557  1.00  0.00    -0.248 NA
ATOM     55  C   UNL     1       0.571   4.516 -10.940  1.00  0.00     0.031 C 
ATOM     56  C   UNL     1      -3.429   7.961  -8.753  1.00  0.00     0.029 A 
ATOM     57  C   UNL     1      -2.481   7.398  -9.610  1.00  0.00     0.049 A 
ATOM     58  H   UNL     1      -0.571   8.231  -9.937  1.00  0.00     0.167 HD
ATOM     59  C   UNL     1      -1.503   5.571 -10.997  1.00  0.00     0.074 A 
ATOM     60  C   UNL     1      -0.075   5.660 -10.687  1.00  0.00     0.031 C 
ATOM     61  C   UNL     1      -2.570   6.306 -10.560  1.00  0.00     0.031 A 
BRANCH  48  62
ATOM     62  C   UNL     1       1.107   8.851  -7.486  1.00  0.00    -0.014 A 
ATOM     63  C   UNL     1       1.175  10.040  -8.234  1.00  0.00     0.010 A 
ATOM     64  C   UNL     1       2.315   8.145  -7.293  1.00  0.00     0.010 A 
ATOM     65  C   UNL     1       2.382  10.468  -8.802  1.00  0.00     0.020 A 
ATOM     66  C   UNL     1       3.529   8.585  -7.813  1.00  0.00     0.020 A 
ATOM     67  C   UNL     1       3.549   9.731  -8.592  1.00  0.00     0.054 A 
BRANCH  67  68
ATOM     68  S   UNL     1       5.084  10.246  -9.393  1.00  0.00     0.124 S 
ATOM     69  O   UNL     1       4.765  10.052 -10.804  1.00  0.00    -0.237 OA
ATOM     70  O   UNL     1       5.207  11.633  -8.953  1.00  0.00    -0.237 OA
ATOM     71  O   UNL     1       6.081   9.332  -8.842  1.00  0.00    -0.744 OA
ENDBRANCH  67  68
ENDBRANCH  48  62
BRANCH  49  72
ATOM     72  C   UNL     1       0.417   1.246 -11.396  1.00  0.00    -0.014 A 
ATOM     73  C   UNL     1       0.844   1.296 -12.738  1.00  0.00     0.010 A 
ATOM     74  C   UNL     1       1.126   0.391 -10.525  1.00  0.00     0.010 A 
ATOM     75  C   UNL     1       1.967   0.562 -13.174  1.00  0.00     0.020 A 
ATOM     76  C   UNL     1       2.240  -0.344 -10.952  1.00  0.00     0.020 A 
ATOM     77  C   UNL     1       2.670  -0.239 -12.270  1.00  0.00     0.054 A 
BRANCH  77  78
ATOM     78  S   UNL     1       4.217  -1.047 -12.787  1.00  0.00     0.124 S 
ATOM     79  O   UNL     1       3.741  -2.076 -13.706  1.00  0.00    -0.237 OA
ATOM     80  O   UNL     1       4.962   0.051 -13.397  1.00  0.00    -0.237 OA
ATOM     81  O   UNL     1       4.779  -1.548 -11.533  1.00  0.00    -0.744 OA
ENDBRANCH  77  78
ENDBRANCH  49  72
BRANCH  61  82
ATOM     82  C   UNL     1      -3.968   5.846 -10.916  1.00  0.00    -0.014 A 
ATOM     83  C   UNL     1      -4.530   4.618 -10.509  1.00  0.00     0.010 A 
ATOM     84  C   UNL     1      -4.803   6.782 -11.550  1.00  0.00     0.010 A 
ATOM     85  C   UNL     1      -5.885   4.332 -10.755  1.00  0.00     0.020 A 
ATOM     86  C   UNL     1      -6.153   6.512 -11.781  1.00  0.00     0.020 A 
ATOM     87  C   UNL     1      -6.687   5.284 -11.393  1.00  0.00     0.054 A 
BRANCH  87  88
ATOM     88  S   UNL     1      -8.445   4.933 -11.685  1.00  0.00     0.124 S 
ATOM     89  O   UNL     1      -8.394   3.861 -12.675  1.00  0.00    -0.237 OA
ATOM     90  O   UNL     1      -8.924   4.545 -10.360  1.00  0.00    -0.237 OA
ATOM     91  O   UNL     1      -8.977   6.203 -12.178  1.00  0.00    -0.744 OA
ENDBRANCH  87  88
ENDBRANCH  61  82
ENDBRANCH  35  36
ENDBRANCH  28  30
ENDBRANCH  27  28
ENDBRANCH  26  27
ENDBRANCH   1  26
TORSDOF 19
