REMARK SMILES Cc1cc(C(=O)OCCOCCOC(=O)c2ccc(-c3c4nc(c(-c5ccc(S(=O)(=O)[O-])cc5)c5ccc([nH]5)c(-c5ccc(S(=O)(=O)[O-])cc5)c5nc(c(-c6ccc(S(=O)(=O)[O-])cc6)c6ccc3[nH]6)C=C5)C=C4)cc2)c(O)c(S(=O)(=O)N2CCCc3cc(F)cc(F)c32)c1
REMARK SMILES IDX 11 1 10 2 9 3 8 4 7 5 5 6 6 7 4 8 1 9 2 10 3 11 94 12 78 13
REMARK SMILES IDX 76 14 79 15 80 16 81 17 82 18 83 19 93 20 84 21 86 22 91 23
REMARK SMILES IDX 85 24 87 25 90 26 92 27 88 28 89 29 77 30 12 32 13 33 14 34
REMARK SMILES IDX 15 35 16 36 17 37 75 38 18 39 74 40 19 41 20 42 21 43 68 44
REMARK SMILES IDX 22 45 73 46 67 47 69 48 23 49 72 50 66 51 65 52 24 54 54 55
REMARK SMILES IDX 35 56 53 57 36 58 39 59 52 60 70 61 37 62 38 63 51 65 71 66
REMARK SMILES IDX 40 67 25 68 26 69 34 70 27 71 33 72 28 73 29 74 30 75 31 76
REMARK SMILES IDX 32 77 55 78 56 79 64 80 57 81 63 82 58 83 59 84 60 85 61 86
REMARK SMILES IDX 62 87 41 88 42 89 50 90 43 91 49 92 44 93 45 94 46 95 47 96
REMARK SMILES IDX 48 97
REMARK H PARENT 77 31 69 53 39 64
REMARK Flexibility Score: inf
ROOT
ATOM      1  C   UNL     1      -0.941   3.827   1.814  1.00  0.00     0.202 C 
ENDROOT
BRANCH   1   2
ATOM      2  O   UNL     1      -1.479   4.942   1.104  1.00  0.00    -0.374 OA
BRANCH   2   3
ATOM      3  C   UNL     1      -2.695   4.737   0.385  1.00  0.00     0.202 C 
BRANCH   3   4
ATOM      4  C   UNL     1      -2.593   3.957  -0.927  1.00  0.00     0.261 C 
BRANCH   4   5
ATOM      5  O   UNL     1      -2.089   2.633  -0.721  1.00  0.00    -0.460 OA
BRANCH   5   6
ATOM      6  C   UNL     1      -0.889   2.346  -1.280  1.00  0.00     0.342 C 
ATOM      7  O   UNL     1      -0.163   3.119  -1.885  1.00  0.00    -0.246 OA
BRANCH   6   8
ATOM      8  C   UNL     1      -0.466   0.960  -0.957  1.00  0.00     0.103 A 
ATOM      9  C   UNL     1       2.841  -0.743  -0.194  1.00  0.00     0.044 C 
ATOM     10  C   UNL     1       1.381  -0.576  -0.510  1.00  0.00    -0.049 A 
ATOM     11  C   UNL     1       0.895   0.725  -0.738  1.00  0.00     0.023 A 
ATOM     12  C   UNL     1       0.500  -1.671  -0.569  1.00  0.00     0.029 A 
ATOM     13  C   UNL     1      -0.860  -1.431  -0.766  1.00  0.00     0.130 A 
ATOM     14  C   UNL     1      -1.350  -0.113  -0.905  1.00  0.00     0.150 A 
BRANCH  13  15
ATOM     15  S   UNL     1      -2.103  -2.665  -0.912  1.00  0.00     0.268 S 
ATOM     16  O   UNL     1      -2.978  -2.366   0.211  1.00  0.00    -0.201 OA
ATOM     17  O   UNL     1      -2.596  -2.511  -2.265  1.00  0.00    -0.201 OA
BRANCH  15  18
ATOM     18  N   UNL     1      -1.577  -4.329  -0.737  1.00  0.00    -0.263 N 
ATOM     19  C   UNL     1      -0.858  -4.669   0.529  1.00  0.00     0.136 C 
ATOM     20  C   UNL     1      -2.815  -5.117  -0.960  1.00  0.00     0.091 A 
ATOM     21  C   UNL     1      -1.627  -5.617   1.451  1.00  0.00     0.028 C 
ATOM     22  C   UNL     1      -3.678  -5.260   0.146  1.00  0.00    -0.018 A 
ATOM     23  C   UNL     1      -3.339  -5.233  -2.258  1.00  0.00     0.150 A 
ATOM     24  C   UNL     1      -3.099  -5.231   1.533  1.00  0.00     0.040 C 
ATOM     25  C   UNL     1      -5.060  -5.287  -0.066  1.00  0.00     0.045 A 
ATOM     26  C   UNL     1      -4.712  -5.293  -2.467  1.00  0.00     0.080 A 
ATOM     27  F   UNL     1      -2.521  -5.160  -3.319  1.00  0.00    -0.205 F 
ATOM     28  C   UNL     1      -5.559  -5.264  -1.367  1.00  0.00     0.126 A 
ATOM     29  F   UNL     1      -6.882  -5.192  -1.556  1.00  0.00    -0.207 F 
ENDBRANCH  15  18
ENDBRANCH  13  15
BRANCH  14  30
ATOM     30  O   UNL     1      -2.692   0.156  -1.021  1.00  0.00    -0.506 OA
ATOM     31  H   UNL     1      -2.986   1.040  -1.112  1.00  0.00     0.293 HD
ENDBRANCH  14  30
ENDBRANCH   6   8
ENDBRANCH   5   6
ENDBRANCH   4   5
ENDBRANCH   3   4
ENDBRANCH   2   3
ENDBRANCH   1   2
BRANCH   1  32
ATOM     32  C   UNL     1      -1.629   3.438   3.129  1.00  0.00     0.261 C 
BRANCH  32  33
ATOM     33  O   UNL     1      -2.987   3.000   2.953  1.00  0.00    -0.460 OA
BRANCH  33  34
ATOM     34  C   UNL     1      -3.918   3.836   3.477  1.00  0.00     0.338 C 
ATOM     35  O   UNL     1      -3.717   4.868   4.092  1.00  0.00    -0.246 OA
BRANCH  34  36
ATOM     36  C   UNL     1      -5.275   3.405   3.091  1.00  0.00     0.060 A 
ATOM     37  C   UNL     1      -6.094   4.339   2.445  1.00  0.00     0.016 A 
ATOM     38  C   UNL     1      -5.777   2.154   3.457  1.00  0.00     0.016 A 
ATOM     39  C   UNL     1      -7.435   4.043   2.203  1.00  0.00     0.010 A 
ATOM     40  C   UNL     1      -7.125   1.862   3.220  1.00  0.00     0.010 A 
ATOM     41  C   UNL     1      -7.968   2.817   2.622  1.00  0.00    -0.014 A 
BRANCH  41  42
ATOM     42  C   UNL     1      -9.431   2.583   2.539  1.00  0.00     0.031 A 
ATOM     43  C   UNL     1     -10.280   2.762   3.769  1.00  0.00     0.074 A 
ATOM     44  C   UNL     1     -10.002   2.232   1.373  1.00  0.00     0.049 A 
ATOM     45  N   UNL     1     -11.569   2.596   3.917  1.00  0.00    -0.248 NA
ATOM     46  C   UNL     1      -9.582   3.185   4.995  1.00  0.00     0.031 C 
ATOM     47  C   UNL     1      -9.296   2.065   0.103  1.00  0.00     0.029 A 
ATOM     48  N   UNL     1     -11.311   1.953   1.070  1.00  0.00    -0.354 N 
ATOM     49  C   UNL     1     -11.838   2.882   5.251  1.00  0.00     0.074 A 
ATOM     50  C   UNL     1     -10.573   3.210   5.875  1.00  0.00     0.031 C 
ATOM     51  C   UNL     1     -10.181   1.710  -0.844  1.00  0.00     0.029 A 
ATOM     52  C   UNL     1     -11.508   1.594  -0.242  1.00  0.00     0.049 A 
ATOM     53  H   UNL     1     -12.040   2.004   1.730  1.00  0.00     0.167 HD
ATOM     54  C   UNL     1     -13.028   2.876   5.898  1.00  0.00     0.031 A 
ATOM     55  C   UNL     1     -12.627   1.202  -0.882  1.00  0.00     0.031 A 
ATOM     56  C   UNL     1     -14.283   2.536   5.280  1.00  0.00     0.049 A 
ATOM     57  C   UNL     1     -13.927   1.135  -0.126  1.00  0.00     0.074 A 
ATOM     58  C   UNL     1     -15.546   2.523   5.847  1.00  0.00     0.029 A 
ATOM     59  N   UNL     1     -14.434   2.139   3.960  1.00  0.00    -0.354 N 
ATOM     60  N   UNL     1     -14.169   1.438   1.127  1.00  0.00    -0.248 NA
ATOM     61  C   UNL     1     -15.107   0.680  -0.875  1.00  0.00     0.031 C 
ATOM     62  C   UNL     1     -16.453   2.067   4.883  1.00  0.00     0.029 A 
ATOM     63  C   UNL     1     -15.763   1.849   3.701  1.00  0.00     0.049 A 
ATOM     64  H   UNL     1     -13.703   2.073   3.303  1.00  0.00     0.167 HD
ATOM     65  C   UNL     1     -15.533   1.233   1.310  1.00  0.00     0.074 A 
ATOM     66  C   UNL     1     -16.064   0.790   0.037  1.00  0.00     0.031 C 
ATOM     67  C   UNL     1     -16.278   1.402   2.431  1.00  0.00     0.031 A 
BRANCH  54  68
ATOM     68  C   UNL     1     -13.019   3.208   7.367  1.00  0.00    -0.014 A 
ATOM     69  C   UNL     1     -12.793   4.520   7.818  1.00  0.00     0.010 A 
ATOM     70  C   UNL     1     -13.259   2.191   8.309  1.00  0.00     0.010 A 
ATOM     71  C   UNL     1     -12.759   4.801   9.187  1.00  0.00     0.020 A 
ATOM     72  C   UNL     1     -13.251   2.473   9.678  1.00  0.00     0.020 A 
ATOM     73  C   UNL     1     -12.980   3.773  10.109  1.00  0.00     0.054 A 
BRANCH  73  74
ATOM     74  S   UNL     1     -12.929   4.161  11.880  1.00  0.00     0.124 S 
ATOM     75  O   UNL     1     -11.494   4.311  12.114  1.00  0.00    -0.237 OA
ATOM     76  O   UNL     1     -13.710   5.393  11.964  1.00  0.00    -0.237 OA
ATOM     77  O   UNL     1     -13.542   2.994  12.509  1.00  0.00    -0.744 OA
ENDBRANCH  73  74
ENDBRANCH  54  68
BRANCH  55  78
ATOM     78  C   UNL     1     -12.562   0.835  -2.322  1.00  0.00    -0.014 A 
ATOM     79  C   UNL     1     -13.131   1.671  -3.298  1.00  0.00     0.010 A 
ATOM     80  C   UNL     1     -11.914  -0.347  -2.726  1.00  0.00     0.010 A 
ATOM     81  C   UNL     1     -13.059   1.328  -4.652  1.00  0.00     0.020 A 
ATOM     82  C   UNL     1     -11.819  -0.681  -4.080  1.00  0.00     0.020 A 
ATOM     83  C   UNL     1     -12.400   0.156  -5.034  1.00  0.00     0.054 A 
BRANCH  83  84
ATOM     84  S   UNL     1     -12.266  -0.235  -6.801  1.00  0.00     0.124 S 
ATOM     85  O   UNL     1     -13.621  -0.672  -7.119  1.00  0.00    -0.237 OA
ATOM     86  O   UNL     1     -11.861   1.045  -7.378  1.00  0.00    -0.237 OA
ATOM     87  O   UNL     1     -11.244  -1.279  -6.843  1.00  0.00    -0.744 OA
ENDBRANCH  83  84
ENDBRANCH  55  78
BRANCH  67  88
ATOM     88  C   UNL     1     -17.757   1.136   2.328  1.00  0.00    -0.014 A 
ATOM     89  C   UNL     1     -18.257  -0.175   2.242  1.00  0.00     0.010 A 
ATOM     90  C   UNL     1     -18.661   2.213   2.374  1.00  0.00     0.010 A 
ATOM     91  C   UNL     1     -19.635  -0.403   2.175  1.00  0.00     0.020 A 
ATOM     92  C   UNL     1     -20.040   1.988   2.333  1.00  0.00     0.020 A 
ATOM     93  C   UNL     1     -20.518   0.681   2.220  1.00  0.00     0.054 A 
BRANCH  93  94
ATOM     94  S   UNL     1     -22.303   0.359   2.177  1.00  0.00     0.124 S 
ATOM     95  O   UNL     1     -22.520   0.034   0.770  1.00  0.00    -0.237 OA
ATOM     96  O   UNL     1     -22.452  -0.756   3.110  1.00  0.00    -0.237 OA
ATOM     97  O   UNL     1     -22.893   1.619   2.624  1.00  0.00    -0.744 OA
ENDBRANCH  93  94
ENDBRANCH  67  88
ENDBRANCH  41  42
ENDBRANCH  34  36
ENDBRANCH  33  34
ENDBRANCH  32  33
ENDBRANCH   1  32
TORSDOF 20
