REMARK SMILES Cc1ccc(NC(=O)C[N@H+]2CCC[C@@H](C(=O)OCCOCCOC(=O)c3ccc(-c4c5nc(c(-c6ccc(S(=O)(=O)[O-])cc6)c6ccc([nH]6)c(-c6ccc(S(=O)(=O)[O-])cc6)c6nc(c(-c7ccc(S(=O)(=O)[O-])cc7)c7ccc4[nH]7)C=C6)C=C5)cc3)C2)cc1Cl
REMARK SMILES IDX 20 1 19 2 18 3 17 4 15 5 16 6 14 7 10 8 11 9 86 10 12 12
REMARK SMILES IDX 13 13 9 14 7 15 6 16 8 18 5 19 1 20 2 21 3 22 88 23 4 24
REMARK SMILES IDX 87 25 89 26 21 27 22 28 23 29 24 30 25 31 26 32 27 33 85 34
REMARK SMILES IDX 28 35 84 36 29 37 30 38 31 39 78 40 32 41 83 42 77 43 79 44
REMARK SMILES IDX 33 45 82 46 76 47 75 48 34 50 64 51 45 52 63 53 46 54 49 55
REMARK SMILES IDX 62 56 80 57 47 58 48 59 61 61 81 62 50 63 35 64 36 65 44 66
REMARK SMILES IDX 37 67 43 68 38 69 39 70 40 71 41 72 42 73 65 74 66 75 74 76
REMARK SMILES IDX 67 77 73 78 68 79 69 80 70 81 71 82 72 83 51 84 52 85 60 86
REMARK SMILES IDX 53 87 59 88 54 89 55 90 56 91 57 92 58 93
REMARK H PARENT 10 11 6 17 79 49 49 60
REMARK Flexibility Score: inf
ROOT
ATOM      1  O   UNL     1      -2.628   1.864  -4.248  1.00  0.00    -0.374 OA
ENDROOT
BRANCH   1   2
ATOM      2  C   UNL     1      -1.692   2.699  -3.582  1.00  0.00     0.202 C 
BRANCH   2   3
ATOM      3  C   UNL     1      -0.732   2.112  -2.536  1.00  0.00     0.261 C 
BRANCH   3   4
ATOM      4  O   UNL     1      -0.039   0.907  -2.893  1.00  0.00    -0.463 OA
BRANCH   4   5
ATOM      5  C   UNL     1      -0.700  -0.214  -2.502  1.00  0.00     0.314 C 
ATOM      6  O   UNL     1      -1.859  -0.212  -2.094  1.00  0.00    -0.252 OA
BRANCH   5   7
ATOM      7  C   UNL     1       0.125  -1.484  -2.661  1.00  0.00     0.154 C 
ATOM      8  N   UNL     1       0.020  -3.675  -1.268  1.00  0.00    -0.326 N 
ATOM      9  C   UNL     1      -0.656  -4.315  -2.397  1.00  0.00     0.262 C 
ATOM     10  C   UNL     1      -0.066  -2.218  -1.330  1.00  0.00     0.278 C 
ATOM     11  H   UNL     1       1.003  -3.935  -1.350  1.00  0.00     0.348 HD
ATOM     12  C   UNL     1      -0.088  -3.776  -3.713  1.00  0.00     0.062 C 
ATOM     13  C   UNL     1      -0.378  -2.287  -3.859  1.00  0.00     0.027 C 
BRANCH   8  14
ATOM     14  C   UNL     1      -0.463  -4.180   0.056  1.00  0.00     0.363 C 
BRANCH  14  15
ATOM     15  C   UNL     1      -1.932  -3.858   0.421  1.00  0.00     0.279 C 
ATOM     16  N   UNL     1      -2.359  -2.682   0.991  1.00  0.00    -0.321 N 
ATOM     17  H   UNL     1      -3.323  -2.674   1.194  1.00  0.00     0.170 HD
ATOM     18  O   UNL     1      -2.819  -4.677   0.136  1.00  0.00    -0.268 OA
BRANCH  16  19
ATOM     19  C   UNL     1      -1.703  -1.485   1.346  1.00  0.00     0.042 A 
ATOM     20  C   UNL     1       0.334   2.326   1.241  1.00  0.00     0.046 C 
ATOM     21  C   UNL     1      -0.388   1.019   1.420  1.00  0.00    -0.032 A 
ATOM     22  C   UNL     1      -1.762   0.943   1.163  1.00  0.00     0.007 A 
ATOM     23  C   UNL     1       0.283  -0.161   1.765  1.00  0.00     0.046 A 
ATOM     24  C   UNL     1      -2.415  -0.296   1.139  1.00  0.00     0.026 A 
ATOM     25  C   UNL     1      -0.378  -1.399   1.757  1.00  0.00     0.047 A 
ATOM     26  Cl  UNL     1       1.974  -0.165   2.117  1.00  0.00    -0.084 Cl
ENDBRANCH  16  19
ENDBRANCH  14  15
ENDBRANCH   8  14
ENDBRANCH   5   7
ENDBRANCH   4   5
ENDBRANCH   3   4
ENDBRANCH   2   3
ENDBRANCH   1   2
BRANCH   1  27
ATOM     27  C   UNL     1      -2.162   0.857  -5.138  1.00  0.00     0.202 C 
BRANCH  27  28
ATOM     28  C   UNL     1      -1.291   1.240  -6.338  1.00  0.00     0.261 C 
BRANCH  28  29
ATOM     29  O   UNL     1      -0.076   1.915  -5.974  1.00  0.00    -0.460 OA
BRANCH  29  30
ATOM     30  C   UNL     1      -0.002   3.191  -6.420  1.00  0.00     0.338 C 
ATOM     31  O   UNL     1      -0.833   3.782  -7.101  1.00  0.00    -0.246 OA
BRANCH  30  32
ATOM     32  C   UNL     1       1.149   3.891  -5.830  1.00  0.00     0.060 A 
ATOM     33  C   UNL     1       0.898   5.099  -5.165  1.00  0.00     0.016 A 
ATOM     34  C   UNL     1       2.457   3.455  -6.049  1.00  0.00     0.016 A 
ATOM     35  C   UNL     1       1.956   5.916  -4.782  1.00  0.00     0.010 A 
ATOM     36  C   UNL     1       3.519   4.285  -5.675  1.00  0.00     0.010 A 
ATOM     37  C   UNL     1       3.269   5.538  -5.088  1.00  0.00    -0.014 A 
BRANCH  37  38
ATOM     38  C   UNL     1       4.352   6.542  -4.967  1.00  0.00     0.031 A 
ATOM     39  C   UNL     1       4.767   7.308  -6.195  1.00  0.00     0.074 A 
ATOM     40  C   UNL     1       4.923   6.800  -3.778  1.00  0.00     0.049 A 
ATOM     41  N   UNL     1       5.696   8.219  -6.327  1.00  0.00    -0.248 NA
ATOM     42  C   UNL     1       4.035   7.009  -7.438  1.00  0.00     0.031 C 
ATOM     43  C   UNL     1       4.565   6.162  -2.512  1.00  0.00     0.029 A 
ATOM     44  N   UNL     1       5.927   7.672  -3.446  1.00  0.00    -0.354 N 
ATOM     45  C   UNL     1       5.668   8.595  -7.665  1.00  0.00     0.074 A 
ATOM     46  C   UNL     1       4.646   7.799  -8.309  1.00  0.00     0.031 C 
ATOM     47  C   UNL     1       5.348   6.659  -1.539  1.00  0.00     0.029 A 
ATOM     48  C   UNL     1       6.279   7.626  -2.119  1.00  0.00     0.049 A 
ATOM     49  H   UNL     1       6.356   8.274  -4.096  1.00  0.00     0.167 HD
ATOM     50  C   UNL     1       6.422   9.523  -8.300  1.00  0.00     0.031 A 
ATOM     51  C   UNL     1       7.255   8.274  -1.454  1.00  0.00     0.031 A 
ATOM     52  C   UNL     1       7.446  10.304  -7.659  1.00  0.00     0.049 A 
ATOM     53  C   UNL     1       8.129   9.250  -2.196  1.00  0.00     0.074 A 
ATOM     54  C   UNL     1       8.263  11.274  -8.213  1.00  0.00     0.029 A 
ATOM     55  N   UNL     1       7.796  10.200  -6.322  1.00  0.00    -0.354 N 
ATOM     56  N   UNL     1       8.082   9.604  -3.458  1.00  0.00    -0.248 NA
ATOM     57  C   UNL     1       9.184   9.919  -1.421  1.00  0.00     0.031 C 
ATOM     58  C   UNL     1       9.141  11.722  -7.221  1.00  0.00     0.029 A 
ATOM     59  C   UNL     1       8.833  11.071  -6.037  1.00  0.00     0.049 A 
ATOM     60  H   UNL     1       7.370   9.596  -5.671  1.00  0.00     0.167 HD
ATOM     61  C   UNL     1       9.082  10.557  -3.622  1.00  0.00     0.074 A 
ATOM     62  C   UNL     1       9.711  10.730  -2.329  1.00  0.00     0.031 C 
ATOM     63  C   UNL     1       9.445  11.231  -4.742  1.00  0.00     0.031 A 
BRANCH  50  64
ATOM     64  C   UNL     1       6.191   9.715  -9.775  1.00  0.00    -0.014 A 
ATOM     65  C   UNL     1       5.039  10.364 -10.254  1.00  0.00     0.010 A 
ATOM     66  C   UNL     1       7.157   9.267 -10.694  1.00  0.00     0.010 A 
ATOM     67  C   UNL     1       4.840  10.529 -11.628  1.00  0.00     0.020 A 
ATOM     68  C   UNL     1       6.974   9.452 -12.067  1.00  0.00     0.020 A 
ATOM     69  C   UNL     1       5.808  10.067 -12.526  1.00  0.00     0.054 A 
BRANCH  69  70
ATOM     70  S   UNL     1       5.535  10.310 -14.303  1.00  0.00     0.124 S 
ATOM     71  O   UNL     1       4.511   9.309 -14.590  1.00  0.00    -0.237 OA
ATOM     72  O   UNL     1       5.091  11.700 -14.373  1.00  0.00    -0.237 OA
ATOM     73  O   UNL     1       6.845  10.048 -14.894  1.00  0.00    -0.744 OA
ENDBRANCH  69  70
ENDBRANCH  50  64
BRANCH  51  74
ATOM     74  C   UNL     1       7.468   8.006  -0.006  1.00  0.00    -0.014 A 
ATOM     75  C   UNL     1       7.151   8.976   0.960  1.00  0.00     0.010 A 
ATOM     76  C   UNL     1       7.986   6.766   0.412  1.00  0.00     0.010 A 
ATOM     77  C   UNL     1       7.360   8.716   2.318  1.00  0.00     0.020 A 
ATOM     78  C   UNL     1       8.172   6.493   1.770  1.00  0.00     0.020 A 
ATOM     79  C   UNL     1       7.868   7.475   2.714  1.00  0.00     0.054 A 
BRANCH  79  80
ATOM     80  S   UNL     1       8.077   7.138   4.484  1.00  0.00     0.124 S 
ATOM     81  O   UNL     1       9.274   7.910   4.801  1.00  0.00    -0.237 OA
ATOM     82  O   UNL     1       6.828   7.641   5.052  1.00  0.00    -0.237 OA
ATOM     83  O   UNL     1       8.235   5.686   4.538  1.00  0.00    -0.744 OA
ENDBRANCH  79  80
ENDBRANCH  51  74
BRANCH  63  84
ATOM     84  C   UNL     1      10.550  12.245  -4.614  1.00  0.00    -0.014 A 
ATOM     85  C   UNL     1      11.891  11.849  -4.476  1.00  0.00     0.010 A 
ATOM     86  C   UNL     1      10.242  13.616  -4.696  1.00  0.00     0.010 A 
ATOM     87  C   UNL     1      12.904  12.809  -4.394  1.00  0.00     0.020 A 
ATOM     88  C   UNL     1      11.255  14.577  -4.639  1.00  0.00     0.020 A 
ATOM     89  C   UNL     1      12.579  14.167  -4.475  1.00  0.00     0.054 A 
BRANCH  89  90
ATOM     90  S   UNL     1      13.915  15.392  -4.413  1.00  0.00     0.124 S 
ATOM     91  O   UNL     1      14.258  15.396  -2.994  1.00  0.00    -0.237 OA
ATOM     92  O   UNL     1      14.922  14.816  -5.302  1.00  0.00    -0.237 OA
ATOM     93  O   UNL     1      13.286  16.615  -4.906  1.00  0.00    -0.744 OA
ENDBRANCH  89  90
ENDBRANCH  63  84
ENDBRANCH  37  38
ENDBRANCH  30  32
ENDBRANCH  29  30
ENDBRANCH  28  29
ENDBRANCH  27  28
ENDBRANCH   1  27
TORSDOF 20
