REMARK SMILES CC[C@@H](C(=O)OCCOCCOC(=O)c1ccc(-c2c3nc(c(-c4ccc(S(=O)(=O)[O-])cc4)c4ccc([nH]4)c(-c4ccc(S(=O)(=O)[O-])cc4)c4nc(c(-c5ccc(S(=O)(=O)[O-])cc5)c5ccc2[nH]5)C=C4)C=C3)cc1)N1C(=O)/C(=C/C(C)=C/c2ccccc2)SC1=S
REMARK SMILES IDX 9 1 8 2 7 3 6 4 4 5 5 6 3 7 2 8 1 9 75 10 76 11 90 12 77 13
REMARK SMILES IDX 78 14 89 15 91 16 79 17 80 18 81 19 82 20 83 21 84 22 88 23
REMARK SMILES IDX 85 24 87 25 86 26 10 27 11 28 12 29 13 30 14 31 15 32 16 33
REMARK SMILES IDX 74 34 17 35 73 36 18 37 19 38 20 39 67 40 21 41 72 42 66 43
REMARK SMILES IDX 68 44 22 45 71 46 65 47 64 48 23 50 53 51 34 52 52 53 35 54
REMARK SMILES IDX 38 55 51 56 69 57 36 58 37 59 50 61 70 62 39 63 24 64 25 65
REMARK SMILES IDX 33 66 26 67 32 68 27 69 28 70 29 71 30 72 31 73 54 74 55 75
REMARK SMILES IDX 63 76 56 77 62 78 57 79 58 80 59 81 60 82 61 83 40 84 41 85
REMARK SMILES IDX 49 86 42 87 48 88 43 89 44 90 45 91 46 92 47 93
REMARK H PARENT 68 49 38 60
REMARK Flexibility Score: inf
ROOT
ATOM      1  O   UNL     1      -1.844  -3.264  -2.494  1.00  0.00    -0.374 OA
ENDROOT
BRANCH   1   2
ATOM      2  C   UNL     1      -0.724  -3.876  -1.842  1.00  0.00     0.202 C 
BRANCH   2   3
ATOM      3  C   UNL     1       0.665  -3.476  -2.362  1.00  0.00     0.261 C 
BRANCH   3   4
ATOM      4  O   UNL     1       0.962  -2.139  -1.924  1.00  0.00    -0.462 OA
BRANCH   4   5
ATOM      5  C   UNL     1       1.750  -1.388  -2.732  1.00  0.00     0.329 C 
ATOM      6  O   UNL     1       2.442  -1.825  -3.645  1.00  0.00    -0.250 OA
BRANCH   5   7
ATOM      7  C   UNL     1       1.613   0.115  -2.416  1.00  0.00     0.201 C 
BRANCH   7   8
ATOM      8  C   UNL     1       0.767   0.515  -1.185  1.00  0.00     0.034 C 
ATOM      9  C   UNL     1       1.267  -0.061   0.136  1.00  0.00     0.007 C 
ENDBRANCH   7   8
BRANCH   7  10
ATOM     10  N   UNL     1       1.210   0.890  -3.626  1.00  0.00    -0.278 N 
ATOM     11  C   UNL     1       0.316   0.369  -4.554  1.00  0.00     0.266 C 
ATOM     12  C   UNL     1       1.568   2.207  -3.825  1.00  0.00     0.149 C 
ATOM     13  O   UNL     1      -0.242  -0.718  -4.500  1.00  0.00    -0.268 OA
ATOM     14  C   UNL     1       0.082   1.331  -5.676  1.00  0.00     0.080 C 
ATOM     15  S   UNL     1       0.751   2.845  -5.233  1.00  0.00    -0.054 SA
ATOM     16  S   UNL     1       2.593   3.169  -2.924  1.00  0.00    -0.052 S 
ATOM     17  C   UNL     1      -0.526   0.956  -6.817  1.00  0.00     0.024 C 
BRANCH  17  18
ATOM     18  C   UNL     1      -0.844   1.681  -8.063  1.00  0.00    -0.049 C 
ATOM     19  C   UNL     1      -1.385   0.806  -9.175  1.00  0.00     0.044 C 
ATOM     20  C   UNL     1      -0.671   3.009  -8.225  1.00  0.00     0.011 C 
BRANCH  20  21
ATOM     21  C   UNL     1      -0.977   3.897  -9.357  1.00  0.00    -0.025 A 
ATOM     22  C   UNL     1      -0.058   4.917  -9.650  1.00  0.00     0.008 A 
ATOM     23  C   UNL     1      -2.209   3.889 -10.017  1.00  0.00     0.008 A 
ATOM     24  C   UNL     1      -0.363   5.909 -10.582  1.00  0.00     0.001 A 
ATOM     25  C   UNL     1      -2.511   4.879 -10.957  1.00  0.00     0.001 A 
ATOM     26  C   UNL     1      -1.593   5.892 -11.233  1.00  0.00     0.000 A 
ENDBRANCH  20  21
ENDBRANCH  17  18
ENDBRANCH   7  10
ENDBRANCH   5   7
ENDBRANCH   4   5
ENDBRANCH   3   4
ENDBRANCH   2   3
ENDBRANCH   1   2
BRANCH   1  27
ATOM     27  C   UNL     1      -2.026  -1.865  -2.295  1.00  0.00     0.202 C 
BRANCH  27  28
ATOM     28  C   UNL     1      -2.765  -1.445  -1.020  1.00  0.00     0.261 C 
BRANCH  28  29
ATOM     29  O   UNL     1      -2.111  -1.913   0.170  1.00  0.00    -0.460 OA
BRANCH  29  30
ATOM     30  C   UNL     1      -2.764  -2.925   0.787  1.00  0.00     0.338 C 
ATOM     31  O   UNL     1      -3.865  -3.379   0.494  1.00  0.00    -0.246 OA
BRANCH  30  32
ATOM     32  C   UNL     1      -1.909  -3.562   1.801  1.00  0.00     0.060 A 
ATOM     33  C   UNL     1      -1.773  -4.952   1.722  1.00  0.00     0.016 A 
ATOM     34  C   UNL     1      -1.341  -2.850   2.861  1.00  0.00     0.016 A 
ATOM     35  C   UNL     1      -1.135  -5.647   2.743  1.00  0.00     0.010 A 
ATOM     36  C   UNL     1      -0.697  -3.553   3.889  1.00  0.00     0.010 A 
ATOM     37  C   UNL     1      -0.636  -4.958   3.857  1.00  0.00    -0.014 A 
BRANCH  37  38
ATOM     38  C   UNL     1      -0.199  -5.752   5.034  1.00  0.00     0.031 A 
ATOM     39  C   UNL     1      -1.139  -5.919   6.199  1.00  0.00     0.074 A 
ATOM     40  C   UNL     1       0.975  -6.408   5.014  1.00  0.00     0.049 A 
ATOM     41  N   UNL     1      -1.013  -6.673   7.261  1.00  0.00    -0.248 NA
ATOM     42  C   UNL     1      -2.386  -5.139   6.161  1.00  0.00     0.031 C 
ATOM     43  C   UNL     1       1.954  -6.355   3.928  1.00  0.00     0.029 A 
ATOM     44  N   UNL     1       1.530  -7.269   5.927  1.00  0.00    -0.354 N 
ATOM     45  C   UNL     1      -2.164  -6.465   8.013  1.00  0.00     0.074 A 
ATOM     46  C   UNL     1      -2.957  -5.482   7.306  1.00  0.00     0.031 C 
ATOM     47  C   UNL     1       2.983  -7.166   4.230  1.00  0.00     0.029 A 
ATOM     48  C   UNL     1       2.744  -7.779   5.535  1.00  0.00     0.049 A 
ATOM     49  H   UNL     1       1.099  -7.500   6.781  1.00  0.00     0.167 HD
ATOM     50  C   UNL     1      -2.536  -7.046   9.179  1.00  0.00     0.031 A 
ATOM     51  C   UNL     1       3.569  -8.646   6.154  1.00  0.00     0.031 A 
ATOM     52  C   UNL     1      -1.741  -8.013   9.890  1.00  0.00     0.049 A 
ATOM     53  C   UNL     1       3.156  -9.244   7.473  1.00  0.00     0.074 A 
ATOM     54  C   UNL     1      -2.033  -8.665  11.075  1.00  0.00     0.029 A 
ATOM     55  N   UNL     1      -0.493  -8.463   9.485  1.00  0.00    -0.354 N 
ATOM     56  N   UNL     1       2.052  -9.055   8.156  1.00  0.00    -0.248 NA
ATOM     57  C   UNL     1       4.095 -10.189   8.093  1.00  0.00     0.031 C 
ATOM     58  C   UNL     1      -0.940  -9.470  11.414  1.00  0.00     0.029 A 
ATOM     59  C   UNL     1       0.007  -9.367  10.408  1.00  0.00     0.049 A 
ATOM     60  H   UNL     1      -0.031  -8.182   8.663  1.00  0.00     0.167 HD
ATOM     61  C   UNL     1       2.151  -9.880   9.272  1.00  0.00     0.074 A 
ATOM     62  C   UNL     1       3.414 -10.581   9.161  1.00  0.00     0.031 C 
ATOM     63  C   UNL     1       1.272 -10.048  10.293  1.00  0.00     0.031 A 
BRANCH  50  64
ATOM     64  C   UNL     1      -3.854  -6.624   9.775  1.00  0.00    -0.014 A 
ATOM     65  C   UNL     1      -5.076  -7.004   9.189  1.00  0.00     0.010 A 
ATOM     66  C   UNL     1      -3.871  -5.859  10.955  1.00  0.00     0.010 A 
ATOM     67  C   UNL     1      -6.288  -6.591   9.749  1.00  0.00     0.020 A 
ATOM     68  C   UNL     1      -5.082  -5.468  11.534  1.00  0.00     0.020 A 
ATOM     69  C   UNL     1      -6.283  -5.821  10.916  1.00  0.00     0.054 A 
BRANCH  69  70
ATOM     70  S   UNL     1      -7.870  -5.310  11.631  1.00  0.00     0.124 S 
ATOM     71  O   UNL     1      -8.304  -4.277  10.694  1.00  0.00    -0.237 OA
ATOM     72  O   UNL     1      -8.647  -6.547  11.606  1.00  0.00    -0.237 OA
ATOM     73  O   UNL     1      -7.512  -4.830  12.964  1.00  0.00    -0.744 OA
ENDBRANCH  69  70
ENDBRANCH  50  64
BRANCH  51  74
ATOM     74  C   UNL     1       4.869  -9.008   5.526  1.00  0.00    -0.014 A 
ATOM     75  C   UNL     1       5.088 -10.297   5.009  1.00  0.00     0.010 A 
ATOM     76  C   UNL     1       5.898  -8.052   5.439  1.00  0.00     0.010 A 
ATOM     77  C   UNL     1       6.318 -10.628   4.431  1.00  0.00     0.020 A 
ATOM     78  C   UNL     1       7.118  -8.370   4.836  1.00  0.00     0.020 A 
ATOM     79  C   UNL     1       7.324  -9.661   4.345  1.00  0.00     0.054 A 
BRANCH  79  80
ATOM     80  S   UNL     1       8.891 -10.093   3.539  1.00  0.00     0.124 S 
ATOM     81  O   UNL     1       9.529 -10.934   4.546  1.00  0.00    -0.237 OA
ATOM     82  O   UNL     1       8.444 -10.780   2.329  1.00  0.00    -0.237 OA
ATOM     83  O   UNL     1       9.525  -8.796   3.310  1.00  0.00    -0.744 OA
ENDBRANCH  79  80
ENDBRANCH  51  74
BRANCH  63  84
ATOM     84  C   UNL     1       1.635 -11.056  11.353  1.00  0.00    -0.014 A 
ATOM     85  C   UNL     1       2.680 -10.819  12.264  1.00  0.00     0.010 A 
ATOM     86  C   UNL     1       0.905 -12.255  11.447  1.00  0.00     0.010 A 
ATOM     87  C   UNL     1       3.026 -11.788  13.211  1.00  0.00     0.020 A 
ATOM     88  C   UNL     1       1.227 -13.213  12.412  1.00  0.00     0.020 A 
ATOM     89  C   UNL     1       2.302 -12.983  13.272  1.00  0.00     0.054 A 
BRANCH  89  90
ATOM     90  S   UNL     1       2.768 -14.227  14.507  1.00  0.00     0.124 S 
ATOM     91  O   UNL     1       3.978 -14.797  13.921  1.00  0.00    -0.237 OA
ATOM     92  O   UNL     1       2.971 -13.426  15.712  1.00  0.00    -0.237 OA
ATOM     93  O   UNL     1       1.614 -15.123  14.549  1.00  0.00    -0.744 OA
ENDBRANCH  89  90
ENDBRANCH  63  84
ENDBRANCH  37  38
ENDBRANCH  30  32
ENDBRANCH  29  30
ENDBRANCH  28  29
ENDBRANCH  27  28
ENDBRANCH   1  27
TORSDOF 21
