REMARK SMILES CS(=O)(=O)c1ccc(/C=C(/C(=O)OCCOCCOC(=O)c2ccc(-c3c4nc(c(-c5ccc(S(=O)(=O)[O-])cc5)c5ccc([nH]5)c(-c5ccc(S(=O)(=O)[O-])cc5)c5nc(c(-c6ccc(S(=O)(=O)[O-])cc6)c6ccc3[nH]6)C=C5)C=C4)cc2)c2ccc(-c3ccc(F)cc3F)cc2)cc1
REMARK SMILES IDX 17 1 16 2 15 3 14 4 13 5 11 6 12 7 10 8 9 9 8 10 5 11 6 12
REMARK SMILES IDX 97 13 7 14 96 15 2 16 1 17 3 18 4 19 82 20 83 21 95 22 84 23
REMARK SMILES IDX 94 24 85 25 86 26 87 27 92 28 88 29 91 30 93 31 89 32 90 33
REMARK SMILES IDX 18 34 19 35 20 36 21 37 22 38 23 39 81 40 24 41 80 42 25 43
REMARK SMILES IDX 26 44 27 45 74 46 28 47 79 48 73 49 75 50 29 51 78 52 72 53
REMARK SMILES IDX 71 54 30 56 60 57 41 58 59 59 42 60 45 61 58 62 76 63 43 64
REMARK SMILES IDX 44 65 57 67 77 68 46 69 31 70 32 71 40 72 33 73 39 74 34 75
REMARK SMILES IDX 35 76 36 77 37 78 38 79 61 80 62 81 70 82 63 83 69 84 64 85
REMARK SMILES IDX 65 86 66 87 67 88 68 89 47 90 48 91 56 92 49 93 55 94 50 95
REMARK SMILES IDX 51 96 52 97 53 98 54 99
REMARK H PARENT 75 55 45 66
REMARK Flexibility Score: inf
ROOT
ATOM      1  C   UNL     1       3.563   9.423   2.693  1.00  0.00     0.202 C 
ENDROOT
BRANCH   1   2
ATOM      2  O   UNL     1       4.344  10.536   2.275  1.00  0.00    -0.374 OA
BRANCH   2   3
ATOM      3  C   UNL     1       4.021  11.137   1.022  1.00  0.00     0.202 C 
BRANCH   3   4
ATOM      4  C   UNL     1       4.327  10.362  -0.265  1.00  0.00     0.261 C 
BRANCH   4   5
ATOM      5  O   UNL     1       3.631   9.103  -0.323  1.00  0.00    -0.460 OA
BRANCH   5   6
ATOM      6  C   UNL     1       4.444   8.017  -0.357  1.00  0.00     0.338 C 
ATOM      7  O   UNL     1       5.662   8.044  -0.474  1.00  0.00    -0.246 OA
BRANCH   6   8
ATOM      8  C   UNL     1       3.707   6.743  -0.069  1.00  0.00     0.067 C 
ATOM      9  C   UNL     1       2.462   6.528  -0.556  1.00  0.00     0.024 C 
BRANCH   9  10
ATOM     10  C   UNL     1       1.709   5.245  -0.585  1.00  0.00    -0.025 A 
ATOM     11  C   UNL     1       0.678   2.666  -1.043  1.00  0.00     0.067 A 
ATOM     12  C   UNL     1       1.402   2.925   0.115  1.00  0.00     0.021 A 
ATOM     13  C   UNL     1       0.356   3.711  -1.913  1.00  0.00     0.021 A 
ATOM     14  C   UNL     1       1.867   4.221   0.358  1.00  0.00     0.009 A 
ATOM     15  C   UNL     1       0.871   4.994  -1.682  1.00  0.00     0.009 A 
BRANCH  11  16
ATOM     16  S   UNL     1       0.202   1.019  -1.502  1.00  0.00     0.175 S 
ATOM     17  C   UNL     1       0.833  -0.076  -0.261  1.00  0.00     0.163 C 
ATOM     18  O   UNL     1       0.906   0.712  -2.732  1.00  0.00    -0.224 OA
ATOM     19  O   UNL     1      -1.245   0.967  -1.428  1.00  0.00    -0.224 OA
ENDBRANCH  11  16
ENDBRANCH   9  10
BRANCH   8  20
ATOM     20  C   UNL     1       4.468   5.749   0.714  1.00  0.00    -0.011 A 
ATOM     21  C   UNL     1       4.552   5.897   2.103  1.00  0.00     0.009 A 
ATOM     22  C   UNL     1       5.090   4.656   0.112  1.00  0.00     0.009 A 
ATOM     23  C   UNL     1       5.254   4.978   2.878  1.00  0.00     0.009 A 
ATOM     24  C   UNL     1       5.769   3.718   0.899  1.00  0.00     0.009 A 
ATOM     25  C   UNL     1       5.875   3.864   2.295  1.00  0.00    -0.015 A 
BRANCH  25  26
ATOM     26  C   UNL     1       6.628   2.909   3.132  1.00  0.00     0.018 A 
ATOM     27  C   UNL     1       6.160   2.541   4.411  1.00  0.00     0.015 A 
ATOM     28  C   UNL     1       7.856   2.365   2.716  1.00  0.00     0.133 A 
ATOM     29  C   UNL     1       6.902   1.692   5.236  1.00  0.00     0.040 A 
ATOM     30  C   UNL     1       8.597   1.512   3.528  1.00  0.00     0.079 A 
ATOM     31  F   UNL     1       8.369   2.678   1.516  1.00  0.00    -0.206 F 
ATOM     32  C   UNL     1       8.115   1.189   4.785  1.00  0.00     0.126 A 
ATOM     33  F   UNL     1       8.830   0.383   5.580  1.00  0.00    -0.207 F 
ENDBRANCH  25  26
ENDBRANCH   8  20
ENDBRANCH   6   8
ENDBRANCH   5   6
ENDBRANCH   4   5
ENDBRANCH   3   4
ENDBRANCH   2   3
ENDBRANCH   1   2
BRANCH   1  34
ATOM     34  C   UNL     1       2.142   9.658   3.220  1.00  0.00     0.261 C 
BRANCH  34  35
ATOM     35  O   UNL     1       1.310  10.392   2.315  1.00  0.00    -0.460 OA
BRANCH  35  36
ATOM     36  C   UNL     1       1.127  11.691   2.656  1.00  0.00     0.338 C 
ATOM     37  O   UNL     1       1.533  12.258   3.660  1.00  0.00    -0.246 OA
BRANCH  36  38
ATOM     38  C   UNL     1       0.518  12.402   1.521  1.00  0.00     0.060 A 
ATOM     39  C   UNL     1       1.228  13.472   0.961  1.00  0.00     0.016 A 
ATOM     40  C   UNL     1      -0.732  12.033   1.022  1.00  0.00     0.016 A 
ATOM     41  C   UNL     1       0.685  14.186  -0.102  1.00  0.00     0.010 A 
ATOM     42  C   UNL     1      -1.283  12.763  -0.031  1.00  0.00     0.010 A 
ATOM     43  C   UNL     1      -0.585  13.850  -0.588  1.00  0.00    -0.014 A 
BRANCH  43  44
ATOM     44  C   UNL     1      -1.230  14.689  -1.621  1.00  0.00     0.031 A 
ATOM     45  C   UNL     1      -2.281  15.679  -1.210  1.00  0.00     0.074 A 
ATOM     46  C   UNL     1      -0.883  14.558  -2.913  1.00  0.00     0.049 A 
ATOM     47  N   UNL     1      -3.021  16.456  -1.956  1.00  0.00    -0.248 NA
ATOM     48  C   UNL     1      -2.532  15.806   0.234  1.00  0.00     0.031 C 
ATOM     49  C   UNL     1       0.163  13.670  -3.421  1.00  0.00     0.029 A 
ATOM     50  N   UNL     1      -1.382  15.169  -4.035  1.00  0.00    -0.354 N 
ATOM     51  C   UNL     1      -3.833  17.160  -1.075  1.00  0.00     0.074 A 
ATOM     52  C   UNL     1      -3.516  16.693   0.258  1.00  0.00     0.031 C 
ATOM     53  C   UNL     1       0.224  13.791  -4.758  1.00  0.00     0.029 A 
ATOM     54  C   UNL     1      -0.807  14.726  -5.202  1.00  0.00     0.049 A 
ATOM     55  H   UNL     1      -2.084  15.858  -4.007  1.00  0.00     0.167 HD
ATOM     56  C   UNL     1      -4.758  18.110  -1.354  1.00  0.00     0.031 A 
ATOM     57  C   UNL     1      -1.100  15.021  -6.483  1.00  0.00     0.031 A 
ATOM     58  C   UNL     1      -5.088  18.541  -2.688  1.00  0.00     0.049 A 
ATOM     59  C   UNL     1      -2.211  15.993  -6.776  1.00  0.00     0.074 A 
ATOM     60  C   UNL     1      -6.002  19.502  -3.081  1.00  0.00     0.029 A 
ATOM     61  N   UNL     1      -4.529  18.023  -3.848  1.00  0.00    -0.354 N 
ATOM     62  N   UNL     1      -2.955  16.673  -5.935  1.00  0.00    -0.248 NA
ATOM     63  C   UNL     1      -2.524  16.236  -8.191  1.00  0.00     0.031 C 
ATOM     64  C   UNL     1      -6.047  19.515  -4.479  1.00  0.00     0.029 A 
ATOM     65  C   UNL     1      -5.110  18.613  -4.959  1.00  0.00     0.049 A 
ATOM     66  H   UNL     1      -3.823  17.338  -3.877  1.00  0.00     0.167 HD
ATOM     67  C   UNL     1      -3.811  17.439  -6.719  1.00  0.00     0.074 A 
ATOM     68  C   UNL     1      -3.481  17.151  -8.101  1.00  0.00     0.031 C 
ATOM     69  C   UNL     1      -4.780  18.305  -6.330  1.00  0.00     0.031 A 
BRANCH  56  70
ATOM     70  C   UNL     1      -5.512  18.702  -0.191  1.00  0.00    -0.014 A 
ATOM     71  C   UNL     1      -4.872  19.523   0.756  1.00  0.00     0.010 A 
ATOM     72  C   UNL     1      -6.885  18.435  -0.043  1.00  0.00     0.010 A 
ATOM     73  C   UNL     1      -5.577  20.015   1.858  1.00  0.00     0.020 A 
ATOM     74  C   UNL     1      -7.602  18.952   1.040  1.00  0.00     0.020 A 
ATOM     75  C   UNL     1      -6.936  19.719   1.997  1.00  0.00     0.054 A 
BRANCH  75  76
ATOM     76  S   UNL     1      -7.821  20.357   3.446  1.00  0.00     0.124 S 
ATOM     77  O   UNL     1      -7.266  19.538   4.521  1.00  0.00    -0.237 OA
ATOM     78  O   UNL     1      -7.432  21.764   3.465  1.00  0.00    -0.237 OA
ATOM     79  O   UNL     1      -9.226  20.105   3.135  1.00  0.00    -0.744 OA
ENDBRANCH  75  76
ENDBRANCH  56  70
BRANCH  57  80
ATOM     80  C   UNL     1      -0.333  14.374  -7.582  1.00  0.00    -0.014 A 
ATOM     81  C   UNL     1       0.555  15.128  -8.368  1.00  0.00     0.010 A 
ATOM     82  C   UNL     1      -0.458  12.993  -7.823  1.00  0.00     0.010 A 
ATOM     83  C   UNL     1       1.306  14.512  -9.374  1.00  0.00     0.020 A 
ATOM     84  C   UNL     1       0.312  12.369  -8.808  1.00  0.00     0.020 A 
ATOM     85  C   UNL     1       1.187  13.134  -9.580  1.00  0.00     0.054 A 
BRANCH  85  86
ATOM     86  S   UNL     1       2.236  12.348 -10.834  1.00  0.00     0.124 S 
ATOM     87  O   UNL     1       1.657  12.852 -12.075  1.00  0.00    -0.237 OA
ATOM     88  O   UNL     1       3.562  12.862 -10.499  1.00  0.00    -0.237 OA
ATOM     89  O   UNL     1       2.049  10.920 -10.589  1.00  0.00    -0.744 OA
ENDBRANCH  85  86
ENDBRANCH  57  80
BRANCH  69  90
ATOM     90  C   UNL     1      -5.553  19.017  -7.410  1.00  0.00    -0.014 A 
ATOM     91  C   UNL     1      -6.494  18.334  -8.201  1.00  0.00     0.010 A 
ATOM     92  C   UNL     1      -5.389  20.404  -7.585  1.00  0.00     0.010 A 
ATOM     93  C   UNL     1      -7.244  19.021  -9.159  1.00  0.00     0.020 A 
ATOM     94  C   UNL     1      -6.160  21.100  -8.520  1.00  0.00     0.020 A 
ATOM     95  C   UNL     1      -7.077  20.402  -9.307  1.00  0.00     0.054 A 
BRANCH  95  96
ATOM     96  S   UNL     1      -8.115  21.279 -10.509  1.00  0.00     0.124 S 
ATOM     97  O   UNL     1      -7.569  20.813 -11.781  1.00  0.00    -0.237 OA
ATOM     98  O   UNL     1      -9.455  20.797 -10.185  1.00  0.00    -0.237 OA
ATOM     99  O   UNL     1      -7.877  22.690 -10.210  1.00  0.00    -0.744 OA
ENDBRANCH  95  96
ENDBRANCH  69  90
ENDBRANCH  43  44
ENDBRANCH  36  38
ENDBRANCH  35  36
ENDBRANCH  34  35
ENDBRANCH   1  34
TORSDOF 21
