REMARK SMILES Cc1cc(N2N=C(C(=O)OCCOCCOC(=O)c3ccc(-c4c5nc(c(-c6ccc(S(=O)(=O)[O-])cc6)c6ccc([nH]6)c(-c6ccc(S(=O)(=O)[O-])cc6)c6nc(c(-c7ccc(S(=O)(=O)[O-])cc7)c7ccc4[nH]7)C=C6)C=C5)cc3)C[C@H]2c2ccccc2)c([N+](=O)[O-])cc1C
REMARK SMILES IDX 14 1 13 2 12 3 11 4 10 5 8 6 9 7 7 8 5 9 6 10 80 11 79 12
REMARK SMILES IDX 4 13 1 14 2 15 3 16 92 17 91 18 93 19 87 20 88 21 89 22
REMARK SMILES IDX 90 23 81 24 82 25 86 26 83 27 85 28 84 29 15 30 16 31 17 32
REMARK SMILES IDX 18 33 19 34 20 35 78 36 21 37 77 38 22 39 23 40 24 41 71 42
REMARK SMILES IDX 25 43 76 44 70 45 72 46 26 47 75 48 69 49 68 50 27 52 57 53
REMARK SMILES IDX 38 54 56 55 39 56 42 57 55 58 73 59 40 60 41 61 54 63 74 64
REMARK SMILES IDX 43 65 28 66 29 67 37 68 30 69 36 70 31 71 32 72 33 73 34 74
REMARK SMILES IDX 35 75 58 76 59 77 67 78 60 79 66 80 61 81 62 82 63 83 64 84
REMARK SMILES IDX 65 85 44 86 45 87 53 88 46 89 52 90 47 91 48 92 49 93 50 94
REMARK SMILES IDX 51 95
REMARK H PARENT 72 51 42 62
REMARK Flexibility Score: inf
ROOT
ATOM      1  C   UNL     1      -7.365   0.107   1.809  1.00  0.00     0.202 C 
ENDROOT
BRANCH   1   2
ATOM      2  O   UNL     1      -7.996   0.674   2.962  1.00  0.00    -0.374 OA
BRANCH   2   3
ATOM      3  C   UNL     1      -8.637   1.940   2.784  1.00  0.00     0.202 C 
BRANCH   3   4
ATOM      4  C   UNL     1      -7.695   3.138   2.918  1.00  0.00     0.261 C 
BRANCH   4   5
ATOM      5  O   UNL     1      -6.725   3.089   1.862  1.00  0.00    -0.459 OA
BRANCH   5   6
ATOM      6  C   UNL     1      -5.443   3.170   2.259  1.00  0.00     0.354 C 
ATOM      7  O   UNL     1      -5.013   3.528   3.339  1.00  0.00    -0.245 OA
BRANCH   6   8
ATOM      8  C   UNL     1      -4.553   2.630   1.168  1.00  0.00     0.148 C 
ATOM      9  N   UNL     1      -2.917   1.712   0.209  1.00  0.00    -0.250 N 
ATOM     10  N   UNL     1      -3.470   1.960   1.423  1.00  0.00    -0.169 NA
ATOM     11  C   UNL     1      -3.535   2.479  -0.885  1.00  0.00     0.144 C 
ATOM     12  C   UNL     1      -4.920   2.755  -0.282  1.00  0.00     0.098 C 
BRANCH   9  13
ATOM     13  C   UNL     1      -1.808   0.895   0.118  1.00  0.00     0.138 A 
ATOM     14  C   UNL     1       1.970   1.417   0.293  1.00  0.00     0.045 C 
ATOM     15  C   UNL     1       0.653   0.700   0.172  1.00  0.00    -0.046 A 
ATOM     16  C   UNL     1      -0.530   1.460   0.254  1.00  0.00     0.039 A 
ATOM     17  C   UNL     1       0.566  -0.691  -0.008  1.00  0.00    -0.041 A 
ATOM     18  C   UNL     1      -0.705  -1.282  -0.104  1.00  0.00     0.091 A 
ATOM     19  C   UNL     1       1.771  -1.590  -0.052  1.00  0.00     0.045 C 
ATOM     20  C   UNL     1      -1.868  -0.492  -0.046  1.00  0.00     0.294 A 
BRANCH  20  21
ATOM     21  N   UNL     1      -3.153  -1.176  -0.140  1.00  0.00     0.065 N 
ATOM     22  O   UNL     1      -3.268  -2.251   0.470  1.00  0.00    -0.258 OA
ATOM     23  O   UNL     1      -4.025  -0.692  -0.878  1.00  0.00    -0.258 OA
ENDBRANCH  20  21
ENDBRANCH   9  13
BRANCH  11  24
ATOM     24  C   UNL     1      -2.713   3.721  -1.228  1.00  0.00    -0.023 A 
ATOM     25  C   UNL     1      -3.011   5.005  -0.740  1.00  0.00     0.006 A 
ATOM     26  C   UNL     1      -1.576   3.580  -2.045  1.00  0.00     0.006 A 
ATOM     27  C   UNL     1      -2.202   6.100  -1.050  1.00  0.00     0.000 A 
ATOM     28  C   UNL     1      -0.750   4.670  -2.329  1.00  0.00     0.000 A 
ATOM     29  C   UNL     1      -1.065   5.931  -1.833  1.00  0.00     0.000 A 
ENDBRANCH  11  24
ENDBRANCH   6   8
ENDBRANCH   5   6
ENDBRANCH   4   5
ENDBRANCH   3   4
ENDBRANCH   2   3
ENDBRANCH   1   2
BRANCH   1  30
ATOM     30  C   UNL     1      -8.308  -0.623   0.846  1.00  0.00     0.261 C 
BRANCH  30  31
ATOM     31  O   UNL     1      -9.159   0.302   0.141  1.00  0.00    -0.460 OA
BRANCH  31  32
ATOM     32  C   UNL     1     -10.475   0.236   0.465  1.00  0.00     0.338 C 
ATOM     33  O   UNL     1     -11.009  -0.569   1.210  1.00  0.00    -0.246 OA
BRANCH  32  34
ATOM     34  C   UNL     1     -11.184   1.416  -0.073  1.00  0.00     0.060 A 
ATOM     35  C   UNL     1     -12.010   2.128   0.805  1.00  0.00     0.016 A 
ATOM     36  C   UNL     1     -11.081   1.800  -1.413  1.00  0.00     0.016 A 
ATOM     37  C   UNL     1     -12.761   3.208   0.341  1.00  0.00     0.010 A 
ATOM     38  C   UNL     1     -11.844   2.877  -1.880  1.00  0.00     0.010 A 
ATOM     39  C   UNL     1     -12.705   3.572  -1.011  1.00  0.00    -0.014 A 
BRANCH  39  40
ATOM     40  C   UNL     1     -13.618   4.619  -1.530  1.00  0.00     0.031 A 
ATOM     41  C   UNL     1     -14.899   4.215  -2.207  1.00  0.00     0.074 A 
ATOM     42  C   UNL     1     -13.315   5.922  -1.388  1.00  0.00     0.049 A 
ATOM     43  N   UNL     1     -15.824   4.970  -2.742  1.00  0.00    -0.248 NA
ATOM     44  C   UNL     1     -15.174   2.771  -2.292  1.00  0.00     0.031 C 
ATOM     45  C   UNL     1     -12.119   6.445  -0.728  1.00  0.00     0.029 A 
ATOM     46  N   UNL     1     -13.989   7.044  -1.802  1.00  0.00    -0.354 N 
ATOM     47  C   UNL     1     -16.788   4.097  -3.232  1.00  0.00     0.074 A 
ATOM     48  C   UNL     1     -16.326   2.755  -2.948  1.00  0.00     0.031 C 
ATOM     49  C   UNL     1     -12.136   7.788  -0.796  1.00  0.00     0.029 A 
ATOM     50  C   UNL     1     -13.328   8.217  -1.525  1.00  0.00     0.049 A 
ATOM     51  H   UNL     1     -14.863   7.012  -2.255  1.00  0.00     0.167 HD
ATOM     52  C   UNL     1     -17.954   4.386  -3.857  1.00  0.00     0.031 A 
ATOM     53  C   UNL     1     -13.636   9.490  -1.843  1.00  0.00     0.031 A 
ATOM     54  C   UNL     1     -18.410   5.718  -4.151  1.00  0.00     0.049 A 
ATOM     55  C   UNL     1     -14.904   9.782  -2.599  1.00  0.00     0.074 A 
ATOM     56  C   UNL     1     -19.597   6.109  -4.748  1.00  0.00     0.029 A 
ATOM     57  N   UNL     1     -17.697   6.876  -3.885  1.00  0.00    -0.354 N 
ATOM     58  N   UNL     1     -15.827   8.947  -3.011  1.00  0.00    -0.248 NA
ATOM     59  C   UNL     1     -15.172  11.190  -2.930  1.00  0.00     0.031 C 
ATOM     60  C   UNL     1     -19.576   7.501  -4.891  1.00  0.00     0.029 A 
ATOM     61  C   UNL     1     -18.399   7.979  -4.339  1.00  0.00     0.049 A 
ATOM     62  H   UNL     1     -16.819   6.909  -3.440  1.00  0.00     0.167 HD
ATOM     63  C   UNL     1     -16.791   9.729  -3.639  1.00  0.00     0.074 A 
ATOM     64  C   UNL     1     -16.348  11.104  -3.538  1.00  0.00     0.031 C 
ATOM     65  C   UNL     1     -17.941   9.342  -4.245  1.00  0.00     0.031 A 
BRANCH  52  66
ATOM     66  C   UNL     1     -18.809   3.230  -4.298  1.00  0.00    -0.014 A 
ATOM     67  C   UNL     1     -19.558   2.485  -3.369  1.00  0.00     0.010 A 
ATOM     68  C   UNL     1     -18.898   2.912  -5.665  1.00  0.00     0.010 A 
ATOM     69  C   UNL     1     -20.356   1.421  -3.798  1.00  0.00     0.020 A 
ATOM     70  C   UNL     1     -19.710   1.862  -6.100  1.00  0.00     0.020 A 
ATOM     71  C   UNL     1     -20.423   1.113  -5.161  1.00  0.00     0.054 A 
BRANCH  71  72
ATOM     72  S   UNL     1     -21.483  -0.260  -5.695  1.00  0.00     0.124 S 
ATOM     73  O   UNL     1     -20.692  -1.421  -5.296  1.00  0.00    -0.237 OA
ATOM     74  O   UNL     1     -22.706  -0.039  -4.928  1.00  0.00    -0.237 OA
ATOM     75  O   UNL     1     -21.610  -0.058  -7.136  1.00  0.00    -0.744 OA
ENDBRANCH  71  72
ENDBRANCH  52  66
BRANCH  53  76
ATOM     76  C   UNL     1     -12.702  10.588  -1.476  1.00  0.00    -0.014 A 
ATOM     77  C   UNL     1     -13.024  11.498  -0.455  1.00  0.00     0.010 A 
ATOM     78  C   UNL     1     -11.476  10.722  -2.154  1.00  0.00     0.010 A 
ATOM     79  C   UNL     1     -12.140  12.529  -0.124  1.00  0.00     0.020 A 
ATOM     80  C   UNL     1     -10.581  11.738  -1.810  1.00  0.00     0.020 A 
ATOM     81  C   UNL     1     -10.923  12.642  -0.803  1.00  0.00     0.054 A 
BRANCH  81  82
ATOM     82  S   UNL     1      -9.760  13.947  -0.317  1.00  0.00     0.124 S 
ATOM     83  O   UNL     1     -10.341  15.123  -0.956  1.00  0.00    -0.237 OA
ATOM     84  O   UNL     1      -9.836  13.914   1.142  1.00  0.00    -0.237 OA
ATOM     85  O   UNL     1      -8.488  13.491  -0.875  1.00  0.00    -0.744 OA
ENDBRANCH  81  82
ENDBRANCH  53  76
BRANCH  65  86
ATOM     86  C   UNL     1     -18.807  10.418  -4.841  1.00  0.00    -0.014 A 
ATOM     87  C   UNL     1     -18.451  11.045  -6.048  1.00  0.00     0.010 A 
ATOM     88  C   UNL     1     -20.019  10.765  -4.217  1.00  0.00     0.010 A 
ATOM     89  C   UNL     1     -19.282  12.020  -6.609  1.00  0.00     0.020 A 
ATOM     90  C   UNL     1     -20.862  11.723  -4.787  1.00  0.00     0.020 A 
ATOM     91  C   UNL     1     -20.482  12.354  -5.973  1.00  0.00     0.054 A 
BRANCH  91  92
ATOM     92  S   UNL     1     -21.567  13.587  -6.744  1.00  0.00     0.124 S 
ATOM     93  O   UNL     1     -20.889  14.837  -6.412  1.00  0.00    -0.237 OA
ATOM     94  O   UNL     1     -21.534  13.210  -8.155  1.00  0.00    -0.237 OA
ATOM     95  O   UNL     1     -22.852  13.379  -6.080  1.00  0.00    -0.744 OA
ENDBRANCH  91  92
ENDBRANCH  65  86
ENDBRANCH  39  40
ENDBRANCH  32  34
ENDBRANCH  31  32
ENDBRANCH  30  31
ENDBRANCH   1  30
TORSDOF 20
