REMARK SMILES CN(C)C(=O)CCNC(=O)NC[C@H]1CC[C@@H](C(=O)OCCOCCOC(=O)c2ccc(-c3c4nc(c(-c5ccc(S(=O)(=O)[O-])cc5)c5ccc([nH]5)c(-c5ccc(S(=O)(=O)[O-])cc5)c5nc(c(-c6ccc(S(=O)(=O)[O-])cc6)c6ccc3[nH]6)C=C5)C=C4)cc2)CC1
REMARK SMILES IDX 21 1 20 2 19 3 17 4 18 5 16 6 13 7 14 8 89 9 15 10 88 11
REMARK SMILES IDX 12 12 11 13 8 14 9 15 10 17 7 19 6 20 4 21 1 22 2 23 3 24
REMARK SMILES IDX 5 25 22 26 23 27 24 28 25 29 26 30 27 31 28 32 29 33 87 34
REMARK SMILES IDX 30 35 86 36 31 37 32 38 33 39 80 40 34 41 85 42 79 43 81 44
REMARK SMILES IDX 35 45 84 46 78 47 77 48 36 50 66 51 47 52 65 53 48 54 51 55
REMARK SMILES IDX 64 56 82 57 49 58 50 59 63 61 83 62 52 63 37 64 38 65 46 66
REMARK SMILES IDX 39 67 45 68 40 69 41 70 42 71 43 72 44 73 67 74 68 75 76 76
REMARK SMILES IDX 69 77 75 78 70 79 71 80 72 81 73 82 74 83 53 84 54 85 62 86
REMARK SMILES IDX 55 87 61 88 56 89 57 90 58 91 59 92 60 93
REMARK H PARENT 8 16 11 18 81 49 51 60
REMARK Flexibility Score: inf
ROOT
ATOM      1  C   UNL     1      -3.525   4.525  10.677  1.00  0.00     0.202 C 
ENDROOT
BRANCH   1   2
ATOM      2  C   UNL     1      -2.965   5.568   9.709  1.00  0.00     0.261 C 
BRANCH   2   3
ATOM      3  O   UNL     1      -1.625   5.226   9.307  1.00  0.00    -0.463 OA
BRANCH   3   4
ATOM      4  C   UNL     1      -0.631   6.076   9.666  1.00  0.00     0.309 C 
ATOM      5  O   UNL     1      -0.793   7.128  10.272  1.00  0.00    -0.252 OA
BRANCH   4   6
ATOM      6  C   UNL     1       0.740   5.605   9.187  1.00  0.00     0.099 C 
ATOM      7  C   UNL     1       0.375   3.681   6.915  1.00  0.00     0.008 C 
ATOM      8  C   UNL     1       0.162   5.200   6.763  1.00  0.00     0.006 C 
ATOM      9  C   UNL     1       0.333   3.198   8.374  1.00  0.00     0.006 C 
ATOM     10  C   UNL     1       0.972   6.036   7.746  1.00  0.00     0.015 C 
ATOM     11  C   UNL     1       1.056   4.116   9.357  1.00  0.00     0.015 C 
BRANCH   7  12
ATOM     12  C   UNL     1      -0.668   2.891   6.091  1.00  0.00     0.121 C 
BRANCH  12  13
ATOM     13  N   UNL     1      -0.824   3.399   4.745  1.00  0.00    -0.338 N 
ATOM     14  N   UNL     1       1.096   2.686   3.585  1.00  0.00    -0.338 N 
ATOM     15  C   UNL     1       0.035   3.491   3.722  1.00  0.00     0.314 C 
ATOM     16  H   UNL     1       1.788   3.033   2.977  1.00  0.00     0.165 HD
ATOM     17  O   UNL     1      -0.163   4.352   2.867  1.00  0.00    -0.249 OA
ATOM     18  H   UNL     1      -1.726   3.739   4.545  1.00  0.00     0.165 HD
BRANCH  14  19
ATOM     19  C   UNL     1       1.414   1.396   4.168  1.00  0.00     0.127 C 
BRANCH  19  20
ATOM     20  C   UNL     1       0.501   0.280   3.674  1.00  0.00     0.121 C 
BRANCH  20  21
ATOM     21  C   UNL     1       1.001  -0.223   2.334  1.00  0.00     0.223 C 
ATOM     22  C   UNL     1       1.133  -0.046  -0.092  1.00  0.00     0.146 C 
ATOM     23  N   UNL     1       0.526   0.350   1.168  1.00  0.00    -0.349 N 
ATOM     24  C   UNL     1      -0.582   1.290   1.061  1.00  0.00     0.146 C 
ATOM     25  O   UNL     1       1.887  -1.085   2.325  1.00  0.00    -0.275 OA
ENDBRANCH  20  21
ENDBRANCH  19  20
ENDBRANCH  14  19
ENDBRANCH  12  13
ENDBRANCH   7  12
ENDBRANCH   4   6
ENDBRANCH   3   4
ENDBRANCH   2   3
ENDBRANCH   1   2
BRANCH   1  26
ATOM     26  O   UNL     1      -2.953   4.528  11.986  1.00  0.00    -0.374 OA
BRANCH  26  27
ATOM     27  C   UNL     1      -1.677   3.910  12.132  1.00  0.00     0.202 C 
BRANCH  27  28
ATOM     28  C   UNL     1      -1.677   2.383  12.269  1.00  0.00     0.261 C 
BRANCH  28  29
ATOM     29  O   UNL     1      -2.078   1.726  11.053  1.00  0.00    -0.460 OA
BRANCH  29  30
ATOM     30  C   UNL     1      -3.323   1.196  11.079  1.00  0.00     0.338 C 
ATOM     31  O   UNL     1      -4.098   1.181  12.030  1.00  0.00    -0.246 OA
BRANCH  30  32
ATOM     32  C   UNL     1      -3.724   0.771   9.727  1.00  0.00     0.060 A 
ATOM     33  C   UNL     1      -4.977   1.190   9.259  1.00  0.00     0.016 A 
ATOM     34  C   UNL     1      -2.931  -0.087   8.961  1.00  0.00     0.016 A 
ATOM     35  C   UNL     1      -5.470   0.707   8.048  1.00  0.00     0.010 A 
ATOM     36  C   UNL     1      -3.431  -0.577   7.751  1.00  0.00     0.010 A 
ATOM     37  C   UNL     1      -4.717  -0.214   7.310  1.00  0.00    -0.014 A 
BRANCH  37  38
ATOM     38  C   UNL     1      -5.336  -0.938   6.175  1.00  0.00     0.031 A 
ATOM     39  C   UNL     1      -5.842  -2.337   6.402  1.00  0.00     0.074 A 
ATOM     40  C   UNL     1      -5.443  -0.370   4.961  1.00  0.00     0.049 A 
ATOM     41  N   UNL     1      -6.306  -3.201   5.538  1.00  0.00    -0.248 NA
ATOM     42  C   UNL     1      -5.810  -2.825   7.790  1.00  0.00     0.031 C 
ATOM     43  C   UNL     1      -5.045   0.996   4.629  1.00  0.00     0.029 A 
ATOM     44  N   UNL     1      -5.904  -0.888   3.777  1.00  0.00    -0.354 N 
ATOM     45  C   UNL     1      -6.602  -4.343   6.273  1.00  0.00     0.074 A 
ATOM     46  C   UNL     1      -6.245  -4.068   7.648  1.00  0.00     0.031 C 
ATOM     47  C   UNL     1      -5.257   1.202   3.318  1.00  0.00     0.029 A 
ATOM     48  C   UNL     1      -5.763  -0.030   2.713  1.00  0.00     0.049 A 
ATOM     49  H   UNL     1      -6.297  -1.786   3.697  1.00  0.00     0.167 HD
ATOM     50  C   UNL     1      -7.122  -5.518   5.842  1.00  0.00     0.031 A 
ATOM     51  C   UNL     1      -5.978  -0.228   1.397  1.00  0.00     0.031 A 
ATOM     52  C   UNL     1      -7.455  -5.793   4.470  1.00  0.00     0.049 A 
ATOM     53  C   UNL     1      -6.474  -1.566   0.919  1.00  0.00     0.074 A 
ATOM     54  C   UNL     1      -7.989  -6.949   3.929  1.00  0.00     0.029 A 
ATOM     55  N   UNL     1      -7.274  -4.904   3.421  1.00  0.00    -0.354 N 
ATOM     56  N   UNL     1      -6.753  -2.638   1.623  1.00  0.00    -0.248 NA
ATOM     57  C   UNL     1      -6.685  -1.724  -0.527  1.00  0.00     0.031 C 
ATOM     58  C   UNL     1      -8.079  -6.778   2.543  1.00  0.00     0.029 A 
ATOM     59  C   UNL     1      -7.663  -5.493   2.231  1.00  0.00     0.049 A 
ATOM     60  H   UNL     1      -6.921  -3.989   3.510  1.00  0.00     0.167 HD
ATOM     61  C   UNL     1      -7.199  -3.588   0.709  1.00  0.00     0.074 A 
ATOM     62  C   UNL     1      -7.152  -2.965  -0.598  1.00  0.00     0.031 C 
ATOM     63  C   UNL     1      -7.619  -4.857   0.937  1.00  0.00     0.031 A 
BRANCH  50  64
ATOM     64  C   UNL     1      -7.303  -6.606   6.866  1.00  0.00    -0.014 A 
ATOM     65  C   UNL     1      -8.280  -6.510   7.874  1.00  0.00     0.010 A 
ATOM     66  C   UNL     1      -6.471  -7.740   6.826  1.00  0.00     0.010 A 
ATOM     67  C   UNL     1      -8.377  -7.495   8.861  1.00  0.00     0.020 A 
ATOM     68  C   UNL     1      -6.585  -8.742   7.794  1.00  0.00     0.020 A 
ATOM     69  C   UNL     1      -7.519  -8.598   8.821  1.00  0.00     0.054 A 
BRANCH  69  70
ATOM     70  S   UNL     1      -7.643  -9.847  10.131  1.00  0.00     0.124 S 
ATOM     71  O   UNL     1      -7.020  -9.159  11.259  1.00  0.00    -0.237 OA
ATOM     72  O   UNL     1      -9.085 -10.056  10.242  1.00  0.00    -0.237 OA
ATOM     73  O   UNL     1      -6.891 -10.982   9.601  1.00  0.00    -0.744 OA
ENDBRANCH  69  70
ENDBRANCH  50  64
BRANCH  51  74
ATOM     74  C   UNL     1      -5.667   0.866   0.438  1.00  0.00    -0.014 A 
ATOM     75  C   UNL     1      -6.689   1.580  -0.209  1.00  0.00     0.010 A 
ATOM     76  C   UNL     1      -4.328   1.231   0.211  1.00  0.00     0.010 A 
ATOM     77  C   UNL     1      -6.375   2.644  -1.061  1.00  0.00     0.020 A 
ATOM     78  C   UNL     1      -4.011   2.311  -0.616  1.00  0.00     0.020 A 
ATOM     79  C   UNL     1      -5.038   3.009  -1.250  1.00  0.00     0.054 A 
BRANCH  79  80
ATOM     80  S   UNL     1      -4.659   4.445  -2.293  1.00  0.00     0.124 S 
ATOM     81  O   UNL     1      -4.971   3.942  -3.627  1.00  0.00    -0.237 OA
ATOM     82  O   UNL     1      -5.570   5.460  -1.768  1.00  0.00    -0.237 OA
ATOM     83  O   UNL     1      -3.243   4.691  -2.033  1.00  0.00    -0.744 OA
ENDBRANCH  79  80
ENDBRANCH  51  74
BRANCH  63  84
ATOM     84  C   UNL     1      -8.115  -5.659  -0.237  1.00  0.00    -0.014 A 
ATOM     85  C   UNL     1      -7.225  -6.228  -1.163  1.00  0.00     0.010 A 
ATOM     86  C   UNL     1      -9.490  -5.945  -0.339  1.00  0.00     0.010 A 
ATOM     87  C   UNL     1      -7.703  -7.069  -2.174  1.00  0.00     0.020 A 
ATOM     88  C   UNL     1      -9.968  -6.803  -1.333  1.00  0.00     0.020 A 
ATOM     89  C   UNL     1      -9.070  -7.358  -2.246  1.00  0.00     0.054 A 
BRANCH  89  90
ATOM     90  S   UNL     1      -9.652  -8.529  -3.505  1.00  0.00     0.124 S 
ATOM     91  O   UNL     1      -9.549  -7.737  -4.728  1.00  0.00    -0.237 OA
ATOM     92  O   UNL     1      -8.697  -9.628  -3.385  1.00  0.00    -0.237 OA
ATOM     93  O   UNL     1     -11.014  -8.846  -3.080  1.00  0.00    -0.744 OA
ENDBRANCH  89  90
ENDBRANCH  63  84
ENDBRANCH  37  38
ENDBRANCH  30  32
ENDBRANCH  29  30
ENDBRANCH  28  29
ENDBRANCH  27  28
ENDBRANCH  26  27
ENDBRANCH   1  26
TORSDOF 22
