REMARK SMILES Cc1cccc(O[C@H](C)C(=O)NNC(=O)[C@H]2[C@@H]3CC[C@@H](C3)[C@@H]2C(=O)OCCOCCOC(=O)c2ccc(-c3c4nc(c(-c5ccc(S(=O)(=O)[O-])cc5)c5ccc([nH]5)c(-c5ccc(S(=O)(=O)[O-])cc5)c5nc(c(-c6ccc(S(=O)(=O)[O-])cc6)c6ccc3[nH]6)C=C5)C=C4)cc2)c1
REMARK SMILES IDX 27 1 26 2 25 3 23 4 24 5 22 6 16 7 17 8 18 9 21 10 20 11
REMARK SMILES IDX 19 12 14 13 13 14 15 16 12 17 10 18 11 19 8 21 9 22 7 23
REMARK SMILES IDX 6 24 1 25 2 26 3 27 94 28 4 29 5 30 28 31 29 32 30 33 31 34
REMARK SMILES IDX 32 35 33 36 34 37 35 38 93 39 36 40 92 41 37 42 38 43 39 44
REMARK SMILES IDX 86 45 40 46 91 47 85 48 87 49 41 50 90 51 84 52 83 53 42 55
REMARK SMILES IDX 72 56 53 57 71 58 54 59 57 60 70 61 88 62 55 63 56 64 69 66
REMARK SMILES IDX 89 67 58 68 43 69 44 70 52 71 45 72 51 73 46 74 47 75 48 76
REMARK SMILES IDX 49 77 50 78 73 79 74 80 82 81 75 82 81 83 76 84 77 85 78 86
REMARK SMILES IDX 79 87 80 88 59 89 60 90 68 91 61 92 67 93 62 94 63 95 64 96
REMARK SMILES IDX 65 97 66 98
REMARK H PARENT 13 15 12 20 87 54 57 65
REMARK Flexibility Score: inf
ROOT
ATOM      1  C   UNL     1       3.791   4.411  -0.391  1.00  0.00     0.202 C 
ENDROOT
BRANCH   1   2
ATOM      2  C   UNL     1       3.933   4.716  -1.864  1.00  0.00     0.261 C 
BRANCH   2   3
ATOM      3  O   UNL     1       3.188   3.797  -2.675  1.00  0.00    -0.463 OA
BRANCH   3   4
ATOM      4  C   UNL     1       3.675   2.538  -2.918  1.00  0.00     0.310 C 
ATOM      5  O   UNL     1       4.772   2.093  -2.700  1.00  0.00    -0.252 OA
BRANCH   4   6
ATOM      6  C   UNL     1       2.481   1.703  -3.295  1.00  0.00     0.115 C 
ATOM      7  C   UNL     1       2.415   0.454  -2.414  1.00  0.00     0.098 C 
ATOM      8  C   UNL     1       1.841  -0.611  -3.374  1.00  0.00     0.003 C 
ATOM      9  C   UNL     1       3.001  -1.105  -4.265  1.00  0.00     0.005 C 
ATOM     10  C   UNL     1       1.063   0.219  -4.398  1.00  0.00     0.009 C 
ATOM     11  C   UNL     1       2.253   1.148  -4.700  1.00  0.00     0.004 C 
ATOM     12  C   UNL     1       3.326   0.133  -5.116  1.00  0.00     0.005 C 
BRANCH   7  13
ATOM     13  C   UNL     1       1.770   0.567  -1.046  1.00  0.00     0.242 C 
ATOM     14  N   UNL     1       0.959   1.600  -0.676  1.00  0.00    -0.267 N 
ATOM     15  H   UNL     1       1.043   1.909   0.255  1.00  0.00     0.191 HD
ATOM     16  O   UNL     1       2.037  -0.281  -0.185  1.00  0.00    -0.273 OA
BRANCH  14  17
ATOM     17  N   UNL     1       0.033   2.263  -1.458  1.00  0.00    -0.264 N 
ATOM     18  C   UNL     1      -0.685   3.354  -1.065  1.00  0.00     0.279 C 
ATOM     19  O   UNL     1      -1.009   4.157  -1.951  1.00  0.00    -0.269 OA
ATOM     20  H   UNL     1      -0.121   1.921  -2.368  1.00  0.00     0.191 HD
BRANCH  18  21
ATOM     21  C   UNL     1      -1.326   3.466   0.344  1.00  0.00     0.260 C 
ATOM     22  C   UNL     1      -2.731   2.849   0.274  1.00  0.00     0.064 C 
BRANCH  21  23
ATOM     23  O   UNL     1      -0.682   3.353   1.595  1.00  0.00    -0.481 OA
BRANCH  23  24
ATOM     24  C   UNL     1      -0.255   2.213   2.192  1.00  0.00     0.120 A 
ATOM     25  C   UNL     1       2.388   1.610   4.883  1.00  0.00     0.044 C 
ATOM     26  C   UNL     1       1.341   1.367   3.838  1.00  0.00    -0.047 A 
ATOM     27  C   UNL     1       1.029   0.062   3.453  1.00  0.00     0.003 A 
ATOM     28  C   UNL     1       0.686   2.433   3.207  1.00  0.00     0.049 A 
ATOM     29  C   UNL     1       0.068  -0.167   2.471  1.00  0.00     0.004 A 
ATOM     30  C   UNL     1      -0.582   0.904   1.850  1.00  0.00     0.046 A 
ENDBRANCH  23  24
ENDBRANCH  21  23
ENDBRANCH  18  21
ENDBRANCH  14  17
ENDBRANCH   7  13
ENDBRANCH   4   6
ENDBRANCH   3   4
ENDBRANCH   2   3
ENDBRANCH   1   2
BRANCH   1  31
ATOM     31  O   UNL     1       4.467   3.178  -0.168  1.00  0.00    -0.374 OA
BRANCH  31  32
ATOM     32  C   UNL     1       4.399   2.650   1.140  1.00  0.00     0.202 C 
BRANCH  32  33
ATOM     33  C   UNL     1       5.044   3.547   2.203  1.00  0.00     0.261 C 
BRANCH  33  34
ATOM     34  O   UNL     1       6.475   3.602   2.031  1.00  0.00    -0.460 OA
BRANCH  34  35
ATOM     35  C   UNL     1       6.952   4.751   1.468  1.00  0.00     0.338 C 
ATOM     36  O   UNL     1       6.999   5.823   2.044  1.00  0.00    -0.246 OA
BRANCH  35  37
ATOM     37  C   UNL     1       7.376   4.491   0.062  1.00  0.00     0.060 A 
ATOM     38  C   UNL     1       7.501   5.535  -0.872  1.00  0.00     0.016 A 
ATOM     39  C   UNL     1       7.450   3.172  -0.368  1.00  0.00     0.016 A 
ATOM     40  C   UNL     1       7.572   5.253  -2.253  1.00  0.00     0.010 A 
ATOM     41  C   UNL     1       7.427   2.908  -1.721  1.00  0.00     0.010 A 
ATOM     42  C   UNL     1       7.474   3.931  -2.684  1.00  0.00    -0.014 A 
BRANCH  42  43
ATOM     43  C   UNL     1       7.317   3.452  -4.067  1.00  0.00     0.031 A 
ATOM     44  C   UNL     1       8.291   2.451  -4.594  1.00  0.00     0.074 A 
ATOM     45  C   UNL     1       6.170   3.631  -4.770  1.00  0.00     0.049 A 
ATOM     46  N   UNL     1       8.335   2.064  -5.825  1.00  0.00    -0.248 NA
ATOM     47  C   UNL     1       9.332   1.815  -3.786  1.00  0.00     0.031 C 
ATOM     48  C   UNL     1       5.633   2.707  -5.777  1.00  0.00     0.029 A 
ATOM     49  N   UNL     1       5.171   4.578  -4.715  1.00  0.00    -0.354 N 
ATOM     50  C   UNL     1       9.077   0.908  -5.875  1.00  0.00     0.074 A 
ATOM     51  C   UNL     1       9.791   0.880  -4.623  1.00  0.00     0.031 C 
ATOM     52  C   UNL     1       4.532   3.223  -6.344  1.00  0.00     0.029 A 
ATOM     53  C   UNL     1       4.399   4.582  -5.867  1.00  0.00     0.049 A 
ATOM     54  H   UNL     1       5.022   5.179  -3.949  1.00  0.00     0.167 HD
ATOM     55  C   UNL     1       8.883   0.038  -6.907  1.00  0.00     0.031 A 
ATOM     56  C   UNL     1       4.225   5.687  -6.648  1.00  0.00     0.031 A 
ATOM     57  C   UNL     1       7.866   0.529  -7.851  1.00  0.00     0.049 A 
ATOM     58  C   UNL     1       4.862   5.444  -8.000  1.00  0.00     0.074 A 
ATOM     59  C   UNL     1       6.583   0.110  -8.168  1.00  0.00     0.029 A 
ATOM     60  N   UNL     1       8.022   1.779  -8.447  1.00  0.00    -0.354 N 
ATOM     61  N   UNL     1       5.720   4.479  -8.192  1.00  0.00    -0.248 NA
ATOM     62  C   UNL     1       4.579   6.165  -9.236  1.00  0.00     0.031 C 
ATOM     63  C   UNL     1       5.968   1.128  -8.951  1.00  0.00     0.029 A 
ATOM     64  C   UNL     1       6.883   2.153  -9.133  1.00  0.00     0.049 A 
ATOM     65  H   UNL     1       8.839   2.325  -8.388  1.00  0.00     0.167 HD
ATOM     66  C   UNL     1       6.042   4.374  -9.506  1.00  0.00     0.074 A 
ATOM     67  C   UNL     1       5.337   5.485 -10.122  1.00  0.00     0.031 C 
ATOM     68  C   UNL     1       6.858   3.373  -9.945  1.00  0.00     0.031 A 
BRANCH  55  69
ATOM     69  C   UNL     1       9.451  -1.371  -6.987  1.00  0.00    -0.014 A 
ATOM     70  C   UNL     1       9.019  -2.239  -8.013  1.00  0.00     0.010 A 
ATOM     71  C   UNL     1      10.397  -1.913  -6.096  1.00  0.00     0.010 A 
ATOM     72  C   UNL     1       9.475  -3.565  -8.120  1.00  0.00     0.020 A 
ATOM     73  C   UNL     1      10.859  -3.236  -6.183  1.00  0.00     0.020 A 
ATOM     74  C   UNL     1      10.392  -4.058  -7.197  1.00  0.00     0.054 A 
BRANCH  74  75
ATOM     75  S   UNL     1      10.983  -5.763  -7.347  1.00  0.00     0.124 S 
ATOM     76  O   UNL     1       9.751  -6.535  -7.212  1.00  0.00    -0.237 OA
ATOM     77  O   UNL     1      11.592  -5.770  -8.673  1.00  0.00    -0.237 OA
ATOM     78  O   UNL     1      11.922  -5.904  -6.235  1.00  0.00    -0.744 OA
ENDBRANCH  74  75
ENDBRANCH  55  69
BRANCH  56  79
ATOM     79  C   UNL     1       4.149   6.953  -5.857  1.00  0.00    -0.014 A 
ATOM     80  C   UNL     1       2.931   7.194  -5.177  1.00  0.00     0.010 A 
ATOM     81  C   UNL     1       5.324   7.534  -5.342  1.00  0.00     0.010 A 
ATOM     82  C   UNL     1       2.913   7.832  -3.928  1.00  0.00     0.020 A 
ATOM     83  C   UNL     1       5.311   8.154  -4.079  1.00  0.00     0.020 A 
ATOM     84  C   UNL     1       4.114   8.254  -3.358  1.00  0.00     0.054 A 
BRANCH  84  85
ATOM     85  S   UNL     1       4.163   8.642  -1.569  1.00  0.00     0.124 S 
ATOM     86  O   UNL     1       3.893  10.073  -1.552  1.00  0.00    -0.237 OA
ATOM     87  O   UNL     1       3.109   7.794  -1.012  1.00  0.00    -0.237 OA
ATOM     88  O   UNL     1       5.515   8.238  -1.192  1.00  0.00    -0.744 OA
ENDBRANCH  84  85
ENDBRANCH  56  79
BRANCH  68  89
ATOM     89  C   UNL     1       7.673   3.404 -11.212  1.00  0.00    -0.014 A 
ATOM     90  C   UNL     1       7.802   4.533 -12.031  1.00  0.00     0.010 A 
ATOM     91  C   UNL     1       8.492   2.290 -11.525  1.00  0.00     0.010 A 
ATOM     92  C   UNL     1       8.666   4.537 -13.130  1.00  0.00     0.020 A 
ATOM     93  C   UNL     1       9.400   2.302 -12.584  1.00  0.00     0.020 A 
ATOM     94  C   UNL     1       9.462   3.424 -13.396  1.00  0.00     0.054 A 
BRANCH  94  95
ATOM     95  S   UNL     1      10.608   3.486 -14.789  1.00  0.00     0.124 S 
ATOM     96  O   UNL     1       9.702   3.338 -15.926  1.00  0.00    -0.237 OA
ATOM     97  O   UNL     1      11.217   4.806 -14.642  1.00  0.00    -0.237 OA
ATOM     98  O   UNL     1      11.508   2.361 -14.553  1.00  0.00    -0.744 OA
ENDBRANCH  94  95
ENDBRANCH  68  89
ENDBRANCH  42  43
ENDBRANCH  35  37
ENDBRANCH  34  35
ENDBRANCH  33  34
ENDBRANCH  32  33
ENDBRANCH  31  32
ENDBRANCH   1  31
TORSDOF 22
