REMARK SMILES O=C(OCCOCCOC(=O)c1ccc(C[NH2+][C@@H]2CCCC[C@H]2O)nc1)c1ccc(-c2c3nc(c(-c4ccc(S(=O)(=O)[O-])cc4)c4ccc([nH]4)c(-c4ccc(S(=O)(=O)[O-])cc4)c4nc(c(-c5ccc(S(=O)(=O)[O-])cc5)c5ccc2[nH]5)C=C4)C=C3)cc1
REMARK SMILES IDX 7 1 6 2 5 3 4 4 3 5 2 6 1 7 27 8 28 9 86 10 29 11 85 12
REMARK SMILES IDX 30 13 31 14 32 15 79 16 33 17 84 18 78 19 80 20 34 21 83 22
REMARK SMILES IDX 77 23 76 24 35 26 65 27 46 28 64 29 47 30 50 31 63 32 81 33
REMARK SMILES IDX 48 34 49 35 62 37 82 38 51 39 36 40 37 41 45 42 38 43 44 44
REMARK SMILES IDX 39 45 40 46 41 47 42 48 43 49 66 50 67 51 75 52 68 53 74 54
REMARK SMILES IDX 69 55 70 56 71 57 72 58 73 59 52 60 53 61 61 62 54 63 60 64
REMARK SMILES IDX 55 65 56 66 57 67 58 68 59 69 8 70 9 71 10 72 11 73 12 74
REMARK SMILES IDX 13 75 26 76 14 77 25 78 15 79 16 80 17 81 18 84 19 85 23 86
REMARK SMILES IDX 20 87 22 88 21 89 24 90
REMARK H PARENT 80 25 50 36 17 82 17 83 24 91
REMARK Flexibility Score: inf
ROOT
ATOM      1  C   UNL     1      16.303   2.737  -9.413  1.00  0.00     0.202 C 
ENDROOT
BRANCH   1   2
ATOM      2  O   UNL     1      15.877   4.104  -9.485  1.00  0.00    -0.374 OA
BRANCH   2   3
ATOM      3  C   UNL     1      14.708   4.358 -10.266  1.00  0.00     0.202 C 
BRANCH   3   4
ATOM      4  C   UNL     1      14.941   4.457 -11.779  1.00  0.00     0.261 C 
BRANCH   4   5
ATOM      5  O   UNL     1      15.539   3.247 -12.281  1.00  0.00    -0.460 OA
BRANCH   5   6
ATOM      6  C   UNL     1      16.812   3.050 -12.703  1.00  0.00     0.338 C 
ATOM      7  O   UNL     1      17.104   1.966 -13.206  1.00  0.00    -0.246 OA
BRANCH   6   8
ATOM      8  C   UNL     1      17.889   4.078 -12.573  1.00  0.00     0.060 A 
ATOM      9  C   UNL     1      17.902   5.080 -11.605  1.00  0.00     0.016 A 
ATOM     10  C   UNL     1      19.003   3.971 -13.423  1.00  0.00     0.016 A 
ATOM     11  C   UNL     1      18.928   6.005 -11.531  1.00  0.00     0.010 A 
ATOM     12  C   UNL     1      20.079   4.861 -13.313  1.00  0.00     0.010 A 
ATOM     13  C   UNL     1      20.030   5.894 -12.373  1.00  0.00    -0.014 A 
BRANCH  13  14
ATOM     14  C   UNL     1      21.060   6.942 -12.259  1.00  0.00     0.031 A 
ATOM     15  C   UNL     1      21.121   8.004 -13.312  1.00  0.00     0.074 A 
ATOM     16  C   UNL     1      21.777   7.025 -11.121  1.00  0.00     0.049 A 
ATOM     17  N   UNL     1      21.898   9.049 -13.381  1.00  0.00    -0.248 NA
ATOM     18  C   UNL     1      20.163   7.888 -14.426  1.00  0.00     0.031 C 
ATOM     19  C   UNL     1      21.677   6.091  -9.992  1.00  0.00     0.029 A 
ATOM     20  N   UNL     1      22.682   7.959 -10.696  1.00  0.00    -0.354 N 
ATOM     21  C   UNL     1      21.532   9.710 -14.546  1.00  0.00     0.074 A 
ATOM     22  C   UNL     1      20.478   8.941 -15.165  1.00  0.00     0.031 C 
ATOM     23  C   UNL     1      22.456   6.526  -8.990  1.00  0.00     0.029 A 
ATOM     24  C   UNL     1      23.164   7.722  -9.430  1.00  0.00     0.049 A 
ATOM     25  H   UNL     1      22.961   8.728 -11.244  1.00  0.00     0.167 HD
ATOM     26  C   UNL     1      22.038  10.860 -15.048  1.00  0.00     0.031 A 
ATOM     27  C   UNL     1      24.098   8.384  -8.721  1.00  0.00     0.031 A 
ATOM     28  C   UNL     1      23.103  11.589 -14.416  1.00  0.00     0.049 A 
ATOM     29  C   UNL     1      24.721   9.598  -9.355  1.00  0.00     0.074 A 
ATOM     30  C   UNL     1      23.776  12.707 -14.870  1.00  0.00     0.029 A 
ATOM     31  N   UNL     1      23.645  11.266 -13.178  1.00  0.00    -0.354 N 
ATOM     32  N   UNL     1      24.430  10.165 -10.505  1.00  0.00    -0.248 NA
ATOM     33  C   UNL     1      25.799  10.256  -8.611  1.00  0.00     0.031 C 
ATOM     34  C   UNL     1      24.756  13.034 -13.925  1.00  0.00     0.029 A 
ATOM     35  C   UNL     1      24.652  12.155 -12.855  1.00  0.00     0.049 A 
ATOM     36  H   UNL     1      23.354  10.513 -12.614  1.00  0.00     0.167 HD
ATOM     37  C   UNL     1      25.285  11.252 -10.618  1.00  0.00     0.074 A 
ATOM     38  C   UNL     1      26.079  11.281  -9.403  1.00  0.00     0.031 C 
ATOM     39  C   UNL     1      25.418  12.142 -11.633  1.00  0.00     0.031 A 
BRANCH  26  40
ATOM     40  C   UNL     1      21.485  11.337 -16.362  1.00  0.00    -0.014 A 
ATOM     41  C   UNL     1      20.194  11.890 -16.456  1.00  0.00     0.010 A 
ATOM     42  C   UNL     1      22.260  11.210 -17.528  1.00  0.00     0.010 A 
ATOM     43  C   UNL     1      19.676  12.271 -17.698  1.00  0.00     0.020 A 
ATOM     44  C   UNL     1      21.755  11.611 -18.768  1.00  0.00     0.020 A 
ATOM     45  C   UNL     1      20.459  12.124 -18.847  1.00  0.00     0.054 A 
BRANCH  45  46
ATOM     46  S   UNL     1      19.764  12.629 -20.445  1.00  0.00     0.124 S 
ATOM     47  O   UNL     1      18.776  11.581 -20.689  1.00  0.00    -0.237 OA
ATOM     48  O   UNL     1      19.218  13.951 -20.153  1.00  0.00    -0.237 OA
ATOM     49  O   UNL     1      20.916  12.618 -21.344  1.00  0.00    -0.744 OA
ENDBRANCH  45  46
ENDBRANCH  26  40
BRANCH  27  50
ATOM     50  C   UNL     1      24.553   7.869  -7.397  1.00  0.00    -0.014 A 
ATOM     51  C   UNL     1      24.386   8.613  -6.217  1.00  0.00     0.010 A 
ATOM     52  C   UNL     1      25.190   6.614  -7.320  1.00  0.00     0.010 A 
ATOM     53  C   UNL     1      24.875   8.130  -4.996  1.00  0.00     0.020 A 
ATOM     54  C   UNL     1      25.648   6.112  -6.100  1.00  0.00     0.020 A 
ATOM     55  C   UNL     1      25.507   6.883  -4.947  1.00  0.00     0.054 A 
BRANCH  55  56
ATOM     56  S   UNL     1      26.131   6.268  -3.357  1.00  0.00     0.124 S 
ATOM     57  O   UNL     1      27.317   7.095  -3.157  1.00  0.00    -0.237 OA
ATOM     58  O   UNL     1      25.014   6.533  -2.454  1.00  0.00    -0.237 OA
ATOM     59  O   UNL     1      26.390   4.853  -3.616  1.00  0.00    -0.744 OA
ENDBRANCH  55  56
ENDBRANCH  27  50
BRANCH  39  60
ATOM     60  C   UNL     1      26.440  13.228 -11.448  1.00  0.00    -0.014 A 
ATOM     61  C   UNL     1      27.816  12.948 -11.519  1.00  0.00     0.010 A 
ATOM     62  C   UNL     1      26.011  14.551 -11.242  1.00  0.00     0.010 A 
ATOM     63  C   UNL     1      28.748  13.972 -11.345  1.00  0.00     0.020 A 
ATOM     64  C   UNL     1      26.940  15.581 -11.099  1.00  0.00     0.020 A 
ATOM     65  C   UNL     1      28.304  15.281 -11.134  1.00  0.00     0.054 A 
BRANCH  65  66
ATOM     66  S   UNL     1      29.534  16.599 -10.945  1.00  0.00     0.124 S 
ATOM     67  O   UNL     1      30.026  16.361  -9.591  1.00  0.00    -0.237 OA
ATOM     68  O   UNL     1      30.481  16.310 -12.019  1.00  0.00    -0.237 OA
ATOM     69  O   UNL     1      28.757  17.824 -11.121  1.00  0.00    -0.744 OA
ENDBRANCH  65  66
ENDBRANCH  39  60
ENDBRANCH  13  14
ENDBRANCH   6   8
ENDBRANCH   5   6
ENDBRANCH   4   5
ENDBRANCH   3   4
ENDBRANCH   2   3
ENDBRANCH   1   2
BRANCH   1  70
ATOM     70  C   UNL     1      16.652   2.384  -7.964  1.00  0.00     0.261 C 
BRANCH  70  71
ATOM     71  O   UNL     1      15.448   2.463  -7.185  1.00  0.00    -0.460 OA
BRANCH  71  72
ATOM     72  C   UNL     1      15.166   3.712  -6.724  1.00  0.00     0.339 C 
ATOM     73  O   UNL     1      15.935   4.625  -6.526  1.00  0.00    -0.246 OA
BRANCH  72  74
ATOM     74  C   UNL     1      13.701   3.853  -6.722  1.00  0.00     0.078 A 
ATOM     75  C   UNL     1      12.837   2.793  -6.455  1.00  0.00     0.019 A 
ATOM     76  C   UNL     1      13.164   5.071  -7.101  1.00  0.00     0.127 A 
ATOM     77  C   UNL     1      11.466   2.989  -6.586  1.00  0.00     0.031 A 
ATOM     78  N   UNL     1      11.834   5.285  -7.233  1.00  0.00    -0.254 NA
ATOM     79  C   UNL     1      10.998   4.245  -6.970  1.00  0.00     0.094 A 
BRANCH  79  80
ATOM     80  C   UNL     1       9.502   4.470  -7.125  1.00  0.00     0.318 C 
BRANCH  80  81
ATOM     81  N   UNL     1       9.126   5.859  -6.871  1.00  0.00    -0.337 N 
ATOM     82  H   UNL     1       9.366   6.404  -7.699  1.00  0.00     0.346 HD
ATOM     83  H   UNL     1       9.634   6.136  -6.032  1.00  0.00     0.346 HD
BRANCH  81  84
ATOM     84  C   UNL     1       7.712   6.087  -6.576  1.00  0.00     0.211 C 
ATOM     85  C   UNL     1       6.770   5.538  -7.665  1.00  0.00     0.068 C 
ATOM     86  C   UNL     1       7.472   7.613  -6.419  1.00  0.00     0.172 C 
ATOM     87  C   UNL     1       6.963   6.250  -9.003  1.00  0.00     0.006 C 
ATOM     88  C   UNL     1       7.654   8.353  -7.749  1.00  0.00     0.038 C 
ATOM     89  C   UNL     1       6.793   7.761  -8.867  1.00  0.00     0.003 C 
BRANCH  86  90
ATOM     90  O   UNL     1       6.150   7.862  -5.928  1.00  0.00    -0.387 OA
ATOM     91  H   UNL     1       5.500   7.528  -6.567  1.00  0.00     0.211 HD
ENDBRANCH  86  90
ENDBRANCH  81  84
ENDBRANCH  80  81
ENDBRANCH  79  80
ENDBRANCH  72  74
ENDBRANCH  71  72
ENDBRANCH  70  71
ENDBRANCH   1  70
TORSDOF 21
