REMARK SMILES CC(C)[C@H](NC(=O)[C@H](C)NC(=O)CNC(=O)OCc1ccccc1)C(=O)OCCOCCOC(=O)c1ccc(-c2c3nc(c(-c4ccc(S(=O)(=O)[O-])cc4)c4ccc([nH]4)c(-c4ccc(S(=O)(=O)[O-])cc4)c4nc(c(-c5ccc(S(=O)(=O)[O-])cc5)c5ccc2[nH]5)C=C4)C=C3)cc1
REMARK SMILES IDX 28 1 27 2 25 3 26 4 4 5 2 6 1 7 3 8 5 9 6 10 7 12 8 13 9 14
REMARK SMILES IDX 10 15 11 16 12 18 13 19 14 20 15 21 16 23 17 24 18 25 19 26
REMARK SMILES IDX 20 27 24 28 21 29 23 30 22 31 29 32 30 33 31 34 32 35 33 36
REMARK SMILES IDX 34 37 35 38 36 39 37 40 95 41 38 42 94 43 39 44 40 45 41 46
REMARK SMILES IDX 88 47 42 48 93 49 87 50 89 51 43 52 92 53 86 54 85 55 44 57
REMARK SMILES IDX 74 58 55 59 73 60 56 61 59 62 72 63 90 64 57 65 58 66 71 68
REMARK SMILES IDX 91 69 60 70 45 71 46 72 54 73 47 74 53 75 48 76 49 77 50 78
REMARK SMILES IDX 51 79 52 80 75 81 76 82 84 83 77 84 83 85 78 86 79 87 80 88
REMARK SMILES IDX 81 89 82 90 61 91 62 92 70 93 63 94 69 95 64 96 65 97 66 98
REMARK SMILES IDX 67 99 68 100
REMARK H PARENT 5 11 10 17 14 22 89 56 59 67
REMARK Flexibility Score: inf
ROOT
ATOM      1  C   UNL     1      -4.609   2.201  -2.216  1.00  0.00     0.261 C 
ENDROOT
BRANCH   1   2
ATOM      2  O   UNL     1      -4.021   1.547  -3.372  1.00  0.00    -0.462 OA
BRANCH   2   3
ATOM      3  C   UNL     1      -2.705   1.211  -3.227  1.00  0.00     0.328 C 
ATOM      4  O   UNL     1      -2.080   1.336  -2.178  1.00  0.00    -0.250 OA
BRANCH   3   5
ATOM      5  C   UNL     1      -2.042   0.604  -4.493  1.00  0.00     0.194 C 
BRANCH   5   6
ATOM      6  C   UNL     1      -0.686   1.324  -4.735  1.00  0.00     0.017 C 
ATOM      7  C   UNL     1       0.297   0.412  -5.473  1.00  0.00     0.010 C 
ATOM      8  C   UNL     1      -0.830   2.667  -5.453  1.00  0.00     0.010 C 
ENDBRANCH   5   6
BRANCH   5   9
ATOM      9  N   UNL     1      -2.838   0.511  -5.736  1.00  0.00    -0.341 N 
ATOM     10  C   UNL     1      -3.158  -0.539  -6.549  1.00  0.00     0.242 C 
ATOM     11  H   UNL     1      -3.208   1.373  -6.035  1.00  0.00     0.164 HD
ATOM     12  O   UNL     1      -3.284  -0.287  -7.754  1.00  0.00    -0.273 OA
BRANCH  10  13
ATOM     13  C   UNL     1      -3.517  -1.961  -6.025  1.00  0.00     0.168 C 
ATOM     14  C   UNL     1      -4.976  -2.190  -6.462  1.00  0.00     0.041 C 
BRANCH  13  15
ATOM     15  N   UNL     1      -3.349  -2.076  -4.580  1.00  0.00    -0.343 N 
ATOM     16  C   UNL     1      -2.886  -3.049  -3.757  1.00  0.00     0.240 C 
ATOM     17  H   UNL     1      -3.635  -1.268  -4.095  1.00  0.00     0.164 HD
ATOM     18  O   UNL     1      -2.595  -2.720  -2.605  1.00  0.00    -0.273 OA
BRANCH  16  19
ATOM     19  C   UNL     1      -2.812  -4.498  -4.196  1.00  0.00     0.219 C 
BRANCH  19  20
ATOM     20  N   UNL     1      -4.177  -4.952  -4.349  1.00  0.00    -0.312 N 
ATOM     21  C   UNL     1      -4.780  -5.202  -5.538  1.00  0.00     0.407 C 
ATOM     22  H   UNL     1      -4.707  -5.089  -3.531  1.00  0.00     0.167 HD
ATOM     23  O   UNL     1      -5.987  -5.348  -5.627  1.00  0.00    -0.225 OA
BRANCH  21  24
ATOM     24  O   UNL     1      -3.885  -5.275  -6.550  1.00  0.00    -0.445 OA
BRANCH  24  25
ATOM     25  C   UNL     1      -4.427  -5.553  -7.844  1.00  0.00     0.270 C 
BRANCH  25  26
ATOM     26  C   UNL     1      -4.702  -7.019  -8.082  1.00  0.00    -0.011 A 
ATOM     27  C   UNL     1      -4.902  -7.457  -9.398  1.00  0.00     0.007 A 
ATOM     28  C   UNL     1      -4.872  -7.940  -7.037  1.00  0.00     0.007 A 
ATOM     29  C   UNL     1      -5.291  -8.771  -9.654  1.00  0.00     0.000 A 
ATOM     30  C   UNL     1      -5.278  -9.247  -7.291  1.00  0.00     0.000 A 
ATOM     31  C   UNL     1      -5.494  -9.660  -8.600  1.00  0.00     0.000 A 
ENDBRANCH  25  26
ENDBRANCH  24  25
ENDBRANCH  21  24
ENDBRANCH  19  20
ENDBRANCH  16  19
ENDBRANCH  13  15
ENDBRANCH  10  13
ENDBRANCH   5   9
ENDBRANCH   3   5
ENDBRANCH   2   3
ENDBRANCH   1   2
BRANCH   1  32
ATOM     32  C   UNL     1      -5.957   1.642  -1.725  1.00  0.00     0.202 C 
BRANCH  32  33
ATOM     33  O   UNL     1      -6.044   0.270  -1.348  1.00  0.00    -0.374 OA
BRANCH  33  34
ATOM     34  C   UNL     1      -5.576  -0.689  -2.280  1.00  0.00     0.202 C 
BRANCH  34  35
ATOM     35  C   UNL     1      -6.265  -0.746  -3.647  1.00  0.00     0.261 C 
BRANCH  35  36
ATOM     36  O   UNL     1      -6.715   0.506  -4.142  1.00  0.00    -0.460 OA
BRANCH  36  37
ATOM     37  C   UNL     1      -7.894   0.479  -4.795  1.00  0.00     0.338 C 
ATOM     38  O   UNL     1      -8.591  -0.479  -5.064  1.00  0.00    -0.246 OA
BRANCH  37  39
ATOM     39  C   UNL     1      -8.192   1.864  -5.156  1.00  0.00     0.060 A 
ATOM     40  C   UNL     1      -8.730   2.719  -4.190  1.00  0.00     0.016 A 
ATOM     41  C   UNL     1      -7.941   2.294  -6.459  1.00  0.00     0.016 A 
ATOM     42  C   UNL     1      -9.060   4.020  -4.545  1.00  0.00     0.010 A 
ATOM     43  C   UNL     1      -8.262   3.602  -6.809  1.00  0.00     0.010 A 
ATOM     44  C   UNL     1      -8.857   4.454  -5.863  1.00  0.00    -0.014 A 
BRANCH  44  45
ATOM     45  C   UNL     1      -9.440   5.740  -6.294  1.00  0.00     0.031 A 
ATOM     46  C   UNL     1     -10.727   5.710  -7.068  1.00  0.00     0.074 A 
ATOM     47  C   UNL     1      -8.853   6.900  -5.953  1.00  0.00     0.049 A 
ATOM     48  N   UNL     1     -11.413   6.703  -7.567  1.00  0.00    -0.248 NA
ATOM     49  C   UNL     1     -11.323   4.384  -7.310  1.00  0.00     0.031 C 
ATOM     50  C   UNL     1      -7.633   7.028  -5.153  1.00  0.00     0.029 A 
ATOM     51  N   UNL     1      -9.210   8.193  -6.229  1.00  0.00    -0.354 N 
ATOM     52  C   UNL     1     -12.516   6.123  -8.182  1.00  0.00     0.074 A 
ATOM     53  C   UNL     1     -12.390   4.692  -8.030  1.00  0.00     0.031 C 
ATOM     54  C   UNL     1      -7.348   8.333  -4.999  1.00  0.00     0.029 A 
ATOM     55  C   UNL     1      -8.338   9.126  -5.723  1.00  0.00     0.049 A 
ATOM     56  H   UNL     1     -10.016   8.431  -6.743  1.00  0.00     0.167 HD
ATOM     57  C   UNL     1     -13.547   6.735  -8.808  1.00  0.00     0.031 A 
ATOM     58  C   UNL     1      -8.335  10.466  -5.851  1.00  0.00     0.031 A 
ATOM     59  C   UNL     1     -13.647   8.160  -8.961  1.00  0.00     0.049 A 
ATOM     60  C   UNL     1      -9.447  11.117  -6.635  1.00  0.00     0.074 A 
ATOM     61  C   UNL     1     -14.637   8.892  -9.590  1.00  0.00     0.029 A 
ATOM     62  N   UNL     1     -12.718   9.071  -8.477  1.00  0.00    -0.354 N 
ATOM     63  N   UNL     1     -10.483  10.557  -7.214  1.00  0.00    -0.248 NA
ATOM     64  C   UNL     1      -9.393  12.577  -6.776  1.00  0.00     0.031 C 
ATOM     65  C   UNL     1     -14.278  10.242  -9.535  1.00  0.00     0.029 A 
ATOM     66  C   UNL     1     -13.102  10.357  -8.808  1.00  0.00     0.049 A 
ATOM     67  H   UNL     1     -11.905   8.835  -7.973  1.00  0.00     0.167 HD
ATOM     68  C   UNL     1     -11.228  11.602  -7.750  1.00  0.00     0.074 A 
ATOM     69  C   UNL     1     -10.525  12.825  -7.420  1.00  0.00     0.031 C 
ATOM     70  C   UNL     1     -12.391  11.557  -8.447  1.00  0.00     0.031 A 
BRANCH  57  71
ATOM     71  C   UNL     1     -14.628   5.865  -9.393  1.00  0.00    -0.014 A 
ATOM     72  C   UNL     1     -15.522   5.158  -8.568  1.00  0.00     0.010 A 
ATOM     73  C   UNL     1     -14.778   5.784 -10.789  1.00  0.00     0.010 A 
ATOM     74  C   UNL     1     -16.528   4.367  -9.129  1.00  0.00     0.020 A 
ATOM     75  C   UNL     1     -15.802   5.018 -11.354  1.00  0.00     0.020 A 
ATOM     76  C   UNL     1     -16.664   4.305 -10.519  1.00  0.00     0.054 A 
BRANCH  76  77
ATOM     77  S   UNL     1     -18.008   3.307 -11.216  1.00  0.00     0.124 S 
ATOM     78  O   UNL     1     -17.560   1.948 -10.922  1.00  0.00    -0.237 OA
ATOM     79  O   UNL     1     -19.170   3.762 -10.457  1.00  0.00    -0.237 OA
ATOM     80  O   UNL     1     -18.011   3.667 -12.632  1.00  0.00    -0.744 OA
ENDBRANCH  76  77
ENDBRANCH  57  71
BRANCH  58  81
ATOM     81  C   UNL     1      -7.244  11.280  -5.247  1.00  0.00    -0.014 A 
ATOM     82  C   UNL     1      -7.511  12.187  -4.206  1.00  0.00     0.010 A 
ATOM     83  C   UNL     1      -5.926  11.166  -5.728  1.00  0.00     0.010 A 
ATOM     84  C   UNL     1      -6.490  12.988  -3.684  1.00  0.00     0.020 A 
ATOM     85  C   UNL     1      -4.897  11.940  -5.186  1.00  0.00     0.020 A 
ATOM     86  C   UNL     1      -5.190  12.861  -4.179  1.00  0.00     0.054 A 
BRANCH  86  87
ATOM     87  S   UNL     1      -3.879  13.899  -3.476  1.00  0.00     0.124 S 
ATOM     88  O   UNL     1      -4.218  15.216  -4.007  1.00  0.00    -0.237 OA
ATOM     89  O   UNL     1      -4.075  13.724  -2.040  1.00  0.00    -0.237 OA
ATOM     90  O   UNL     1      -2.652  13.307  -4.007  1.00  0.00    -0.744 OA
ENDBRANCH  86  87
ENDBRANCH  58  81
BRANCH  70  91
ATOM     91  C   UNL     1     -13.016  12.869  -8.842  1.00  0.00    -0.014 A 
ATOM     92  C   UNL     1     -12.464  13.672  -9.854  1.00  0.00     0.010 A 
ATOM     93  C   UNL     1     -14.225  13.259  -8.236  1.00  0.00     0.010 A 
ATOM     94  C   UNL     1     -13.098  14.857 -10.235  1.00  0.00     0.020 A 
ATOM     95  C   UNL     1     -14.879  14.425  -8.637  1.00  0.00     0.020 A 
ATOM     96  C   UNL     1     -14.304  15.223  -9.627  1.00  0.00     0.054 A 
BRANCH  96  97
ATOM     97  S   UNL     1     -15.139  16.732 -10.186  1.00  0.00     0.124 S 
ATOM     98  O   UNL     1     -14.272  17.776  -9.646  1.00  0.00    -0.237 OA
ATOM     99  O   UNL     1     -15.120  16.588 -11.639  1.00  0.00    -0.237 OA
ATOM    100  O   UNL     1     -16.463  16.644  -9.574  1.00  0.00    -0.744 OA
ENDBRANCH  96  97
ENDBRANCH  70  91
ENDBRANCH  44  45
ENDBRANCH  37  39
ENDBRANCH  36  37
ENDBRANCH  35  36
ENDBRANCH  34  35
ENDBRANCH  33  34
ENDBRANCH  32  33
ENDBRANCH   1  32
TORSDOF 26
