REMARK SMILES O=C(/C=C/c1ccc(C(=O)NC2CC2)cc1)NC1(C(=O)OCCOCCOC(=O)c2ccc(-c3c4nc(c(-c5ccc(S(=O)(=O)[O-])cc5)c5ccc([nH]5)c(-c5ccc(S(=O)(=O)[O-])cc5)c5nc(c(-c6ccc(S(=O)(=O)[O-])cc6)c6ccc3[nH]6)C=C5)C=C4)cc2)CCCC1
REMARK SMILES IDX 23 1 22 2 21 3 19 4 20 5 18 6 90 7 93 8 91 9 92 10 17 11
REMARK SMILES IDX 1 12 2 13 3 15 4 16 5 17 6 18 16 19 7 20 15 21 8 22 9 23
REMARK SMILES IDX 10 24 11 25 12 27 13 28 14 29 24 30 25 31 26 32 27 33 28 34
REMARK SMILES IDX 29 35 30 36 31 37 89 38 32 39 88 40 33 41 34 42 35 43 82 44
REMARK SMILES IDX 36 45 87 46 81 47 83 48 37 49 86 50 80 51 79 52 38 54 68 55
REMARK SMILES IDX 49 56 67 57 50 58 53 59 66 60 84 61 51 62 52 63 65 65 85 66
REMARK SMILES IDX 54 67 39 68 40 69 48 70 41 71 47 72 42 73 43 74 44 75 45 76
REMARK SMILES IDX 46 77 69 78 70 79 78 80 71 81 77 82 72 83 73 84 74 85 75 86
REMARK SMILES IDX 76 87 55 88 56 89 64 90 57 91 63 92 58 93 59 94 60 95 61 96
REMARK SMILES IDX 62 97
REMARK H PARENT 17 14 11 26 83 53 53 64
REMARK Flexibility Score: inf
ROOT
ATOM      1  C   UNL     1      -1.968  -1.864  -0.637  1.00  0.00     0.202 C 
ENDROOT
BRANCH   1   2
ATOM      2  C   UNL     1      -1.281  -1.381  -1.922  1.00  0.00     0.261 C 
BRANCH   2   3
ATOM      3  O   UNL     1       0.004  -2.001  -2.091  1.00  0.00    -0.461 OA
BRANCH   3   4
ATOM      4  C   UNL     1       0.926  -1.235  -2.743  1.00  0.00     0.331 C 
ATOM      5  O   UNL     1       0.656  -0.244  -3.416  1.00  0.00    -0.249 OA
BRANCH   4   6
ATOM      6  C   UNL     1       2.389  -1.706  -2.447  1.00  0.00     0.138 C 
ATOM      7  C   UNL     1       3.064  -1.960  -3.808  1.00  0.00     0.040 C 
ATOM      8  C   UNL     1       2.533  -3.089  -1.786  1.00  0.00     0.040 C 
ATOM      9  C   UNL     1       2.555  -3.332  -4.220  1.00  0.00     0.003 C 
ATOM     10  C   UNL     1       2.452  -4.118  -2.919  1.00  0.00     0.003 C 
BRANCH   6  11
ATOM     11  N   UNL     1       3.149  -0.661  -1.724  1.00  0.00    -0.337 N 
ATOM     12  O   UNL     1       1.413   0.047  -0.404  1.00  0.00    -0.270 OA
ATOM     13  C   UNL     1       2.596   0.074  -0.718  1.00  0.00     0.244 C 
ATOM     14  H   UNL     1       4.085  -0.492  -1.978  1.00  0.00     0.164 HD
BRANCH  13  15
ATOM     15  C   UNL     1       3.461   1.014   0.019  1.00  0.00     0.072 C 
ATOM     16  C   UNL     1       4.776   0.932   0.270  1.00  0.00     0.014 C 
BRANCH  16  17
ATOM     17  C   UNL     1       5.409   1.837   1.248  1.00  0.00    -0.025 A 
ATOM     18  C   UNL     1       6.760   2.176   1.162  1.00  0.00     0.009 A 
ATOM     19  C   UNL     1       4.680   2.338   2.334  1.00  0.00     0.009 A 
ATOM     20  C   UNL     1       7.357   2.975   2.155  1.00  0.00     0.014 A 
ATOM     21  C   UNL     1       5.263   3.186   3.277  1.00  0.00     0.014 A 
ATOM     22  C   UNL     1       6.617   3.465   3.249  1.00  0.00     0.039 A 
BRANCH  22  23
ATOM     23  C   UNL     1       7.304   4.339   4.234  1.00  0.00     0.251 C 
ATOM     24  O   UNL     1       8.346   4.895   3.864  1.00  0.00    -0.269 OA
ATOM     25  N   UNL     1       6.913   4.613   5.526  1.00  0.00    -0.349 N 
ATOM     26  H   UNL     1       7.440   5.365   5.881  1.00  0.00     0.164 HD
BRANCH  25  27
ATOM     27  C   UNL     1       5.991   4.160   6.517  1.00  0.00     0.082 C 
ATOM     28  C   UNL     1       4.522   4.468   6.430  1.00  0.00     0.027 C 
ATOM     29  C   UNL     1       5.005   3.041   6.508  1.00  0.00     0.027 C 
ENDBRANCH  25  27
ENDBRANCH  22  23
ENDBRANCH  16  17
ENDBRANCH  13  15
ENDBRANCH   6  11
ENDBRANCH   4   6
ENDBRANCH   3   4
ENDBRANCH   2   3
ENDBRANCH   1   2
BRANCH   1  30
ATOM     30  O   UNL     1      -1.374  -1.493   0.608  1.00  0.00    -0.374 OA
BRANCH  30  31
ATOM     31  C   UNL     1      -0.131  -2.105   0.946  1.00  0.00     0.202 C 
BRANCH  31  32
ATOM     32  C   UNL     1      -0.198  -3.526   1.513  1.00  0.00     0.261 C 
BRANCH  32  33
ATOM     33  O   UNL     1      -0.673  -4.477   0.545  1.00  0.00    -0.460 OA
BRANCH  33  34
ATOM     34  C   UNL     1      -1.923  -4.938   0.777  1.00  0.00     0.338 C 
ATOM     35  O   UNL     1      -2.639  -4.689   1.739  1.00  0.00    -0.246 OA
BRANCH  34  36
ATOM     36  C   UNL     1      -2.412  -5.674  -0.401  1.00  0.00     0.060 A 
ATOM     37  C   UNL     1      -3.639  -5.279  -0.952  1.00  0.00     0.016 A 
ATOM     38  C   UNL     1      -1.728  -6.783  -0.900  1.00  0.00     0.016 A 
ATOM     39  C   UNL     1      -4.220  -6.030  -1.969  1.00  0.00     0.010 A 
ATOM     40  C   UNL     1      -2.320  -7.544  -1.910  1.00  0.00     0.010 A 
ATOM     41  C   UNL     1      -3.586  -7.195  -2.415  1.00  0.00    -0.014 A 
BRANCH  41  42
ATOM     42  C   UNL     1      -4.329  -8.164  -3.252  1.00  0.00     0.031 A 
ATOM     43  C   UNL     1      -4.963  -9.348  -2.576  1.00  0.00     0.074 A 
ATOM     44  C   UNL     1      -4.427  -8.004  -4.582  1.00  0.00     0.049 A 
ATOM     45  N   UNL     1      -5.553 -10.386  -3.104  1.00  0.00    -0.248 NA
ATOM     46  C   UNL     1      -4.914  -9.362  -1.104  1.00  0.00     0.031 C 
ATOM     47  C   UNL     1      -3.904  -6.867  -5.337  1.00  0.00     0.029 A 
ATOM     48  N   UNL     1      -4.985  -8.818  -5.534  1.00  0.00    -0.354 N 
ATOM     49  C   UNL     1      -5.923 -11.191  -2.033  1.00  0.00     0.074 A 
ATOM     50  C   UNL     1      -5.475 -10.529  -0.828  1.00  0.00     0.031 C 
ATOM     51  C   UNL     1      -4.141  -7.071  -6.644  1.00  0.00     0.029 A 
ATOM     52  C   UNL     1      -4.793  -8.369  -6.817  1.00  0.00     0.049 A 
ATOM     53  H   UNL     1      -5.475  -9.644  -5.318  1.00  0.00     0.167 HD
ATOM     54  C   UNL     1      -6.573 -12.380  -2.053  1.00  0.00     0.031 A 
ATOM     55  C   UNL     1      -5.075  -8.956  -7.997  1.00  0.00     0.031 A 
ATOM     56  C   UNL     1      -6.994 -13.039  -3.259  1.00  0.00     0.049 A 
ATOM     57  C   UNL     1      -5.738 -10.308  -8.007  1.00  0.00     0.074 A 
ATOM     58  C   UNL     1      -7.663 -14.241  -3.395  1.00  0.00     0.029 A 
ATOM     59  N   UNL     1      -6.775 -12.553  -4.540  1.00  0.00    -0.354 N 
ATOM     60  N   UNL     1      -6.090 -11.058  -6.989  1.00  0.00    -0.248 NA
ATOM     61  C   UNL     1      -6.048 -10.890  -9.320  1.00  0.00     0.031 C 
ATOM     62  C   UNL     1      -7.801 -14.509  -4.761  1.00  0.00     0.029 A 
ATOM     63  C   UNL     1      -7.276 -13.441  -5.475  1.00  0.00     0.049 A 
ATOM     64  H   UNL     1      -6.329 -11.701  -4.753  1.00  0.00     0.167 HD
ATOM     65  C   UNL     1      -6.692 -12.186  -7.538  1.00  0.00     0.074 A 
ATOM     66  C   UNL     1      -6.654 -12.020  -8.977  1.00  0.00     0.031 C 
ATOM     67  C   UNL     1      -7.236 -13.255  -6.905  1.00  0.00     0.031 A 
BRANCH  54  68
ATOM     68  C   UNL     1      -6.801 -13.059  -0.729  1.00  0.00    -0.014 A 
ATOM     69  C   UNL     1      -7.705 -12.541   0.218  1.00  0.00     0.010 A 
ATOM     70  C   UNL     1      -6.083 -14.228  -0.419  1.00  0.00     0.010 A 
ATOM     71  C   UNL     1      -7.834 -13.142   1.474  1.00  0.00     0.020 A 
ATOM     72  C   UNL     1      -6.232 -14.849   0.824  1.00  0.00     0.020 A 
ATOM     73  C   UNL     1      -7.087 -14.285   1.773  1.00  0.00     0.054 A 
BRANCH  73  74
ATOM     74  S   UNL     1      -7.248 -15.028   3.419  1.00  0.00     0.124 S 
ATOM     75  O   UNL     1      -6.497 -14.089   4.247  1.00  0.00    -0.237 OA
ATOM     76  O   UNL     1      -8.694 -15.034   3.630  1.00  0.00    -0.237 OA
ATOM     77  O   UNL     1      -6.639 -16.347   3.265  1.00  0.00    -0.744 OA
ENDBRANCH  73  74
ENDBRANCH  54  68
BRANCH  55  78
ATOM     78  C   UNL     1      -4.702  -8.263  -9.259  1.00  0.00    -0.014 A 
ATOM     79  C   UNL     1      -5.684  -7.671 -10.072  1.00  0.00     0.010 A 
ATOM     80  C   UNL     1      -3.347  -8.135  -9.618  1.00  0.00     0.010 A 
ATOM     81  C   UNL     1      -5.316  -6.954 -11.215  1.00  0.00     0.020 A 
ATOM     82  C   UNL     1      -2.975  -7.399 -10.746  1.00  0.00     0.020 A 
ATOM     83  C   UNL     1      -3.963  -6.814 -11.539  1.00  0.00     0.054 A 
BRANCH  83  84
ATOM     84  S   UNL     1      -3.506  -5.794 -12.969  1.00  0.00     0.124 S 
ATOM     85  O   UNL     1      -3.897  -6.645 -14.088  1.00  0.00    -0.237 OA
ATOM     86  O   UNL     1      -4.317  -4.595 -12.772  1.00  0.00    -0.237 OA
ATOM     87  O   UNL     1      -2.068  -5.596 -12.803  1.00  0.00    -0.744 OA
ENDBRANCH  83  84
ENDBRANCH  55  78
BRANCH  67  88
ATOM     88  C   UNL     1      -7.888 -14.317  -7.749  1.00  0.00    -0.014 A 
ATOM     89  C   UNL     1      -7.125 -15.248  -8.474  1.00  0.00     0.010 A 
ATOM     90  C   UNL     1      -9.289 -14.449  -7.721  1.00  0.00     0.010 A 
ATOM     91  C   UNL     1      -7.755 -16.292  -9.160  1.00  0.00     0.020 A 
ATOM     92  C   UNL     1      -9.919 -15.504  -8.385  1.00  0.00     0.020 A 
ATOM     93  C   UNL     1      -9.147 -16.417  -9.105  1.00  0.00     0.054 A 
BRANCH  93  94
ATOM     94  S   UNL     1      -9.932 -17.831  -9.929  1.00  0.00     0.124 S 
ATOM     95  O   UNL     1      -9.824 -17.460 -11.337  1.00  0.00    -0.237 OA
ATOM     96  O   UNL     1      -9.095 -18.952  -9.508  1.00  0.00    -0.237 OA
ATOM     97  O   UNL     1     -11.290 -17.837  -9.388  1.00  0.00    -0.744 OA
ENDBRANCH  93  94
ENDBRANCH  67  88
ENDBRANCH  41  42
ENDBRANCH  34  36
ENDBRANCH  33  34
ENDBRANCH  32  33
ENDBRANCH  31  32
ENDBRANCH  30  31
ENDBRANCH   1  30
TORSDOF 22
