REMARK SMILES O=C(NCc1ccc(C(=O)OCCOCCOC(=O)c2ccc(-c3c4nc(c(-c5ccc(S(=O)(=O)[O-])cc5)c5ccc([nH]5)c(-c5ccc(S(=O)(=O)[O-])cc5)c5nc(c(-c6ccc(S(=O)(=O)[O-])cc6)c6ccc3[nH]6)C=C5)C=C4)cc2)cc1)c1cccc(NC(=O)C2CC2)c1
REMARK SMILES IDX 13 1 12 2 11 3 9 4 10 5 8 6 5 7 6 8 81 9 7 10 80 11 4 12
REMARK SMILES IDX 3 13 1 14 2 15 82 17 83 18 93 19 84 20 86 21 85 22 87 23
REMARK SMILES IDX 88 24 89 26 90 27 91 28 92 29 14 30 15 31 16 32 17 33 18 34
REMARK SMILES IDX 19 35 20 36 21 37 79 38 22 39 78 40 23 41 24 42 25 43 72 44
REMARK SMILES IDX 26 45 77 46 71 47 73 48 27 49 76 50 70 51 69 52 28 54 58 55
REMARK SMILES IDX 39 56 57 57 40 58 43 59 56 60 74 61 41 62 42 63 55 65 75 66
REMARK SMILES IDX 44 67 29 68 30 69 38 70 31 71 37 72 32 73 33 74 34 75 35 76
REMARK SMILES IDX 36 77 59 78 60 79 68 80 61 81 67 82 62 83 63 84 64 85 65 86
REMARK SMILES IDX 66 87 45 88 46 89 54 90 47 91 53 92 48 93 49 94 50 95 51 96
REMARK SMILES IDX 52 97
REMARK H PARENT 3 16 87 25 73 53 43 64
REMARK Flexibility Score: inf
ROOT
ATOM      1  C   UNL     1       6.358   8.354   3.029  1.00  0.00     0.202 C 
ENDROOT
BRANCH   1   2
ATOM      2  C   UNL     1       6.895   7.790   1.709  1.00  0.00     0.261 C 
BRANCH   2   3
ATOM      3  O   UNL     1       6.261   6.552   1.362  1.00  0.00    -0.460 OA
BRANCH   3   4
ATOM      4  C   UNL     1       7.039   5.458   1.534  1.00  0.00     0.338 C 
ATOM      5  O   UNL     1       8.225   5.438   1.825  1.00  0.00    -0.246 OA
BRANCH   4   6
ATOM      6  C   UNL     1       6.214   4.230   1.498  1.00  0.00     0.060 A 
ATOM      7  C   UNL     1       4.836   1.787   1.448  1.00  0.00    -0.029 A 
ATOM      8  C   UNL     1       5.940   1.963   2.296  1.00  0.00     0.006 A 
ATOM      9  C   UNL     1       4.399   2.868   0.664  1.00  0.00     0.006 A 
ATOM     10  C   UNL     1       6.625   3.173   2.318  1.00  0.00     0.016 A 
ATOM     11  C   UNL     1       5.077   4.092   0.697  1.00  0.00     0.016 A 
BRANCH   7  12
ATOM     12  C   UNL     1       4.289   0.393   1.280  1.00  0.00     0.152 C 
BRANCH  12  13
ATOM     13  N   UNL     1       2.870   0.337   1.006  1.00  0.00    -0.348 N 
ATOM     14  O   UNL     1       1.001   0.055  -0.222  1.00  0.00    -0.269 OA
ATOM     15  C   UNL     1       2.218  -0.071  -0.129  1.00  0.00     0.251 C 
ATOM     16  H   UNL     1       2.288   0.635   1.742  1.00  0.00     0.164 HD
BRANCH  15  17
ATOM     17  C   UNL     1       2.977  -0.634  -1.266  1.00  0.00     0.041 A 
ATOM     18  C   UNL     1       3.874  -1.689  -1.085  1.00  0.00     0.014 A 
ATOM     19  C   UNL     1       2.753  -0.110  -2.546  1.00  0.00     0.040 A 
ATOM     20  C   UNL     1       4.609  -2.155  -2.168  1.00  0.00     0.003 A 
ATOM     21  C   UNL     1       3.483  -0.581  -3.646  1.00  0.00     0.041 A 
ATOM     22  C   UNL     1       4.413  -1.601  -3.438  1.00  0.00     0.026 A 
BRANCH  21  23
ATOM     23  N   UNL     1       3.185  -0.011  -4.896  1.00  0.00    -0.326 N 
ATOM     24  C   UNL     1       3.781  -0.091  -6.132  1.00  0.00     0.227 C 
ATOM     25  H   UNL     1       2.385   0.563  -4.884  1.00  0.00     0.169 HD
ATOM     26  O   UNL     1       3.202   0.374  -7.110  1.00  0.00    -0.274 OA
BRANCH  24  27
ATOM     27  C   UNL     1       5.129  -0.695  -6.283  1.00  0.00     0.079 C 
ATOM     28  C   UNL     1       5.257  -2.094  -6.850  1.00  0.00     0.014 C 
ATOM     29  C   UNL     1       5.735  -0.923  -7.652  1.00  0.00     0.014 C 
ENDBRANCH  24  27
ENDBRANCH  21  23
ENDBRANCH  15  17
ENDBRANCH  12  13
ENDBRANCH   7  12
ENDBRANCH   4   6
ENDBRANCH   3   4
ENDBRANCH   2   3
ENDBRANCH   1   2
BRANCH   1  30
ATOM     30  O   UNL     1       6.476   7.537   4.193  1.00  0.00    -0.374 OA
BRANCH  30  31
ATOM     31  C   UNL     1       5.516   6.494   4.365  1.00  0.00     0.202 C 
BRANCH  31  32
ATOM     32  C   UNL     1       4.096   6.890   4.795  1.00  0.00     0.261 C 
BRANCH  32  33
ATOM     33  O   UNL     1       3.405   7.659   3.796  1.00  0.00    -0.460 OA
BRANCH  33  34
ATOM     34  C   UNL     1       3.215   8.964   4.106  1.00  0.00     0.338 C 
ATOM     35  O   UNL     1       3.512   9.528   5.150  1.00  0.00    -0.246 OA
BRANCH  34  36
ATOM     36  C   UNL     1       2.762   9.689   2.906  1.00  0.00     0.060 A 
ATOM     37  C   UNL     1       3.555  10.743   2.433  1.00  0.00     0.016 A 
ATOM     38  C   UNL     1       1.563   9.361   2.272  1.00  0.00     0.016 A 
ATOM     39  C   UNL     1       3.146  11.482   1.324  1.00  0.00     0.010 A 
ATOM     40  C   UNL     1       1.148  10.112   1.169  1.00  0.00     0.010 A 
ATOM     41  C   UNL     1       1.929  11.184   0.698  1.00  0.00    -0.014 A 
BRANCH  41  42
ATOM     42  C   UNL     1       1.426  12.030  -0.409  1.00  0.00     0.031 A 
ATOM     43  C   UNL     1       0.345  13.036  -0.138  1.00  0.00     0.074 A 
ATOM     44  C   UNL     1       1.918  11.881  -1.652  1.00  0.00     0.049 A 
ATOM     45  N   UNL     1      -0.301  13.803  -0.977  1.00  0.00    -0.248 NA
ATOM     46  C   UNL     1      -0.063  13.197   1.267  1.00  0.00     0.031 C 
ATOM     47  C   UNL     1       3.006  10.978  -2.028  1.00  0.00     0.029 A 
ATOM     48  N   UNL     1       1.555  12.481  -2.831  1.00  0.00    -0.354 N 
ATOM     49  C   UNL     1      -1.200  14.532  -0.208  1.00  0.00     0.074 A 
ATOM     50  C   UNL     1      -1.034  14.094   1.162  1.00  0.00     0.031 C 
ATOM     51  C   UNL     1       3.216  11.078  -3.351  1.00  0.00     0.029 A 
ATOM     52  C   UNL     1       2.247  12.012  -3.921  1.00  0.00     0.049 A 
ATOM     53  H   UNL     1       0.865  13.181  -2.891  1.00  0.00     0.167 HD
ATOM     54  C   UNL     1      -2.082  15.480  -0.608  1.00  0.00     0.031 A 
ATOM     55  C   UNL     1       2.096  12.280  -5.234  1.00  0.00     0.031 A 
ATOM     56  C   UNL     1      -2.261  15.885  -1.978  1.00  0.00     0.049 A 
ATOM     57  C   UNL     1       1.028  13.248  -5.669  1.00  0.00     0.074 A 
ATOM     58  C   UNL     1      -3.121  16.843  -2.487  1.00  0.00     0.029 A 
ATOM     59  N   UNL     1      -1.584  15.342  -3.060  1.00  0.00    -0.354 N 
ATOM     60  N   UNL     1       0.202  13.949  -4.930  1.00  0.00    -0.248 NA
ATOM     61  C   UNL     1       0.870  13.456  -7.115  1.00  0.00     0.031 C 
ATOM     62  C   UNL     1      -3.013  16.829  -3.881  1.00  0.00     0.029 A 
ATOM     63  C   UNL     1      -2.036  15.913  -4.238  1.00  0.00     0.049 A 
ATOM     64  H   UNL     1      -0.884  14.652  -2.999  1.00  0.00     0.167 HD
ATOM     65  C   UNL     1      -0.561  14.697  -5.821  1.00  0.00     0.074 A 
ATOM     66  C   UNL     1      -0.087  14.374  -7.151  1.00  0.00     0.031 C 
ATOM     67  C   UNL     1      -1.563  15.574  -5.559  1.00  0.00     0.031 A 
BRANCH  54  68
ATOM     68  C   UNL     1      -2.954  16.105   0.451  1.00  0.00    -0.014 A 
ATOM     69  C   UNL     1      -2.416  16.956   1.434  1.00  0.00     0.010 A 
ATOM     70  C   UNL     1      -4.337  15.846   0.457  1.00  0.00     0.010 A 
ATOM     71  C   UNL     1      -3.234  17.490   2.434  1.00  0.00     0.020 A 
ATOM     72  C   UNL     1      -5.164  16.403   1.436  1.00  0.00     0.020 A 
ATOM     73  C   UNL     1      -4.603  17.203   2.432  1.00  0.00     0.054 A 
BRANCH  73  74
ATOM     74  S   UNL     1      -5.638  17.900   3.748  1.00  0.00     0.124 S 
ATOM     75  O   UNL     1      -5.214  17.121   4.909  1.00  0.00    -0.237 OA
ATOM     76  O   UNL     1      -5.241  19.306   3.757  1.00  0.00    -0.237 OA
ATOM     77  O   UNL     1      -7.002  17.643   3.292  1.00  0.00    -0.744 OA
ENDBRANCH  73  74
ENDBRANCH  54  68
BRANCH  55  78
ATOM     78  C   UNL     1       2.972  11.605  -6.230  1.00  0.00    -0.014 A 
ATOM     79  C   UNL     1       3.941  12.337  -6.936  1.00  0.00     0.010 A 
ATOM     80  C   UNL     1       2.861  10.220  -6.457  1.00  0.00     0.010 A 
ATOM     81  C   UNL     1       4.786  11.698  -7.848  1.00  0.00     0.020 A 
ATOM     82  C   UNL     1       3.723   9.572  -7.347  1.00  0.00     0.020 A 
ATOM     83  C   UNL     1       4.678  10.318  -8.040  1.00  0.00     0.054 A 
BRANCH  83  84
ATOM     84  S   UNL     1       5.842   9.502  -9.167  1.00  0.00     0.124 S 
ATOM     85  O   UNL     1       5.386   9.975 -10.471  1.00  0.00    -0.237 OA
ATOM     86  O   UNL     1       7.130  10.026  -8.718  1.00  0.00    -0.237 OA
ATOM     87  O   UNL     1       5.632   8.080  -8.906  1.00  0.00    -0.744 OA
ENDBRANCH  83  84
ENDBRANCH  55  78
BRANCH  67  88
ATOM     88  C   UNL     1      -2.213  16.262  -6.731  1.00  0.00    -0.014 A 
ATOM     89  C   UNL     1      -3.076  15.565  -7.596  1.00  0.00     0.010 A 
ATOM     90  C   UNL     1      -2.021  17.643  -6.923  1.00  0.00     0.010 A 
ATOM     91  C   UNL     1      -3.724  16.234  -8.638  1.00  0.00     0.020 A 
ATOM     92  C   UNL     1      -2.690  18.321  -7.947  1.00  0.00     0.020 A 
ATOM     93  C   UNL     1      -3.532  17.610  -8.803  1.00  0.00     0.054 A 
BRANCH  93  94
ATOM     94  S   UNL     1      -4.444  18.465 -10.117  1.00  0.00     0.124 S 
ATOM     95  O   UNL     1      -3.783  17.968 -11.321  1.00  0.00    -0.237 OA
ATOM     96  O   UNL     1      -5.813  17.995  -9.913  1.00  0.00    -0.237 OA
ATOM     97  O   UNL     1      -4.228  19.880  -9.827  1.00  0.00    -0.744 OA
ENDBRANCH  93  94
ENDBRANCH  67  88
ENDBRANCH  41  42
ENDBRANCH  34  36
ENDBRANCH  33  34
ENDBRANCH  32  33
ENDBRANCH  31  32
ENDBRANCH  30  31
ENDBRANCH   1  30
TORSDOF 22
