REMARK SMILES O=C(OCCOCCOC(=O)[C@@H](c1ccccc1)N1C(=O)/C(=C\c2ccc(-c3ccc(F)cc3)o2)SC1=S)c1ccc(-c2c3nc(c(-c4ccc(S(=O)(=O)[O-])cc4)c4ccc([nH]4)c(-c4ccc(S(=O)(=O)[O-])cc4)c4nc(c(-c5ccc(S(=O)(=O)[O-])cc5)c5ccc2[nH]5)C=C4)C=C3)cc1
REMARK SMILES IDX 6 1 5 2 4 3 3 4 2 5 1 6 39 7 40 8 98 9 41 10 97 11 42 12
REMARK SMILES IDX 43 13 44 14 91 15 45 16 96 17 90 18 92 19 46 20 95 21 89 22
REMARK SMILES IDX 88 23 47 25 77 26 58 27 76 28 59 29 62 30 75 31 93 32 60 33
REMARK SMILES IDX 61 34 74 36 94 37 63 38 48 39 49 40 57 41 50 42 56 43 51 44
REMARK SMILES IDX 52 45 53 46 54 47 55 48 78 49 79 50 87 51 80 52 86 53 81 54
REMARK SMILES IDX 82 55 83 56 84 57 85 58 64 59 65 60 73 61 66 62 72 63 67 64
REMARK SMILES IDX 68 65 69 66 70 67 71 68 7 69 8 70 9 71 10 72 11 73 12 74
REMARK SMILES IDX 13 75 14 76 18 77 15 78 17 79 16 80 19 81 20 82 37 83 21 84
REMARK SMILES IDX 22 85 36 86 38 87 23 88 24 89 25 90 35 91 26 92 27 93 28 94
REMARK SMILES IDX 29 95 34 96 30 97 33 98 31 99 32 100
REMARK H PARENT 92 24 62 35
REMARK Flexibility Score: inf
ROOT
ATOM      1  O   UNL     1       3.996  -0.824   1.315  1.00  0.00    -0.374 OA
ENDROOT
BRANCH   1   2
ATOM      2  C   UNL     1       4.529   0.488   1.163  1.00  0.00     0.202 C 
BRANCH   2   3
ATOM      3  C   UNL     1       4.102   1.304  -0.059  1.00  0.00     0.261 C 
BRANCH   3   4
ATOM      4  O   UNL     1       2.685   1.232  -0.279  1.00  0.00    -0.460 OA
BRANCH   4   5
ATOM      5  C   UNL     1       2.072   0.475  -1.223  1.00  0.00     0.338 C 
ATOM      6  O   UNL     1       0.858   0.566  -1.381  1.00  0.00    -0.246 OA
BRANCH   5   7
ATOM      7  C   UNL     1       2.835  -0.484  -2.069  1.00  0.00     0.060 A 
ATOM      8  C   UNL     1       3.919  -1.217  -1.593  1.00  0.00     0.016 A 
ATOM      9  C   UNL     1       2.390  -0.739  -3.369  1.00  0.00     0.016 A 
ATOM     10  C   UNL     1       4.592  -2.134  -2.354  1.00  0.00     0.010 A 
ATOM     11  C   UNL     1       3.021  -1.720  -4.140  1.00  0.00     0.010 A 
ATOM     12  C   UNL     1       4.111  -2.424  -3.613  1.00  0.00    -0.014 A 
BRANCH  12  13
ATOM     13  C   UNL     1       4.844  -3.460  -4.336  1.00  0.00     0.031 A 
ATOM     14  C   UNL     1       5.774  -3.028  -5.412  1.00  0.00     0.074 A 
ATOM     15  C   UNL     1       4.777  -4.726  -3.883  1.00  0.00     0.049 A 
ATOM     16  N   UNL     1       6.440  -3.762  -6.251  1.00  0.00    -0.248 NA
ATOM     17  C   UNL     1       5.995  -1.576  -5.557  1.00  0.00     0.031 C 
ATOM     18  C   UNL     1       4.030  -5.166  -2.694  1.00  0.00     0.029 A 
ATOM     19  N   UNL     1       5.364  -5.870  -4.341  1.00  0.00    -0.354 N 
ATOM     20  C   UNL     1       7.103  -2.865  -7.073  1.00  0.00     0.074 A 
ATOM     21  C   UNL     1       6.796  -1.532  -6.611  1.00  0.00     0.031 C 
ATOM     22  C   UNL     1       4.206  -6.485  -2.524  1.00  0.00     0.029 A 
ATOM     23  C   UNL     1       4.985  -6.993  -3.642  1.00  0.00     0.049 A 
ATOM     24  H   UNL     1       5.996  -5.890  -5.095  1.00  0.00     0.167 HD
ATOM     25  C   UNL     1       7.864  -3.160  -8.146  1.00  0.00     0.031 A 
ATOM     26  C   UNL     1       5.184  -8.290  -3.937  1.00  0.00     0.031 A 
ATOM     27  C   UNL     1       8.129  -4.511  -8.552  1.00  0.00     0.049 A 
ATOM     28  C   UNL     1       5.938  -8.585  -5.206  1.00  0.00     0.074 A 
ATOM     29  C   UNL     1       8.849  -4.958  -9.641  1.00  0.00     0.029 A 
ATOM     30  N   UNL     1       7.669  -5.634  -7.876  1.00  0.00    -0.354 N 
ATOM     31  N   UNL     1       6.523  -7.741  -6.026  1.00  0.00    -0.248 NA
ATOM     32  C   UNL     1       6.035  -9.990  -5.610  1.00  0.00     0.031 C 
ATOM     33  C   UNL     1       8.763  -6.353  -9.662  1.00  0.00     0.029 A 
ATOM     34  C   UNL     1       8.049  -6.777  -8.549  1.00  0.00     0.049 A 
ATOM     35  H   UNL     1       7.148  -5.617  -7.041  1.00  0.00     0.167 HD
ATOM     36  C   UNL     1       7.062  -8.514  -7.043  1.00  0.00     0.074 A 
ATOM     37  C   UNL     1       6.764  -9.895  -6.713  1.00  0.00     0.031 C 
ATOM     38  C   UNL     1       7.729  -8.128  -8.159  1.00  0.00     0.031 A 
BRANCH  25  39
ATOM     39  C   UNL     1       8.340  -2.022  -8.997  1.00  0.00    -0.014 A 
ATOM     40  C   UNL     1       9.376  -1.165  -8.589  1.00  0.00     0.010 A 
ATOM     41  C   UNL     1       7.737  -1.825 -10.254  1.00  0.00     0.010 A 
ATOM     42  C   UNL     1       9.798  -0.127  -9.425  1.00  0.00     0.020 A 
ATOM     43  C   UNL     1       8.171  -0.804 -11.100  1.00  0.00     0.020 A 
ATOM     44  C   UNL     1       9.198   0.041 -10.678  1.00  0.00     0.054 A 
BRANCH  44  45
ATOM     45  S   UNL     1       9.816   1.349 -11.771  1.00  0.00     0.124 S 
ATOM     46  O   UNL     1       9.353   2.556 -11.091  1.00  0.00    -0.237 OA
ATOM     47  O   UNL     1      11.260   1.128 -11.745  1.00  0.00    -0.237 OA
ATOM     48  O   UNL     1       9.168   1.069 -13.050  1.00  0.00    -0.744 OA
ENDBRANCH  44  45
ENDBRANCH  25  39
BRANCH  26  49
ATOM     49  C   UNL     1       4.552  -9.368  -3.126  1.00  0.00    -0.014 A 
ATOM     50  C   UNL     1       5.327 -10.348  -2.485  1.00  0.00     0.010 A 
ATOM     51  C   UNL     1       3.148  -9.445  -3.028  1.00  0.00     0.010 A 
ATOM     52  C   UNL     1       4.713 -11.407  -1.805  1.00  0.00     0.020 A 
ATOM     53  C   UNL     1       2.530 -10.478  -2.319  1.00  0.00     0.020 A 
ATOM     54  C   UNL     1       3.318 -11.470  -1.736  1.00  0.00     0.054 A 
BRANCH  54  55
ATOM     55  S   UNL     1       2.540 -12.864  -0.875  1.00  0.00     0.124 S 
ATOM     56  O   UNL     1       2.745 -13.954  -1.823  1.00  0.00    -0.237 OA
ATOM     57  O   UNL     1       3.314 -12.944   0.360  1.00  0.00    -0.237 OA
ATOM     58  O   UNL     1       1.153 -12.431  -0.709  1.00  0.00    -0.744 OA
ENDBRANCH  54  55
ENDBRANCH  26  49
BRANCH  38  59
ATOM     59  C   UNL     1       8.192  -9.217  -9.079  1.00  0.00    -0.014 A 
ATOM     60  C   UNL     1       7.279  -9.898  -9.902  1.00  0.00     0.010 A 
ATOM     61  C   UNL     1       9.568  -9.484  -9.190  1.00  0.00     0.010 A 
ATOM     62  C   UNL     1       7.739 -10.841 -10.820  1.00  0.00     0.020 A 
ATOM     63  C   UNL     1      10.032 -10.401 -10.131  1.00  0.00     0.020 A 
ATOM     64  C   UNL     1       9.113 -11.078 -10.936  1.00  0.00     0.054 A 
BRANCH  64  65
ATOM     65  S   UNL     1       9.687 -12.239 -12.201  1.00  0.00     0.124 S 
ATOM     66  O   UNL     1       9.271 -13.523 -11.646  1.00  0.00    -0.237 OA
ATOM     67  O   UNL     1       8.958 -11.801 -13.389  1.00  0.00    -0.237 OA
ATOM     68  O   UNL     1      11.130 -12.017 -12.246  1.00  0.00    -0.744 OA
ENDBRANCH  64  65
ENDBRANCH  38  59
ENDBRANCH  12  13
ENDBRANCH   5   7
ENDBRANCH   4   5
ENDBRANCH   3   4
ENDBRANCH   2   3
ENDBRANCH   1   2
BRANCH   1  69
ATOM     69  C   UNL     1       2.619  -0.988   1.650  1.00  0.00     0.202 C 
BRANCH  69  70
ATOM     70  C   UNL     1       2.519  -1.973   2.818  1.00  0.00     0.261 C 
BRANCH  70  71
ATOM     71  O   UNL     1       2.997  -1.313   4.004  1.00  0.00    -0.461 OA
BRANCH  71  72
ATOM     72  C   UNL     1       4.353  -1.141   4.050  1.00  0.00     0.334 C 
ATOM     73  O   UNL     1       5.165  -1.850   3.467  1.00  0.00    -0.249 OA
BRANCH  72  74
ATOM     74  C   UNL     1       4.750   0.016   5.000  1.00  0.00     0.232 C 
BRANCH  74  75
ATOM     75  C   UNL     1       4.234   1.374   4.529  1.00  0.00    -0.014 A 
ATOM     76  C   UNL     1       5.157   2.420   4.334  1.00  0.00     0.006 A 
ATOM     77  C   UNL     1       2.890   1.621   4.180  1.00  0.00     0.006 A 
ATOM     78  C   UNL     1       4.754   3.650   3.803  1.00  0.00     0.000 A 
ATOM     79  C   UNL     1       2.493   2.847   3.635  1.00  0.00     0.000 A 
ATOM     80  C   UNL     1       3.424   3.862   3.450  1.00  0.00     0.000 A 
ENDBRANCH  74  75
BRANCH  74  81
ATOM     81  N   UNL     1       4.405  -0.489   6.338  1.00  0.00    -0.274 N 
ATOM     82  C   UNL     1       5.066  -1.663   6.674  1.00  0.00     0.267 C 
ATOM     83  C   UNL     1       3.591  -0.001   7.324  1.00  0.00     0.149 C 
ATOM     84  O   UNL     1       6.171  -1.974   6.284  1.00  0.00    -0.268 OA
ATOM     85  C   UNL     1       4.243  -2.427   7.638  1.00  0.00     0.084 C 
ATOM     86  S   UNL     1       3.264  -1.293   8.496  1.00  0.00    -0.054 SA
ATOM     87  S   UNL     1       2.985   1.528   7.576  1.00  0.00    -0.052 S 
ATOM     88  C   UNL     1       4.084  -3.754   7.725  1.00  0.00     0.068 C 
BRANCH  88  89
ATOM     89  C   UNL     1       4.708  -4.723   6.888  1.00  0.00     0.128 A 
ATOM     90  C   UNL     1       6.011  -4.846   6.421  1.00  0.00     0.051 A 
ATOM     91  O   UNL     1       4.012  -5.828   6.429  1.00  0.00    -0.457 OA
ATOM     92  C   UNL     1       6.098  -6.020   5.641  1.00  0.00     0.051 A 
ATOM     93  C   UNL     1       4.857  -6.605   5.696  1.00  0.00     0.134 A 
BRANCH  93  94
ATOM     94  C   UNL     1       4.340  -7.879   5.229  1.00  0.00     0.017 A 
ATOM     95  C   UNL     1       3.131  -7.975   4.527  1.00  0.00     0.015 A 
ATOM     96  C   UNL     1       5.077  -9.047   5.486  1.00  0.00     0.015 A 
ATOM     97  C   UNL     1       2.663  -9.223   4.102  1.00  0.00     0.040 A 
ATOM     98  C   UNL     1       4.602 -10.292   5.074  1.00  0.00     0.040 A 
ATOM     99  C   UNL     1       3.395 -10.368   4.393  1.00  0.00     0.123 A 
ATOM    100  F   UNL     1       2.922 -11.567   4.035  1.00  0.00    -0.207 F 
ENDBRANCH  93  94
ENDBRANCH  88  89
ENDBRANCH  74  81
ENDBRANCH  72  74
ENDBRANCH  71  72
ENDBRANCH  70  71
ENDBRANCH  69  70
ENDBRANCH   1  69
TORSDOF 21
