REMARK SMILES COc1ccc(/C=C2/C(=O)N(c3ccccc3)C(=O)N=C2OCCOCCOC(=O)c2ccc(-c3c4nc(c(-c5ccc(S(=O)(=O)[O-])cc5)c5ccc([nH]5)c(-c5ccc(S(=O)(=O)[O-])cc5)c5nc(c(-c6ccc(S(=O)(=O)[O-])cc6)c6ccc3[nH]6)C=C5)C=C4)cc2)cc1C(=O)[O-]
REMARK SMILES IDX 26 1 25 2 24 3 23 4 22 5 21 6 7 7 8 8 9 9 10 10 11 11 20 12
REMARK SMILES IDX 18 13 19 14 6 15 3 16 4 17 92 18 5 19 91 20 2 21 1 22 93 23
REMARK SMILES IDX 94 24 95 25 12 26 13 27 17 28 14 29 16 30 15 31 27 32 28 33
REMARK SMILES IDX 29 34 30 35 31 36 32 37 90 38 33 39 89 40 34 41 35 42 36 43
REMARK SMILES IDX 83 44 37 45 88 46 82 47 84 48 38 49 87 50 81 51 80 52 39 54
REMARK SMILES IDX 69 55 50 56 68 57 51 58 54 59 67 60 85 61 52 62 53 63 66 65
REMARK SMILES IDX 86 66 55 67 40 68 41 69 49 70 42 71 48 72 43 73 44 74 45 75
REMARK SMILES IDX 46 76 47 77 70 78 71 79 79 80 72 81 78 82 73 83 74 84 75 85
REMARK SMILES IDX 76 86 77 87 56 88 57 89 65 90 58 91 64 92 59 93 60 94 61 95
REMARK SMILES IDX 62 96 63 97
REMARK H PARENT 84 53 54 64
REMARK Flexibility Score: inf
ROOT
ATOM      1  C   UNL     1      -1.671   6.675   3.865  1.00  0.00     0.202 C 
ENDROOT
BRANCH   1   2
ATOM      2  O   UNL     1      -2.727   6.941   2.941  1.00  0.00    -0.374 OA
BRANCH   2   3
ATOM      3  C   UNL     1      -2.716   6.176   1.732  1.00  0.00     0.202 C 
BRANCH   3   4
ATOM      4  C   UNL     1      -2.055   6.897   0.558  1.00  0.00     0.260 C 
BRANCH   4   5
ATOM      5  O   UNL     1      -0.619   6.786   0.685  1.00  0.00    -0.475 OA
BRANCH   5   6
ATOM      6  C   UNL     1       0.040   7.753   1.335  1.00  0.00     0.231 C 
ATOM      7  C   UNL     1       2.037   6.175   1.744  1.00  0.00     0.027 C 
ATOM      8  C   UNL     1       1.374   7.362   1.821  1.00  0.00     0.103 C 
ATOM      9  C   UNL     1       2.045   8.454   2.635  1.00  0.00     0.272 C 
ATOM     10  O   UNL     1       3.192   8.303   3.060  1.00  0.00    -0.268 OA
ATOM     11  N   UNL     1       1.254   9.572   2.910  1.00  0.00    -0.226 N 
ATOM     12  N   UNL     1      -0.541   8.868   1.527  1.00  0.00    -0.156 NA
ATOM     13  C   UNL     1       0.028   9.839   2.284  1.00  0.00     0.358 C 
ATOM     14  O   UNL     1      -0.541  10.918   2.369  1.00  0.00    -0.245 OA
BRANCH   7  15
ATOM     15  C   UNL     1       1.827   4.794   1.192  1.00  0.00    -0.024 A 
ATOM     16  C   UNL     1       1.702   2.094   0.185  1.00  0.00     0.127 A 
ATOM     17  C   UNL     1       0.790   3.071  -0.215  1.00  0.00     0.048 A 
ATOM     18  C   UNL     1       2.720   2.470   1.062  1.00  0.00     0.040 A 
ATOM     19  C   UNL     1       0.878   4.397   0.252  1.00  0.00     0.012 A 
ATOM     20  C   UNL     1       2.749   3.793   1.577  1.00  0.00     0.022 A 
BRANCH  16  21
ATOM     21  O   UNL     1       1.644   0.926  -0.524  1.00  0.00    -0.496 OA
ATOM     22  C   UNL     1       1.352  -0.241   0.243  1.00  0.00     0.278 C 
ENDBRANCH  16  21
BRANCH  18  23
ATOM     23  C   UNL     1       3.910   1.642   1.358  1.00  0.00     0.075 C 
ATOM     24  O   UNL     1       5.045   2.075   1.458  1.00  0.00    -0.545 OA
ATOM     25  O   UNL     1       3.642   0.355   1.613  1.00  0.00    -0.545 OA
ENDBRANCH  18  23
ENDBRANCH   7  15
BRANCH  11  26
ATOM     26  C   UNL     1       1.736  10.607   3.779  1.00  0.00     0.054 A 
ATOM     27  C   UNL     1       0.899  11.110   4.793  1.00  0.00     0.027 A 
ATOM     28  C   UNL     1       2.964  11.234   3.543  1.00  0.00     0.027 A 
ATOM     29  C   UNL     1       1.256  12.246   5.519  1.00  0.00     0.002 A 
ATOM     30  C   UNL     1       3.306  12.389   4.254  1.00  0.00     0.002 A 
ATOM     31  C   UNL     1       2.451  12.898   5.233  1.00  0.00     0.000 A 
ENDBRANCH  11  26
ENDBRANCH   5   6
ENDBRANCH   4   5
ENDBRANCH   3   4
ENDBRANCH   2   3
ENDBRANCH   1   2
BRANCH   1  32
ATOM     32  C   UNL     1      -1.945   5.536   4.848  1.00  0.00     0.261 C 
BRANCH  32  33
ATOM     33  O   UNL     1      -1.865   4.264   4.184  1.00  0.00    -0.460 OA
BRANCH  33  34
ATOM     34  C   UNL     1      -3.060   3.749   3.809  1.00  0.00     0.338 C 
ATOM     35  O   UNL     1      -4.164   4.202   4.060  1.00  0.00    -0.246 OA
BRANCH  34  36
ATOM     36  C   UNL     1      -2.850   2.623   2.877  1.00  0.00     0.060 A 
ATOM     37  C   UNL     1      -3.717   2.524   1.780  1.00  0.00     0.016 A 
ATOM     38  C   UNL     1      -1.871   1.652   3.098  1.00  0.00     0.016 A 
ATOM     39  C   UNL     1      -3.658   1.415   0.940  1.00  0.00     0.010 A 
ATOM     40  C   UNL     1      -1.819   0.538   2.258  1.00  0.00     0.010 A 
ATOM     41  C   UNL     1      -2.739   0.395   1.203  1.00  0.00    -0.014 A 
BRANCH  41  42
ATOM     42  C   UNL     1      -2.839  -0.898   0.487  1.00  0.00     0.031 A 
ATOM     43  C   UNL     1      -3.459  -2.071   1.196  1.00  0.00     0.074 A 
ATOM     44  C   UNL     1      -2.361  -1.036  -0.761  1.00  0.00     0.049 A 
ATOM     45  N   UNL     1      -3.554  -3.315   0.808  1.00  0.00    -0.248 NA
ATOM     46  C   UNL     1      -4.050  -1.802   2.517  1.00  0.00     0.031 C 
ATOM     47  C   UNL     1      -1.773   0.033  -1.567  1.00  0.00     0.029 A 
ATOM     48  N   UNL     1      -2.243  -2.155  -1.546  1.00  0.00    -0.354 N 
ATOM     49  C   UNL     1      -4.221  -3.977   1.832  1.00  0.00     0.074 A 
ATOM     50  C   UNL     1      -4.463  -3.008   2.878  1.00  0.00     0.031 C 
ATOM     51  C   UNL     1      -1.284  -0.497  -2.702  1.00  0.00     0.029 A 
ATOM     52  C   UNL     1      -1.523  -1.938  -2.696  1.00  0.00     0.049 A 
ATOM     53  H   UNL     1      -2.636  -3.026  -1.310  1.00  0.00     0.167 HD
ATOM     54  C   UNL     1      -4.613  -5.272   1.888  1.00  0.00     0.031 A 
ATOM     55  C   UNL     1      -1.070  -2.809  -3.618  1.00  0.00     0.031 A 
ATOM     56  C   UNL     1      -4.355  -6.235   0.852  1.00  0.00     0.049 A 
ATOM     57  C   UNL     1      -1.421  -4.266  -3.493  1.00  0.00     0.074 A 
ATOM     58  C   UNL     1      -4.751  -7.560   0.788  1.00  0.00     0.029 A 
ATOM     59  N   UNL     1      -3.621  -5.981  -0.296  1.00  0.00    -0.354 N 
ATOM     60  N   UNL     1      -2.099  -4.870  -2.546  1.00  0.00    -0.248 NA
ATOM     61  C   UNL     1      -0.972  -5.154  -4.574  1.00  0.00     0.031 C 
ATOM     62  C   UNL     1      -4.210  -8.120  -0.374  1.00  0.00     0.029 A 
ATOM     63  C   UNL     1      -3.524  -7.131  -1.061  1.00  0.00     0.049 A 
ATOM     64  H   UNL     1      -3.226  -5.111  -0.533  1.00  0.00     0.167 HD
ATOM     65  C   UNL     1      -2.197  -6.201  -2.940  1.00  0.00     0.074 A 
ATOM     66  C   UNL     1      -1.499  -6.314  -4.205  1.00  0.00     0.031 C 
ATOM     67  C   UNL     1      -2.825  -7.229  -2.318  1.00  0.00     0.031 A 
BRANCH  54  68
ATOM     68  C   UNL     1      -5.343  -5.718   3.126  1.00  0.00    -0.014 A 
ATOM     69  C   UNL     1      -6.656  -5.284   3.391  1.00  0.00     0.010 A 
ATOM     70  C   UNL     1      -4.714  -6.588   4.033  1.00  0.00     0.010 A 
ATOM     71  C   UNL     1      -7.306  -5.673   4.565  1.00  0.00     0.020 A 
ATOM     72  C   UNL     1      -5.371  -7.000   5.196  1.00  0.00     0.020 A 
ATOM     73  C   UNL     1      -6.655  -6.522   5.465  1.00  0.00     0.054 A 
BRANCH  73  74
ATOM     74  S   UNL     1      -7.518  -7.008   6.984  1.00  0.00     0.124 S 
ATOM     75  O   UNL     1      -7.426  -5.789   7.784  1.00  0.00    -0.237 OA
ATOM     76  O   UNL     1      -8.855  -7.344   6.502  1.00  0.00    -0.237 OA
ATOM     77  O   UNL     1      -6.736  -8.138   7.480  1.00  0.00    -0.744 OA
ENDBRANCH  73  74
ENDBRANCH  54  68
BRANCH  55  78
ATOM     78  C   UNL     1      -0.222  -2.314  -4.733  1.00  0.00    -0.014 A 
ATOM     79  C   UNL     1      -0.744  -2.186  -6.031  1.00  0.00     0.010 A 
ATOM     80  C   UNL     1       1.109  -1.926  -4.486  1.00  0.00     0.010 A 
ATOM     81  C   UNL     1       0.051  -1.681  -7.064  1.00  0.00     0.020 A 
ATOM     82  C   UNL     1       1.900  -1.403  -5.511  1.00  0.00     0.020 A 
ATOM     83  C   UNL     1       1.367  -1.288  -6.796  1.00  0.00     0.054 A 
BRANCH  83  84
ATOM     84  S   UNL     1       2.351  -0.567  -8.139  1.00  0.00     0.124 S 
ATOM     85  O   UNL     1       2.622  -1.731  -8.976  1.00  0.00    -0.237 OA
ATOM     86  O   UNL     1       1.434   0.421  -8.704  1.00  0.00    -0.237 OA
ATOM     87  O   UNL     1       3.511  -0.006  -7.451  1.00  0.00    -0.744 OA
ENDBRANCH  83  84
ENDBRANCH  55  78
BRANCH  67  88
ATOM     88  C   UNL     1      -2.838  -8.561  -3.020  1.00  0.00    -0.014 A 
ATOM     89  C   UNL     1      -1.691  -9.371  -3.076  1.00  0.00     0.010 A 
ATOM     90  C   UNL     1      -4.039  -9.031  -3.582  1.00  0.00     0.010 A 
ATOM     91  C   UNL     1      -1.740 -10.619  -3.705  1.00  0.00     0.020 A 
ATOM     92  C   UNL     1      -4.098 -10.287  -4.190  1.00  0.00     0.020 A 
ATOM     93  C   UNL     1      -2.943 -11.068  -4.259  1.00  0.00     0.054 A 
BRANCH  93  94
ATOM     94  S   UNL     1      -2.995 -12.710  -5.029  1.00  0.00     0.124 S 
ATOM     95  O   UNL     1      -2.315 -12.471  -6.299  1.00  0.00    -0.237 OA
ATOM     96  O   UNL     1      -2.265 -13.537  -4.071  1.00  0.00    -0.237 OA
ATOM     97  O   UNL     1      -4.423 -12.999  -5.130  1.00  0.00    -0.744 OA
ENDBRANCH  93  94
ENDBRANCH  67  88
ENDBRANCH  41  42
ENDBRANCH  34  36
ENDBRANCH  33  34
ENDBRANCH  32  33
ENDBRANCH   1  32
TORSDOF 20
