REMARK SMILES C[C@H]1CC=C(C2=NN=C(C(=O)OCCOCCOC(=O)c3ccc(-c4c5nc(c(-c6ccc(S(=O)(=O)[O-])cc6)c6ccc([nH]6)c(-c6ccc(S(=O)(=O)[O-])cc6)c6nc(c(-c7ccc(S(=O)(=O)[O-])cc7)c7ccc4[nH]7)C=C6)C=C5)cc3)C2)O1
REMARK SMILES IDX 16 1 15 2 14 3 13 4 12 5 10 6 11 7 9 8 6 9 7 10 81 11 8 12
REMARK SMILES IDX 5 13 1 14 2 15 3 16 82 17 4 18 17 19 18 20 19 21 20 22 21 23
REMARK SMILES IDX 22 24 80 25 23 26 79 27 24 28 25 29 26 30 73 31 27 32 78 33
REMARK SMILES IDX 72 34 74 35 28 36 77 37 71 38 70 39 29 41 59 42 40 43 58 44
REMARK SMILES IDX 41 45 44 46 57 47 75 48 42 49 43 50 56 52 76 53 45 54 30 55
REMARK SMILES IDX 31 56 39 57 32 58 38 59 33 60 34 61 35 62 36 63 37 64 60 65
REMARK SMILES IDX 61 66 69 67 62 68 68 69 63 70 64 71 65 72 66 73 67 74 46 75
REMARK SMILES IDX 47 76 55 77 48 78 54 79 49 80 50 81 51 82 52 83 53 84
REMARK H PARENT 74 40 44 51
REMARK Flexibility Score: inf
ROOT
ATOM      1  C   UNL     1       4.263  -6.698  -4.085  1.00  0.00     0.202 C 
ENDROOT
BRANCH   1   2
ATOM      2  O   UNL     1       5.385  -7.575  -4.068  1.00  0.00    -0.374 OA
BRANCH   2   3
ATOM      3  C   UNL     1       5.224  -8.952  -3.729  1.00  0.00     0.202 C 
BRANCH   3   4
ATOM      4  C   UNL     1       4.790  -9.316  -2.308  1.00  0.00     0.261 C 
BRANCH   4   5
ATOM      5  O   UNL     1       3.540  -8.719  -1.934  1.00  0.00    -0.459 OA
BRANCH   5   6
ATOM      6  C   UNL     1       3.635  -7.823  -0.938  1.00  0.00     0.355 C 
ATOM      7  O   UNL     1       4.629  -7.481  -0.318  1.00  0.00    -0.245 OA
BRANCH   6   8
ATOM      8  C   UNL     1       2.365  -7.062  -0.753  1.00  0.00     0.154 C 
ATOM      9  C   UNL     1       1.014  -5.333  -0.412  1.00  0.00     0.111 C 
ATOM     10  N   UNL     1       0.378  -6.413  -0.074  1.00  0.00    -0.151 NA
ATOM     11  C   UNL     1       2.357  -5.602  -0.993  1.00  0.00     0.128 C 
ATOM     12  N   UNL     1       1.247  -7.538  -0.301  1.00  0.00    -0.147 NA
BRANCH   9  13
ATOM     13  C   UNL     1       0.598  -3.937  -0.214  1.00  0.00     0.139 C 
ATOM     14  C   UNL     1       0.236  -0.633  -1.260  1.00  0.00     0.053 C 
ATOM     15  C   UNL     1       0.808  -1.726  -0.368  1.00  0.00     0.174 C 
ATOM     16  C   UNL     1      -0.055  -2.036   0.864  1.00  0.00     0.076 C 
ATOM     17  O   UNL     1       0.966  -2.951  -1.121  1.00  0.00    -0.489 OA
ATOM     18  C   UNL     1       0.044  -3.511   0.917  1.00  0.00     0.025 C 
ENDBRANCH   9  13
ENDBRANCH   6   8
ENDBRANCH   5   6
ENDBRANCH   4   5
ENDBRANCH   3   4
ENDBRANCH   2   3
ENDBRANCH   1   2
BRANCH   1  19
ATOM     19  C   UNL     1       3.186  -6.872  -5.148  1.00  0.00     0.261 C 
BRANCH  19  20
ATOM     20  O   UNL     1       2.619  -8.167  -5.103  1.00  0.00    -0.460 OA
BRANCH  20  21
ATOM     21  C   UNL     1       3.121  -9.010  -6.037  1.00  0.00     0.338 C 
ATOM     22  O   UNL     1       4.080  -8.820  -6.758  1.00  0.00    -0.246 OA
BRANCH  21  23
ATOM     23  C   UNL     1       2.247 -10.186  -6.114  1.00  0.00     0.060 A 
ATOM     24  C   UNL     1       2.537 -11.071  -7.154  1.00  0.00     0.016 A 
ATOM     25  C   UNL     1       0.997 -10.145  -5.482  1.00  0.00     0.016 A 
ATOM     26  C   UNL     1       1.475 -11.654  -7.798  1.00  0.00     0.010 A 
ATOM     27  C   UNL     1      -0.060 -10.718  -6.132  1.00  0.00     0.010 A 
ATOM     28  C   UNL     1       0.189 -11.345  -7.349  1.00  0.00    -0.014 A 
BRANCH  28  29
ATOM     29  C   UNL     1      -0.930 -11.711  -8.179  1.00  0.00     0.031 A 
ATOM     30  C   UNL     1      -1.290 -13.132  -8.015  1.00  0.00     0.074 A 
ATOM     31  C   UNL     1      -1.605 -10.798  -8.902  1.00  0.00     0.049 A 
ATOM     32  N   UNL     1      -1.048 -14.102  -8.831  1.00  0.00    -0.248 NA
ATOM     33  C   UNL     1      -1.739 -13.559  -6.678  1.00  0.00     0.031 C 
ATOM     34  C   UNL     1      -1.503  -9.335  -8.881  1.00  0.00     0.029 A 
ATOM     35  N   UNL     1      -2.633 -11.004  -9.757  1.00  0.00    -0.354 N 
ATOM     36  C   UNL     1      -1.532 -15.235  -8.192  1.00  0.00     0.074 A 
ATOM     37  C   UNL     1      -1.687 -14.883  -6.805  1.00  0.00     0.031 C 
ATOM     38  C   UNL     1      -2.600  -8.804  -9.475  1.00  0.00     0.029 A 
ATOM     39  C   UNL     1      -3.399  -9.882 -10.036  1.00  0.00     0.049 A 
ATOM     40  H   UNL     1      -2.823 -11.886 -10.152  1.00  0.00     0.167 HD
ATOM     41  C   UNL     1      -2.057 -16.279  -8.888  1.00  0.00     0.031 A 
ATOM     42  C   UNL     1      -4.637  -9.888 -10.601  1.00  0.00     0.031 A 
ATOM     43  C   UNL     1      -1.732 -16.198 -10.288  1.00  0.00     0.049 A 
ATOM     44  C   UNL     1      -4.800 -11.220 -11.252  1.00  0.00     0.074 A 
ATOM     45  C   UNL     1      -0.556 -16.226 -11.010  1.00  0.00     0.029 A 
ATOM     46  N   UNL     1      -2.676 -15.626 -11.113  1.00  0.00    -0.354 N 
ATOM     47  N   UNL     1      -4.070 -11.616 -12.260  1.00  0.00    -0.248 NA
ATOM     48  C   UNL     1      -5.392 -12.290 -10.458  1.00  0.00     0.031 C 
ATOM     49  C   UNL     1      -0.732 -15.253 -12.036  1.00  0.00     0.029 A 
ATOM     50  C   UNL     1      -2.029 -14.741 -11.939  1.00  0.00     0.049 A 
ATOM     51  H   UNL     1      -3.641 -15.818 -11.110  1.00  0.00     0.167 HD
ATOM     52  C   UNL     1      -3.767 -12.945 -11.990  1.00  0.00     0.074 A 
ATOM     53  C   UNL     1      -4.662 -13.322 -10.895  1.00  0.00     0.031 C 
ATOM     54  C   UNL     1      -2.627 -13.530 -12.468  1.00  0.00     0.031 A 
BRANCH  41  55
ATOM     55  C   UNL     1      -3.194 -17.116  -8.366  1.00  0.00    -0.014 A 
ATOM     56  C   UNL     1      -3.612 -18.232  -9.110  1.00  0.00     0.010 A 
ATOM     57  C   UNL     1      -4.030 -16.703  -7.304  1.00  0.00     0.010 A 
ATOM     58  C   UNL     1      -4.831 -18.866  -8.838  1.00  0.00     0.020 A 
ATOM     59  C   UNL     1      -5.221 -17.354  -6.994  1.00  0.00     0.020 A 
ATOM     60  C   UNL     1      -5.631 -18.414  -7.786  1.00  0.00     0.054 A 
BRANCH  60  61
ATOM     61  S   UNL     1      -7.245 -19.176  -7.504  1.00  0.00     0.124 S 
ATOM     62  O   UNL     1      -7.965 -18.812  -8.720  1.00  0.00    -0.237 OA
ATOM     63  O   UNL     1      -6.899 -20.588  -7.369  1.00  0.00    -0.237 OA
ATOM     64  O   UNL     1      -7.718 -18.535  -6.279  1.00  0.00    -0.744 OA
ENDBRANCH  60  61
ENDBRANCH  41  55
BRANCH  42  65
ATOM     65  C   UNL     1      -5.798  -9.031 -10.223  1.00  0.00    -0.014 A 
ATOM     66  C   UNL     1      -6.952  -8.945 -11.028  1.00  0.00     0.010 A 
ATOM     67  C   UNL     1      -5.883  -8.508  -8.916  1.00  0.00     0.010 A 
ATOM     68  C   UNL     1      -8.151  -8.397 -10.528  1.00  0.00     0.020 A 
ATOM     69  C   UNL     1      -7.070  -7.960  -8.411  1.00  0.00     0.020 A 
ATOM     70  C   UNL     1      -8.207  -7.923  -9.214  1.00  0.00     0.054 A 
BRANCH  70  71
ATOM     71  S   UNL     1      -9.794  -7.363  -8.519  1.00  0.00     0.124 S 
ATOM     72  O   UNL     1     -10.036  -6.124  -9.253  1.00  0.00    -0.237 OA
ATOM     73  O   UNL     1     -10.690  -8.470  -8.836  1.00  0.00    -0.237 OA
ATOM     74  O   UNL     1      -9.506  -7.192  -7.095  1.00  0.00    -0.744 OA
ENDBRANCH  70  71
ENDBRANCH  42  65
BRANCH  54  75
ATOM     75  C   UNL     1      -1.798 -12.773 -13.486  1.00  0.00    -0.014 A 
ATOM     76  C   UNL     1      -1.121 -11.565 -13.216  1.00  0.00     0.010 A 
ATOM     77  C   UNL     1      -1.548 -13.417 -14.709  1.00  0.00     0.010 A 
ATOM     78  C   UNL     1      -0.231 -11.015 -14.155  1.00  0.00     0.020 A 
ATOM     79  C   UNL     1      -0.652 -12.885 -15.639  1.00  0.00     0.020 A 
ATOM     80  C   UNL     1      -0.002 -11.683 -15.363  1.00  0.00     0.054 A 
BRANCH  80  81
ATOM     81  S   UNL     1       1.185 -11.005 -16.559  1.00  0.00     0.124 S 
ATOM     82  O   UNL     1       0.512  -9.795 -17.023  1.00  0.00    -0.237 OA
ATOM     83  O   UNL     1       2.380 -10.787 -15.745  1.00  0.00    -0.237 OA
ATOM     84  O   UNL     1       1.314 -12.063 -17.560  1.00  0.00    -0.744 OA
ENDBRANCH  80  81
ENDBRANCH  54  75
ENDBRANCH  28  29
ENDBRANCH  21  23
ENDBRANCH  20  21
ENDBRANCH  19  20
ENDBRANCH   1  19
TORSDOF 18
