REMARK SMILES Cc1ncccc1C(=O)N1CC[C@H](C(=O)OCCOCCOC(=O)c2ccc(-c3c4nc(c(-c5ccc(S(=O)(=O)[O-])cc5)c5ccc([nH]5)c(-c5ccc(S(=O)(=O)[O-])cc5)c5nc(c(-c6ccc(S(=O)(=O)[O-])cc6)c6ccc3[nH]6)C=C5)C=C4)cc2)C1
REMARK SMILES IDX 20 1 19 2 18 3 17 4 16 5 14 6 15 7 13 8 10 9 11 10 85 11
REMARK SMILES IDX 12 12 8 13 9 14 7 15 1 16 2 17 3 18 4 19 6 20 5 21 21 22
REMARK SMILES IDX 22 23 23 24 24 25 25 26 26 27 84 28 27 29 83 30 28 31 29 32
REMARK SMILES IDX 30 33 77 34 31 35 82 36 76 37 78 38 32 39 81 40 75 41 74 42
REMARK SMILES IDX 33 44 63 45 44 46 62 47 45 48 48 49 61 50 79 51 46 52 47 53
REMARK SMILES IDX 60 55 80 56 49 57 34 58 35 59 43 60 36 61 42 62 37 63 38 64
REMARK SMILES IDX 39 65 40 66 41 67 64 68 65 69 73 70 66 71 72 72 67 73 68 74
REMARK SMILES IDX 69 75 70 76 71 77 50 78 51 79 59 80 52 81 58 82 53 83 54 84
REMARK SMILES IDX 55 85 56 86 57 87
REMARK H PARENT 78 43 48 54
REMARK Flexibility Score: inf
ROOT
ATOM      1  C   UNL     1       7.550  -1.323  -1.594  1.00  0.00     0.202 C 
ENDROOT
BRANCH   1   2
ATOM      2  O   UNL     1       7.729  -1.564  -2.988  1.00  0.00    -0.374 OA
BRANCH   2   3
ATOM      3  C   UNL     1       6.662  -1.190  -3.859  1.00  0.00     0.202 C 
BRANCH   3   4
ATOM      4  C   UNL     1       5.452  -2.128  -3.912  1.00  0.00     0.261 C 
BRANCH   4   5
ATOM      5  O   UNL     1       4.813  -2.266  -2.630  1.00  0.00    -0.463 OA
BRANCH   5   6
ATOM      6  C   UNL     1       4.927  -3.484  -2.036  1.00  0.00     0.310 C 
ATOM      7  O   UNL     1       5.470  -4.463  -2.531  1.00  0.00    -0.252 OA
BRANCH   6   8
ATOM      8  C   UNL     1       4.269  -3.535  -0.675  1.00  0.00     0.120 C 
ATOM      9  N   UNL     1       2.139  -2.711  -0.074  1.00  0.00    -0.338 N 
ATOM     10  C   UNL     1       3.054  -2.222   0.934  1.00  0.00     0.121 C 
ATOM     11  C   UNL     1       2.774  -3.755  -0.858  1.00  0.00     0.135 C 
ATOM     12  C   UNL     1       4.392  -2.283   0.213  1.00  0.00     0.039 C 
BRANCH   9  13
ATOM     13  C   UNL     1       0.812  -2.425  -0.308  1.00  0.00     0.255 C 
ATOM     14  O   UNL     1       0.090  -3.267  -0.846  1.00  0.00    -0.269 OA
BRANCH  13  15
ATOM     15  C   UNL     1       0.202  -1.107   0.011  1.00  0.00     0.061 A 
ATOM     16  C   UNL     1       2.179   0.379  -0.697  1.00  0.00     0.067 C 
ATOM     17  C   UNL     1       0.784   0.149  -0.201  1.00  0.00     0.050 A 
ATOM     18  N   UNL     1       0.088   1.310  -0.028  1.00  0.00    -0.261 NA
ATOM     19  C   UNL     1      -1.232   1.234   0.240  1.00  0.00     0.111 A 
ATOM     20  C   UNL     1      -1.170  -1.135   0.318  1.00  0.00     0.017 A 
ATOM     21  C   UNL     1      -1.903   0.043   0.416  1.00  0.00     0.021 A 
ENDBRANCH  13  15
ENDBRANCH   9  13
ENDBRANCH   6   8
ENDBRANCH   5   6
ENDBRANCH   4   5
ENDBRANCH   3   4
ENDBRANCH   2   3
ENDBRANCH   1   2
BRANCH   1  22
ATOM     22  C   UNL     1       7.699   0.125  -1.107  1.00  0.00     0.261 C 
BRANCH  22  23
ATOM     23  O   UNL     1       6.721   1.012  -1.677  1.00  0.00    -0.460 OA
BRANCH  23  24
ATOM     24  C   UNL     1       7.227   1.934  -2.533  1.00  0.00     0.338 C 
ATOM     25  O   UNL     1       8.408   2.120  -2.800  1.00  0.00    -0.246 OA
BRANCH  24  26
ATOM     26  C   UNL     1       6.139   2.604  -3.267  1.00  0.00     0.060 A 
ATOM     27  C   UNL     1       6.183   2.566  -4.666  1.00  0.00     0.016 A 
ATOM     28  C   UNL     1       5.132   3.313  -2.608  1.00  0.00     0.016 A 
ATOM     29  C   UNL     1       5.235   3.263  -5.414  1.00  0.00     0.010 A 
ATOM     30  C   UNL     1       4.188   4.020  -3.362  1.00  0.00     0.010 A 
ATOM     31  C   UNL     1       4.247   4.017  -4.768  1.00  0.00    -0.014 A 
BRANCH  31  32
ATOM     32  C   UNL     1       3.326   4.865  -5.563  1.00  0.00     0.031 A 
ATOM     33  C   UNL     1       3.590   6.340  -5.685  1.00  0.00     0.074 A 
ATOM     34  C   UNL     1       2.264   4.317  -6.181  1.00  0.00     0.049 A 
ATOM     35  N   UNL     1       2.888   7.257  -6.300  1.00  0.00    -0.248 NA
ATOM     36  C   UNL     1       4.806   6.849  -5.031  1.00  0.00     0.031 C 
ATOM     37  C   UNL     1       1.923   2.895  -6.169  1.00  0.00     0.029 A 
ATOM     38  N   UNL     1       1.271   4.896  -6.931  1.00  0.00    -0.354 N 
ATOM     39  C   UNL     1       3.569   8.453  -6.102  1.00  0.00     0.074 A 
ATOM     40  C   UNL     1       4.729   8.147  -5.292  1.00  0.00     0.031 C 
ATOM     41  C   UNL     1       0.789   2.713  -6.868  1.00  0.00     0.029 A 
ATOM     42  C   UNL     1       0.307   4.008  -7.344  1.00  0.00     0.049 A 
ATOM     43  H   UNL     1       1.251   5.855  -7.151  1.00  0.00     0.167 HD
ATOM     44  C   UNL     1       3.256   9.691  -6.553  1.00  0.00     0.031 A 
ATOM     45  C   UNL     1      -0.849   4.217  -8.005  1.00  0.00     0.031 A 
ATOM     46  C   UNL     1       2.091   9.994  -7.343  1.00  0.00     0.049 A 
ATOM     47  C   UNL     1      -1.219   5.615  -8.424  1.00  0.00     0.074 A 
ATOM     48  C   UNL     1       1.703  11.214  -7.871  1.00  0.00     0.029 A 
ATOM     49  N   UNL     1       1.117   9.076  -7.704  1.00  0.00    -0.354 N 
ATOM     50  N   UNL     1      -0.545   6.729  -8.262  1.00  0.00    -0.248 NA
ATOM     51  C   UNL     1      -2.505   5.784  -9.116  1.00  0.00     0.031 C 
ATOM     52  C   UNL     1       0.464  11.045  -8.498  1.00  0.00     0.029 A 
ATOM     53  C   UNL     1       0.109   9.709  -8.413  1.00  0.00     0.049 A 
ATOM     54  H   UNL     1       1.138   8.116  -7.488  1.00  0.00     0.167 HD
ATOM     55  C   UNL     1      -1.318   7.728  -8.845  1.00  0.00     0.074 A 
ATOM     56  C   UNL     1      -2.500   7.084  -9.381  1.00  0.00     0.031 C 
ATOM     57  C   UNL     1      -1.070   9.059  -8.929  1.00  0.00     0.031 A 
BRANCH  44  58
ATOM     58  C   UNL     1       4.169  10.825  -6.168  1.00  0.00    -0.014 A 
ATOM     59  C   UNL     1       5.447  10.960  -6.739  1.00  0.00     0.010 A 
ATOM     60  C   UNL     1       3.724  11.795  -5.252  1.00  0.00     0.010 A 
ATOM     61  C   UNL     1       6.277  12.023  -6.372  1.00  0.00     0.020 A 
ATOM     62  C   UNL     1       4.540  12.874  -4.901  1.00  0.00     0.020 A 
ATOM     63  C   UNL     1       5.820  12.972  -5.452  1.00  0.00     0.054 A 
BRANCH  63  64
ATOM     64  S   UNL     1       6.910  14.351  -5.007  1.00  0.00     0.124 S 
ATOM     65  O   UNL     1       7.906  13.689  -4.168  1.00  0.00    -0.237 OA
ATOM     66  O   UNL     1       7.392  14.812  -6.307  1.00  0.00    -0.237 OA
ATOM     67  O   UNL     1       6.027  15.281  -4.307  1.00  0.00    -0.744 OA
ENDBRANCH  63  64
ENDBRANCH  44  58
BRANCH  45  68
ATOM     68  C   UNL     1      -1.761   3.073  -8.278  1.00  0.00    -0.014 A 
ATOM     69  C   UNL     1      -1.946   2.596  -9.587  1.00  0.00     0.010 A 
ATOM     70  C   UNL     1      -2.442   2.445  -7.218  1.00  0.00     0.010 A 
ATOM     71  C   UNL     1      -2.802   1.518  -9.832  1.00  0.00     0.020 A 
ATOM     72  C   UNL     1      -3.277   1.351  -7.456  1.00  0.00     0.020 A 
ATOM     73  C   UNL     1      -3.459   0.900  -8.764  1.00  0.00     0.054 A 
BRANCH  73  74
ATOM     74  S   UNL     1      -4.518  -0.535  -9.099  1.00  0.00     0.124 S 
ATOM     75  O   UNL     1      -5.686   0.087  -9.716  1.00  0.00    -0.237 OA
ATOM     76  O   UNL     1      -3.686  -1.340  -9.989  1.00  0.00    -0.237 OA
ATOM     77  O   UNL     1      -4.741  -1.112  -7.776  1.00  0.00    -0.744 OA
ENDBRANCH  73  74
ENDBRANCH  45  68
BRANCH  57  78
ATOM     78  C   UNL     1      -2.091   9.913  -9.634  1.00  0.00    -0.014 A 
ATOM     79  C   UNL     1      -3.329  10.207  -9.035  1.00  0.00     0.010 A 
ATOM     80  C   UNL     1      -1.785  10.477 -10.886  1.00  0.00     0.010 A 
ATOM     81  C   UNL     1      -4.252  11.030  -9.687  1.00  0.00     0.020 A 
ATOM     82  C   UNL     1      -2.694  11.322 -11.529  1.00  0.00     0.020 A 
ATOM     83  C   UNL     1      -3.928  11.583 -10.930  1.00  0.00     0.054 A 
BRANCH  83  84
ATOM     84  S   UNL     1      -5.122  12.688 -11.732  1.00  0.00     0.124 S 
ATOM     85  O   UNL     1      -6.143  11.751 -12.193  1.00  0.00    -0.237 OA
ATOM     86  O   UNL     1      -5.527  13.571 -10.640  1.00  0.00    -0.237 OA
ATOM     87  O   UNL     1      -4.345  13.331 -12.789  1.00  0.00    -0.744 OA
ENDBRANCH  83  84
ENDBRANCH  57  78
ENDBRANCH  31  32
ENDBRANCH  24  26
ENDBRANCH  23  24
ENDBRANCH  22  23
ENDBRANCH   1  22
TORSDOF 19
