REMARK SMILES CS(=O)(=O)c1ccc(/C=C(/C(=O)OCCOCCOC(=O)c2ccc(-c3c4nc(c(-c5ccc(S(=O)(=O)[O-])cc5)c5ccc([nH]5)c(-c5ccc(S(=O)(=O)[O-])cc5)c5nc(c(-c6ccc(S(=O)(=O)[O-])cc6)c6ccc3[nH]6)C=C5)C=C4)cc2)c2ccccc2)cc1
REMARK SMILES IDX 17 1 16 2 15 3 14 4 13 5 11 6 12 7 10 8 9 9 8 10 5 11 6 12
REMARK SMILES IDX 89 13 7 14 88 15 2 16 1 17 3 18 4 19 82 20 83 21 87 22 84 23
REMARK SMILES IDX 86 24 85 25 18 26 19 27 20 28 21 29 22 30 23 31 81 32 24 33
REMARK SMILES IDX 80 34 25 35 26 36 27 37 74 38 28 39 79 40 73 41 75 42 29 43
REMARK SMILES IDX 78 44 72 45 71 46 30 48 60 49 41 50 59 51 42 52 45 53 58 54
REMARK SMILES IDX 76 55 43 56 44 57 57 59 77 60 46 61 31 62 32 63 40 64 33 65
REMARK SMILES IDX 39 66 34 67 35 68 36 69 37 70 38 71 61 72 62 73 70 74 63 75
REMARK SMILES IDX 69 76 64 77 65 78 66 79 67 80 68 81 47 82 48 83 56 84 49 85
REMARK SMILES IDX 55 86 50 87 51 88 52 89 53 90 54 91
REMARK H PARENT 75 47 45 58
REMARK Flexibility Score: inf
ROOT
ATOM      1  C   UNL     1       5.360   3.783  -8.717  1.00  0.00     0.202 C 
ENDROOT
BRANCH   1   2
ATOM      2  O   UNL     1       4.982   4.347  -9.969  1.00  0.00    -0.374 OA
BRANCH   2   3
ATOM      3  C   UNL     1       3.826   5.185  -9.995  1.00  0.00     0.202 C 
BRANCH   3   4
ATOM      4  C   UNL     1       2.460   4.503  -9.864  1.00  0.00     0.261 C 
BRANCH   4   5
ATOM      5  O   UNL     1       2.318   3.845  -8.592  1.00  0.00    -0.460 OA
BRANCH   5   6
ATOM      6  C   UNL     1       2.143   2.500  -8.666  1.00  0.00     0.338 C 
ATOM      7  O   UNL     1       1.956   1.863  -9.695  1.00  0.00    -0.246 OA
BRANCH   6   8
ATOM      8  C   UNL     1       2.328   1.832  -7.336  1.00  0.00     0.067 C 
ATOM      9  C   UNL     1       1.924   2.444  -6.197  1.00  0.00     0.024 C 
BRANCH   9  10
ATOM     10  C   UNL     1       1.760   1.842  -4.848  1.00  0.00    -0.025 A 
ATOM     11  C   UNL     1       0.977   0.442  -2.543  1.00  0.00     0.067 A 
ATOM     12  C   UNL     1       2.129   0.060  -3.227  1.00  0.00     0.021 A 
ATOM     13  C   UNL     1       0.273   1.581  -2.930  1.00  0.00     0.021 A 
ATOM     14  C   UNL     1       2.538   0.789  -4.347  1.00  0.00     0.009 A 
ATOM     15  C   UNL     1       0.671   2.280  -4.075  1.00  0.00     0.009 A 
BRANCH  11  16
ATOM     16  S   UNL     1       0.316  -0.619  -1.280  1.00  0.00     0.175 S 
ATOM     17  C   UNL     1       0.988   0.034   0.220  1.00  0.00     0.163 C 
ATOM     18  O   UNL     1       0.877  -1.943  -1.480  1.00  0.00    -0.224 OA
ATOM     19  O   UNL     1      -1.121  -0.425  -1.253  1.00  0.00    -0.224 OA
ENDBRANCH  11  16
ENDBRANCH   9  10
BRANCH   8  20
ATOM     20  C   UNL     1       2.886   0.466  -7.382  1.00  0.00    -0.011 A 
ATOM     21  C   UNL     1       4.276   0.293  -7.482  1.00  0.00     0.009 A 
ATOM     22  C   UNL     1       2.060  -0.659  -7.298  1.00  0.00     0.009 A 
ATOM     23  C   UNL     1       4.834  -0.984  -7.477  1.00  0.00     0.001 A 
ATOM     24  C   UNL     1       2.622  -1.937  -7.285  1.00  0.00     0.001 A 
ATOM     25  C   UNL     1       4.006  -2.098  -7.372  1.00  0.00     0.000 A 
ENDBRANCH   8  20
ENDBRANCH   6   8
ENDBRANCH   5   6
ENDBRANCH   4   5
ENDBRANCH   3   4
ENDBRANCH   2   3
ENDBRANCH   1   2
BRANCH   1  26
ATOM     26  C   UNL     1       6.085   4.682  -7.709  1.00  0.00     0.261 C 
BRANCH  26  27
ATOM     27  O   UNL     1       5.351   5.869  -7.381  1.00  0.00    -0.460 OA
BRANCH  27  28
ATOM     28  C   UNL     1       5.824   6.994  -7.969  1.00  0.00     0.338 C 
ATOM     29  O   UNL     1       6.830   7.098  -8.661  1.00  0.00    -0.246 OA
BRANCH  28  30
ATOM     30  C   UNL     1       4.850   8.086  -7.817  1.00  0.00     0.060 A 
ATOM     31  C   UNL     1       4.433   8.746  -8.980  1.00  0.00     0.016 A 
ATOM     32  C   UNL     1       4.390   8.493  -6.563  1.00  0.00     0.016 A 
ATOM     33  C   UNL     1       3.588   9.848  -8.890  1.00  0.00     0.010 A 
ATOM     34  C   UNL     1       3.549   9.606  -6.474  1.00  0.00     0.010 A 
ATOM     35  C   UNL     1       3.172  10.307  -7.634  1.00  0.00    -0.014 A 
BRANCH  35  36
ATOM     36  C   UNL     1       2.456  11.600  -7.531  1.00  0.00     0.031 A 
ATOM     37  C   UNL     1       3.225  12.830  -7.133  1.00  0.00     0.074 A 
ATOM     38  C   UNL     1       1.144  11.681  -7.817  1.00  0.00     0.049 A 
ATOM     39  N   UNL     1       2.799  14.055  -6.971  1.00  0.00    -0.248 NA
ATOM     40  C   UNL     1       4.666  12.654  -6.886  1.00  0.00     0.031 C 
ATOM     41  C   UNL     1       0.304  10.566  -8.252  1.00  0.00     0.029 A 
ATOM     42  N   UNL     1       0.290  12.754  -7.783  1.00  0.00    -0.354 N 
ATOM     43  C   UNL     1       3.914  14.795  -6.594  1.00  0.00     0.074 A 
ATOM     44  C   UNL     1       5.029  13.876  -6.524  1.00  0.00     0.031 C 
ATOM     45  C   UNL     1      -0.950  11.013  -8.438  1.00  0.00     0.029 A 
ATOM     46  C   UNL     1      -1.006  12.435  -8.106  1.00  0.00     0.049 A 
ATOM     47  H   UNL     1       0.579  13.666  -7.549  1.00  0.00     0.167 HD
ATOM     48  C   UNL     1       4.001  16.121  -6.334  1.00  0.00     0.031 A 
ATOM     49  C   UNL     1      -2.116  13.200  -8.114  1.00  0.00     0.031 A 
ATOM     50  C   UNL     1       2.885  17.028  -6.393  1.00  0.00     0.049 A 
ATOM     51  C   UNL     1      -2.008  14.659  -7.757  1.00  0.00     0.074 A 
ATOM     52  C   UNL     1       2.873  18.393  -6.166  1.00  0.00     0.029 A 
ATOM     53  N   UNL     1       1.581  16.661  -6.691  1.00  0.00    -0.354 N 
ATOM     54  N   UNL     1      -0.941  15.350  -7.431  1.00  0.00    -0.248 NA
ATOM     55  C   UNL     1      -3.251  15.442  -7.779  1.00  0.00     0.031 C 
ATOM     56  C   UNL     1       1.552  18.841  -6.269  1.00  0.00     0.029 A 
ATOM     57  C   UNL     1       0.751  17.767  -6.624  1.00  0.00     0.049 A 
ATOM     58  H   UNL     1       1.289  15.748  -6.916  1.00  0.00     0.167 HD
ATOM     59  C   UNL     1      -1.381  16.656  -7.235  1.00  0.00     0.074 A 
ATOM     60  C   UNL     1      -2.806  16.659  -7.492  1.00  0.00     0.031 C 
ATOM     61  C   UNL     1      -0.668  17.753  -6.878  1.00  0.00     0.031 A 
BRANCH  48  62
ATOM     62  C   UNL     1       5.345  16.663  -5.924  1.00  0.00    -0.014 A 
ATOM     63  C   UNL     1       6.403  16.770  -6.846  1.00  0.00     0.010 A 
ATOM     64  C   UNL     1       5.542  17.105  -4.603  1.00  0.00     0.010 A 
ATOM     65  C   UNL     1       7.644  17.271  -6.442  1.00  0.00     0.020 A 
ATOM     66  C   UNL     1       6.772  17.633  -4.203  1.00  0.00     0.020 A 
ATOM     67  C   UNL     1       7.821  17.696  -5.122  1.00  0.00     0.054 A 
BRANCH  67  68
ATOM     68  S   UNL     1       9.436  18.360  -4.630  1.00  0.00     0.124 S 
ATOM     69  O   UNL     1      10.259  17.153  -4.597  1.00  0.00    -0.237 OA
ATOM     70  O   UNL     1       9.740  19.297  -5.709  1.00  0.00    -0.237 OA
ATOM     71  O   UNL     1       9.179  18.973  -3.330  1.00  0.00    -0.744 OA
ENDBRANCH  67  68
ENDBRANCH  48  62
BRANCH  49  72
ATOM     72  C   UNL     1      -3.431  12.592  -8.456  1.00  0.00    -0.014 A 
ATOM     73  C   UNL     1      -4.085  12.918  -9.657  1.00  0.00     0.010 A 
ATOM     74  C   UNL     1      -4.032  11.671  -7.578  1.00  0.00     0.010 A 
ATOM     75  C   UNL     1      -5.322  12.343  -9.967  1.00  0.00     0.020 A 
ATOM     76  C   UNL     1      -5.254  11.073  -7.898  1.00  0.00     0.020 A 
ATOM     77  C   UNL     1      -5.896  11.422  -9.087  1.00  0.00     0.054 A 
BRANCH  77  78
ATOM     78  S   UNL     1      -7.473  10.645  -9.538  1.00  0.00     0.124 S 
ATOM     79  O   UNL     1      -8.419  11.737  -9.336  1.00  0.00    -0.237 OA
ATOM     80  O   UNL     1      -7.244  10.252 -10.927  1.00  0.00    -0.237 OA
ATOM     81  O   UNL     1      -7.587   9.534  -8.596  1.00  0.00    -0.744 OA
ENDBRANCH  77  78
ENDBRANCH  49  72
BRANCH  61  82
ATOM     82  C   UNL     1      -1.409  19.061  -6.776  1.00  0.00    -0.014 A 
ATOM     83  C   UNL     1      -2.299  19.316  -5.718  1.00  0.00     0.010 A 
ATOM     84  C   UNL     1      -1.163  20.072  -7.723  1.00  0.00     0.010 A 
ATOM     85  C   UNL     1      -2.955  20.547  -5.628  1.00  0.00     0.020 A 
ATOM     86  C   UNL     1      -1.794  21.314  -7.620  1.00  0.00     0.020 A 
ATOM     87  C   UNL     1      -2.698  21.538  -6.580  1.00  0.00     0.054 A 
BRANCH  87  88
ATOM     88  S   UNL     1      -3.528  23.143  -6.416  1.00  0.00     0.124 S 
ATOM     89  O   UNL     1      -4.893  22.821  -6.821  1.00  0.00    -0.237 OA
ATOM     90  O   UNL     1      -3.349  23.453  -5.000  1.00  0.00    -0.237 OA
ATOM     91  O   UNL     1      -2.792  24.009  -7.335  1.00  0.00    -0.744 OA
ENDBRANCH  87  88
ENDBRANCH  61  82
ENDBRANCH  35  36
ENDBRANCH  28  30
ENDBRANCH  27  28
ENDBRANCH  26  27
ENDBRANCH   1  26
TORSDOF 20
