REMARK SMILES O=C(OCCOCCOC(=O)[C@H]1CC1(c1ccccc1)c1ccccc1)c1ccc(-c2c3nc(c(-c4ccc(S(=O)(=O)[O-])cc4)c4ccc([nH]4)c(-c4ccc(S(=O)(=O)[O-])cc4)c4nc(c(-c5ccc(S(=O)(=O)[O-])cc5)c5ccc2[nH]5)C=C4)C=C3)cc1
REMARK SMILES IDX 5 1 4 2 3 3 2 4 1 5 27 6 28 7 86 8 29 9 85 10 30 11 31 12
REMARK SMILES IDX 32 13 79 14 33 15 84 16 78 17 80 18 34 19 83 20 77 21 76 22
REMARK SMILES IDX 35 24 65 25 46 26 64 27 47 28 50 29 63 30 81 31 48 32 49 33
REMARK SMILES IDX 62 35 82 36 51 37 36 38 37 39 45 40 38 41 44 42 39 43 40 44
REMARK SMILES IDX 41 45 42 46 43 47 66 48 67 49 75 50 68 51 74 52 69 53 70 54
REMARK SMILES IDX 71 55 72 56 73 57 52 58 53 59 61 60 54 61 60 62 55 63 56 64
REMARK SMILES IDX 57 65 58 66 59 67 6 68 7 69 8 70 9 71 10 72 11 73 12 74
REMARK SMILES IDX 13 75 14 76 15 77 16 78 20 79 17 80 19 81 18 82 21 83 22 84
REMARK SMILES IDX 26 85 23 86 25 87 24 88
REMARK H PARENT 80 23 50 34
REMARK Flexibility Score: inf
ROOT
ATOM      1  C   UNL     1       3.116   0.453   5.705  1.00  0.00     0.202 C 
ENDROOT
BRANCH   1   2
ATOM      2  C   UNL     1       2.325   1.335   6.682  1.00  0.00     0.261 C 
BRANCH   2   3
ATOM      3  O   UNL     1       2.982   1.427   7.956  1.00  0.00    -0.460 OA
BRANCH   3   4
ATOM      4  C   UNL     1       2.690   0.718   9.073  1.00  0.00     0.338 C 
ATOM      5  O   UNL     1       3.318   0.944  10.105  1.00  0.00    -0.246 OA
BRANCH   4   6
ATOM      6  C   UNL     1       1.643  -0.346   9.097  1.00  0.00     0.060 A 
ATOM      7  C   UNL     1       1.267  -1.093   7.981  1.00  0.00     0.016 A 
ATOM      8  C   UNL     1       1.075  -0.684  10.332  1.00  0.00     0.016 A 
ATOM      9  C   UNL     1       0.374  -2.129   8.049  1.00  0.00     0.010 A 
ATOM     10  C   UNL     1       0.180  -1.754  10.427  1.00  0.00     0.010 A 
ATOM     11  C   UNL     1      -0.146  -2.483   9.278  1.00  0.00    -0.014 A 
BRANCH  11  12
ATOM     12  C   UNL     1      -1.084  -3.600   9.255  1.00  0.00     0.031 A 
ATOM     13  C   UNL     1      -2.537  -3.284   9.255  1.00  0.00     0.074 A 
ATOM     14  C   UNL     1      -0.597  -4.835   9.030  1.00  0.00     0.049 A 
ATOM     15  N   UNL     1      -3.546  -4.102   9.290  1.00  0.00    -0.248 NA
ATOM     16  C   UNL     1      -2.909  -1.857   9.184  1.00  0.00     0.031 C 
ATOM     17  C   UNL     1       0.820  -5.160   8.813  1.00  0.00     0.029 A 
ATOM     18  N   UNL     1      -1.233  -6.036   8.910  1.00  0.00    -0.354 N 
ATOM     19  C   UNL     1      -4.672  -3.293   9.310  1.00  0.00     0.074 A 
ATOM     20  C   UNL     1      -4.231  -1.921   9.242  1.00  0.00     0.031 C 
ATOM     21  C   UNL     1       0.940  -6.479   8.595  1.00  0.00     0.029 A 
ATOM     22  C   UNL     1      -0.371  -7.094   8.747  1.00  0.00     0.049 A 
ATOM     23  H   UNL     1      -2.212  -6.135   8.937  1.00  0.00     0.167 HD
ATOM     24  C   UNL     1      -5.956  -3.691   9.415  1.00  0.00     0.031 A 
ATOM     25  C   UNL     1      -0.623  -8.414   8.795  1.00  0.00     0.031 A 
ATOM     26  C   UNL     1      -6.329  -5.076   9.483  1.00  0.00     0.049 A 
ATOM     27  C   UNL     1      -2.050  -8.822   9.042  1.00  0.00     0.074 A 
ATOM     28  C   UNL     1      -7.587  -5.621   9.636  1.00  0.00     0.029 A 
ATOM     29  N   UNL     1      -5.431  -6.133   9.410  1.00  0.00    -0.354 N 
ATOM     30  N   UNL     1      -3.120  -8.061   9.116  1.00  0.00    -0.248 NA
ATOM     31  C   UNL     1      -2.309 -10.251   9.239  1.00  0.00     0.031 C 
ATOM     32  C   UNL     1      -7.440  -7.008   9.730  1.00  0.00     0.029 A 
ATOM     33  C   UNL     1      -6.099  -7.330   9.564  1.00  0.00     0.049 A 
ATOM     34  H   UNL     1      -4.460  -6.041   9.270  1.00  0.00     0.167 HD
ATOM     35  C   UNL     1      -4.180  -8.920   9.364  1.00  0.00     0.074 A 
ATOM     36  C   UNL     1      -3.626 -10.261   9.390  1.00  0.00     0.031 C 
ATOM     37  C   UNL     1      -5.490  -8.637   9.570  1.00  0.00     0.031 A 
BRANCH  24  38
ATOM     38  C   UNL     1      -7.003  -2.633   9.583  1.00  0.00    -0.014 A 
ATOM     39  C   UNL     1      -7.429  -1.826   8.515  1.00  0.00     0.010 A 
ATOM     40  C   UNL     1      -7.595  -2.469  10.850  1.00  0.00     0.010 A 
ATOM     41  C   UNL     1      -8.430  -0.871   8.714  1.00  0.00     0.020 A 
ATOM     42  C   UNL     1      -8.610  -1.532  11.046  1.00  0.00     0.020 A 
ATOM     43  C   UNL     1      -9.020  -0.737   9.976  1.00  0.00     0.054 A 
BRANCH  43  44
ATOM     44  S   UNL     1     -10.371   0.455  10.184  1.00  0.00     0.124 S 
ATOM     45  O   UNL     1      -9.667   1.731  10.079  1.00  0.00    -0.237 OA
ATOM     46  O   UNL     1     -11.254   0.132   9.066  1.00  0.00    -0.237 OA
ATOM     47  O   UNL     1     -10.906   0.147  11.508  1.00  0.00    -0.744 OA
ENDBRANCH  43  44
ENDBRANCH  24  38
BRANCH  25  48
ATOM     48  C   UNL     1       0.486  -9.409   8.755  1.00  0.00    -0.014 A 
ATOM     49  C   UNL     1       0.546 -10.398   7.760  1.00  0.00     0.010 A 
ATOM     50  C   UNL     1       1.474  -9.400   9.761  1.00  0.00     0.010 A 
ATOM     51  C   UNL     1       1.541 -11.382   7.797  1.00  0.00     0.020 A 
ATOM     52  C   UNL     1       2.491 -10.358   9.781  1.00  0.00     0.020 A 
ATOM     53  C   UNL     1       2.502 -11.360   8.812  1.00  0.00     0.054 A 
BRANCH  53  54
ATOM     54  S   UNL     1       3.768 -12.659   8.856  1.00  0.00     0.124 S 
ATOM     55  O   UNL     1       2.992 -13.821   9.280  1.00  0.00    -0.237 OA
ATOM     56  O   UNL     1       4.243 -12.684   7.476  1.00  0.00    -0.237 OA
ATOM     57  O   UNL     1       4.735 -12.163   9.832  1.00  0.00    -0.744 OA
ENDBRANCH  53  54
ENDBRANCH  25  48
BRANCH  37  58
ATOM     58  C   UNL     1      -6.401  -9.802   9.820  1.00  0.00    -0.014 A 
ATOM     59  C   UNL     1      -6.380 -10.479  11.050  1.00  0.00     0.010 A 
ATOM     60  C   UNL     1      -7.352 -10.154   8.846  1.00  0.00     0.010 A 
ATOM     61  C   UNL     1      -7.290 -11.505  11.298  1.00  0.00     0.020 A 
ATOM     62  C   UNL     1      -8.286 -11.155   9.104  1.00  0.00     0.020 A 
ATOM     63  C   UNL     1      -8.243 -11.829  10.326  1.00  0.00     0.054 A 
BRANCH  63  64
ATOM     64  S   UNL     1      -9.468 -13.108  10.708  1.00  0.00     0.124 S 
ATOM     65  O   UNL     1      -8.661 -14.324  10.665  1.00  0.00    -0.237 OA
ATOM     66  O   UNL     1      -9.939 -12.712  12.033  1.00  0.00    -0.237 OA
ATOM     67  O   UNL     1     -10.453 -12.975   9.637  1.00  0.00    -0.744 OA
ENDBRANCH  63  64
ENDBRANCH  37  58
ENDBRANCH  11  12
ENDBRANCH   4   6
ENDBRANCH   3   4
ENDBRANCH   2   3
ENDBRANCH   1   2
BRANCH   1  68
ATOM     68  O   UNL     1       3.503  -0.851   6.143  1.00  0.00    -0.374 OA
BRANCH  68  69
ATOM     69  C   UNL     1       4.604  -0.927   7.057  1.00  0.00     0.202 C 
BRANCH  69  70
ATOM     70  C   UNL     1       5.712  -1.772   6.445  1.00  0.00     0.261 C 
BRANCH  70  71
ATOM     71  O   UNL     1       6.204  -1.020   5.332  1.00  0.00    -0.463 OA
BRANCH  71  72
ATOM     72  C   UNL     1       5.601  -1.298   4.152  1.00  0.00     0.310 C 
ATOM     73  O   UNL     1       4.967  -2.301   3.886  1.00  0.00    -0.252 OA
BRANCH  72  74
ATOM     74  C   UNL     1       5.701  -0.202   3.171  1.00  0.00     0.115 C 
ATOM     75  C   UNL     1       5.544   1.259   3.465  1.00  0.00     0.034 C 
ATOM     76  C   UNL     1       6.897   0.737   3.002  1.00  0.00     0.034 C 
BRANCH  76  77
ATOM     77  C   UNL     1       8.000   1.004   4.048  1.00  0.00    -0.037 A 
ATOM     78  C   UNL     1       8.307   2.326   4.431  1.00  0.00     0.004 A 
ATOM     79  C   UNL     1       8.808  -0.016   4.578  1.00  0.00     0.004 A 
ATOM     80  C   UNL     1       9.391   2.617   5.261  1.00  0.00     0.000 A 
ATOM     81  C   UNL     1       9.891   0.268   5.413  1.00  0.00     0.000 A 
ATOM     82  C   UNL     1      10.193   1.586   5.740  1.00  0.00     0.000 A 
ENDBRANCH  76  77
BRANCH  76  83
ATOM     83  C   UNL     1       7.354   0.816   1.538  1.00  0.00    -0.037 A 
ATOM     84  C   UNL     1       8.629   0.345   1.173  1.00  0.00     0.004 A 
ATOM     85  C   UNL     1       6.520   1.257   0.494  1.00  0.00     0.004 A 
ATOM     86  C   UNL     1       9.055   0.313  -0.150  1.00  0.00     0.000 A 
ATOM     87  C   UNL     1       6.932   1.210  -0.838  1.00  0.00     0.000 A 
ATOM     88  C   UNL     1       8.201   0.740  -1.158  1.00  0.00     0.000 A 
ENDBRANCH  76  83
ENDBRANCH  72  74
ENDBRANCH  71  72
ENDBRANCH  70  71
ENDBRANCH  69  70
ENDBRANCH  68  69
ENDBRANCH   1  68
TORSDOF 19
