REMARK SMILES C[C@H](Nc1ccc(N(C)C)cc1)[C@@H](C)C(=O)OCCOCCOC(=O)c1ccc(-c2c3nc(c(-c4ccc(S(=O)(=O)[O-])cc4)c4ccc([nH]4)c(-c4ccc(S(=O)(=O)[O-])cc4)c4nc(c(-c5ccc(S(=O)(=O)[O-])cc5)c5ccc2[nH]5)C=C4)C=C3)cc1
REMARK SMILES IDX 19 1 18 2 17 3 15 4 16 5 13 6 14 7 2 8 1 9 3 10 4 12 5 13
REMARK SMILES IDX 12 14 6 15 11 16 7 17 8 18 9 19 10 20 20 21 21 22 22 23
REMARK SMILES IDX 23 24 24 25 25 26 26 27 27 28 85 29 28 30 84 31 29 32 30 33
REMARK SMILES IDX 31 34 78 35 32 36 83 37 77 38 79 39 33 40 82 41 76 42 75 43
REMARK SMILES IDX 34 45 64 46 45 47 63 48 46 49 49 50 62 51 80 52 47 53 48 54
REMARK SMILES IDX 61 56 81 57 50 58 35 59 36 60 44 61 37 62 43 63 38 64 39 65
REMARK SMILES IDX 40 66 41 67 42 68 65 69 66 70 74 71 67 72 73 73 68 74 69 75
REMARK SMILES IDX 70 76 71 77 72 78 51 79 52 80 60 81 53 82 59 83 54 84 55 85
REMARK SMILES IDX 56 86 57 87 58 88
REMARK H PARENT 3 11 79 44 49 55
REMARK Flexibility Score: inf
ROOT
ATOM      1  C   UNL     1      -2.001   3.133   4.648  1.00  0.00     0.202 C 
ENDROOT
BRANCH   1   2
ATOM      2  C   UNL     1      -2.437   1.770   4.099  1.00  0.00     0.261 C 
BRANCH   2   3
ATOM      3  O   UNL     1      -1.522   1.200   3.135  1.00  0.00    -0.463 OA
BRANCH   3   4
ATOM      4  C   UNL     1      -2.002   1.082   1.868  1.00  0.00     0.310 C 
ATOM      5  O   UNL     1      -3.069   1.549   1.483  1.00  0.00    -0.252 OA
BRANCH   4   6
ATOM      6  C   UNL     1      -1.147   0.203   0.970  1.00  0.00     0.118 C 
ATOM      7  C   UNL     1      -1.567  -1.247   1.233  1.00  0.00     0.022 C 
BRANCH   6   8
ATOM      8  C   UNL     1       0.389   0.405   1.048  1.00  0.00     0.090 C 
ATOM      9  C   UNL     1       0.766   1.887   1.043  1.00  0.00     0.031 C 
BRANCH   8  10
ATOM     10  N   UNL     1       1.023  -0.363  -0.045  1.00  0.00    -0.382 N 
ATOM     11  H   UNL     1       0.915  -1.341  -0.022  1.00  0.00     0.160 HD
BRANCH  10  12
ATOM     12  C   UNL     1       1.750   0.158  -1.094  1.00  0.00     0.034 A 
ATOM     13  C   UNL     1       1.249   0.121  -2.392  1.00  0.00     0.028 A 
ATOM     14  C   UNL     1       3.003   0.733  -0.909  1.00  0.00     0.028 A 
ATOM     15  C   UNL     1       1.964   0.683  -3.465  1.00  0.00     0.028 A 
ATOM     16  C   UNL     1       3.710   1.298  -1.981  1.00  0.00     0.028 A 
ATOM     17  C   UNL     1       3.213   1.300  -3.294  1.00  0.00     0.036 A 
BRANCH  17  18
ATOM     18  N   UNL     1       3.927   1.865  -4.341  1.00  0.00    -0.378 N 
ATOM     19  C   UNL     1       3.554   1.706  -5.739  1.00  0.00     0.143 C 
ATOM     20  C   UNL     1       5.008   2.807  -4.065  1.00  0.00     0.143 C 
ENDBRANCH  17  18
ENDBRANCH  10  12
ENDBRANCH   8  10
ENDBRANCH   6   8
ENDBRANCH   4   6
ENDBRANCH   3   4
ENDBRANCH   2   3
ENDBRANCH   1   2
BRANCH   1  21
ATOM     21  O   UNL     1      -2.140   4.252   3.772  1.00  0.00    -0.374 OA
BRANCH  21  22
ATOM     22  C   UNL     1      -1.180   4.376   2.727  1.00  0.00     0.202 C 
BRANCH  22  23
ATOM     23  C   UNL     1       0.204   4.888   3.152  1.00  0.00     0.261 C 
BRANCH  23  24
ATOM     24  O   UNL     1       0.835   4.017   4.111  1.00  0.00    -0.460 OA
BRANCH  24  25
ATOM     25  C   UNL     1       1.232   4.635   5.247  1.00  0.00     0.338 C 
ATOM     26  O   UNL     1       1.270   5.844   5.451  1.00  0.00    -0.246 OA
BRANCH  25  27
ATOM     27  C   UNL     1       1.458   3.661   6.329  1.00  0.00     0.060 A 
ATOM     28  C   UNL     1       0.701   3.824   7.495  1.00  0.00     0.016 A 
ATOM     29  C   UNL     1       2.466   2.694   6.270  1.00  0.00     0.016 A 
ATOM     30  C   UNL     1       1.003   3.081   8.633  1.00  0.00     0.010 A 
ATOM     31  C   UNL     1       2.767   1.946   7.419  1.00  0.00     0.010 A 
ATOM     32  C   UNL     1       2.072   2.175   8.620  1.00  0.00    -0.014 A 
BRANCH  32  33
ATOM     33  C   UNL     1       2.543   1.626   9.920  1.00  0.00     0.031 A 
ATOM     34  C   UNL     1       3.721   2.271  10.605  1.00  0.00     0.074 A 
ATOM     35  C   UNL     1       1.862   0.645  10.542  1.00  0.00     0.049 A 
ATOM     36  N   UNL     1       4.208   2.048  11.800  1.00  0.00    -0.248 NA
ATOM     37  C   UNL     1       4.441   3.308   9.848  1.00  0.00     0.031 C 
ATOM     38  C   UNL     1       0.686  -0.038  10.006  1.00  0.00     0.029 A 
ATOM     39  N   UNL     1       2.051   0.073  11.776  1.00  0.00    -0.354 N 
ATOM     40  C   UNL     1       5.281   2.921  11.942  1.00  0.00     0.074 A 
ATOM     41  C   UNL     1       5.400   3.648  10.697  1.00  0.00     0.031 C 
ATOM     42  C   UNL     1       0.246  -0.927  10.914  1.00  0.00     0.029 A 
ATOM     43  C   UNL     1       1.117  -0.885  12.088  1.00  0.00     0.049 A 
ATOM     44  H   UNL     1       2.787   0.325  12.379  1.00  0.00     0.167 HD
ATOM     45  C   UNL     1       6.087   3.115  13.014  1.00  0.00     0.031 A 
ATOM     46  C   UNL     1       0.972  -1.639  13.197  1.00  0.00     0.031 A 
ATOM     47  C   UNL     1       5.983   2.387  14.250  1.00  0.00     0.049 A 
ATOM     48  C   UNL     1       1.913  -1.444  14.356  1.00  0.00     0.074 A 
ATOM     49  C   UNL     1       6.750   2.518  15.395  1.00  0.00     0.029 A 
ATOM     50  N   UNL     1       5.058   1.386  14.503  1.00  0.00    -0.354 N 
ATOM     51  N   UNL     1       2.902  -0.591  14.482  1.00  0.00    -0.248 NA
ATOM     52  C   UNL     1       1.706  -2.304  15.530  1.00  0.00     0.031 C 
ATOM     53  C   UNL     1       6.319   1.563  16.323  1.00  0.00     0.029 A 
ATOM     54  C   UNL     1       5.249   0.874  15.775  1.00  0.00     0.049 A 
ATOM     55  H   UNL     1       4.366   1.083  13.870  1.00  0.00     0.167 HD
ATOM     56  C   UNL     1       3.420  -0.797  15.757  1.00  0.00     0.074 A 
ATOM     57  C   UNL     1       2.625  -1.843  16.368  1.00  0.00     0.031 C 
ATOM     58  C   UNL     1       4.459  -0.175  16.368  1.00  0.00     0.031 A 
BRANCH  45  59
ATOM     59  C   UNL     1       7.178   4.145  12.881  1.00  0.00    -0.014 A 
ATOM     60  C   UNL     1       6.882   5.521  12.883  1.00  0.00     0.010 A 
ATOM     61  C   UNL     1       8.519   3.732  12.783  1.00  0.00     0.010 A 
ATOM     62  C   UNL     1       7.906   6.464  12.749  1.00  0.00     0.020 A 
ATOM     63  C   UNL     1       9.547   4.673  12.673  1.00  0.00     0.020 A 
ATOM     64  C   UNL     1       9.231   6.033  12.639  1.00  0.00     0.054 A 
BRANCH  64  65
ATOM     65  S   UNL     1      10.543   7.277  12.480  1.00  0.00     0.124 S 
ATOM     66  O   UNL     1      10.376   7.714  11.096  1.00  0.00    -0.237 OA
ATOM     67  O   UNL     1      10.180   8.260  13.497  1.00  0.00    -0.237 OA
ATOM     68  O   UNL     1      11.767   6.526  12.752  1.00  0.00    -0.744 OA
ENDBRANCH  64  65
ENDBRANCH  45  59
BRANCH  46  69
ATOM     69  C   UNL     1      -0.115  -2.654  13.264  1.00  0.00    -0.014 A 
ATOM     70  C   UNL     1      -1.223  -2.470  14.109  1.00  0.00     0.010 A 
ATOM     71  C   UNL     1      -0.043  -3.815  12.474  1.00  0.00     0.010 A 
ATOM     72  C   UNL     1      -2.234  -3.434  14.171  1.00  0.00     0.020 A 
ATOM     73  C   UNL     1      -1.062  -4.769  12.514  1.00  0.00     0.020 A 
ATOM     74  C   UNL     1      -2.148  -4.577  13.370  1.00  0.00     0.054 A 
BRANCH  74  75
ATOM     75  S   UNL     1      -3.499  -5.788  13.416  1.00  0.00     0.124 S 
ATOM     76  O   UNL     1      -3.244  -6.480  14.675  1.00  0.00    -0.237 OA
ATOM     77  O   UNL     1      -4.687  -4.939  13.389  1.00  0.00    -0.237 OA
ATOM     78  O   UNL     1      -3.284  -6.582  12.208  1.00  0.00    -0.744 OA
ENDBRANCH  74  75
ENDBRANCH  46  69
BRANCH  58  79
ATOM     79  C   UNL     1       4.782  -0.593  17.778  1.00  0.00    -0.014 A 
ATOM     80  C   UNL     1       5.387  -1.833  18.049  1.00  0.00     0.010 A 
ATOM     81  C   UNL     1       4.505   0.282  18.844  1.00  0.00     0.010 A 
ATOM     82  C   UNL     1       5.670  -2.208  19.366  1.00  0.00     0.020 A 
ATOM     83  C   UNL     1       4.809  -0.079  20.159  1.00  0.00     0.020 A 
ATOM     84  C   UNL     1       5.372  -1.331  20.413  1.00  0.00     0.054 A 
BRANCH  84  85
ATOM     85  S   UNL     1       5.764  -1.831  22.113  1.00  0.00     0.124 S 
ATOM     86  O   UNL     1       4.684  -2.768  22.409  1.00  0.00    -0.237 OA
ATOM     87  O   UNL     1       7.092  -2.424  21.978  1.00  0.00    -0.237 OA
ATOM     88  O   UNL     1       5.723  -0.576  22.860  1.00  0.00    -0.744 OA
ENDBRANCH  84  85
ENDBRANCH  58  79
ENDBRANCH  32  33
ENDBRANCH  25  27
ENDBRANCH  24  25
ENDBRANCH  23  24
ENDBRANCH  22  23
ENDBRANCH  21  22
ENDBRANCH   1  21
TORSDOF 21
