REMARK SMILES NC(=O)c1ccnc(N(CC(=O)OCCOCCOC(=O)c2ccc(-c3c4nc(c(-c5ccc(S(=O)(=O)[O-])cc5)c5ccc([nH]5)c(-c5ccc(S(=O)(=O)[O-])cc5)c5nc(c(-c6ccc(S(=O)(=O)[O-])cc6)c6ccc3[nH]6)C=C5)C=C4)cc2)CC(F)(F)F)c1
REMARK SMILES IDX 16 1 15 2 14 3 13 4 11 5 12 6 10 7 9 8 8 9 4 10 5 11 87 12
REMARK SMILES IDX 6 13 7 14 2 15 1 16 3 19 82 20 83 21 84 22 85 23 86 24 17 25
REMARK SMILES IDX 18 26 19 27 20 28 21 29 22 30 23 31 81 32 24 33 80 34 25 35
REMARK SMILES IDX 26 36 27 37 74 38 28 39 79 40 73 41 75 42 29 43 78 44 72 45
REMARK SMILES IDX 71 46 30 48 60 49 41 50 59 51 42 52 45 53 58 54 76 55 43 56
REMARK SMILES IDX 44 57 57 59 77 60 46 61 31 62 32 63 40 64 33 65 39 66 34 67
REMARK SMILES IDX 35 68 36 69 37 70 38 71 61 72 62 73 70 74 63 75 69 76 64 77
REMARK SMILES IDX 65 78 66 79 67 80 68 81 47 82 48 83 56 84 49 85 55 86 50 87
REMARK SMILES IDX 51 88 52 89 53 90 54 91
REMARK H PARENT 1 17 1 18 75 47 45 58
REMARK Flexibility Score: inf
ROOT
ATOM      1  O   UNL     1      -1.722   7.075  -7.495  1.00  0.00    -0.374 OA
ENDROOT
BRANCH   1   2
ATOM      2  C   UNL     1      -1.701   5.761  -8.050  1.00  0.00     0.202 C 
BRANCH   2   3
ATOM      3  C   UNL     1      -0.394   4.975  -7.891  1.00  0.00     0.261 C 
BRANCH   3   4
ATOM      4  O   UNL     1       0.028   4.818  -6.520  1.00  0.00    -0.462 OA
BRANCH   4   5
ATOM      5  C   UNL     1       1.273   5.294  -6.238  1.00  0.00     0.325 C 
ATOM      6  O   UNL     1       1.988   5.874  -7.055  1.00  0.00    -0.250 OA
BRANCH   5   7
ATOM      7  C   UNL     1       1.700   5.193  -4.777  1.00  0.00     0.241 C 
BRANCH   7   8
ATOM      8  N   UNL     1       0.878   4.382  -3.856  1.00  0.00    -0.336 N 
BRANCH   8   9
ATOM      9  C   UNL     1       1.367   3.136  -3.506  1.00  0.00     0.130 A 
ATOM     10  C   UNL     1       1.443   1.202  -2.053  1.00  0.00     0.044 A 
ATOM     11  C   UNL     1       2.341   0.586  -2.907  1.00  0.00     0.034 A 
ATOM     12  C   UNL     1       0.984   2.487  -2.342  1.00  0.00     0.060 A 
ATOM     13  C   UNL     1       2.725   1.305  -4.020  1.00  0.00     0.114 A 
ATOM     14  N   UNL     1       2.265   2.545  -4.322  1.00  0.00    -0.239 NA
BRANCH  10  15
ATOM     15  C   UNL     1       0.884   0.545  -0.849  1.00  0.00     0.248 C 
ATOM     16  N   UNL     1       1.685  -0.320  -0.166  1.00  0.00    -0.366 N 
ATOM     17  H   UNL     1       1.346  -0.774   0.639  1.00  0.00     0.159 HD
ATOM     18  H   UNL     1       2.604  -0.490  -0.477  1.00  0.00     0.159 HD
ATOM     19  O   UNL     1      -0.244   0.801  -0.452  1.00  0.00    -0.270 OA
ENDBRANCH  10  15
ENDBRANCH   8   9
BRANCH   8  20
ATOM     20  C   UNL     1      -0.219   5.056  -3.123  1.00  0.00     0.234 C 
BRANCH  20  21
ATOM     21  C   UNL     1      -1.567   4.320  -2.979  1.00  0.00     0.405 C 
ATOM     22  F   UNL     1      -1.641   3.610  -1.832  1.00  0.00    -0.169 F 
ATOM     23  F   UNL     1      -2.575   5.226  -2.911  1.00  0.00    -0.169 F 
ATOM     24  F   UNL     1      -1.825   3.488  -4.004  1.00  0.00    -0.169 F 
ENDBRANCH  20  21
ENDBRANCH   8  20
ENDBRANCH   7   8
ENDBRANCH   5   7
ENDBRANCH   4   5
ENDBRANCH   3   4
ENDBRANCH   2   3
ENDBRANCH   1   2
BRANCH   1  25
ATOM     25  C   UNL     1      -1.835   7.174  -6.075  1.00  0.00     0.202 C 
BRANCH  25  26
ATOM     26  C   UNL     1      -3.166   6.709  -5.472  1.00  0.00     0.261 C 
BRANCH  26  27
ATOM     27  O   UNL     1      -3.312   5.278  -5.560  1.00  0.00    -0.460 OA
BRANCH  27  28
ATOM     28  C   UNL     1      -4.501   4.856  -6.052  1.00  0.00     0.338 C 
ATOM     29  O   UNL     1      -5.472   5.557  -6.311  1.00  0.00    -0.246 OA
BRANCH  28  30
ATOM     30  C   UNL     1      -4.441   3.433  -6.441  1.00  0.00     0.060 A 
ATOM     31  C   UNL     1      -4.732   3.118  -7.775  1.00  0.00     0.016 A 
ATOM     32  C   UNL     1      -4.229   2.414  -5.511  1.00  0.00     0.016 A 
ATOM     33  C   UNL     1      -4.878   1.787  -8.167  1.00  0.00     0.010 A 
ATOM     34  C   UNL     1      -4.367   1.076  -5.909  1.00  0.00     0.010 A 
ATOM     35  C   UNL     1      -4.743   0.757  -7.226  1.00  0.00    -0.014 A 
BRANCH  35  36
ATOM     36  C   UNL     1      -5.175  -0.621  -7.583  1.00  0.00     0.031 A 
ATOM     37  C   UNL     1      -6.521  -1.109  -7.109  1.00  0.00     0.074 A 
ATOM     38  C   UNL     1      -4.415  -1.415  -8.361  1.00  0.00     0.049 A 
ATOM     39  N   UNL     1      -7.102  -2.266  -7.307  1.00  0.00    -0.248 NA
ATOM     40  C   UNL     1      -7.319  -0.167  -6.307  1.00  0.00     0.031 C 
ATOM     41  C   UNL     1      -3.117  -1.053  -8.928  1.00  0.00     0.029 A 
ATOM     42  N   UNL     1      -4.634  -2.694  -8.812  1.00  0.00    -0.354 N 
ATOM     43  C   UNL     1      -8.325  -2.193  -6.649  1.00  0.00     0.074 A 
ATOM     44  C   UNL     1      -8.390  -0.892  -6.021  1.00  0.00     0.031 C 
ATOM     45  C   UNL     1      -2.654  -2.087  -9.652  1.00  0.00     0.029 A 
ATOM     46  C   UNL     1      -3.606  -3.195  -9.575  1.00  0.00     0.049 A 
ATOM     47  H   UNL     1      -5.451  -3.204  -8.608  1.00  0.00     0.167 HD
ATOM     48  C   UNL     1      -9.311  -3.119  -6.579  1.00  0.00     0.031 A 
ATOM     49  C   UNL     1      -3.441  -4.412 -10.134  1.00  0.00     0.031 A 
ATOM     50  C   UNL     1      -9.249  -4.419  -7.194  1.00  0.00     0.049 A 
ATOM     51  C   UNL     1      -4.519  -5.454  -9.981  1.00  0.00     0.074 A 
ATOM     52  C   UNL     1     -10.204  -5.421  -7.185  1.00  0.00     0.029 A 
ATOM     53  N   UNL     1      -8.171  -4.900  -7.920  1.00  0.00    -0.354 N 
ATOM     54  N   UNL     1      -5.678  -5.361  -9.373  1.00  0.00    -0.248 NA
ATOM     55  C   UNL     1      -4.270  -6.766 -10.599  1.00  0.00     0.031 C 
ATOM     56  C   UNL     1      -9.682  -6.528  -7.861  1.00  0.00     0.029 A 
ATOM     57  C   UNL     1      -8.427  -6.193  -8.344  1.00  0.00     0.049 A 
ATOM     58  H   UNL     1      -7.346  -4.397  -8.108  1.00  0.00     0.167 HD
ATOM     59  C   UNL     1      -6.307  -6.588  -9.563  1.00  0.00     0.074 A 
ATOM     60  C   UNL     1      -5.405  -7.404 -10.348  1.00  0.00     0.031 C 
ATOM     61  C   UNL     1      -7.526  -6.997  -9.131  1.00  0.00     0.031 A 
BRANCH  48  62
ATOM     62  C   UNL     1     -10.536  -2.769  -5.775  1.00  0.00    -0.014 A 
ATOM     63  C   UNL     1     -11.466  -1.820  -6.237  1.00  0.00     0.010 A 
ATOM     64  C   UNL     1     -10.774  -3.422  -4.552  1.00  0.00     0.010 A 
ATOM     65  C   UNL     1     -12.591  -1.502  -5.471  1.00  0.00     0.020 A 
ATOM     66  C   UNL     1     -11.912  -3.125  -3.796  1.00  0.00     0.020 A 
ATOM     67  C   UNL     1     -12.804  -2.153  -4.252  1.00  0.00     0.054 A 
BRANCH  67  68
ATOM     68  S   UNL     1     -14.279  -1.731  -3.284  1.00  0.00     0.124 S 
ATOM     69  O   UNL     1     -13.930  -0.413  -2.762  1.00  0.00    -0.237 OA
ATOM     70  O   UNL     1     -15.339  -1.747  -4.290  1.00  0.00    -0.237 OA
ATOM     71  O   UNL     1     -14.356  -2.796  -2.287  1.00  0.00    -0.744 OA
ENDBRANCH  67  68
ENDBRANCH  48  62
BRANCH  49  72
ATOM     72  C   UNL     1      -2.191  -4.721 -10.882  1.00  0.00    -0.014 A 
ATOM     73  C   UNL     1      -2.210  -4.895 -12.277  1.00  0.00     0.010 A 
ATOM     74  C   UNL     1      -0.970  -4.846 -10.195  1.00  0.00     0.010 A 
ATOM     75  C   UNL     1      -1.034  -5.202 -12.969  1.00  0.00     0.020 A 
ATOM     76  C   UNL     1       0.212  -5.127 -10.886  1.00  0.00     0.020 A 
ATOM     77  C   UNL     1       0.171  -5.314 -12.268  1.00  0.00     0.054 A 
BRANCH  77  78
ATOM     78  S   UNL     1       1.694  -5.660 -13.192  1.00  0.00     0.124 S 
ATOM     79  O   UNL     1       1.534  -7.072 -13.525  1.00  0.00    -0.237 OA
ATOM     80  O   UNL     1       1.602  -4.729 -14.314  1.00  0.00    -0.237 OA
ATOM     81  O   UNL     1       2.752  -5.359 -12.229  1.00  0.00    -0.744 OA
ENDBRANCH  77  78
ENDBRANCH  49  72
BRANCH  61  82
ATOM     82  C   UNL     1      -7.987  -8.375  -9.530  1.00  0.00    -0.014 A 
ATOM     83  C   UNL     1      -7.436  -9.531  -8.949  1.00  0.00     0.010 A 
ATOM     84  C   UNL     1      -9.041  -8.510 -10.454  1.00  0.00     0.010 A 
ATOM     85  C   UNL     1      -7.914 -10.796  -9.303  1.00  0.00     0.020 A 
ATOM     86  C   UNL     1      -9.539  -9.771 -10.790  1.00  0.00     0.020 A 
ATOM     87  C   UNL     1      -8.964 -10.909 -10.221  1.00  0.00     0.054 A 
BRANCH  87  88
ATOM     88  S   UNL     1      -9.601 -12.559 -10.624  1.00  0.00     0.124 S 
ATOM     89  O   UNL     1      -8.544 -13.094 -11.478  1.00  0.00    -0.237 OA
ATOM     90  O   UNL     1      -9.725 -13.186  -9.310  1.00  0.00    -0.237 OA
ATOM     91  O   UNL     1     -10.868 -12.286 -11.299  1.00  0.00    -0.744 OA
ENDBRANCH  87  88
ENDBRANCH  61  82
ENDBRANCH  35  36
ENDBRANCH  28  30
ENDBRANCH  27  28
ENDBRANCH  26  27
ENDBRANCH  25  26
ENDBRANCH   1  25
TORSDOF 22
