REMARK SMILES O=C(/C=C\N1[C@@H]2CC[C@H]1C[C@H](O)C2)OCCOCCOC(=O)c1ccc(-c2c3nc(c(-c4ccc(S(=O)(=O)[O-])cc4)c4ccc([nH]4)c(-c4ccc(S(=O)(=O)[O-])cc4)c4nc(c(-c5ccc(S(=O)(=O)[O-])cc5)c5ccc2[nH]5)C=C4)C=C3)cc1
REMARK SMILES IDX 18 1 17 2 16 3 15 4 14 5 2 6 1 7 3 8 4 9 5 10 6 11 9 12 7 13
REMARK SMILES IDX 13 14 8 15 10 16 11 17 12 18 19 20 20 21 21 22 22 23 23 24
REMARK SMILES IDX 24 25 82 26 25 27 81 28 26 29 27 30 28 31 75 32 29 33 80 34
REMARK SMILES IDX 74 35 76 36 30 37 79 38 73 39 72 40 31 42 61 43 42 44 60 45
REMARK SMILES IDX 43 46 46 47 59 48 77 49 44 50 45 51 58 53 78 54 47 55 32 56
REMARK SMILES IDX 33 57 41 58 34 59 40 60 35 61 36 62 37 63 38 64 39 65 62 66
REMARK SMILES IDX 63 67 71 68 64 69 70 70 65 71 66 72 67 73 68 74 69 75 48 76
REMARK SMILES IDX 49 77 57 78 50 79 56 80 51 81 52 82 53 83 54 84 55 85
REMARK H PARENT 12 19 76 41 46 52
REMARK Flexibility Score: inf
ROOT
ATOM      1  C   UNL     1       1.703   3.227  -0.932  1.00  0.00     0.202 C 
ENDROOT
BRANCH   1   2
ATOM      2  O   UNL     1       2.726   2.922   0.015  1.00  0.00    -0.374 OA
BRANCH   2   3
ATOM      3  C   UNL     1       3.576   1.823  -0.301  1.00  0.00     0.202 C 
BRANCH   3   4
ATOM      4  C   UNL     1       2.846   0.514  -0.620  1.00  0.00     0.261 C 
BRANCH   4   5
ATOM      5  O   UNL     1       2.018   0.068   0.450  1.00  0.00    -0.460 OA
BRANCH   5   6
ATOM      6  C   UNL     1       2.483  -0.448   1.599  1.00  0.00     0.332 C 
ATOM      7  O   UNL     1       1.680  -0.830   2.451  1.00  0.00    -0.247 OA
BRANCH   6   8
ATOM      8  C   UNL     1       3.911  -0.434   1.987  1.00  0.00     0.111 C 
ATOM      9  C   UNL     1       5.161  -0.692   1.574  1.00  0.00     0.089 C 
BRANCH   9  10
ATOM     10  N   UNL     1       5.897  -1.116   0.485  1.00  0.00    -0.371 N 
ATOM     11  C   UNL     1       7.132  -1.913   0.649  1.00  0.00     0.084 C 
ATOM     12  C   UNL     1       5.944  -0.703  -0.920  1.00  0.00     0.084 C 
ATOM     13  C   UNL     1       8.192  -1.111  -0.122  1.00  0.00     0.027 C 
ATOM     14  C   UNL     1       6.872  -3.289   0.016  1.00  0.00     0.056 C 
ATOM     15  C   UNL     1       7.403  -0.257  -1.100  1.00  0.00     0.027 C 
ATOM     16  C   UNL     1       5.641  -1.919  -1.816  1.00  0.00     0.056 C 
ATOM     17  C   UNL     1       5.796  -3.258  -1.083  1.00  0.00     0.118 C 
BRANCH  17  18
ATOM     18  O   UNL     1       4.531  -3.569  -0.481  1.00  0.00    -0.393 OA
ATOM     19  H   UNL     1       4.307  -2.887   0.171  1.00  0.00     0.210 HD
ENDBRANCH  17  18
ENDBRANCH   9  10
ENDBRANCH   6   8
ENDBRANCH   5   6
ENDBRANCH   4   5
ENDBRANCH   3   4
ENDBRANCH   2   3
ENDBRANCH   1   2
BRANCH   1  20
ATOM     20  C   UNL     1       2.206   3.767  -2.277  1.00  0.00     0.261 C 
BRANCH  20  21
ATOM     21  O   UNL     1       2.726   2.733  -3.146  1.00  0.00    -0.460 OA
BRANCH  21  22
ATOM     22  C   UNL     1       4.024   2.874  -3.520  1.00  0.00     0.338 C 
ATOM     23  O   UNL     1       4.817   3.703  -3.107  1.00  0.00    -0.246 OA
BRANCH  22  24
ATOM     24  C   UNL     1       4.430   1.795  -4.450  1.00  0.00     0.060 A 
ATOM     25  C   UNL     1       5.656   1.153  -4.229  1.00  0.00     0.016 A 
ATOM     26  C   UNL     1       3.680   1.493  -5.588  1.00  0.00     0.016 A 
ATOM     27  C   UNL     1       6.136   0.209  -5.143  1.00  0.00     0.010 A 
ATOM     28  C   UNL     1       4.175   0.565  -6.514  1.00  0.00     0.010 A 
ATOM     29  C   UNL     1       5.410  -0.075  -6.306  1.00  0.00    -0.014 A 
BRANCH  29  30
ATOM     30  C   UNL     1       5.960  -0.973  -7.356  1.00  0.00     0.031 A 
ATOM     31  C   UNL     1       6.660  -0.379  -8.548  1.00  0.00     0.074 A 
ATOM     32  C   UNL     1       5.798  -2.307  -7.269  1.00  0.00     0.049 A 
ATOM     33  N   UNL     1       7.043  -0.961  -9.655  1.00  0.00    -0.248 NA
ATOM     34  C   UNL     1       6.973   1.057  -8.481  1.00  0.00     0.031 C 
ATOM     35  C   UNL     1       5.208  -3.016  -6.134  1.00  0.00     0.029 A 
ATOM     36  N   UNL     1       6.094  -3.303  -8.170  1.00  0.00    -0.354 N 
ATOM     37  C   UNL     1       7.612   0.042 -10.433  1.00  0.00     0.074 A 
ATOM     38  C   UNL     1       7.540   1.265  -9.663  1.00  0.00     0.031 C 
ATOM     39  C   UNL     1       5.153  -4.329  -6.421  1.00  0.00     0.029 A 
ATOM     40  C   UNL     1       5.648  -4.545  -7.779  1.00  0.00     0.049 A 
ATOM     41  H   UNL     1       6.578  -3.143  -9.012  1.00  0.00     0.167 HD
ATOM     42  C   UNL     1       8.128  -0.048 -11.682  1.00  0.00     0.031 A 
ATOM     43  C   UNL     1       5.587  -5.710  -8.460  1.00  0.00     0.031 A 
ATOM     44  C   UNL     1       8.185  -1.264 -12.450  1.00  0.00     0.049 A 
ATOM     45  C   UNL     1       6.071  -5.759  -9.889  1.00  0.00     0.074 A 
ATOM     46  C   UNL     1       8.702  -1.454 -13.720  1.00  0.00     0.029 A 
ATOM     47  N   UNL     1       7.695  -2.490 -12.031  1.00  0.00    -0.354 N 
ATOM     48  N   UNL     1       6.623  -4.809 -10.606  1.00  0.00    -0.248 NA
ATOM     49  C   UNL     1       5.909  -7.033 -10.606  1.00  0.00     0.031 C 
ATOM     50  C   UNL     1       8.463  -2.779 -14.096  1.00  0.00     0.029 A 
ATOM     51  C   UNL     1       7.854  -3.430 -13.035  1.00  0.00     0.049 A 
ATOM     52  H   UNL     1       7.293  -2.667 -11.150  1.00  0.00     0.167 HD
ATOM     53  C   UNL     1       6.886  -5.376 -11.850  1.00  0.00     0.074 A 
ATOM     54  C   UNL     1       6.455  -6.756 -11.783  1.00  0.00     0.031 C 
ATOM     55  C   UNL     1       7.428  -4.803 -12.953  1.00  0.00     0.031 A 
BRANCH  42  56
ATOM     56  C   UNL     1       8.612   1.217 -12.339  1.00  0.00    -0.014 A 
ATOM     57  C   UNL     1       9.831   1.816 -11.976  1.00  0.00     0.010 A 
ATOM     58  C   UNL     1       7.863   1.770 -13.395  1.00  0.00     0.010 A 
ATOM     59  C   UNL     1      10.280   2.959 -12.645  1.00  0.00     0.020 A 
ATOM     60  C   UNL     1       8.319   2.899 -14.080  1.00  0.00     0.020 A 
ATOM     61  C   UNL     1       9.521   3.493 -13.693  1.00  0.00     0.054 A 
BRANCH  61  62
ATOM     62  S   UNL     1      10.148   4.954 -14.569  1.00  0.00     0.124 S 
ATOM     63  O   UNL     1       9.960   6.005 -13.572  1.00  0.00    -0.237 OA
ATOM     64  O   UNL     1      11.535   4.590 -14.844  1.00  0.00    -0.237 OA
ATOM     65  O   UNL     1       9.286   5.051 -15.744  1.00  0.00    -0.744 OA
ENDBRANCH  61  62
ENDBRANCH  42  56
BRANCH  43  66
ATOM     66  C   UNL     1       4.958  -6.912  -7.840  1.00  0.00    -0.014 A 
ATOM     67  C   UNL     1       5.712  -8.067  -7.570  1.00  0.00     0.010 A 
ATOM     68  C   UNL     1       3.578  -6.920  -7.560  1.00  0.00     0.010 A 
ATOM     69  C   UNL     1       5.094  -9.215  -7.061  1.00  0.00     0.020 A 
ATOM     70  C   UNL     1       2.963  -8.052  -7.020  1.00  0.00     0.020 A 
ATOM     71  C   UNL     1       3.722  -9.200  -6.791  1.00  0.00     0.054 A 
BRANCH  71  72
ATOM     72  S   UNL     1       2.943 -10.694  -6.116  1.00  0.00     0.124 S 
ATOM     73  O   UNL     1       2.899 -11.566  -7.285  1.00  0.00    -0.237 OA
ATOM     74  O   UNL     1       3.877 -11.090  -5.065  1.00  0.00    -0.237 OA
ATOM     75  O   UNL     1       1.646 -10.217  -5.641  1.00  0.00    -0.744 OA
ENDBRANCH  71  72
ENDBRANCH  43  66
BRANCH  55  76
ATOM     76  C   UNL     1       7.614  -5.664 -14.175  1.00  0.00    -0.014 A 
ATOM     77  C   UNL     1       6.519  -6.037 -14.974  1.00  0.00     0.010 A 
ATOM     78  C   UNL     1       8.912  -6.028 -14.580  1.00  0.00     0.010 A 
ATOM     79  C   UNL     1       6.717  -6.768 -16.149  1.00  0.00     0.020 A 
ATOM     80  C   UNL     1       9.117  -6.736 -15.767  1.00  0.00     0.020 A 
ATOM     81  C   UNL     1       8.016  -7.107 -16.541  1.00  0.00     0.054 A 
BRANCH  81  82
ATOM     82  S   UNL     1       8.252  -7.989 -18.110  1.00  0.00     0.124 S 
ATOM     83  O   UNL     1       7.777  -9.330 -17.780  1.00  0.00    -0.237 OA
ATOM     84  O   UNL     1       7.410  -7.232 -19.033  1.00  0.00    -0.237 OA
ATOM     85  O   UNL     1       9.689  -7.881 -18.356  1.00  0.00    -0.744 OA
ENDBRANCH  81  82
ENDBRANCH  55  76
ENDBRANCH  29  30
ENDBRANCH  22  24
ENDBRANCH  21  22
ENDBRANCH  20  21
ENDBRANCH   1  20
TORSDOF 19
