REMARK SMILES Cc1cccc(CC(=O)N2CCC3(CCC(=O)N([C@H](C)C(=O)OCCOCCOC(=O)c4ccc(-c5c6nc(c(-c7ccc(S(=O)(=O)[O-])cc7)c7ccc([nH]7)c(-c7ccc(S(=O)(=O)[O-])cc7)c7nc(c(-c8ccc(S(=O)(=O)[O-])cc8)c8ccc5[nH]8)C=C7)C=C6)cc4)C3)CC2)c1
REMARK SMILES IDX 26 1 25 2 24 3 23 4 21 5 22 6 19 7 20 8 18 9 8 10 9 11 10 12
REMARK SMILES IDX 11 13 94 14 12 15 93 16 13 17 14 18 92 19 15 20 16 21 17 22
REMARK SMILES IDX 7 23 6 24 1 25 2 26 3 27 95 28 4 29 5 30 27 31 28 32 29 33
REMARK SMILES IDX 30 34 31 35 32 36 33 37 91 38 34 39 90 40 35 41 36 42 37 43
REMARK SMILES IDX 84 44 38 45 89 46 83 47 85 48 39 49 88 50 82 51 81 52 40 54
REMARK SMILES IDX 70 55 51 56 69 57 52 58 55 59 68 60 86 61 53 62 54 63 67 65
REMARK SMILES IDX 87 66 56 67 41 68 42 69 50 70 43 71 49 72 44 73 45 74 46 75
REMARK SMILES IDX 47 76 48 77 71 78 72 79 80 80 73 81 79 82 74 83 75 84 76 85
REMARK SMILES IDX 77 86 78 87 57 88 58 89 66 90 59 91 65 92 60 93 61 94 62 95
REMARK SMILES IDX 63 96 64 97
REMARK H PARENT 85 53 55 64
REMARK Flexibility Score: inf
ROOT
ATOM      1  O   UNL     1      -2.276   5.939  -5.313  1.00  0.00    -0.374 OA
ENDROOT
BRANCH   1   2
ATOM      2  C   UNL     1      -2.359   5.095  -6.452  1.00  0.00     0.202 C 
BRANCH   2   3
ATOM      3  C   UNL     1      -1.979   5.933  -7.643  1.00  0.00     0.261 C 
BRANCH   3   4
ATOM      4  O   UNL     1      -0.638   6.440  -7.647  1.00  0.00    -0.462 OA
BRANCH   4   5
ATOM      5  C   UNL     1      -0.034   6.921  -6.541  1.00  0.00     0.328 C 
ATOM      6  O   UNL     1      -0.445   7.788  -5.782  1.00  0.00    -0.250 OA
BRANCH   5   7
ATOM      7  C   UNL     1       1.277   6.186  -6.341  1.00  0.00     0.192 C 
ATOM      8  C   UNL     1       1.065   4.746  -5.872  1.00  0.00     0.044 C 
BRANCH   7   9
ATOM      9  N   UNL     1       2.137   6.298  -7.531  1.00  0.00    -0.329 N 
ATOM     10  C   UNL     1       8.209   5.262  -6.974  1.00  0.00     0.226 C 
ATOM     11  O   UNL     1       8.452   4.072  -6.737  1.00  0.00    -0.275 OA
ATOM     12  N   UNL     1       7.136   5.624  -7.774  1.00  0.00    -0.342 N 
ATOM     13  C   UNL     1       6.044   4.675  -7.913  1.00  0.00     0.120 C 
ATOM     14  C   UNL     1       6.918   6.885  -8.488  1.00  0.00     0.120 C 
ATOM     15  C   UNL     1       4.782   5.333  -7.382  1.00  0.00     0.030 C 
ATOM     16  C   UNL     1       5.674   7.605  -7.974  1.00  0.00     0.030 C 
ATOM     17  C   UNL     1       4.455   6.677  -8.108  1.00  0.00    -0.008 C 
ATOM     18  C   UNL     1       4.080   6.531  -9.595  1.00  0.00     0.019 C 
ATOM     19  C   UNL     1       3.211   7.280  -7.463  1.00  0.00     0.127 C 
ATOM     20  C   UNL     1       2.911   5.599  -9.795  1.00  0.00     0.101 C 
ATOM     21  C   UNL     1       1.874   5.574  -8.694  1.00  0.00     0.223 C 
ATOM     22  O   UNL     1       0.927   4.803  -8.841  1.00  0.00    -0.275 OA
BRANCH  10  23
ATOM     23  C   UNL     1       8.974   6.321  -6.191  1.00  0.00     0.135 C 
BRANCH  23  24
ATOM     24  C   UNL     1       9.519   7.487  -6.966  1.00  0.00    -0.038 A 
ATOM     25  C   UNL     1       8.774  11.211  -7.254  1.00  0.00     0.044 C 
ATOM     26  C   UNL     1       9.359   9.853  -7.511  1.00  0.00    -0.051 A 
ATOM     27  C   UNL     1      10.151   9.626  -8.643  1.00  0.00     0.003 A 
ATOM     28  C   UNL     1       9.074   8.784  -6.658  1.00  0.00     0.007 A 
ATOM     29  C   UNL     1      10.651   8.351  -8.919  1.00  0.00     0.001 A 
ATOM     30  C   UNL     1      10.345   7.282  -8.079  1.00  0.00     0.004 A 
ENDBRANCH  23  24
ENDBRANCH  10  23
ENDBRANCH   7   9
ENDBRANCH   5   7
ENDBRANCH   4   5
ENDBRANCH   3   4
ENDBRANCH   2   3
ENDBRANCH   1   2
BRANCH   1  31
ATOM     31  C   UNL     1      -2.554   5.363  -4.057  1.00  0.00     0.202 C 
BRANCH  31  32
ATOM     32  C   UNL     1      -3.960   4.767  -3.966  1.00  0.00     0.261 C 
BRANCH  32  33
ATOM     33  O   UNL     1      -4.965   5.805  -3.974  1.00  0.00    -0.460 OA
BRANCH  33  34
ATOM     34  C   UNL     1      -5.605   6.014  -5.163  1.00  0.00     0.338 C 
ATOM     35  O   UNL     1      -6.491   5.288  -5.590  1.00  0.00    -0.246 OA
BRANCH  34  36
ATOM     36  C   UNL     1      -5.090   7.245  -5.830  1.00  0.00     0.060 A 
ATOM     37  C   UNL     1      -5.295   7.491  -7.201  1.00  0.00     0.016 A 
ATOM     38  C   UNL     1      -4.215   8.054  -5.115  1.00  0.00     0.016 A 
ATOM     39  C   UNL     1      -4.522   8.459  -7.879  1.00  0.00     0.010 A 
ATOM     40  C   UNL     1      -3.378   8.903  -5.803  1.00  0.00     0.010 A 
ATOM     41  C   UNL     1      -3.507   9.117  -7.187  1.00  0.00    -0.014 A 
BRANCH  41  42
ATOM     42  C   UNL     1      -2.463  10.005  -7.721  1.00  0.00     0.031 A 
ATOM     43  C   UNL     1      -2.370  11.371  -7.142  1.00  0.00     0.074 A 
ATOM     44  C   UNL     1      -1.394   9.518  -8.401  1.00  0.00     0.049 A 
ATOM     45  N   UNL     1      -1.502  12.251  -7.498  1.00  0.00    -0.248 NA
ATOM     46  C   UNL     1      -3.279  11.880  -6.113  1.00  0.00     0.031 C 
ATOM     47  C   UNL     1      -0.020  10.028  -8.374  1.00  0.00     0.029 A 
ATOM     48  N   UNL     1      -1.322   8.476  -9.316  1.00  0.00    -0.354 N 
ATOM     49  C   UNL     1      -1.492  13.244  -6.548  1.00  0.00     0.074 A 
ATOM     50  C   UNL     1      -2.683  13.025  -5.769  1.00  0.00     0.031 C 
ATOM     51  C   UNL     1       0.699   9.459  -9.354  1.00  0.00     0.029 A 
ATOM     52  C   UNL     1      -0.207   8.651 -10.146  1.00  0.00     0.049 A 
ATOM     53  H   UNL     1      -1.959   7.727  -9.373  1.00  0.00     0.167 HD
ATOM     54  C   UNL     1      -0.398  14.052  -6.471  1.00  0.00     0.031 A 
ATOM     55  C   UNL     1      -0.343   8.669 -11.501  1.00  0.00     0.031 A 
ATOM     56  C   UNL     1       0.529  13.785  -7.580  1.00  0.00     0.049 A 
ATOM     57  C   UNL     1      -0.022  10.055 -12.000  1.00  0.00     0.074 A 
ATOM     58  C   UNL     1       1.764  13.166  -7.668  1.00  0.00     0.029 A 
ATOM     59  N   UNL     1       0.058  13.908  -8.886  1.00  0.00    -0.354 N 
ATOM     60  N   UNL     1      -0.003  11.090 -11.203  1.00  0.00    -0.248 NA
ATOM     61  C   UNL     1       0.391  10.402 -13.356  1.00  0.00     0.031 C 
ATOM     62  C   UNL     1       1.996  12.855  -9.040  1.00  0.00     0.029 A 
ATOM     63  C   UNL     1       0.923  13.319  -9.787  1.00  0.00     0.049 A 
ATOM     64  H   UNL     1      -0.781  14.358  -9.134  1.00  0.00     0.167 HD
ATOM     65  C   UNL     1       0.461  12.183 -11.861  1.00  0.00     0.074 A 
ATOM     66  C   UNL     1       0.659  11.716 -13.222  1.00  0.00     0.031 C 
ATOM     67  C   UNL     1       0.649  13.373 -11.222  1.00  0.00     0.031 A 
BRANCH  54  68
ATOM     68  C   UNL     1      -0.062  14.967  -5.311  1.00  0.00    -0.014 A 
ATOM     69  C   UNL     1       1.200  15.597  -5.272  1.00  0.00     0.010 A 
ATOM     70  C   UNL     1      -0.906  15.223  -4.212  1.00  0.00     0.010 A 
ATOM     71  C   UNL     1       1.596  16.417  -4.202  1.00  0.00     0.020 A 
ATOM     72  C   UNL     1      -0.528  16.044  -3.138  1.00  0.00     0.020 A 
ATOM     73  C   UNL     1       0.726  16.637  -3.139  1.00  0.00     0.054 A 
BRANCH  73  74
ATOM     74  S   UNL     1       1.243  17.705  -1.771  1.00  0.00     0.124 S 
ATOM     75  O   UNL     1       2.413  17.002  -1.251  1.00  0.00    -0.237 OA
ATOM     76  O   UNL     1       1.515  18.970  -2.446  1.00  0.00    -0.237 OA
ATOM     77  O   UNL     1       0.084  17.715  -0.880  1.00  0.00    -0.744 OA
ENDBRANCH  73  74
ENDBRANCH  54  68
BRANCH  55  78
ATOM     78  C   UNL     1      -1.369   7.678 -11.968  1.00  0.00    -0.014 A 
ATOM     79  C   UNL     1      -0.971   6.317 -11.925  1.00  0.00     0.010 A 
ATOM     80  C   UNL     1      -2.741   7.966 -11.843  1.00  0.00     0.010 A 
ATOM     81  C   UNL     1      -1.876   5.305 -11.563  1.00  0.00     0.020 A 
ATOM     82  C   UNL     1      -3.648   6.952 -11.473  1.00  0.00     0.020 A 
ATOM     83  C   UNL     1      -3.201   5.638 -11.284  1.00  0.00     0.054 A 
BRANCH  83  84
ATOM     84  S   UNL     1      -4.269   4.422 -10.427  1.00  0.00     0.124 S 
ATOM     85  O   UNL     1      -4.807   3.642 -11.536  1.00  0.00    -0.237 OA
ATOM     86  O   UNL     1      -3.346   3.703  -9.551  1.00  0.00    -0.237 OA
ATOM     87  O   UNL     1      -5.228   5.267  -9.720  1.00  0.00    -0.744 OA
ENDBRANCH  83  84
ENDBRANCH  55  78
BRANCH  67  88
ATOM     88  C   UNL     1       0.646  14.708 -11.914  1.00  0.00    -0.014 A 
ATOM     89  C   UNL     1       0.184  14.892 -13.226  1.00  0.00     0.010 A 
ATOM     90  C   UNL     1       0.956  15.872 -11.171  1.00  0.00     0.010 A 
ATOM     91  C   UNL     1       0.111  16.164 -13.796  1.00  0.00     0.020 A 
ATOM     92  C   UNL     1       0.825  17.152 -11.709  1.00  0.00     0.020 A 
ATOM     93  C   UNL     1       0.435  17.285 -13.035  1.00  0.00     0.054 A 
BRANCH  93  94
ATOM     94  S   UNL     1       0.307  18.919 -13.791  1.00  0.00     0.124 S 
ATOM     95  O   UNL     1       1.528  18.968 -14.593  1.00  0.00    -0.237 OA
ATOM     96  O   UNL     1      -0.938  18.825 -14.550  1.00  0.00    -0.237 OA
ATOM     97  O   UNL     1       0.268  19.828 -12.650  1.00  0.00    -0.744 OA
ENDBRANCH  93  94
ENDBRANCH  67  88
ENDBRANCH  41  42
ENDBRANCH  34  36
ENDBRANCH  33  34
ENDBRANCH  32  33
ENDBRANCH  31  32
ENDBRANCH   1  31
TORSDOF 20
