REMARK SMILES O=C(OCCOCCOC(=O)c1ccc(-c2c3nc(c(-c4ccc(S(=O)(=O)[O-])cc4)c4ccc([nH]4)c(-c4ccc(S(=O)(=O)[O-])cc4)c4nc(c(-c5ccc(S(=O)(=O)[O-])cc5)c5ccc2[nH]5)C=C4)C=C3)cc1)C1=Cc2cc(Cl)cc(-c3ccc(CO)cc3)c2O[C@@H]1C(F)(F)F
REMARK SMILES IDX 6 1 5 2 4 3 3 4 2 5 1 6 72 7 73 8 90 9 74 10 89 11 75 12
REMARK SMILES IDX 88 13 76 14 79 15 77 16 78 17 91 18 92 19 93 20 94 21 80 22
REMARK SMILES IDX 81 23 87 24 82 25 86 26 83 27 84 28 85 29 7 31 8 32 9 33
REMARK SMILES IDX 10 34 11 35 12 36 13 37 71 38 14 39 70 40 15 41 16 42 17 43
REMARK SMILES IDX 64 44 18 45 69 46 63 47 65 48 19 49 68 50 62 51 61 52 20 54
REMARK SMILES IDX 50 55 31 56 49 57 32 58 35 59 48 60 66 61 33 62 34 63 47 65
REMARK SMILES IDX 67 66 36 67 21 68 22 69 30 70 23 71 29 72 24 73 25 74 26 75
REMARK SMILES IDX 27 76 28 77 51 78 52 79 60 80 53 81 59 82 54 83 55 84 56 85
REMARK SMILES IDX 57 86 58 87 37 88 38 89 46 90 39 91 45 92 40 93 41 94 42 95
REMARK SMILES IDX 43 96 44 97
REMARK H PARENT 85 30 65 53 35 64
REMARK Flexibility Score: inf
ROOT
ATOM      1  O   UNL     1       3.646  -1.757  -1.841  1.00  0.00    -0.374 OA
ENDROOT
BRANCH   1   2
ATOM      2  C   UNL     1       4.275  -0.511  -0.998  1.00  0.00     0.202 C 
BRANCH   2   3
ATOM      3  C   UNL     1       3.379   0.719   0.558  1.00  0.00     0.261 C 
BRANCH   3   4
ATOM      4  O   UNL     1       2.457   1.980   0.311  1.00  0.00    -0.460 OA
BRANCH   4   5
ATOM      5  C   UNL     1       2.641   2.558  -0.881  1.00  0.00     0.338 C 
ATOM      6  O   UNL     1       2.103   3.494  -1.411  1.00  0.00    -0.246 OA
BRANCH   5   7
ATOM      7  C   UNL     1       3.496   1.515  -1.375  1.00  0.00     0.087 C 
ATOM      8  C   UNL     1       4.849   1.704  -0.831  1.00  0.00     0.027 C 
ATOM      9  C   UNL     1       2.348   0.001  -1.000  1.00  0.00     0.316 C 
ATOM     10  C   UNL     1       5.585   0.596   0.391  1.00  0.00     0.019 A 
ATOM     11  O   UNL     1       3.136  -1.186   0.333  1.00  0.00    -0.475 OA
ATOM     12  C   UNL     1       6.757   1.056   0.931  1.00  0.00     0.032 A 
ATOM     13  C   UNL     1       4.757  -0.789   1.082  1.00  0.00     0.135 A 
ATOM     14  C   UNL     1       7.181   0.371   2.060  1.00  0.00     0.042 A 
ATOM     15  C   UNL     1       5.341  -1.491   2.166  1.00  0.00     0.026 A 
ATOM     16  Cl  UNL     1       8.637   0.919   2.822  1.00  0.00    -0.084 Cl
ATOM     17  C   UNL     1       6.511  -0.774   2.632  1.00  0.00     0.033 A 
BRANCH   9  18
ATOM     18  C   UNL     1       1.816  -0.180  -2.503  1.00  0.00     0.430 C 
ATOM     19  F   UNL     1       0.818  -1.071  -2.653  1.00  0.00    -0.167 F 
ATOM     20  F   UNL     1       1.244   1.012  -2.873  1.00  0.00    -0.167 F 
ATOM     21  F   UNL     1       2.756  -0.384  -3.454  1.00  0.00    -0.167 F 
ENDBRANCH   9  18
BRANCH  15  22
ATOM     22  C   UNL     1       5.122  -2.890   2.948  1.00  0.00    -0.015 A 
ATOM     23  C   UNL     1       4.395  -2.512   4.573  1.00  0.00     0.009 A 
ATOM     24  C   UNL     1       5.513  -4.858   2.612  1.00  0.00     0.009 A 
ATOM     25  C   UNL     1       4.069  -3.843   5.715  1.00  0.00     0.007 A 
ATOM     26  C   UNL     1       5.088  -6.089   3.833  1.00  0.00     0.007 A 
ATOM     27  C   UNL     1       4.387  -5.559   5.341  1.00  0.00    -0.023 A 
BRANCH  27  28
ATOM     28  C   UNL     1       3.821  -6.660   6.206  1.00  0.00     0.191 C 
BRANCH  28  29
ATOM     29  O   UNL     1       4.531  -6.857   7.404  1.00  0.00    -0.392 OA
ATOM     30  H   UNL     1       5.441  -7.124   7.201  1.00  0.00     0.211 HD
ENDBRANCH  28  29
ENDBRANCH  27  28
ENDBRANCH  15  22
ENDBRANCH   5   7
ENDBRANCH   4   5
ENDBRANCH   3   4
ENDBRANCH   2   3
ENDBRANCH   1   2
BRANCH   1  31
ATOM     31  C   UNL     1       2.630  -2.753  -1.563  1.00  0.00     0.202 C 
BRANCH  31  32
ATOM     32  C   UNL     1       2.997  -4.223  -1.772  1.00  0.00     0.261 C 
BRANCH  32  33
ATOM     33  O   UNL     1       3.824  -4.696  -0.737  1.00  0.00    -0.460 OA
BRANCH  33  34
ATOM     34  C   UNL     1       4.981  -4.020  -0.638  1.00  0.00     0.338 C 
ATOM     35  O   UNL     1       5.756  -3.713  -1.519  1.00  0.00    -0.246 OA
BRANCH  34  36
ATOM     36  C   UNL     1       5.117  -3.756   0.790  1.00  0.00     0.060 A 
ATOM     37  C   UNL     1       6.770  -3.525   1.401  1.00  0.00     0.016 A 
ATOM     38  C   UNL     1       3.717  -4.096   1.816  1.00  0.00     0.016 A 
ATOM     39  C   UNL     1       7.183  -3.667   3.109  1.00  0.00     0.010 A 
ATOM     40  C   UNL     1       4.006  -4.293   3.571  1.00  0.00     0.010 A 
ATOM     41  C   UNL     1       5.890  -4.070   4.307  1.00  0.00    -0.014 A 
BRANCH  41  42
ATOM     42  C   UNL     1       6.720  -4.246   5.717  1.00  0.00     0.031 A 
ATOM     43  C   UNL     1       7.385  -5.583   6.066  1.00  0.00     0.074 A 
ATOM     44  C   UNL     1       6.964  -3.259   6.619  1.00  0.00     0.049 A 
ATOM     45  N   UNL     1       7.660  -6.099   7.246  1.00  0.00    -0.248 NA
ATOM     46  C   UNL     1       7.729  -6.477   4.956  1.00  0.00     0.031 C 
ATOM     47  C   UNL     1       6.688  -1.837   6.456  1.00  0.00     0.029 A 
ATOM     48  N   UNL     1       7.460  -3.329   7.915  1.00  0.00    -0.354 N 
ATOM     49  C   UNL     1       8.094  -7.406   7.016  1.00  0.00     0.074 A 
ATOM     50  C   UNL     1       7.986  -7.615   5.588  1.00  0.00     0.031 C 
ATOM     51  C   UNL     1       6.878  -1.196   7.620  1.00  0.00     0.029 A 
ATOM     52  C   UNL     1       7.320  -2.152   8.626  1.00  0.00     0.049 A 
ATOM     53  H   UNL     1       7.873  -4.140   8.290  1.00  0.00     0.167 HD
ATOM     54  C   UNL     1       8.554  -8.342   7.889  1.00  0.00     0.031 A 
ATOM     55  C   UNL     1       7.495  -1.851   9.932  1.00  0.00     0.031 A 
ATOM     56  C   UNL     1       8.884  -8.087   9.274  1.00  0.00     0.049 A 
ATOM     57  C   UNL     1       8.027  -2.883  10.891  1.00  0.00     0.074 A 
ATOM     58  C   UNL     1       9.457  -8.955  10.193  1.00  0.00     0.029 A 
ATOM     59  N   UNL     1       8.753  -6.869   9.919  1.00  0.00    -0.354 N 
ATOM     60  N   UNL     1       8.302  -4.145  10.675  1.00  0.00    -0.248 NA
ATOM     61  C   UNL     1       8.325  -2.430  12.260  1.00  0.00     0.031 C 
ATOM     62  C   UNL     1       9.653  -8.270  11.396  1.00  0.00     0.029 A 
ATOM     63  C   UNL     1       9.253  -6.959  11.212  1.00  0.00     0.049 A 
ATOM     64  H   UNL     1       8.362  -6.058   9.521  1.00  0.00     0.167 HD
ATOM     65  C   UNL     1       8.862  -4.617  11.861  1.00  0.00     0.074 A 
ATOM     66  C   UNL     1       8.892  -3.507  12.787  1.00  0.00     0.031 C 
ATOM     67  C   UNL     1       9.321  -5.861  12.142  1.00  0.00     0.031 A 
BRANCH  54  68
ATOM     68  C   UNL     1       8.755  -9.758   7.385  1.00  0.00    -0.014 A 
ATOM     69  C   UNL     1       9.726 -10.082   6.423  1.00  0.00     0.010 A 
ATOM     70  C   UNL     1       7.991 -10.804   7.946  1.00  0.00     0.010 A 
ATOM     71  C   UNL     1       9.878 -11.399   5.977  1.00  0.00     0.020 A 
ATOM     72  C   UNL     1       8.175 -12.132   7.543  1.00  0.00     0.020 A 
ATOM     73  C   UNL     1       9.100 -12.416   6.538  1.00  0.00     0.054 A 
BRANCH  73  74
ATOM     74  S   UNL     1       9.341 -14.117   5.956  1.00  0.00     0.124 S 
ATOM     75  O   UNL     1       8.697 -14.078   4.645  1.00  0.00    -0.237 OA
ATOM     76  O   UNL     1      10.795 -14.246   5.936  1.00  0.00    -0.237 OA
ATOM     77  O   UNL     1       8.659 -14.929   6.960  1.00  0.00    -0.744 OA
ENDBRANCH  73  74
ENDBRANCH  54  68
BRANCH  55  78
ATOM     78  C   UNL     1       7.185  -0.478  10.434  1.00  0.00    -0.014 A 
ATOM     79  C   UNL     1       8.223   0.397  10.803  1.00  0.00     0.010 A 
ATOM     80  C   UNL     1       5.852  -0.053  10.584  1.00  0.00     0.010 A 
ATOM     81  C   UNL     1       7.936   1.655  11.341  1.00  0.00     0.020 A 
ATOM     82  C   UNL     1       5.561   1.218  11.095  1.00  0.00     0.020 A 
ATOM     83  C   UNL     1       6.606   2.059  11.482  1.00  0.00     0.054 A 
BRANCH  83  84
ATOM     84  S   UNL     1       6.266   3.714  12.147  1.00  0.00     0.124 S 
ATOM     85  O   UNL     1       6.652   3.566  13.547  1.00  0.00    -0.237 OA
ATOM     86  O   UNL     1       7.138   4.560  11.336  1.00  0.00    -0.237 OA
ATOM     87  O   UNL     1       4.837   3.893  11.906  1.00  0.00    -0.744 OA
ENDBRANCH  83  84
ENDBRANCH  55  78
BRANCH  67  88
ATOM     88  C   UNL     1       9.984  -6.085  13.480  1.00  0.00    -0.014 A 
ATOM     89  C   UNL     1       9.256  -6.062  14.683  1.00  0.00     0.010 A 
ATOM     90  C   UNL     1      11.366  -6.351  13.530  1.00  0.00     0.010 A 
ATOM     91  C   UNL     1       9.903  -6.257  15.909  1.00  0.00     0.020 A 
ATOM     92  C   UNL     1      12.011  -6.578  14.750  1.00  0.00     0.020 A 
ATOM     93  C   UNL     1      11.278  -6.512  15.935  1.00  0.00     0.054 A 
BRANCH  93  94
ATOM     94  S   UNL     1      12.087  -6.788  17.537  1.00  0.00     0.124 S 
ATOM     95  O   UNL     1      12.066  -5.452  18.124  1.00  0.00    -0.237 OA
ATOM     96  O   UNL     1      11.210  -7.768  18.173  1.00  0.00    -0.237 OA
ATOM     97  O   UNL     1      13.411  -7.289  17.176  1.00  0.00    -0.744 OA
ENDBRANCH  93  94
ENDBRANCH  67  88
ENDBRANCH  41  42
ENDBRANCH  34  36
ENDBRANCH  33  34
ENDBRANCH  32  33
ENDBRANCH  31  32
ENDBRANCH   1  31
TORSDOF 21
