REMARK SMILES CCC(CC)Nc1cc(C)c(N)c(C(=O)OCCOCCOC(=O)c2ccc(-c3c4nc(c(-c5ccc(S(=O)(=O)[O-])cc5)c5ccc([nH]5)c(-c5ccc(S(=O)(=O)[O-])cc5)c5nc(c(-c6ccc(S(=O)(=O)[O-])cc6)c6ccc3[nH]6)C=C5)C=C4)cc2)c1
REMARK SMILES IDX 19 1 18 2 17 3 16 4 14 5 15 6 13 7 7 8 8 9 85 10 9 11 10 12
REMARK SMILES IDX 11 13 6 14 3 16 2 17 1 18 4 19 5 20 12 21 20 24 21 25 22 26
REMARK SMILES IDX 23 27 24 28 25 29 26 30 84 31 27 32 83 33 28 34 29 35 30 36
REMARK SMILES IDX 77 37 31 38 82 39 76 40 78 41 32 42 81 43 75 44 74 45 33 47
REMARK SMILES IDX 63 48 44 49 62 50 45 51 48 52 61 53 79 54 46 55 47 56 60 58
REMARK SMILES IDX 80 59 49 60 34 61 35 62 43 63 36 64 42 65 37 66 38 67 39 68
REMARK SMILES IDX 40 69 41 70 64 71 65 72 73 73 66 74 72 75 67 76 68 77 69 78
REMARK SMILES IDX 70 79 71 80 50 81 51 82 59 83 52 84 58 85 53 86 54 87 55 88
REMARK SMILES IDX 56 89 57 90
REMARK H PARENT 6 15 12 22 12 23 78 46 48 57
REMARK Flexibility Score: inf
ROOT
ATOM      1  O   UNL     1       2.866  -7.386  -5.986  1.00  0.00    -0.374 OA
ENDROOT
BRANCH   1   2
ATOM      2  C   UNL     1       1.464  -7.375  -6.259  1.00  0.00     0.202 C 
BRANCH   2   3
ATOM      3  C   UNL     1       0.562  -7.933  -5.153  1.00  0.00     0.261 C 
BRANCH   3   4
ATOM      4  O   UNL     1       0.673  -7.155  -3.950  1.00  0.00    -0.460 OA
BRANCH   4   5
ATOM      5  C   UNL     1       1.286  -7.784  -2.916  1.00  0.00     0.340 C 
ATOM      6  O   UNL     1       1.592  -8.967  -2.871  1.00  0.00    -0.246 OA
BRANCH   5   7
ATOM      7  C   UNL     1       1.708  -6.801  -1.883  1.00  0.00     0.085 A 
ATOM      8  C   UNL     1       1.285  -4.755  -0.616  1.00  0.00     0.035 A 
ATOM      9  C   UNL     1       2.497  -4.975   0.046  1.00  0.00     0.031 A 
ATOM     10  C   UNL     1       0.896  -5.696  -1.576  1.00  0.00     0.043 A 
ATOM     11  C   UNL     1       3.329  -6.075  -0.243  1.00  0.00    -0.025 A 
ATOM     12  C   UNL     1       4.628  -6.218   0.502  1.00  0.00     0.047 C 
ATOM     13  C   UNL     1       2.944  -6.999  -1.229  1.00  0.00     0.049 A 
BRANCH   8  14
ATOM     14  N   UNL     1       0.501  -3.635  -0.414  1.00  0.00    -0.382 N 
ATOM     15  H   UNL     1      -0.423  -3.668  -0.751  1.00  0.00     0.160 HD
BRANCH  14  16
ATOM     16  C   UNL     1       0.922  -2.407   0.258  1.00  0.00     0.078 C 
BRANCH  16  17
ATOM     17  C   UNL     1       0.475  -1.210  -0.603  1.00  0.00     0.021 C 
ATOM     18  C   UNL     1       0.943   0.134  -0.064  1.00  0.00     0.006 C 
ENDBRANCH  16  17
BRANCH  16  19
ATOM     19  C   UNL     1       0.398  -2.389   1.705  1.00  0.00     0.021 C 
ATOM     20  C   UNL     1      -1.117  -2.309   1.842  1.00  0.00     0.006 C 
ENDBRANCH  16  19
ENDBRANCH  14  16
ENDBRANCH   8  14
BRANCH  13  21
ATOM     21  N   UNL     1       3.852  -7.966  -1.675  1.00  0.00    -0.398 N 
ATOM     22  H   UNL     1       4.709  -8.090  -1.206  1.00  0.00     0.156 HD
ATOM     23  H   UNL     1       3.634  -8.523  -2.457  1.00  0.00     0.156 HD
ENDBRANCH  13  21
ENDBRANCH   5   7
ENDBRANCH   4   5
ENDBRANCH   3   4
ENDBRANCH   2   3
ENDBRANCH   1   2
BRANCH   1  24
ATOM     24  C   UNL     1       3.375  -6.298  -5.209  1.00  0.00     0.202 C 
BRANCH  24  25
ATOM     25  C   UNL     1       3.618  -4.986  -5.966  1.00  0.00     0.261 C 
BRANCH  25  26
ATOM     26  O   UNL     1       2.384  -4.372  -6.385  1.00  0.00    -0.460 OA
BRANCH  26  27
ATOM     27  C   UNL     1       2.157  -4.390  -7.719  1.00  0.00     0.338 C 
ATOM     28  O   UNL     1       2.921  -4.781  -8.592  1.00  0.00    -0.246 OA
BRANCH  27  29
ATOM     29  C   UNL     1       0.752  -4.035  -7.995  1.00  0.00     0.060 A 
ATOM     30  C   UNL     1       0.014  -4.901  -8.813  1.00  0.00     0.016 A 
ATOM     31  C   UNL     1       0.177  -2.857  -7.512  1.00  0.00     0.016 A 
ATOM     32  C   UNL     1      -1.288  -4.571  -9.187  1.00  0.00     0.010 A 
ATOM     33  C   UNL     1      -1.127  -2.523  -7.897  1.00  0.00     0.010 A 
ATOM     34  C   UNL     1      -1.855  -3.363  -8.760  1.00  0.00    -0.014 A 
BRANCH  34  35
ATOM     35  C   UNL     1      -3.159  -2.925  -9.315  1.00  0.00     0.031 A 
ATOM     36  C   UNL     1      -3.178  -1.917 -10.433  1.00  0.00     0.074 A 
ATOM     37  C   UNL     1      -4.312  -3.429  -8.838  1.00  0.00     0.049 A 
ATOM     38  N   UNL     1      -4.203  -1.373 -11.036  1.00  0.00    -0.248 NA
ATOM     39  C   UNL     1      -1.872  -1.459 -10.935  1.00  0.00     0.031 C 
ATOM     40  C   UNL     1      -4.424  -4.430  -7.777  1.00  0.00     0.029 A 
ATOM     41  N   UNL     1      -5.614  -3.154  -9.178  1.00  0.00    -0.354 N 
ATOM     42  C   UNL     1      -3.669  -0.498 -11.975  1.00  0.00     0.074 A 
ATOM     43  C   UNL     1      -2.229  -0.572 -11.853  1.00  0.00     0.031 C 
ATOM     44  C   UNL     1      -5.725  -4.671  -7.540  1.00  0.00     0.029 A 
ATOM     45  C   UNL     1      -6.537  -3.822  -8.409  1.00  0.00     0.049 A 
ATOM     46  H   UNL     1      -5.862  -2.537  -9.904  1.00  0.00     0.167 HD
ATOM     47  C   UNL     1      -4.320   0.293 -12.860  1.00  0.00     0.031 A 
ATOM     48  C   UNL     1      -7.883  -3.738  -8.389  1.00  0.00     0.031 A 
ATOM     49  C   UNL     1      -5.751   0.362 -12.984  1.00  0.00     0.049 A 
ATOM     50  C   UNL     1      -8.581  -2.814  -9.354  1.00  0.00     0.074 A 
ATOM     51  C   UNL     1      -6.500   1.101 -13.883  1.00  0.00     0.029 A 
ATOM     52  N   UNL     1      -6.651  -0.323 -12.183  1.00  0.00    -0.354 N 
ATOM     53  N   UNL     1      -8.060  -2.035 -10.272  1.00  0.00    -0.248 NA
ATOM     54  C   UNL     1     -10.049  -2.764  -9.285  1.00  0.00     0.031 C 
ATOM     55  C   UNL     1      -7.853   0.909 -13.588  1.00  0.00     0.029 A 
ATOM     56  C   UNL     1      -7.947   0.003 -12.543  1.00  0.00     0.049 A 
ATOM     57  H   UNL     1      -6.404  -0.949 -11.463  1.00  0.00     0.167 HD
ATOM     58  C   UNL     1      -9.137  -1.422 -10.904  1.00  0.00     0.074 A 
ATOM     59  C   UNL     1     -10.338  -1.933 -10.277  1.00  0.00     0.031 C 
ATOM     60  C   UNL     1      -9.133  -0.517 -11.914  1.00  0.00     0.031 A 
BRANCH  47  61
ATOM     61  C   UNL     1      -3.495   1.181 -13.752  1.00  0.00    -0.014 A 
ATOM     62  C   UNL     1      -2.779   0.658 -14.843  1.00  0.00     0.010 A 
ATOM     63  C   UNL     1      -3.507   2.573 -13.543  1.00  0.00     0.010 A 
ATOM     64  C   UNL     1      -2.078   1.510 -15.700  1.00  0.00     0.020 A 
ATOM     65  C   UNL     1      -2.826   3.430 -14.411  1.00  0.00     0.020 A 
ATOM     66  C   UNL     1      -2.108   2.891 -15.480  1.00  0.00     0.054 A 
BRANCH  66  67
ATOM     67  S   UNL     1      -1.239   3.979 -16.644  1.00  0.00     0.124 S 
ATOM     68  O   UNL     1       0.159   3.731 -16.300  1.00  0.00    -0.237 OA
ATOM     69  O   UNL     1      -1.667   3.465 -17.943  1.00  0.00    -0.237 OA
ATOM     70  O   UNL     1      -1.735   5.312 -16.311  1.00  0.00    -0.744 OA
ENDBRANCH  66  67
ENDBRANCH  47  61
BRANCH  48  71
ATOM     71  C   UNL     1      -8.666  -4.518  -7.391  1.00  0.00    -0.014 A 
ATOM     72  C   UNL     1      -9.504  -5.573  -7.790  1.00  0.00     0.010 A 
ATOM     73  C   UNL     1      -8.595  -4.181  -6.026  1.00  0.00     0.010 A 
ATOM     74  C   UNL     1     -10.280  -6.256  -6.848  1.00  0.00     0.020 A 
ATOM     75  C   UNL     1      -9.347  -4.880  -5.079  1.00  0.00     0.020 A 
ATOM     76  C   UNL     1     -10.198  -5.902  -5.498  1.00  0.00     0.054 A 
BRANCH  76  77
ATOM     77  S   UNL     1     -11.194  -6.816  -4.287  1.00  0.00     0.124 S 
ATOM     78  O   UNL     1     -12.526  -6.264  -4.513  1.00  0.00    -0.237 OA
ATOM     79  O   UNL     1     -11.004  -8.203  -4.702  1.00  0.00    -0.237 OA
ATOM     80  O   UNL     1     -10.579  -6.466  -3.009  1.00  0.00    -0.744 OA
ENDBRANCH  76  77
ENDBRANCH  48  71
BRANCH  60  81
ATOM     81  C   UNL     1     -10.465  -0.042 -12.431  1.00  0.00    -0.014 A 
ATOM     82  C   UNL     1     -11.264   0.841 -11.684  1.00  0.00     0.010 A 
ATOM     83  C   UNL     1     -10.892  -0.437 -13.712  1.00  0.00     0.010 A 
ATOM     84  C   UNL     1     -12.482   1.297 -12.197  1.00  0.00     0.020 A 
ATOM     85  C   UNL     1     -12.096   0.038 -14.239  1.00  0.00     0.020 A 
ATOM     86  C   UNL     1     -12.890   0.892 -13.472  1.00  0.00     0.054 A 
BRANCH  86  87
ATOM     87  S   UNL     1     -14.452   1.534 -14.135  1.00  0.00     0.124 S 
ATOM     88  O   UNL     1     -15.440   0.768 -13.380  1.00  0.00    -0.237 OA
ATOM     89  O   UNL     1     -14.379   2.956 -13.812  1.00  0.00    -0.237 OA
ATOM     90  O   UNL     1     -14.378   1.220 -15.560  1.00  0.00    -0.744 OA
ENDBRANCH  86  87
ENDBRANCH  60  81
ENDBRANCH  34  35
ENDBRANCH  27  29
ENDBRANCH  26  27
ENDBRANCH  25  26
ENDBRANCH  24  25
ENDBRANCH   1  24
TORSDOF 22
