REMARK SMILES O=C(OCCOCCOC(=O)[C@H]1Cc2c([nH]c3ccccc23)[C@@H](c2ccc(OC(F)(F)F)cc2)[NH2+]1)c1ccc(-c2c3nc(c(-c4ccc(S(=O)(=O)[O-])cc4)c4ccc([nH]4)c(-c4ccc(S(=O)(=O)[O-])cc4)c4nc(c(-c5ccc(S(=O)(=O)[O-])cc5)c5ccc2[nH]5)C=C4)C=C3)cc1
REMARK SMILES IDX 6 1 5 2 4 3 3 4 2 5 1 6 36 7 37 8 95 9 38 10 94 11 39 12
REMARK SMILES IDX 40 13 41 14 88 15 42 16 93 17 87 18 89 19 43 20 92 21 86 22
REMARK SMILES IDX 85 23 44 25 74 26 55 27 73 28 56 29 59 30 72 31 90 32 57 33
REMARK SMILES IDX 58 34 71 36 91 37 60 38 45 39 46 40 54 41 47 42 53 43 48 44
REMARK SMILES IDX 49 45 50 46 51 47 52 48 75 49 76 50 84 51 77 52 83 53 78 54
REMARK SMILES IDX 79 55 80 56 81 57 82 58 61 59 62 60 70 61 63 62 69 63 64 64
REMARK SMILES IDX 65 65 66 66 67 67 68 68 7 69 8 70 9 71 10 72 11 73 12 74
REMARK SMILES IDX 13 75 35 76 14 77 23 78 15 81 22 82 16 83 17 84 21 85 18 87
REMARK SMILES IDX 20 88 19 89 24 90 25 91 34 92 26 93 33 94 27 95 28 96 29 97
REMARK SMILES IDX 30 98 31 99 32 100
REMARK H PARENT 89 24 59 35 35 79 35 80 16 86
REMARK Flexibility Score: inf
ROOT
ATOM      1  O   UNL     1       4.073  -0.212  -1.703  1.00  0.00    -0.374 OA
ENDROOT
BRANCH   1   2
ATOM      2  C   UNL     1       4.439  -1.217  -0.751  1.00  0.00     0.202 C 
BRANCH   2   3
ATOM      3  C   UNL     1       4.124  -0.952   0.726  1.00  0.00     0.261 C 
BRANCH   3   4
ATOM      4  O   UNL     1       2.716  -0.722   0.909  1.00  0.00    -0.460 OA
BRANCH   4   5
ATOM      5  C   UNL     1       2.086   0.459   1.116  1.00  0.00     0.338 C 
ATOM      6  O   UNL     1       0.869   0.463   1.290  1.00  0.00    -0.246 OA
BRANCH   5   7
ATOM      7  C   UNL     1       2.812   1.761   1.146  1.00  0.00     0.060 A 
ATOM      8  C   UNL     1       3.980   2.023   0.431  1.00  0.00     0.016 A 
ATOM      9  C   UNL     1       2.239   2.806   1.887  1.00  0.00     0.016 A 
ATOM     10  C   UNL     1       4.635   3.234   0.530  1.00  0.00     0.010 A 
ATOM     11  C   UNL     1       2.859   4.057   1.946  1.00  0.00     0.010 A 
ATOM     12  C   UNL     1       4.077   4.255   1.289  1.00  0.00    -0.014 A 
BRANCH  12  13
ATOM     13  C   UNL     1       4.880   5.475   1.445  1.00  0.00     0.031 A 
ATOM     14  C   UNL     1       5.638   5.661   2.721  1.00  0.00     0.074 A 
ATOM     15  C   UNL     1       5.059   6.276   0.380  1.00  0.00     0.049 A 
ATOM     16  N   UNL     1       6.433   6.632   3.071  1.00  0.00    -0.248 NA
ATOM     17  C   UNL     1       5.499   4.596   3.731  1.00  0.00     0.031 C 
ATOM     18  C   UNL     1       4.473   6.056  -0.948  1.00  0.00     0.029 A 
ATOM     19  N   UNL     1       5.824   7.397   0.224  1.00  0.00    -0.354 N 
ATOM     20  C   UNL     1       6.864   6.315   4.353  1.00  0.00     0.074 A 
ATOM     21  C   UNL     1       6.249   5.059   4.718  1.00  0.00     0.031 C 
ATOM     22  C   UNL     1       4.938   6.990  -1.792  1.00  0.00     0.029 A 
ATOM     23  C   UNL     1       5.787   7.912  -1.049  1.00  0.00     0.049 A 
ATOM     24  H   UNL     1       6.351   7.796   0.953  1.00  0.00     0.167 HD
ATOM     25  C   UNL     1       7.686   7.029   5.155  1.00  0.00     0.031 A 
ATOM     26  C   UNL     1       6.359   9.026  -1.543  1.00  0.00     0.031 A 
ATOM     27  C   UNL     1       8.253   8.289   4.763  1.00  0.00     0.049 A 
ATOM     28  C   UNL     1       7.177   9.861  -0.598  1.00  0.00     0.074 A 
ATOM     29  C   UNL     1       9.019   9.165   5.505  1.00  0.00     0.029 A 
ATOM     30  N   UNL     1       8.104   8.850   3.499  1.00  0.00    -0.354 N 
ATOM     31  N   UNL     1       7.500   9.609   0.650  1.00  0.00    -0.248 NA
ATOM     32  C   UNL     1       7.688  11.136  -1.112  1.00  0.00     0.031 C 
ATOM     33  C   UNL     1       9.294  10.280   4.703  1.00  0.00     0.029 A 
ATOM     34  C   UNL     1       8.747  10.071   3.444  1.00  0.00     0.049 A 
ATOM     35  H   UNL     1       7.612   8.437   2.753  1.00  0.00     0.167 HD
ATOM     36  C   UNL     1       8.258  10.691   1.073  1.00  0.00     0.074 A 
ATOM     37  C   UNL     1       8.362  11.590  -0.064  1.00  0.00     0.031 C 
ATOM     38  C   UNL     1       8.815  10.930   2.287  1.00  0.00     0.031 A 
BRANCH  25  39
ATOM     39  C   UNL     1       7.900   6.499   6.545  1.00  0.00    -0.014 A 
ATOM     40  C   UNL     1       8.687   5.358   6.790  1.00  0.00     0.010 A 
ATOM     41  C   UNL     1       7.228   7.110   7.620  1.00  0.00     0.010 A 
ATOM     42  C   UNL     1       8.746   4.803   8.073  1.00  0.00     0.020 A 
ATOM     43  C   UNL     1       7.303   6.571   8.907  1.00  0.00     0.020 A 
ATOM     44  C   UNL     1       8.039   5.404   9.119  1.00  0.00     0.054 A 
BRANCH  44  45
ATOM     45  S   UNL     1       8.085   4.637  10.763  1.00  0.00     0.124 S 
ATOM     46  O   UNL     1       7.195   3.492  10.584  1.00  0.00    -0.237 OA
ATOM     47  O   UNL     1       9.499   4.312  10.929  1.00  0.00    -0.237 OA
ATOM     48  O   UNL     1       7.581   5.685  11.648  1.00  0.00    -0.744 OA
ENDBRANCH  44  45
ENDBRANCH  25  39
BRANCH  26  49
ATOM     49  C   UNL     1       6.121   9.425  -2.957  1.00  0.00    -0.014 A 
ATOM     50  C   UNL     1       7.164   9.421  -3.898  1.00  0.00     0.010 A 
ATOM     51  C   UNL     1       4.824   9.779  -3.381  1.00  0.00     0.010 A 
ATOM     52  C   UNL     1       6.916   9.763  -5.233  1.00  0.00     0.020 A 
ATOM     53  C   UNL     1       4.567  10.094  -4.718  1.00  0.00     0.020 A 
ATOM     54  C   UNL     1       5.618  10.093  -5.636  1.00  0.00     0.054 A 
BRANCH  54  55
ATOM     55  S   UNL     1       5.305  10.472  -7.383  1.00  0.00     0.124 S 
ATOM     56  O   UNL     1       5.880  11.807  -7.512  1.00  0.00    -0.237 OA
ATOM     57  O   UNL     1       6.024   9.404  -8.073  1.00  0.00    -0.237 OA
ATOM     58  O   UNL     1       3.849  10.404  -7.492  1.00  0.00    -0.744 OA
ENDBRANCH  54  55
ENDBRANCH  26  49
BRANCH  38  59
ATOM     59  C   UNL     1       9.599  12.202   2.429  1.00  0.00    -0.014 A 
ATOM     60  C   UNL     1       8.949  13.442   2.552  1.00  0.00     0.010 A 
ATOM     61  C   UNL     1      11.001  12.140   2.507  1.00  0.00     0.010 A 
ATOM     62  C   UNL     1       9.695  14.607   2.729  1.00  0.00     0.020 A 
ATOM     63  C   UNL     1      11.748  13.301   2.708  1.00  0.00     0.020 A 
ATOM     64  C   UNL     1      11.089  14.529   2.807  1.00  0.00     0.054 A 
BRANCH  64  65
ATOM     65  S   UNL     1      12.034  16.048   3.095  1.00  0.00     0.124 S 
ATOM     66  O   UNL     1      12.006  16.677   1.778  1.00  0.00    -0.237 OA
ATOM     67  O   UNL     1      11.254  16.721   4.131  1.00  0.00    -0.237 OA
ATOM     68  O   UNL     1      13.343  15.563   3.528  1.00  0.00    -0.744 OA
ENDBRANCH  64  65
ENDBRANCH  38  59
ENDBRANCH  12  13
ENDBRANCH   5   7
ENDBRANCH   4   5
ENDBRANCH   3   4
ENDBRANCH   2   3
ENDBRANCH   1   2
BRANCH   1  69
ATOM     69  C   UNL     1       2.678  -0.118  -2.028  1.00  0.00     0.202 C 
BRANCH  69  70
ATOM     70  C   UNL     1       2.501  -0.141  -3.546  1.00  0.00     0.261 C 
BRANCH  70  71
ATOM     71  O   UNL     1       2.855  -1.464  -3.967  1.00  0.00    -0.459 OA
BRANCH  71  72
ATOM     72  C   UNL     1       4.106  -1.599  -4.481  1.00  0.00     0.365 C 
ATOM     73  O   UNL     1       4.658  -0.784  -5.210  1.00  0.00    -0.245 OA
BRANCH  72  74
ATOM     74  C   UNL     1       4.802  -2.840  -3.903  1.00  0.00     0.298 C 
ATOM     75  C   UNL     1       3.788  -3.861  -3.312  1.00  0.00     0.115 C 
ATOM     76  N   UNL     1       5.851  -3.336  -4.845  1.00  0.00    -0.323 N 
ATOM     77  C   UNL     1       4.321  -5.234  -3.393  1.00  0.00    -0.006 A 
ATOM     78  C   UNL     1       5.575  -4.612  -5.514  1.00  0.00     0.262 C 
ATOM     79  H   UNL     1       6.717  -3.443  -4.317  1.00  0.00     0.347 HD
ATOM     80  H   UNL     1       5.895  -2.643  -5.592  1.00  0.00     0.347 HD
ATOM     81  C   UNL     1       5.136  -5.569  -4.447  1.00  0.00     0.083 A 
ATOM     82  C   UNL     1       4.142  -6.372  -2.578  1.00  0.00     0.003 A 
ATOM     83  N   UNL     1       5.437  -6.897  -4.335  1.00  0.00    -0.353 N 
ATOM     84  C   UNL     1       4.809  -7.420  -3.219  1.00  0.00     0.046 A 
ATOM     85  C   UNL     1       3.459  -6.624  -1.373  1.00  0.00     0.010 A 
ATOM     86  H   UNL     1       6.012  -7.403  -4.954  1.00  0.00     0.166 HD
ATOM     87  C   UNL     1       4.779  -8.730  -2.727  1.00  0.00     0.026 A 
ATOM     88  C   UNL     1       3.441  -7.924  -0.860  1.00  0.00     0.001 A 
ATOM     89  C   UNL     1       4.078  -8.961  -1.537  1.00  0.00     0.002 A 
BRANCH  78  90
ATOM     90  C   UNL     1       4.613  -4.492  -6.697  1.00  0.00     0.016 A 
ATOM     91  C   UNL     1       3.538  -5.377  -6.882  1.00  0.00     0.014 A 
ATOM     92  C   UNL     1       4.843  -3.539  -7.705  1.00  0.00     0.014 A 
ATOM     93  C   UNL     1       2.756  -5.334  -8.039  1.00  0.00     0.047 A 
ATOM     94  C   UNL     1       4.050  -3.488  -8.860  1.00  0.00     0.047 A 
ATOM     95  C   UNL     1       3.018  -4.405  -9.044  1.00  0.00     0.129 A 
BRANCH  95  96
ATOM     96  O   UNL     1       2.207  -4.516 -10.136  1.00  0.00    -0.406 OA
BRANCH  96  97
ATOM     97  C   UNL     1       2.482  -3.682 -11.247  1.00  0.00     0.573 C 
ATOM     98  F   UNL     1       2.261  -2.386 -10.946  1.00  0.00    -0.132 F 
ATOM     99  F   UNL     1       3.750  -3.840 -11.684  1.00  0.00    -0.132 F 
ATOM    100  F   UNL     1       1.651  -4.028 -12.257  1.00  0.00    -0.132 F 
ENDBRANCH  96  97
ENDBRANCH  95  96
ENDBRANCH  78  90
ENDBRANCH  72  74
ENDBRANCH  71  72
ENDBRANCH  70  71
ENDBRANCH  69  70
ENDBRANCH   1  69
TORSDOF 20
