REMARK SMILES Cc1oc2c(C)c3oc(=O)c(CCC(=O)N[C@H](Cc4ccc(Cl)cc4)C(=O)OCCOCCOC(=O)c4ccc(-c5c6nc(c(-c7ccc(S(=O)(=O)[O-])cc7)c7ccc([nH]7)c(-c7ccc(S(=O)(=O)[O-])cc7)c7nc(c(-c8ccc(S(=O)(=O)[O-])cc8)c8ccc5[nH]8)C=C7)C=C6)cc4)c(C)c3cc2c1C
REMARK SMILES IDX 30 1 29 2 28 3 26 4 27 5 17 6 16 7 14 8 15 9 13 11 12 12
REMARK SMILES IDX 11 13 1 14 2 15 3 16 102 17 4 18 101 19 103 20 5 21 100 22
REMARK SMILES IDX 6 23 7 24 99 25 8 26 97 27 9 28 98 29 10 30 18 31 19 32
REMARK SMILES IDX 20 33 25 34 21 35 24 36 22 37 23 38 31 39 32 40 33 41 34 42
REMARK SMILES IDX 35 43 36 44 37 45 38 46 96 47 39 48 95 49 40 50 41 51 42 52
REMARK SMILES IDX 89 53 43 54 94 55 88 56 90 57 44 58 93 59 87 60 86 61 45 63
REMARK SMILES IDX 75 64 56 65 74 66 57 67 60 68 73 69 91 70 58 71 59 72 72 74
REMARK SMILES IDX 92 75 61 76 46 77 47 78 55 79 48 80 54 81 49 82 50 83 51 84
REMARK SMILES IDX 52 85 53 86 76 87 77 88 85 89 78 90 84 91 79 92 80 93 81 94
REMARK SMILES IDX 82 95 83 96 62 97 63 98 71 99 64 100 70 101 65 102 66 103
REMARK SMILES IDX 67 104 68 105 69 106
REMARK H PARENT 16 10 90 62 60 73
REMARK Flexibility Score: inf
ROOT
ATOM      1  C   UNL     1       2.638   4.270   6.473  1.00  0.00     0.202 C 
ENDROOT
BRANCH   1   2
ATOM      2  C   UNL     1       1.190   4.431   5.904  1.00  0.00     0.261 C 
BRANCH   2   3
ATOM      3  O   UNL     1       1.089   4.946   4.526  1.00  0.00    -0.462 OA
BRANCH   3   4
ATOM      4  C   UNL     1       0.132   5.824   4.086  1.00  0.00     0.329 C 
ATOM      5  O   UNL     1      -0.566   6.476   4.858  1.00  0.00    -0.250 OA
BRANCH   4   6
ATOM      6  C   UNL     1      -0.122   5.812   2.436  1.00  0.00     0.196 C 
BRANCH   6   7
ATOM      7  N   UNL     1      -0.216   4.391   2.049  1.00  0.00    -0.342 N 
ATOM      8  C   UNL     1       0.650   3.363   1.925  1.00  0.00     0.221 C 
ATOM      9  O   UNL     1       0.227   2.485   1.156  1.00  0.00    -0.275 OA
ATOM     10  H   UNL     1      -1.138   4.128   1.827  1.00  0.00     0.164 HD
BRANCH   8  11
ATOM     11  C   UNL     1       1.899   3.046   2.775  1.00  0.00     0.105 C 
BRANCH  11  12
ATOM     12  C   UNL     1       3.269   3.775   2.981  1.00  0.00     0.053 C 
BRANCH  12  13
ATOM     13  C   UNL     1       3.384   5.266   3.318  1.00  0.00     0.042 A 
ATOM     14  C   UNL     1       1.449  13.197   2.191  1.00  0.00     0.088 C 
ATOM     15  C   UNL     1       1.493  11.878   2.865  1.00  0.00     0.105 A 
ATOM     16  O   UNL     1       2.610  11.589   3.603  1.00  0.00    -0.461 OA
ATOM     17  C   UNL     1       0.671  10.770   2.762  1.00  0.00    -0.002 A 
ATOM     18  C   UNL     1       2.639  10.231   3.774  1.00  0.00     0.141 A 
ATOM     19  C   UNL     1       1.468   9.698   3.286  1.00  0.00     0.025 A 
ATOM     20  C   UNL     1      -0.598  10.696   1.981  1.00  0.00     0.049 C 
ATOM     21  C   UNL     1       3.686   9.446   4.290  1.00  0.00     0.036 A 
ATOM     22  C   UNL     1       1.393   8.298   3.225  1.00  0.00     0.024 A 
ATOM     23  C   UNL     1       4.720  10.068   5.155  1.00  0.00     0.052 C 
ATOM     24  C   UNL     1       3.669   8.086   3.861  1.00  0.00     0.145 A 
ATOM     25  C   UNL     1       2.585   7.527   3.210  1.00  0.00     0.022 A 
ATOM     26  O   UNL     1       4.774   7.212   4.061  1.00  0.00    -0.422 OA
ATOM     27  C   UNL     1       2.782   6.183   2.559  1.00  0.00    -0.030 A 
ATOM     28  C   UNL     1       4.710   5.834   3.728  1.00  0.00     0.339 A 
ATOM     29  C   UNL     1       3.049   5.853   1.087  1.00  0.00     0.046 C 
ATOM     30  O   UNL     1       5.709   5.126   3.678  1.00  0.00    -0.246 OA
ENDBRANCH  12  13
ENDBRANCH  11  12
ENDBRANCH   8  11
ENDBRANCH   6   7
BRANCH   6  31
ATOM     31  C   UNL     1       0.184   6.688   0.957  1.00  0.00     0.072 C 
BRANCH  31  32
ATOM     32  C   UNL     1       0.735   8.021   0.257  1.00  0.00    -0.045 A 
ATOM     33  C   UNL     1       0.072   8.488  -0.899  1.00  0.00     0.005 A 
ATOM     34  C   UNL     1       1.965   8.699   0.446  1.00  0.00     0.005 A 
ATOM     35  C   UNL     1       0.566   9.555  -1.706  1.00  0.00     0.021 A 
ATOM     36  C   UNL     1       2.445   9.800  -0.291  1.00  0.00     0.021 A 
ATOM     37  C   UNL     1       1.736  10.229  -1.380  1.00  0.00     0.041 A 
ATOM     38  Cl  UNL     1       2.328  11.533  -2.327  1.00  0.00    -0.084 Cl
ENDBRANCH  31  32
ENDBRANCH   6  31
ENDBRANCH   4   6
ENDBRANCH   3   4
ENDBRANCH   2   3
ENDBRANCH   1   2
BRANCH   1  39
ATOM     39  O   UNL     1       2.950   5.219   7.500  1.00  0.00    -0.374 OA
BRANCH  39  40
ATOM     40  C   UNL     1       3.532   6.429   7.024  1.00  0.00     0.202 C 
BRANCH  40  41
ATOM     41  C   UNL     1       5.051   6.559   7.251  1.00  0.00     0.261 C 
BRANCH  41  42
ATOM     42  O   UNL     1       5.881   5.777   6.373  1.00  0.00    -0.460 OA
BRANCH  42  43
ATOM     43  C   UNL     1       6.228   4.559   6.850  1.00  0.00     0.338 C 
ATOM     44  O   UNL     1       5.747   4.036   7.838  1.00  0.00    -0.246 OA
BRANCH  43  45
ATOM     45  C   UNL     1       7.307   3.894   6.066  1.00  0.00     0.060 A 
ATOM     46  C   UNL     1       7.463   2.525   6.308  1.00  0.00     0.016 A 
ATOM     47  C   UNL     1       8.229   4.560   5.243  1.00  0.00     0.016 A 
ATOM     48  C   UNL     1       8.580   1.851   5.835  1.00  0.00     0.010 A 
ATOM     49  C   UNL     1       9.354   3.876   4.755  1.00  0.00     0.010 A 
ATOM     50  C   UNL     1       9.559   2.534   5.104  1.00  0.00    -0.014 A 
BRANCH  50  51
ATOM     51  C   UNL     1      10.815   1.799   4.861  1.00  0.00     0.031 A 
ATOM     52  C   UNL     1      11.343   1.789   3.466  1.00  0.00     0.074 A 
ATOM     53  C   UNL     1      11.658   1.628   5.909  1.00  0.00     0.049 A 
ATOM     54  N   UNL     1      11.965   2.807   2.949  1.00  0.00    -0.248 NA
ATOM     55  C   UNL     1      11.030   0.742   2.494  1.00  0.00     0.031 C 
ATOM     56  C   UNL     1      11.764   2.598   7.016  1.00  0.00     0.029 A 
ATOM     57  N   UNL     1      12.693   0.754   6.141  1.00  0.00    -0.354 N 
ATOM     58  C   UNL     1      12.141   2.553   1.600  1.00  0.00     0.074 A 
ATOM     59  C   UNL     1      11.537   1.261   1.361  1.00  0.00     0.031 C 
ATOM     60  C   UNL     1      12.904   2.369   7.695  1.00  0.00     0.029 A 
ATOM     61  C   UNL     1      13.538   1.163   7.177  1.00  0.00     0.049 A 
ATOM     62  H   UNL     1      12.826  -0.077   5.629  1.00  0.00     0.167 HD
ATOM     63  C   UNL     1      12.792   3.417   0.773  1.00  0.00     0.031 A 
ATOM     64  C   UNL     1      14.882   0.934   7.217  1.00  0.00     0.031 A 
ATOM     65  C   UNL     1      13.277   4.605   1.415  1.00  0.00     0.049 A 
ATOM     66  C   UNL     1      15.345   1.841   6.099  1.00  0.00     0.074 A 
ATOM     67  C   UNL     1      12.832   5.891   1.630  1.00  0.00     0.029 A 
ATOM     68  N   UNL     1      14.449   4.520   2.128  1.00  0.00    -0.354 N 
ATOM     69  N   UNL     1      15.453   3.144   6.157  1.00  0.00    -0.248 NA
ATOM     70  C   UNL     1      15.310   1.293   4.740  1.00  0.00     0.031 C 
ATOM     71  C   UNL     1      13.499   6.329   2.818  1.00  0.00     0.029 A 
ATOM     72  C   UNL     1      14.284   5.268   3.268  1.00  0.00     0.049 A 
ATOM     73  H   UNL     1      15.256   4.018   1.870  1.00  0.00     0.167 HD
ATOM     74  C   UNL     1      15.184   3.597   4.864  1.00  0.00     0.074 A 
ATOM     75  C   UNL     1      15.110   2.404   4.043  1.00  0.00     0.031 C 
ATOM     76  C   UNL     1      14.850   4.884   4.547  1.00  0.00     0.031 A 
BRANCH  63  77
ATOM     77  C   UNL     1      13.174   3.143  -0.632  1.00  0.00    -0.014 A 
ATOM     78  C   UNL     1      14.494   2.719  -0.877  1.00  0.00     0.010 A 
ATOM     79  C   UNL     1      12.362   3.508  -1.717  1.00  0.00     0.010 A 
ATOM     80  C   UNL     1      15.016   2.716  -2.170  1.00  0.00     0.020 A 
ATOM     81  C   UNL     1      12.880   3.493  -3.022  1.00  0.00     0.020 A 
ATOM     82  C   UNL     1      14.211   3.119  -3.235  1.00  0.00     0.054 A 
BRANCH  82  83
ATOM     83  S   UNL     1      14.962   3.199  -4.886  1.00  0.00     0.124 S 
ATOM     84  O   UNL     1      16.015   4.193  -4.701  1.00  0.00    -0.237 OA
ATOM     85  O   UNL     1      15.421   1.826  -5.083  1.00  0.00    -0.237 OA
ATOM     86  O   UNL     1      13.859   3.614  -5.749  1.00  0.00    -0.744 OA
ENDBRANCH  82  83
ENDBRANCH  63  77
BRANCH  64  87
ATOM     87  C   UNL     1      15.271  -0.511   7.328  1.00  0.00    -0.014 A 
ATOM     88  C   UNL     1      14.632  -1.287   8.321  1.00  0.00     0.010 A 
ATOM     89  C   UNL     1      16.202  -1.162   6.501  1.00  0.00     0.010 A 
ATOM     90  C   UNL     1      14.777  -2.676   8.370  1.00  0.00     0.020 A 
ATOM     91  C   UNL     1      16.335  -2.559   6.524  1.00  0.00     0.020 A 
ATOM     92  C   UNL     1      15.589  -3.309   7.433  1.00  0.00     0.054 A 
BRANCH  92  93
ATOM     93  S   UNL     1      15.579  -5.121   7.372  1.00  0.00     0.124 S 
ATOM     94  O   UNL     1      16.101  -5.482   8.687  1.00  0.00    -0.237 OA
ATOM     95  O   UNL     1      14.164  -5.411   7.154  1.00  0.00    -0.237 OA
ATOM     96  O   UNL     1      16.454  -5.433   6.244  1.00  0.00    -0.744 OA
ENDBRANCH  92  93
ENDBRANCH  64  87
BRANCH  76  97
ATOM     97  C   UNL     1      14.890   5.899   5.648  1.00  0.00    -0.014 A 
ATOM     98  C   UNL     1      16.122   6.329   6.163  1.00  0.00     0.010 A 
ATOM     99  C   UNL     1      13.709   6.532   6.087  1.00  0.00     0.010 A 
ATOM    100  C   UNL     1      16.181   7.415   7.040  1.00  0.00     0.020 A 
ATOM    101  C   UNL     1      13.764   7.629   6.952  1.00  0.00     0.020 A 
ATOM    102  C   UNL     1      15.005   8.078   7.405  1.00  0.00     0.054 A 
BRANCH 102 103
ATOM    103  S   UNL     1      15.136   9.578   8.415  1.00  0.00     0.124 S 
ATOM    104  O   UNL     1      15.714   9.075   9.658  1.00  0.00    -0.237 OA
ATOM    105  O   UNL     1      16.016  10.423   7.611  1.00  0.00    -0.237 OA
ATOM    106  O   UNL     1      13.757  10.053   8.521  1.00  0.00    -0.744 OA
ENDBRANCH 102 103
ENDBRANCH  76  97
ENDBRANCH  50  51
ENDBRANCH  43  45
ENDBRANCH  42  43
ENDBRANCH  41  42
ENDBRANCH  40  41
ENDBRANCH  39  40
ENDBRANCH   1  39
TORSDOF 23
