REMARK SMILES O=C(COc1ccc(C(=O)/C=C/c2ccc(Cl)c([N+](=O)[O-])c2)cc1)OCCOCCOC(=O)c1ccc(-c2c3nc(c(-c4ccc(S(=O)(=O)[O-])cc4)c4ccc([nH]4)c(-c4ccc(S(=O)(=O)[O-])cc4)c4nc(c(-c5ccc(S(=O)(=O)[O-])cc5)c5ccc2[nH]5)C=C4)C=C3)cc1
REMARK SMILES IDX 26 1 25 2 2 3 1 4 3 5 4 6 5 7 6 8 24 9 7 10 23 11 8 12 9 13
REMARK SMILES IDX 10 14 11 15 12 16 13 17 14 18 22 19 15 20 18 21 16 22 17 23
REMARK SMILES IDX 19 24 20 25 21 26 27 27 28 28 29 29 30 30 31 31 32 32 33 33
REMARK SMILES IDX 34 34 35 35 93 36 36 37 92 38 37 39 38 40 39 41 86 42 40 43
REMARK SMILES IDX 91 44 85 45 87 46 41 47 90 48 84 49 83 50 42 52 72 53 53 54
REMARK SMILES IDX 71 55 54 56 57 57 70 58 88 59 55 60 56 61 69 63 89 64 58 65
REMARK SMILES IDX 43 66 44 67 52 68 45 69 51 70 46 71 47 72 48 73 49 74 50 75
REMARK SMILES IDX 73 76 74 77 82 78 75 79 81 80 76 81 77 82 78 83 79 84 80 85
REMARK SMILES IDX 59 86 60 87 68 88 61 89 67 90 62 91 63 92 64 93 65 94 66 95
REMARK H PARENT 87 51 57 62
REMARK Flexibility Score: inf
ROOT
ATOM      1  C   UNL     1       4.243   0.302  -0.512  1.00  0.00     0.261 C 
ENDROOT
BRANCH   1   2
ATOM      2  O   UNL     1       2.808   0.290  -0.535  1.00  0.00    -0.461 OA
BRANCH   2   3
ATOM      3  C   UNL     1       2.057  -0.778  -0.169  1.00  0.00     0.344 C 
ATOM      4  O   UNL     1       0.829  -0.696  -0.187  1.00  0.00    -0.248 OA
BRANCH   3   5
ATOM      5  C   UNL     1       2.757  -2.050   0.316  1.00  0.00     0.351 C 
BRANCH   5   6
ATOM      6  O   UNL     1       3.822  -2.602  -0.453  1.00  0.00    -0.482 OA
BRANCH   6   7
ATOM      7  C   UNL     1       3.331  -3.117  -1.618  1.00  0.00     0.120 A 
ATOM      8  C   UNL     1       3.194  -4.495  -1.712  1.00  0.00     0.047 A 
ATOM      9  C   UNL     1       2.952  -2.284  -2.669  1.00  0.00     0.047 A 
ATOM     10  C   UNL     1       2.495  -5.030  -2.790  1.00  0.00     0.016 A 
ATOM     11  C   UNL     1       2.267  -2.819  -3.751  1.00  0.00     0.016 A 
ATOM     12  C   UNL     1       1.955  -4.182  -3.768  1.00  0.00     0.022 A 
BRANCH  12  13
ATOM     13  C   UNL     1       1.041  -4.760  -4.784  1.00  0.00     0.185 C 
ATOM     14  O   UNL     1       1.144  -5.942  -5.099  1.00  0.00    -0.289 OA
BRANCH  13  15
ATOM     15  C   UNL     1      -0.032  -3.930  -5.407  1.00  0.00     0.053 C 
ATOM     16  C   UNL     1      -0.628  -2.872  -4.835  1.00  0.00     0.012 C 
BRANCH  16  17
ATOM     17  C   UNL     1      -1.652  -2.083  -5.520  1.00  0.00    -0.019 A 
ATOM     18  C   UNL     1      -1.365  -0.783  -5.937  1.00  0.00     0.010 A 
ATOM     19  C   UNL     1      -2.931  -2.603  -5.730  1.00  0.00     0.095 A 
ATOM     20  C   UNL     1      -2.349  -0.013  -6.563  1.00  0.00     0.028 A 
ATOM     21  C   UNL     1      -3.933  -1.826  -6.352  1.00  0.00     0.288 A 
ATOM     22  C   UNL     1      -3.640  -0.521  -6.775  1.00  0.00     0.118 A 
ATOM     23  Cl  UNL     1      -4.736   0.561  -7.559  1.00  0.00    -0.077 Cl
BRANCH  21  24
ATOM     24  N   UNL     1      -5.258  -2.448  -6.504  1.00  0.00     0.064 N 
ATOM     25  O   UNL     1      -6.205  -1.779  -6.927  1.00  0.00    -0.258 OA
ATOM     26  O   UNL     1      -5.364  -3.640  -6.174  1.00  0.00    -0.258 OA
ENDBRANCH  21  24
ENDBRANCH  16  17
ENDBRANCH  13  15
ENDBRANCH  12  13
ENDBRANCH   6   7
ENDBRANCH   5   6
ENDBRANCH   3   5
ENDBRANCH   2   3
ENDBRANCH   1   2
BRANCH   1  27
ATOM     27  C   UNL     1       4.848   0.729   0.821  1.00  0.00     0.202 C 
BRANCH  27  28
ATOM     28  O   UNL     1       4.295   0.186   2.012  1.00  0.00    -0.374 OA
BRANCH  28  29
ATOM     29  C   UNL     1       3.076   0.749   2.507  1.00  0.00     0.202 C 
BRANCH  29  30
ATOM     30  C   UNL     1       3.110   2.147   3.130  1.00  0.00     0.261 C 
BRANCH  30  31
ATOM     31  O   UNL     1       3.369   3.171   2.161  1.00  0.00    -0.460 OA
BRANCH  31  32
ATOM     32  C   UNL     1       4.627   3.671   2.179  1.00  0.00     0.338 C 
ATOM     33  O   UNL     1       5.538   3.356   2.931  1.00  0.00    -0.246 OA
BRANCH  32  34
ATOM     34  C   UNL     1       4.816   4.506   0.982  1.00  0.00     0.060 A 
ATOM     35  C   UNL     1       5.934   4.268   0.167  1.00  0.00     0.016 A 
ATOM     36  C   UNL     1       3.922   5.536   0.694  1.00  0.00     0.016 A 
ATOM     37  C   UNL     1       6.199   5.108  -0.910  1.00  0.00     0.010 A 
ATOM     38  C   UNL     1       4.193   6.381  -0.376  1.00  0.00     0.010 A 
ATOM     39  C   UNL     1       5.355   6.197  -1.148  1.00  0.00    -0.014 A 
BRANCH  39  40
ATOM     40  C   UNL     1       5.769   7.289  -2.051  1.00  0.00     0.031 A 
ATOM     41  C   UNL     1       6.305   8.545  -1.429  1.00  0.00     0.074 A 
ATOM     42  C   UNL     1       5.591   7.190  -3.378  1.00  0.00     0.049 A 
ATOM     43  N   UNL     1       6.536   9.708  -1.976  1.00  0.00    -0.248 NA
ATOM     44  C   UNL     1       6.593   8.484   0.014  1.00  0.00     0.031 C 
ATOM     45  C   UNL     1       5.116   6.000  -4.081  1.00  0.00     0.029 A 
ATOM     46  N   UNL     1       5.754   8.129  -4.362  1.00  0.00    -0.354 N 
ATOM     47  C   UNL     1       6.959  10.529  -0.937  1.00  0.00     0.074 A 
ATOM     48  C   UNL     1       6.932   9.737   0.272  1.00  0.00     0.031 C 
ATOM     49  C   UNL     1       4.988   6.293  -5.386  1.00  0.00     0.029 A 
ATOM     50  C   UNL     1       5.324   7.701  -5.594  1.00  0.00     0.049 A 
ATOM     51  H   UNL     1       6.140   9.020  -4.203  1.00  0.00     0.167 HD
ATOM     52  C   UNL     1       7.326  11.831  -0.991  1.00  0.00     0.031 A 
ATOM     53  C   UNL     1       5.171   8.384  -6.745  1.00  0.00     0.031 A 
ATOM     54  C   UNL     1       7.319  12.604  -2.203  1.00  0.00     0.049 A 
ATOM     55  C   UNL     1       5.531   9.844  -6.780  1.00  0.00     0.074 A 
ATOM     56  C   UNL     1       7.697  13.920  -2.388  1.00  0.00     0.029 A 
ATOM     57  N   UNL     1       6.895  12.129  -3.438  1.00  0.00    -0.354 N 
ATOM     58  N   UNL     1       5.955  10.611  -5.802  1.00  0.00    -0.248 NA
ATOM     59  C   UNL     1       5.403  10.530  -8.072  1.00  0.00     0.031 C 
ATOM     60  C   UNL     1       7.437  14.262  -3.719  1.00  0.00     0.029 A 
ATOM     61  C   UNL     1       6.975  13.135  -4.384  1.00  0.00     0.049 A 
ATOM     62  H   UNL     1       6.584  11.212  -3.614  1.00  0.00     0.167 HD
ATOM     63  C   UNL     1       6.179  11.861  -6.367  1.00  0.00     0.074 A 
ATOM     64  C   UNL     1       5.841  11.747  -7.773  1.00  0.00     0.031 C 
ATOM     65  C   UNL     1       6.635  12.996  -5.780  1.00  0.00     0.031 A 
BRANCH  52  66
ATOM     66  C   UNL     1       7.695  12.500   0.308  1.00  0.00    -0.014 A 
ATOM     67  C   UNL     1       8.839  12.122   1.036  1.00  0.00     0.010 A 
ATOM     68  C   UNL     1       6.870  13.518   0.819  1.00  0.00     0.010 A 
ATOM     69  C   UNL     1       9.110  12.700   2.280  1.00  0.00     0.020 A 
ATOM     70  C   UNL     1       7.157  14.125   2.045  1.00  0.00     0.020 A 
ATOM     71  C   UNL     1       8.262  13.692   2.780  1.00  0.00     0.054 A 
BRANCH  71  72
ATOM     72  S   UNL     1       8.625  14.409   4.406  1.00  0.00     0.124 S 
ATOM     73  O   UNL     1       8.278  13.309   5.303  1.00  0.00    -0.237 OA
ATOM     74  O   UNL     1      10.050  14.714   4.309  1.00  0.00    -0.237 OA
ATOM     75  O   UNL     1       7.744  15.571   4.478  1.00  0.00    -0.744 OA
ENDBRANCH  71  72
ENDBRANCH  52  66
BRANCH  53  76
ATOM     76  C   UNL     1       4.637   7.678  -7.939  1.00  0.00    -0.014 A 
ATOM     77  C   UNL     1       5.482   7.349  -9.012  1.00  0.00     0.010 A 
ATOM     78  C   UNL     1       3.294   7.256  -7.970  1.00  0.00     0.010 A 
ATOM     79  C   UNL     1       4.998   6.598 -10.087  1.00  0.00     0.020 A 
ATOM     80  C   UNL     1       2.815   6.481  -9.030  1.00  0.00     0.020 A 
ATOM     81  C   UNL     1       3.672   6.155 -10.081  1.00  0.00     0.054 A 
BRANCH  81  82
ATOM     82  S   UNL     1       3.105   5.080 -11.428  1.00  0.00     0.124 S 
ATOM     83  O   UNL     1       3.050   6.005 -12.555  1.00  0.00    -0.237 OA
ATOM     84  O   UNL     1       4.159   4.070 -11.486  1.00  0.00    -0.237 OA
ATOM     85  O   UNL     1       1.812   4.590 -10.953  1.00  0.00    -0.744 OA
ENDBRANCH  81  82
ENDBRANCH  53  76
BRANCH  65  86
ATOM     86  C   UNL     1       6.856  14.200  -6.658  1.00  0.00    -0.014 A 
ATOM     87  C   UNL     1       5.782  14.948  -7.170  1.00  0.00     0.010 A 
ATOM     88  C   UNL     1       8.172  14.643  -6.888  1.00  0.00     0.010 A 
ATOM     89  C   UNL     1       6.022  16.110  -7.909  1.00  0.00     0.020 A 
ATOM     90  C   UNL     1       8.415  15.820  -7.599  1.00  0.00     0.020 A 
ATOM     91  C   UNL     1       7.338  16.543  -8.112  1.00  0.00     0.054 A 
BRANCH  91  92
ATOM     92  S   UNL     1       7.619  18.094  -9.007  1.00  0.00     0.124 S 
ATOM     93  O   UNL     1       7.266  17.724 -10.375  1.00  0.00    -0.237 OA
ATOM     94  O   UNL     1       6.697  19.015  -8.347  1.00  0.00    -0.237 OA
ATOM     95  O   UNL     1       9.036  18.373  -8.784  1.00  0.00    -0.744 OA
ENDBRANCH  91  92
ENDBRANCH  65  86
ENDBRANCH  39  40
ENDBRANCH  32  34
ENDBRANCH  31  32
ENDBRANCH  30  31
ENDBRANCH  29  30
ENDBRANCH  28  29
ENDBRANCH  27  28
ENDBRANCH   1  27
TORSDOF 23
