REMARK SMILES O=C(OCCOCCOC(=O)c1ccc(-c2c3nc(c(-c4ccc(S(=O)(=O)[O-])cc4)c4ccc([nH]4)c(-c4ccc(S(=O)(=O)[O-])cc4)c4nc(c(-c5ccc(S(=O)(=O)[O-])cc5)c5ccc2[nH]5)C=C4)C=C3)cc1)c1ccc(NC(=O)[C@@H]2CC=CC[C@H]2C(=O)Nc2cccc([N+](=O)[O-])c2)cc1
REMARK SMILES IDX 5 1 4 2 3 3 2 4 1 5 72 6 73 7 98 8 74 9 97 10 75 11 76 12
REMARK SMILES IDX 77 13 78 15 79 16 80 17 84 18 81 19 83 20 82 21 85 22 86 23
REMARK SMILES IDX 87 24 88 26 89 27 96 28 90 29 92 30 91 31 93 32 94 33 95 34
REMARK SMILES IDX 6 35 7 36 8 37 9 38 10 39 11 40 12 41 13 42 71 43 14 44
REMARK SMILES IDX 70 45 15 46 16 47 17 48 64 49 18 50 69 51 63 52 65 53 19 54
REMARK SMILES IDX 68 55 62 56 61 57 20 59 50 60 31 61 49 62 32 63 35 64 48 65
REMARK SMILES IDX 66 66 33 67 34 68 47 70 67 71 36 72 21 73 22 74 30 75 23 76
REMARK SMILES IDX 29 77 24 78 25 79 26 80 27 81 28 82 51 83 52 84 60 85 53 86
REMARK SMILES IDX 59 87 54 88 55 89 56 90 57 91 58 92 37 93 38 94 46 95 39 96
REMARK SMILES IDX 45 97 40 98 41 99 42 100 43 101 44 102
REMARK H PARENT 76 14 87 25 65 58 35 69
REMARK Flexibility Score: inf
ROOT
ATOM      1  C   UNL     1       4.283   9.528   3.288  1.00  0.00     0.202 C 
ENDROOT
BRANCH   1   2
ATOM      2  C   UNL     1       5.563   9.692   4.119  1.00  0.00     0.261 C 
BRANCH   2   3
ATOM      3  O   UNL     1       6.511  10.543   3.427  1.00  0.00    -0.460 OA
BRANCH   3   4
ATOM      4  C   UNL     1       7.741  10.286   2.914  1.00  0.00     0.338 C 
ATOM      5  O   UNL     1       8.449  11.235   2.576  1.00  0.00    -0.246 OA
BRANCH   4   6
ATOM      6  C   UNL     1       8.286   8.913   2.676  1.00  0.00     0.060 A 
ATOM      7  C   UNL     1       7.503   7.781   2.658  1.00  0.00     0.018 A 
ATOM      8  C   UNL     1       9.640   8.731   2.345  1.00  0.00     0.018 A 
ATOM      9  C   UNL     1       8.026   6.533   2.332  1.00  0.00     0.027 A 
ATOM     10  C   UNL     1      10.122   7.480   1.881  1.00  0.00     0.027 A 
ATOM     11  C   UNL     1       9.264   6.382   1.781  1.00  0.00     0.041 A 
BRANCH  11  12
ATOM     12  N   UNL     1       9.627   5.236   1.051  1.00  0.00    -0.326 N 
ATOM     13  C   UNL     1       8.967   4.139   0.545  1.00  0.00     0.228 C 
ATOM     14  H   UNL     1      10.591   5.213   0.852  1.00  0.00     0.169 HD
ATOM     15  O   UNL     1       9.666   3.439  -0.205  1.00  0.00    -0.274 OA
BRANCH  13  16
ATOM     16  C   UNL     1       7.525   3.659   0.917  1.00  0.00     0.095 C 
ATOM     17  C   UNL     1       7.485   2.118   0.680  1.00  0.00     0.041 C 
ATOM     18  C   UNL     1       6.280   4.354   0.283  1.00  0.00     0.095 C 
ATOM     19  C   UNL     1       6.147   1.462   0.800  1.00  0.00    -0.030 C 
ATOM     20  C   UNL     1       5.007   3.499   0.004  1.00  0.00     0.041 C 
ATOM     21  C   UNL     1       5.019   2.093   0.478  1.00  0.00    -0.030 C 
BRANCH  18  22
ATOM     22  C   UNL     1       5.668   5.635   0.866  1.00  0.00     0.228 C 
ATOM     23  O   UNL     1       5.676   6.638   0.133  1.00  0.00    -0.274 OA
ATOM     24  N   UNL     1       4.992   5.768   2.054  1.00  0.00    -0.326 N 
ATOM     25  H   UNL     1       4.437   6.581   2.045  1.00  0.00     0.169 HD
BRANCH  24  26
ATOM     26  C   UNL     1       4.853   5.085   3.290  1.00  0.00     0.048 A 
ATOM     27  C   UNL     1       3.869   5.549   4.169  1.00  0.00     0.026 A 
ATOM     28  C   UNL     1       5.655   4.066   3.779  1.00  0.00     0.111 A 
ATOM     29  C   UNL     1       3.612   4.933   5.408  1.00  0.00     0.009 A 
ATOM     30  C   UNL     1       5.423   3.439   5.015  1.00  0.00     0.271 A 
ATOM     31  C   UNL     1       4.375   3.849   5.827  1.00  0.00     0.086 A 
BRANCH  30  32
ATOM     32  N   UNL     1       6.320   2.354   5.441  1.00  0.00     0.062 N 
ATOM     33  O   UNL     1       5.977   1.667   6.412  1.00  0.00    -0.258 OA
ATOM     34  O   UNL     1       7.370   2.188   4.799  1.00  0.00    -0.258 OA
ENDBRANCH  30  32
ENDBRANCH  24  26
ENDBRANCH  18  22
ENDBRANCH  13  16
ENDBRANCH  11  12
ENDBRANCH   4   6
ENDBRANCH   3   4
ENDBRANCH   2   3
ENDBRANCH   1   2
BRANCH   1  35
ATOM     35  O   UNL     1       4.527   8.882   2.035  1.00  0.00    -0.374 OA
BRANCH  35  36
ATOM     36  C   UNL     1       4.518   9.771   0.905  1.00  0.00     0.202 C 
BRANCH  36  37
ATOM     37  C   UNL     1       3.348   9.460  -0.038  1.00  0.00     0.261 C 
BRANCH  37  38
ATOM     38  O   UNL     1       2.109   9.476   0.691  1.00  0.00    -0.460 OA
BRANCH  38  39
ATOM     39  C   UNL     1       1.751   8.271   1.216  1.00  0.00     0.338 C 
ATOM     40  O   UNL     1       2.245   7.191   0.980  1.00  0.00    -0.246 OA
BRANCH  39  41
ATOM     41  C   UNL     1       0.793   8.497   2.328  1.00  0.00     0.060 A 
ATOM     42  C   UNL     1       0.770   7.541   3.351  1.00  0.00     0.016 A 
ATOM     43  C   UNL     1      -0.005   9.638   2.425  1.00  0.00     0.016 A 
ATOM     44  C   UNL     1       0.025   7.754   4.507  1.00  0.00     0.010 A 
ATOM     45  C   UNL     1      -0.789   9.834   3.563  1.00  0.00     0.010 A 
ATOM     46  C   UNL     1      -0.764   8.900   4.614  1.00  0.00    -0.014 A 
BRANCH  46  47
ATOM     47  C   UNL     1      -1.666   9.075   5.770  1.00  0.00     0.031 A 
ATOM     48  C   UNL     1      -3.100   8.665   5.623  1.00  0.00     0.074 A 
ATOM     49  C   UNL     1      -1.212   9.617   6.915  1.00  0.00     0.049 A 
ATOM     50  N   UNL     1      -4.095   8.844   6.448  1.00  0.00    -0.248 NA
ATOM     51  C   UNL     1      -3.462   7.966   4.378  1.00  0.00     0.031 C 
ATOM     52  C   UNL     1       0.175  10.004   7.180  1.00  0.00     0.029 A 
ATOM     53  N   UNL     1      -1.881   9.961   8.062  1.00  0.00    -0.354 N 
ATOM     54  C   UNL     1      -5.206   8.303   5.815  1.00  0.00     0.074 A 
ATOM     55  C   UNL     1      -4.766   7.792   4.537  1.00  0.00     0.031 C 
ATOM     56  C   UNL     1       0.246  10.561   8.402  1.00  0.00     0.029 A 
ATOM     57  C   UNL     1      -1.094  10.611   8.983  1.00  0.00     0.049 A 
ATOM     58  H   UNL     1      -2.833   9.760   8.212  1.00  0.00     0.167 HD
ATOM     59  C   UNL     1      -6.481   8.248   6.263  1.00  0.00     0.031 A 
ATOM     60  C   UNL     1      -1.429  11.217  10.140  1.00  0.00     0.031 A 
ATOM     61  C   UNL     1      -6.907   8.771   7.532  1.00  0.00     0.049 A 
ATOM     62  C   UNL     1      -2.875  11.213  10.573  1.00  0.00     0.074 A 
ATOM     63  C   UNL     1      -8.171   8.735   8.092  1.00  0.00     0.029 A 
ATOM     64  N   UNL     1      -6.088   9.438   8.429  1.00  0.00    -0.354 N 
ATOM     65  N   UNL     1      -3.909  10.654   9.989  1.00  0.00    -0.248 NA
ATOM     66  C   UNL     1      -3.199  11.925  11.818  1.00  0.00     0.031 C 
ATOM     67  C   UNL     1      -8.132   9.441   9.297  1.00  0.00     0.029 A 
ATOM     68  C   UNL     1      -6.829   9.858   9.519  1.00  0.00     0.049 A 
ATOM     69  H   UNL     1      -5.123   9.591   8.308  1.00  0.00     0.167 HD
ATOM     70  C   UNL     1      -5.001  10.932  10.806  1.00  0.00     0.074 A 
ATOM     71  C   UNL     1      -4.497  11.684  11.937  1.00  0.00     0.031 C 
ATOM     72  C   UNL     1      -6.305  10.603  10.635  1.00  0.00     0.031 A 
BRANCH  59  73
ATOM     73  C   UNL     1      -7.519   7.642   5.362  1.00  0.00    -0.014 A 
ATOM     74  C   UNL     1      -7.583   6.253   5.153  1.00  0.00     0.010 A 
ATOM     75  C   UNL     1      -8.498   8.471   4.783  1.00  0.00     0.010 A 
ATOM     76  C   UNL     1      -8.607   5.705   4.375  1.00  0.00     0.020 A 
ATOM     77  C   UNL     1      -9.536   7.925   4.025  1.00  0.00     0.020 A 
ATOM     78  C   UNL     1      -9.581   6.544   3.822  1.00  0.00     0.054 A 
BRANCH  78  79
ATOM     79  S   UNL     1     -10.938   5.795   2.881  1.00  0.00     0.124 S 
ATOM     80  O   UNL     1     -10.253   5.346   1.671  1.00  0.00    -0.237 OA
ATOM     81  O   UNL     1     -11.396   4.734   3.774  1.00  0.00    -0.237 OA
ATOM     82  O   UNL     1     -11.878   6.896   2.691  1.00  0.00    -0.744 OA
ENDBRANCH  78  79
ENDBRANCH  59  73
BRANCH  60  83
ATOM     83  C   UNL     1      -0.403  11.940  10.943  1.00  0.00    -0.014 A 
ATOM     84  C   UNL     1      -0.053  11.499  12.231  1.00  0.00     0.010 A 
ATOM     85  C   UNL     1       0.199  13.107  10.436  1.00  0.00     0.010 A 
ATOM     86  C   UNL     1       0.851  12.230  13.010  1.00  0.00     0.020 A 
ATOM     87  C   UNL     1       1.128  13.822  11.198  1.00  0.00     0.020 A 
ATOM     88  C   UNL     1       1.433  13.389  12.489  1.00  0.00     0.054 A 
BRANCH  88  89
ATOM     89  S   UNL     1       2.615  14.312  13.510  1.00  0.00     0.124 S 
ATOM     90  O   UNL     1       1.739  14.934  14.498  1.00  0.00    -0.237 OA
ATOM     91  O   UNL     1       3.487  13.254  14.013  1.00  0.00    -0.237 OA
ATOM     92  O   UNL     1       3.242  15.228  12.561  1.00  0.00    -0.744 OA
ENDBRANCH  88  89
ENDBRANCH  60  83
BRANCH  72  93
ATOM     93  C   UNL     1      -7.278  11.032  11.701  1.00  0.00    -0.014 A 
ATOM     94  C   UNL     1      -7.650  12.381  11.844  1.00  0.00     0.010 A 
ATOM     95  C   UNL     1      -7.883  10.063  12.523  1.00  0.00     0.010 A 
ATOM     96  C   UNL     1      -8.591  12.755  12.805  1.00  0.00     0.020 A 
ATOM     97  C   UNL     1      -8.848  10.430  13.464  1.00  0.00     0.020 A 
ATOM     98  C   UNL     1      -9.188  11.776  13.607  1.00  0.00     0.054 A 
BRANCH  98  99
ATOM     99  S   UNL     1     -10.449  12.284  14.807  1.00  0.00     0.124 S 
ATOM    100  O   UNL     1      -9.647  12.964  15.820  1.00  0.00    -0.237 OA
ATOM    101  O   UNL     1     -11.319  13.145  14.011  1.00  0.00    -0.237 OA
ATOM    102  O   UNL     1     -11.050  11.022  15.233  1.00  0.00    -0.744 OA
ENDBRANCH  98  99
ENDBRANCH  72  93
ENDBRANCH  46  47
ENDBRANCH  39  41
ENDBRANCH  38  39
ENDBRANCH  37  38
ENDBRANCH  36  37
ENDBRANCH  35  36
ENDBRANCH   1  35
TORSDOF 22
