REMARK SMILES Cc1ccc2cc(C[N@H+]3CC[NH2+][C@H](C(=O)OCCOCCOC(=O)c4ccc(-c5c6nc(c(-c7ccc(S(=O)(=O)[O-])cc7)c7ccc([nH]7)c(-c7ccc(S(=O)(=O)[O-])cc7)c7nc(c(-c8ccc(S(=O)(=O)[O-])cc8)c8ccc5[nH]8)C=C7)C=C6)cc4)C3)c(N3CCOCC3)nc2c1
REMARK SMILES IDX 19 1 18 2 17 3 16 4 14 5 15 6 13 7 9 8 10 9 85 10 11 12
REMARK SMILES IDX 12 13 8 16 7 17 1 18 2 19 3 20 95 21 4 22 94 23 5 24 93 25
REMARK SMILES IDX 6 26 86 27 87 28 88 29 92 30 89 31 91 32 90 33 20 34 21 35
REMARK SMILES IDX 22 36 23 37 24 38 25 39 26 40 84 41 27 42 83 43 28 44 29 45
REMARK SMILES IDX 30 46 77 47 31 48 82 49 76 50 78 51 32 52 81 53 75 54 74 55
REMARK SMILES IDX 33 57 63 58 44 59 62 60 45 61 48 62 61 63 79 64 46 65 47 66
REMARK SMILES IDX 60 68 80 69 49 70 34 71 35 72 43 73 36 74 42 75 37 76 38 77
REMARK SMILES IDX 39 78 40 79 41 80 64 81 65 82 73 83 66 84 72 85 67 86 68 87
REMARK SMILES IDX 69 88 70 89 71 90 50 91 51 92 59 93 52 94 58 95 53 96 54 97
REMARK SMILES IDX 55 98 56 99 57 100
REMARK H PARENT 9 11 12 14 12 15 78 56 48 67
REMARK Flexibility Score: inf
ROOT
ATOM      1  O   UNL     1       3.273  -5.681   1.107  1.00  0.00    -0.374 OA
ENDROOT
BRANCH   1   2
ATOM      2  C   UNL     1       4.382  -6.213   0.387  1.00  0.00     0.202 C 
BRANCH   2   3
ATOM      3  C   UNL     1       4.121  -7.293  -0.668  1.00  0.00     0.261 C 
BRANCH   3   4
ATOM      4  O   UNL     1       3.279  -6.804  -1.719  1.00  0.00    -0.459 OA
BRANCH   4   5
ATOM      5  C   UNL     1       2.117  -7.491  -1.906  1.00  0.00     0.371 C 
ATOM      6  O   UNL     1       1.850  -8.562  -1.370  1.00  0.00    -0.245 OA
BRANCH   5   7
ATOM      7  C   UNL     1       1.089  -6.677  -2.694  1.00  0.00     0.348 C 
ATOM      8  N   UNL     1      -1.040  -6.958  -3.993  1.00  0.00    -0.321 N 
ATOM      9  C   UNL     1      -0.503  -5.982  -4.953  1.00  0.00     0.324 C 
ATOM     10  C   UNL     1       0.068  -7.643  -3.316  1.00  0.00     0.341 C 
ATOM     11  H   UNL     1      -1.560  -7.626  -4.562  1.00  0.00     0.348 HD
ATOM     12  C   UNL     1       0.616  -5.048  -4.417  1.00  0.00     0.323 C 
ATOM     13  N   UNL     1       1.691  -5.747  -3.686  1.00  0.00    -0.325 N 
ATOM     14  H   UNL     1       2.273  -5.063  -3.202  1.00  0.00     0.347 HD
ATOM     15  H   UNL     1       2.264  -6.274  -4.344  1.00  0.00     0.347 HD
BRANCH   8  16
ATOM     16  C   UNL     1      -2.136  -6.531  -3.095  1.00  0.00     0.303 C 
BRANCH  16  17
ATOM     17  C   UNL     1      -2.167  -5.110  -2.565  1.00  0.00     0.049 A 
ATOM     18  C   UNL     1       0.338   0.382  -0.320  1.00  0.00     0.044 C 
ATOM     19  C   UNL     1      -0.390  -0.922  -0.475  1.00  0.00    -0.049 A 
ATOM     20  C   UNL     1      -0.276  -1.896   0.515  1.00  0.00     0.004 A 
ATOM     21  C   UNL     1      -1.106  -1.225  -1.648  1.00  0.00     0.032 A 
ATOM     22  C   UNL     1      -0.776  -3.175   0.285  1.00  0.00     0.010 A 
ATOM     23  C   UNL     1      -1.623  -2.496  -1.901  1.00  0.00     0.073 A 
ATOM     24  C   UNL     1      -1.369  -3.494  -0.947  1.00  0.00     0.001 A 
ATOM     25  N   UNL     1      -2.300  -2.759  -3.040  1.00  0.00    -0.230 NA
ATOM     26  C   UNL     1      -1.637  -4.817  -1.304  1.00  0.00     0.023 A 
ATOM     27  C   UNL     1      -2.638  -4.037  -3.334  1.00  0.00     0.138 A 
BRANCH  27  28
ATOM     28  N   UNL     1      -3.432  -4.278  -4.434  1.00  0.00    -0.352 N 
ATOM     29  C   UNL     1      -4.749  -4.895  -4.240  1.00  0.00     0.146 C 
ATOM     30  C   UNL     1      -3.353  -3.432  -5.622  1.00  0.00     0.146 C 
ATOM     31  C   UNL     1      -5.064  -5.735  -5.488  1.00  0.00     0.181 C 
ATOM     32  C   UNL     1      -3.748  -4.300  -6.838  1.00  0.00     0.181 C 
ATOM     33  O   UNL     1      -5.043  -4.916  -6.672  1.00  0.00    -0.378 OA
ENDBRANCH  27  28
ENDBRANCH  16  17
ENDBRANCH   8  16
ENDBRANCH   5   7
ENDBRANCH   4   5
ENDBRANCH   3   4
ENDBRANCH   2   3
ENDBRANCH   1   2
BRANCH   1  34
ATOM     34  C   UNL     1       2.297  -4.932   0.392  1.00  0.00     0.202 C 
BRANCH  34  35
ATOM     35  C   UNL     1       2.667  -3.567  -0.208  1.00  0.00     0.261 C 
BRANCH  35  36
ATOM     36  O   UNL     1       3.803  -3.592  -1.067  1.00  0.00    -0.460 OA
BRANCH  36  37
ATOM     37  C   UNL     1       4.909  -2.987  -0.576  1.00  0.00     0.338 C 
ATOM     38  O   UNL     1       5.049  -2.429   0.499  1.00  0.00    -0.246 OA
BRANCH  37  39
ATOM     39  C   UNL     1       6.005  -3.300  -1.500  1.00  0.00     0.060 A 
ATOM     40  C   UNL     1       5.962  -2.854  -2.821  1.00  0.00     0.016 A 
ATOM     41  C   UNL     1       7.058  -4.093  -1.031  1.00  0.00     0.016 A 
ATOM     42  C   UNL     1       6.993  -3.209  -3.685  1.00  0.00     0.010 A 
ATOM     43  C   UNL     1       8.079  -4.457  -1.898  1.00  0.00     0.010 A 
ATOM     44  C   UNL     1       8.057  -4.005  -3.224  1.00  0.00    -0.014 A 
BRANCH  44  45
ATOM     45  C   UNL     1       9.227  -4.255  -4.089  1.00  0.00     0.031 A 
ATOM     46  C   UNL     1       9.450  -5.593  -4.718  1.00  0.00     0.074 A 
ATOM     47  C   UNL     1      10.104  -3.248  -4.252  1.00  0.00     0.049 A 
ATOM     48  N   UNL     1      10.419  -5.967  -5.510  1.00  0.00    -0.248 NA
ATOM     49  C   UNL     1       8.470  -6.650  -4.419  1.00  0.00     0.031 C 
ATOM     50  C   UNL     1       9.965  -1.919  -3.652  1.00  0.00     0.029 A 
ATOM     51  N   UNL     1      11.271  -3.174  -4.964  1.00  0.00    -0.354 N 
ATOM     52  C   UNL     1      10.163  -7.296  -5.819  1.00  0.00     0.074 A 
ATOM     53  C   UNL     1       8.973  -7.680  -5.091  1.00  0.00     0.031 C 
ATOM     54  C   UNL     1      10.989  -1.151  -4.048  1.00  0.00     0.029 A 
ATOM     55  C   UNL     1      11.880  -1.944  -4.889  1.00  0.00     0.049 A 
ATOM     56  H   UNL     1      11.638  -3.928  -5.480  1.00  0.00     0.167 HD
ATOM     57  C   UNL     1      10.857  -8.105  -6.653  1.00  0.00     0.031 A 
ATOM     58  C   UNL     1      13.029  -1.502  -5.437  1.00  0.00     0.031 A 
ATOM     59  C   UNL     1      12.049  -7.691  -7.352  1.00  0.00     0.049 A 
ATOM     60  C   UNL     1      13.805  -2.436  -6.321  1.00  0.00     0.074 A 
ATOM     61  C   UNL     1      12.809  -8.420  -8.248  1.00  0.00     0.029 A 
ATOM     62  N   UNL     1      12.657  -6.449  -7.230  1.00  0.00    -0.354 N 
ATOM     63  N   UNL     1      13.511  -3.668  -6.666  1.00  0.00    -0.248 NA
ATOM     64  C   UNL     1      15.053  -1.928  -6.901  1.00  0.00     0.031 C 
ATOM     65  C   UNL     1      13.919  -7.652  -8.602  1.00  0.00     0.029 A 
ATOM     66  C   UNL     1      13.806  -6.407  -8.003  1.00  0.00     0.049 A 
ATOM     67  H   UNL     1      12.321  -5.707  -6.677  1.00  0.00     0.167 HD
ATOM     68  C   UNL     1      14.528  -4.077  -7.519  1.00  0.00     0.074 A 
ATOM     69  C   UNL     1      15.434  -2.953  -7.654  1.00  0.00     0.031 C 
ATOM     70  C   UNL     1      14.697  -5.276  -8.127  1.00  0.00     0.031 A 
BRANCH  57  71
ATOM     71  C   UNL     1      10.357  -9.509  -6.886  1.00  0.00    -0.014 A 
ATOM     72  C   UNL     1      11.152 -10.609  -6.514  1.00  0.00     0.010 A 
ATOM     73  C   UNL     1       9.170  -9.739  -7.605  1.00  0.00     0.010 A 
ATOM     74  C   UNL     1      10.796 -11.906  -6.896  1.00  0.00     0.020 A 
ATOM     75  C   UNL     1       8.794 -11.039  -7.961  1.00  0.00     0.020 A 
ATOM     76  C   UNL     1       9.625 -12.111  -7.629  1.00  0.00     0.054 A 
BRANCH  76  77
ATOM     77  S   UNL     1       9.211 -13.794  -8.166  1.00  0.00     0.124 S 
ATOM     78  O   UNL     1      10.206 -14.040  -9.204  1.00  0.00    -0.237 OA
ATOM     79  O   UNL     1       9.374 -14.567  -6.937  1.00  0.00    -0.237 OA
ATOM     80  O   UNL     1       7.833 -13.674  -8.637  1.00  0.00    -0.744 OA
ENDBRANCH  76  77
ENDBRANCH  57  71
BRANCH  58  81
ATOM     81  C   UNL     1      13.452  -0.096  -5.190  1.00  0.00    -0.014 A 
ATOM     82  C   UNL     1      13.780   0.333  -3.889  1.00  0.00     0.010 A 
ATOM     83  C   UNL     1      13.413   0.850  -6.228  1.00  0.00     0.010 A 
ATOM     84  C   UNL     1      13.989   1.687  -3.617  1.00  0.00     0.020 A 
ATOM     85  C   UNL     1      13.658   2.203  -5.968  1.00  0.00     0.020 A 
ATOM     86  C   UNL     1      13.910   2.616  -4.657  1.00  0.00     0.054 A 
BRANCH  86  87
ATOM     87  S   UNL     1      14.107   4.376  -4.266  1.00  0.00     0.124 S 
ATOM     88  O   UNL     1      12.856   4.671  -3.573  1.00  0.00    -0.237 OA
ATOM     89  O   UNL     1      15.306   4.383  -3.431  1.00  0.00    -0.237 OA
ATOM     90  O   UNL     1      14.259   5.004  -5.576  1.00  0.00    -0.744 OA
ENDBRANCH  86  87
ENDBRANCH  58  81
BRANCH  70  91
ATOM     91  C   UNL     1      15.913  -5.467  -8.999  1.00  0.00    -0.014 A 
ATOM     92  C   UNL     1      15.752  -5.702 -10.378  1.00  0.00     0.010 A 
ATOM     93  C   UNL     1      17.193  -5.580  -8.430  1.00  0.00     0.010 A 
ATOM     94  C   UNL     1      16.836  -6.108 -11.159  1.00  0.00     0.020 A 
ATOM     95  C   UNL     1      18.288  -5.949  -9.216  1.00  0.00     0.020 A 
ATOM     96  C   UNL     1      18.095  -6.244 -10.568  1.00  0.00     0.054 A 
BRANCH  96  97
ATOM     97  S   UNL     1      19.471  -6.849 -11.581  1.00  0.00     0.124 S 
ATOM     98  O   UNL     1      19.129  -8.257 -11.756  1.00  0.00    -0.237 OA
ATOM     99  O   UNL     1      19.371  -6.022 -12.781  1.00  0.00    -0.237 OA
ATOM    100  O   UNL     1      20.647  -6.591 -10.753  1.00  0.00    -0.744 OA
ENDBRANCH  96  97
ENDBRANCH  70  91
ENDBRANCH  44  45
ENDBRANCH  37  39
ENDBRANCH  36  37
ENDBRANCH  35  36
ENDBRANCH  34  35
ENDBRANCH   1  34
TORSDOF 20
