REMARK SMILES O=C(OCCOCCOC(=O)c1cn(C2CC2)c2cc(N3CC[NH2+]CC3)ccc2c1=O)c1ccc(-c2c3nc(c(-c4ccc(S(=O)(=O)[O-])cc4)c4ccc([nH]4)c(-c4ccc(S(=O)(=O)[O-])cc4)c4nc(c(-c5ccc(S(=O)(=O)[O-])cc5)c5ccc2[nH]5)C=C4)C=C3)cc1
REMARK SMILES IDX 5 1 4 2 3 3 2 4 1 5 32 6 33 7 91 8 34 9 90 10 35 11 36 12
REMARK SMILES IDX 37 13 84 14 38 15 89 16 83 17 85 18 39 19 88 20 82 21 81 22
REMARK SMILES IDX 40 24 70 25 51 26 69 27 52 28 55 29 68 30 86 31 53 32 54 33
REMARK SMILES IDX 67 35 87 36 56 37 41 38 42 39 50 40 43 41 49 42 44 43 45 44
REMARK SMILES IDX 46 45 47 46 48 47 71 48 72 49 80 50 73 51 79 52 74 53 75 54
REMARK SMILES IDX 76 55 77 56 78 57 57 58 58 59 66 60 59 61 65 62 60 63 61 64
REMARK SMILES IDX 62 65 63 66 64 67 6 68 7 69 8 70 9 71 10 72 11 73 12 74
REMARK SMILES IDX 13 75 30 76 14 77 29 78 31 79 18 80 28 81 19 82 27 83 20 84
REMARK SMILES IDX 15 85 16 86 17 87 21 88 22 89 26 90 23 91 25 92 24 93
REMARK H PARENT 85 23 55 34 24 94 24 95
REMARK Flexibility Score: inf
ROOT
ATOM      1  C   UNL     1       4.307  -0.291   1.387  1.00  0.00     0.202 C 
ENDROOT
BRANCH   1   2
ATOM      2  C   UNL     1       4.126   1.163   0.956  1.00  0.00     0.261 C 
BRANCH   2   3
ATOM      3  O   UNL     1       2.777   1.423   0.550  1.00  0.00    -0.460 OA
BRANCH   3   4
ATOM      4  C   UNL     1       2.206   1.254  -0.664  1.00  0.00     0.338 C 
ATOM      5  O   UNL     1       1.003   1.509  -0.752  1.00  0.00    -0.246 OA
BRANCH   4   6
ATOM      6  C   UNL     1       2.900   0.756  -1.906  1.00  0.00     0.060 A 
ATOM      7  C   UNL     1       2.130   0.768  -3.088  1.00  0.00     0.016 A 
ATOM      8  C   UNL     1       4.190   0.226  -1.995  1.00  0.00     0.016 A 
ATOM      9  C   UNL     1       2.620   0.243  -4.288  1.00  0.00     0.010 A 
ATOM     10  C   UNL     1       4.681  -0.317  -3.179  1.00  0.00     0.010 A 
ATOM     11  C   UNL     1       3.899  -0.311  -4.330  1.00  0.00    -0.014 A 
BRANCH  11  12
ATOM     12  C   UNL     1       4.522  -0.760  -5.585  1.00  0.00     0.031 A 
ATOM     13  C   UNL     1       4.612  -2.214  -5.922  1.00  0.00     0.074 A 
ATOM     14  C   UNL     1       5.134   0.180  -6.326  1.00  0.00     0.049 A 
ATOM     15  N   UNL     1       5.131  -2.772  -6.982  1.00  0.00    -0.248 NA
ATOM     16  C   UNL     1       4.067  -3.169  -4.943  1.00  0.00     0.031 C 
ATOM     17  C   UNL     1       5.163   1.609  -5.996  1.00  0.00     0.029 A 
ATOM     18  N   UNL     1       5.870   0.085  -7.473  1.00  0.00    -0.354 N 
ATOM     19  C   UNL     1       4.956  -4.139  -6.815  1.00  0.00     0.074 A 
ATOM     20  C   UNL     1       4.326  -4.333  -5.527  1.00  0.00     0.031 C 
ATOM     21  C   UNL     1       5.889   2.255  -6.918  1.00  0.00     0.029 A 
ATOM     22  C   UNL     1       6.377   1.289  -7.896  1.00  0.00     0.049 A 
ATOM     23  H   UNL     1       6.022  -0.763  -7.949  1.00  0.00     0.167 HD
ATOM     24  C   UNL     1       5.282  -5.128  -7.680  1.00  0.00     0.031 A 
ATOM     25  C   UNL     1       7.141   1.584  -8.964  1.00  0.00     0.031 A 
ATOM     26  C   UNL     1       5.943  -4.883  -8.938  1.00  0.00     0.049 A 
ATOM     27  C   UNL     1       7.480   0.478  -9.915  1.00  0.00     0.074 A 
ATOM     28  C   UNL     1       6.250  -5.789  -9.937  1.00  0.00     0.029 A 
ATOM     29  N   UNL     1       6.413  -3.645  -9.359  1.00  0.00    -0.354 N 
ATOM     30  N   UNL     1       7.186  -0.798  -9.818  1.00  0.00    -0.248 NA
ATOM     31  C   UNL     1       8.219   0.840 -11.129  1.00  0.00     0.031 C 
ATOM     32  C   UNL     1       6.965  -5.112 -10.928  1.00  0.00     0.029 A 
ATOM     33  C   UNL     1       7.040  -3.770 -10.586  1.00  0.00     0.049 A 
ATOM     34  H   UNL     1       6.315  -2.804  -8.858  1.00  0.00     0.167 HD
ATOM     35  C   UNL     1       7.688  -1.393 -10.966  1.00  0.00     0.074 A 
ATOM     36  C   UNL     1       8.293  -0.332 -11.750  1.00  0.00     0.031 C 
ATOM     37  C   UNL     1       7.649  -2.696 -11.336  1.00  0.00     0.031 A 
BRANCH  24  38
ATOM     38  C   UNL     1       4.907  -6.550  -7.339  1.00  0.00    -0.014 A 
ATOM     39  C   UNL     1       5.906  -7.529  -7.177  1.00  0.00     0.010 A 
ATOM     40  C   UNL     1       3.558  -6.951  -7.325  1.00  0.00     0.010 A 
ATOM     41  C   UNL     1       5.567  -8.880  -7.047  1.00  0.00     0.020 A 
ATOM     42  C   UNL     1       3.214  -8.298  -7.170  1.00  0.00     0.020 A 
ATOM     43  C   UNL     1       4.222  -9.258  -7.059  1.00  0.00     0.054 A 
BRANCH  43  44
ATOM     44  S   UNL     1       3.800 -11.020  -6.943  1.00  0.00     0.124 S 
ATOM     45  O   UNL     1       4.153 -11.511  -8.272  1.00  0.00    -0.237 OA
ATOM     46  O   UNL     1       4.652 -11.483  -5.851  1.00  0.00    -0.237 OA
ATOM     47  O   UNL     1       2.369 -11.010  -6.641  1.00  0.00    -0.744 OA
ENDBRANCH  43  44
ENDBRANCH  24  38
BRANCH  25  48
ATOM     48  C   UNL     1       7.513   3.005  -9.194  1.00  0.00    -0.014 A 
ATOM     49  C   UNL     1       8.427   3.651  -8.338  1.00  0.00     0.010 A 
ATOM     50  C   UNL     1       6.812   3.764 -10.146  1.00  0.00     0.010 A 
ATOM     51  C   UNL     1       8.580   5.040  -8.386  1.00  0.00     0.020 A 
ATOM     52  C   UNL     1       6.981   5.151 -10.212  1.00  0.00     0.020 A 
ATOM     53  C   UNL     1       7.836   5.783  -9.306  1.00  0.00     0.054 A 
BRANCH  53  54
ATOM     54  S   UNL     1       7.963   7.593  -9.275  1.00  0.00     0.124 S 
ATOM     55  O   UNL     1       7.190   7.927  -8.082  1.00  0.00    -0.237 OA
ATOM     56  O   UNL     1       9.403   7.811  -9.173  1.00  0.00    -0.237 OA
ATOM     57  O   UNL     1       7.362   8.000 -10.543  1.00  0.00    -0.744 OA
ENDBRANCH  53  54
ENDBRANCH  25  48
BRANCH  37  58
ATOM     58  C   UNL     1       8.300  -3.071 -12.639  1.00  0.00    -0.014 A 
ATOM     59  C   UNL     1       7.506  -3.509 -13.714  1.00  0.00     0.010 A 
ATOM     60  C   UNL     1       9.700  -3.139 -12.740  1.00  0.00     0.010 A 
ATOM     61  C   UNL     1       8.100  -4.054 -14.853  1.00  0.00     0.020 A 
ATOM     62  C   UNL     1      10.298  -3.658 -13.890  1.00  0.00     0.020 A 
ATOM     63  C   UNL     1       9.493  -4.139 -14.926  1.00  0.00     0.054 A 
BRANCH  63  64
ATOM     64  S   UNL     1      10.245  -4.906 -16.387  1.00  0.00     0.124 S 
ATOM     65  O   UNL     1      10.002  -6.325 -16.148  1.00  0.00    -0.237 OA
ATOM     66  O   UNL     1       9.488  -4.313 -17.487  1.00  0.00    -0.237 OA
ATOM     67  O   UNL     1      11.644  -4.490 -16.310  1.00  0.00    -0.744 OA
ENDBRANCH  63  64
ENDBRANCH  37  58
ENDBRANCH  11  12
ENDBRANCH   4   6
ENDBRANCH   3   4
ENDBRANCH   2   3
ENDBRANCH   1   2
BRANCH   1  68
ATOM     68  O   UNL     1       3.913  -1.231   0.391  1.00  0.00    -0.374 OA
BRANCH  68  69
ATOM     69  C   UNL     1       2.641  -1.852   0.575  1.00  0.00     0.202 C 
BRANCH  69  70
ATOM     70  C   UNL     1       2.843  -3.342   0.850  1.00  0.00     0.261 C 
BRANCH  70  71
ATOM     71  O   UNL     1       3.467  -3.480   2.136  1.00  0.00    -0.459 OA
BRANCH  71  72
ATOM     72  C   UNL     1       4.830  -3.493   2.142  1.00  0.00     0.343 C 
ATOM     73  O   UNL     1       5.560  -3.719   1.193  1.00  0.00    -0.246 OA
BRANCH  72  74
ATOM     74  C   UNL     1       5.274  -3.064   3.480  1.00  0.00     0.124 A 
ATOM     75  C   UNL     1       4.636  -3.537   4.559  1.00  0.00     0.106 A 
ATOM     76  C   UNL     1       6.337  -2.062   3.696  1.00  0.00     0.203 A 
ATOM     77  N   UNL     1       4.856  -3.172   5.872  1.00  0.00    -0.343 N 
ATOM     78  C   UNL     1       6.547  -1.580   5.082  1.00  0.00     0.047 A 
ATOM     79  O   UNL     1       7.019  -1.603   2.788  1.00  0.00    -0.288 OA
ATOM     80  C   UNL     1       5.862  -2.196   6.144  1.00  0.00     0.054 A 
ATOM     81  C   UNL     1       7.450  -0.530   5.304  1.00  0.00     0.016 A 
ATOM     82  C   UNL     1       6.224  -1.806   7.439  1.00  0.00     0.053 A 
ATOM     83  C   UNL     1       7.738  -0.125   6.606  1.00  0.00     0.027 A 
ATOM     84  C   UNL     1       7.164  -0.791   7.688  1.00  0.00     0.039 A 
BRANCH  77  85
ATOM     85  C   UNL     1       4.008  -3.751   6.946  1.00  0.00     0.087 C 
ATOM     86  C   UNL     1       2.708  -4.492   6.748  1.00  0.00     0.027 C 
ATOM     87  C   UNL     1       3.946  -5.244   7.144  1.00  0.00     0.027 C 
ENDBRANCH  77  85
BRANCH  84  88
ATOM     88  N   UNL     1       7.550  -0.546   8.991  1.00  0.00    -0.360 N 
ATOM     89  C   UNL     1       8.425  -1.546   9.617  1.00  0.00     0.178 C 
ATOM     90  C   UNL     1       7.512   0.795   9.575  1.00  0.00     0.178 C 
ATOM     91  C   UNL     1       9.805  -0.936   9.945  1.00  0.00     0.282 C 
ATOM     92  C   UNL     1       8.920   1.291   9.972  1.00  0.00     0.282 C 
ATOM     93  N   UNL     1       9.712   0.306  10.743  1.00  0.00    -0.343 N 
ATOM     94  H   UNL     1      10.646   0.675  10.918  1.00  0.00     0.346 HD
ATOM     95  H   UNL     1       9.263   0.117  11.639  1.00  0.00     0.346 HD
ENDBRANCH  84  88
ENDBRANCH  72  74
ENDBRANCH  71  72
ENDBRANCH  70  71
ENDBRANCH  69  70
ENDBRANCH  68  69
ENDBRANCH   1  68
TORSDOF 19
