REMARK SMILES CC/C=C/C/C=C/C/C=C/C/C=C/CCSCCCC(=O)OCCOCCOC(=O)c1ccc(-c2c3nc(c(-c4ccc(S(=O)(=O)[O-])cc4)c4ccc([nH]4)c(-c4ccc(S(=O)(=O)[O-])cc4)c4nc(c(-c5ccc(S(=O)(=O)[O-])cc5)c5ccc2[nH]5)C=C4)C=C3)cc1
REMARK SMILES IDX 19 1 18 2 17 3 16 4 15 5 14 6 13 7 12 8 11 9 10 10 9 11 8 12
REMARK SMILES IDX 7 13 6 14 5 15 4 16 3 17 2 18 1 19 20 20 21 21 22 22 23 23
REMARK SMILES IDX 24 24 25 25 26 26 27 27 28 28 29 29 30 30 31 31 32 32 90 33
REMARK SMILES IDX 33 34 89 35 34 36 35 37 36 38 83 39 37 40 88 41 82 42 84 43
REMARK SMILES IDX 38 44 87 45 81 46 80 47 39 49 69 50 50 51 68 52 51 53 54 54
REMARK SMILES IDX 67 55 85 56 52 57 53 58 66 60 86 61 55 62 40 63 41 64 49 65
REMARK SMILES IDX 42 66 48 67 43 68 44 69 45 70 46 71 47 72 70 73 71 74 79 75
REMARK SMILES IDX 72 76 78 77 73 78 74 79 75 80 76 81 77 82 56 83 57 84 65 85
REMARK SMILES IDX 58 86 64 87 59 88 60 89 61 90 62 91 63 92
REMARK H PARENT 84 48 54 59
REMARK Flexibility Score: inf
ROOT
ATOM      1  C   UNL     1      -4.130  12.207   0.860  1.00  0.00     0.123 C 
ENDROOT
BRANCH   1   2
ATOM      2  C   UNL     1      -5.317  13.077   0.475  1.00  0.00     0.023 C 
BRANCH   2   3
ATOM      3  C   UNL     1      -6.716  12.679   0.970  1.00  0.00     0.070 C 
BRANCH   3   4
ATOM      4  S   UNL     1      -7.192  12.915   2.717  1.00  0.00    -0.162 SA
BRANCH   4   5
ATOM      5  C   UNL     1      -6.072  11.866   3.719  1.00  0.00     0.073 C 
BRANCH   5   6
ATOM      6  C   UNL     1      -6.569  10.489   4.200  1.00  0.00     0.038 C 
BRANCH   6   7
ATOM      7  C   UNL     1      -6.148   9.284   3.390  1.00  0.00    -0.030 C 
ATOM      8  C   UNL     1      -5.060   8.516   3.621  1.00  0.00    -0.027 C 
BRANCH   8   9
ATOM      9  C   UNL     1      -4.616   7.278   2.848  1.00  0.00     0.054 C 
BRANCH   9  10
ATOM     10  C   UNL     1      -3.194   7.379   2.338  1.00  0.00    -0.027 C 
ATOM     11  C   UNL     1      -2.736   6.944   1.146  1.00  0.00    -0.027 C 
BRANCH  11  12
ATOM     12  C   UNL     1      -1.324   7.129   0.642  1.00  0.00     0.054 C 
BRANCH  12  13
ATOM     13  C   UNL     1      -0.378   6.306   1.463  1.00  0.00    -0.027 C 
ATOM     14  C   UNL     1       0.281   5.225   1.021  1.00  0.00    -0.027 C 
BRANCH  14  15
ATOM     15  C   UNL     1       0.983   4.276   1.948  1.00  0.00     0.054 C 
BRANCH  15  16
ATOM     16  C   UNL     1       0.419   2.894   1.771  1.00  0.00    -0.027 C 
ATOM     17  C   UNL     1       1.160   1.804   1.524  1.00  0.00    -0.031 C 
BRANCH  17  18
ATOM     18  C   UNL     1       0.578   0.446   1.262  1.00  0.00     0.023 C 
ATOM     19  C   UNL     1       1.006  -0.062  -0.106  1.00  0.00     0.008 C 
ENDBRANCH  17  18
ENDBRANCH  15  16
ENDBRANCH  14  15
ENDBRANCH  12  13
ENDBRANCH  11  12
ENDBRANCH   9  10
ENDBRANCH   8   9
ENDBRANCH   6   7
ENDBRANCH   5   6
ENDBRANCH   4   5
ENDBRANCH   3   4
ENDBRANCH   2   3
ENDBRANCH   1   2
BRANCH   1  20
ATOM     20  C   UNL     1      -4.348  10.726   0.751  1.00  0.00     0.305 C 
ATOM     21  O   UNL     1      -3.639   9.932   1.356  1.00  0.00    -0.252 OA
BRANCH  20  22
ATOM     22  O   UNL     1      -5.318  10.404  -0.133  1.00  0.00    -0.463 OA
BRANCH  22  23
ATOM     23  C   UNL     1      -5.888   9.094  -0.093  1.00  0.00     0.261 C 
BRANCH  23  24
ATOM     24  C   UNL     1      -5.381   7.997  -1.036  1.00  0.00     0.202 C 
BRANCH  24  25
ATOM     25  O   UNL     1      -4.244   8.156  -1.858  1.00  0.00    -0.374 OA
BRANCH  25  26
ATOM     26  C   UNL     1      -3.889   9.447  -2.311  1.00  0.00     0.202 C 
BRANCH  26  27
ATOM     27  C   UNL     1      -4.887  10.248  -3.168  1.00  0.00     0.261 C 
BRANCH  27  28
ATOM     28  O   UNL     1      -6.256  10.276  -2.722  1.00  0.00    -0.460 OA
BRANCH  28  29
ATOM     29  C   UNL     1      -7.079   9.376  -3.312  1.00  0.00     0.338 C 
ATOM     30  O   UNL     1      -6.762   8.543  -4.153  1.00  0.00    -0.246 OA
BRANCH  29  31
ATOM     31  C   UNL     1      -8.424   9.412  -2.698  1.00  0.00     0.060 A 
ATOM     32  C   UNL     1      -8.966   8.218  -2.199  1.00  0.00     0.016 A 
ATOM     33  C   UNL     1      -9.191  10.580  -2.702  1.00  0.00     0.016 A 
ATOM     34  C   UNL     1     -10.288   8.172  -1.754  1.00  0.00     0.010 A 
ATOM     35  C   UNL     1     -10.526  10.526  -2.280  1.00  0.00     0.010 A 
ATOM     36  C   UNL     1     -11.093   9.312  -1.847  1.00  0.00    -0.014 A 
BRANCH  36  37
ATOM     37  C   UNL     1     -12.568   9.183  -1.724  1.00  0.00     0.031 A 
ATOM     38  C   UNL     1     -13.379   9.066  -2.990  1.00  0.00     0.074 A 
ATOM     39  C   UNL     1     -13.179   9.146  -0.526  1.00  0.00     0.049 A 
ATOM     40  N   UNL     1     -14.677   9.026  -3.147  1.00  0.00    -0.248 NA
ATOM     41  C   UNL     1     -12.619   8.985  -4.249  1.00  0.00     0.031 C 
ATOM     42  C   UNL     1     -12.505   9.179   0.771  1.00  0.00     0.029 A 
ATOM     43  N   UNL     1     -14.514   9.082  -0.209  1.00  0.00    -0.354 N 
ATOM     44  C   UNL     1     -14.889   8.937  -4.519  1.00  0.00     0.074 A 
ATOM     45  C   UNL     1     -13.588   8.949  -5.151  1.00  0.00     0.031 C 
ATOM     46  C   UNL     1     -13.432   9.151   1.745  1.00  0.00     0.029 A 
ATOM     47  C   UNL     1     -14.765   9.141   1.142  1.00  0.00     0.049 A 
ATOM     48  H   UNL     1     -15.225   9.001  -0.885  1.00  0.00     0.167 HD
ATOM     49  C   UNL     1     -16.060   8.853  -5.193  1.00  0.00     0.031 A 
ATOM     50  C   UNL     1     -15.934   9.210   1.812  1.00  0.00     0.031 A 
ATOM     51  C   UNL     1     -17.352   8.853  -4.559  1.00  0.00     0.049 A 
ATOM     52  C   UNL     1     -17.228   9.203   1.036  1.00  0.00     0.074 A 
ATOM     53  C   UNL     1     -18.600   8.766  -5.149  1.00  0.00     0.029 A 
ATOM     54  N   UNL     1     -17.562   8.953  -3.192  1.00  0.00    -0.354 N 
ATOM     55  N   UNL     1     -17.414   9.112  -0.261  1.00  0.00    -0.248 NA
ATOM     56  C   UNL     1     -18.471   9.303   1.815  1.00  0.00     0.031 C 
ATOM     57  C   UNL     1     -19.566   8.878  -4.144  1.00  0.00     0.029 A 
ATOM     58  C   UNL     1     -18.919   8.959  -2.921  1.00  0.00     0.049 A 
ATOM     59  H   UNL     1     -16.850   9.010  -2.513  1.00  0.00     0.167 HD
ATOM     60  C   UNL     1     -18.793   9.111  -0.448  1.00  0.00     0.074 A 
ATOM     61  C   UNL     1     -19.393   9.196   0.867  1.00  0.00     0.031 C 
ATOM     62  C   UNL     1     -19.500   9.041  -1.604  1.00  0.00     0.031 A 
BRANCH  49  63
ATOM     63  C   UNL     1     -16.000   8.802  -6.698  1.00  0.00    -0.014 A 
ATOM     64  C   UNL     1     -15.514   7.669  -7.377  1.00  0.00     0.010 A 
ATOM     65  C   UNL     1     -16.476   9.894  -7.448  1.00  0.00     0.010 A 
ATOM     66  C   UNL     1     -15.472   7.645  -8.774  1.00  0.00     0.020 A 
ATOM     67  C   UNL     1     -16.463   9.862  -8.845  1.00  0.00     0.020 A 
ATOM     68  C   UNL     1     -15.947   8.742  -9.499  1.00  0.00     0.054 A 
BRANCH  68  69
ATOM     69  S   UNL     1     -15.906   8.671 -11.312  1.00  0.00     0.124 S 
ATOM     70  O   UNL     1     -14.475   8.771 -11.585  1.00  0.00    -0.237 OA
ATOM     71  O   UNL     1     -16.510   7.372 -11.593  1.00  0.00    -0.237 OA
ATOM     72  O   UNL     1     -16.700   9.827 -11.723  1.00  0.00    -0.744 OA
ENDBRANCH  68  69
ENDBRANCH  49  63
BRANCH  50  73
ATOM     73  C   UNL     1     -15.940   9.325   3.299  1.00  0.00    -0.014 A 
ATOM     74  C   UNL     1     -16.441   8.284   4.100  1.00  0.00     0.010 A 
ATOM     75  C   UNL     1     -15.451  10.488   3.923  1.00  0.00     0.010 A 
ATOM     76  C   UNL     1     -16.469   8.411   5.494  1.00  0.00     0.020 A 
ATOM     77  C   UNL     1     -15.448  10.606   5.316  1.00  0.00     0.020 A 
ATOM     78  C   UNL     1     -15.968   9.570   6.093  1.00  0.00     0.054 A 
BRANCH  78  79
ATOM     79  S   UNL     1     -15.968   9.689   7.904  1.00  0.00     0.124 S 
ATOM     80  O   UNL     1     -17.388   9.854   8.198  1.00  0.00    -0.237 OA
ATOM     81  O   UNL     1     -15.382   8.412   8.302  1.00  0.00    -0.237 OA
ATOM     82  O   UNL     1     -15.133  10.858   8.170  1.00  0.00    -0.744 OA
ENDBRANCH  78  79
ENDBRANCH  50  73
BRANCH  62  83
ATOM     83  C   UNL     1     -21.004   9.007  -1.503  1.00  0.00    -0.014 A 
ATOM     84  C   UNL     1     -21.742  10.142  -1.125  1.00  0.00     0.010 A 
ATOM     85  C   UNL     1     -21.692   7.830  -1.857  1.00  0.00     0.010 A 
ATOM     86  C   UNL     1     -23.138  10.091  -1.069  1.00  0.00     0.020 A 
ATOM     87  C   UNL     1     -23.088   7.785  -1.833  1.00  0.00     0.020 A 
ATOM     88  C   UNL     1     -23.802   8.912  -1.425  1.00  0.00     0.054 A 
BRANCH  88  89
ATOM     89  S   UNL     1     -25.615   8.886  -1.387  1.00  0.00     0.124 S 
ATOM     90  O   UNL     1     -25.889   8.888   0.048  1.00  0.00    -0.237 OA
ATOM     91  O   UNL     1     -25.968  10.114  -2.096  1.00  0.00    -0.237 OA
ATOM     92  O   UNL     1     -25.960   7.649  -2.084  1.00  0.00    -0.744 OA
ENDBRANCH  88  89
ENDBRANCH  62  83
ENDBRANCH  36  37
ENDBRANCH  29  31
ENDBRANCH  28  29
ENDBRANCH  27  28
ENDBRANCH  26  27
ENDBRANCH  25  26
ENDBRANCH  24  25
ENDBRANCH  23  24
ENDBRANCH  22  23
ENDBRANCH  20  22
ENDBRANCH   1  20
TORSDOF 30
