REMARK SMILES C=CCNC(=O)C[NH2+][C@](C)(C(=O)OCCOCCOC(=O)c1ccc(-c2c3nc(c(-c4ccc(S(=O)(=O)[O-])cc4)c4ccc([nH]4)c(-c4ccc(S(=O)(=O)[O-])cc4)c4nc(c(-c5ccc(S(=O)(=O)[O-])cc5)c5ccc2[nH]5)C=C4)C=C3)cc1)C(F)(F)F
REMARK SMILES IDX 15 1 14 2 13 3 11 4 12 5 9 6 10 7 8 8 7 11 5 12 4 13 6 15
REMARK SMILES IDX 3 16 2 17 1 18 82 19 83 20 84 21 85 22 16 23 17 24 18 25
REMARK SMILES IDX 19 26 20 27 21 28 22 29 23 30 81 31 24 32 80 33 25 34 26 35
REMARK SMILES IDX 27 36 74 37 28 38 79 39 73 40 75 41 29 42 78 43 72 44 71 45
REMARK SMILES IDX 30 47 60 48 41 49 59 50 42 51 45 52 58 53 76 54 43 55 44 56
REMARK SMILES IDX 57 58 77 59 46 60 31 61 32 62 40 63 33 64 39 65 34 66 35 67
REMARK SMILES IDX 36 68 37 69 38 70 61 71 62 72 70 73 63 74 69 75 64 76 65 77
REMARK SMILES IDX 66 78 67 79 68 80 47 81 48 82 56 83 49 84 55 85 50 86 51 87
REMARK SMILES IDX 52 88 53 89 54 90
REMARK H PARENT 8 9 8 10 4 14 75 46 45 57
REMARK Flexibility Score: inf
ROOT
ATOM      1  C   UNL     1       1.989  -0.398  -6.388  1.00  0.00     0.202 C 
ENDROOT
BRANCH   1   2
ATOM      2  C   UNL     1       0.826   0.073  -7.266  1.00  0.00     0.261 C 
BRANCH   2   3
ATOM      3  O   UNL     1      -0.218   0.678  -6.484  1.00  0.00    -0.458 OA
BRANCH   3   4
ATOM      4  C   UNL     1      -1.298  -0.115  -6.231  1.00  0.00     0.377 C 
ATOM      5  O   UNL     1      -1.452  -1.229  -6.713  1.00  0.00    -0.244 OA
BRANCH   4   6
ATOM      6  C   UNL     1      -2.340   0.603  -5.360  1.00  0.00     0.287 C 
ATOM      7  C   UNL     1      -1.701   1.535  -4.291  1.00  0.00     0.103 C 
BRANCH   6   8
ATOM      8  N   UNL     1      -3.188   1.490  -6.234  1.00  0.00    -0.317 N 
ATOM      9  H   UNL     1      -3.928   1.894  -5.660  1.00  0.00     0.347 HD
ATOM     10  H   UNL     1      -2.569   2.199  -6.627  1.00  0.00     0.347 HD
BRANCH   8  11
ATOM     11  C   UNL     1      -3.812   0.785  -7.370  1.00  0.00     0.363 C 
BRANCH  11  12
ATOM     12  C   UNL     1      -4.840   1.697  -8.039  1.00  0.00     0.275 C 
ATOM     13  N   UNL     1      -5.984   2.013  -7.362  1.00  0.00    -0.348 N 
ATOM     14  H   UNL     1      -6.636   2.562  -7.854  1.00  0.00     0.163 HD
ATOM     15  O   UNL     1      -4.669   2.135  -9.176  1.00  0.00    -0.268 OA
BRANCH  13  16
ATOM     16  C   UNL     1      -6.358   1.645  -6.017  1.00  0.00     0.143 C 
BRANCH  16  17
ATOM     17  C   UNL     1      -6.302   2.883  -5.182  1.00  0.00    -0.014 C 
ATOM     18  C   UNL     1      -7.343   3.392  -4.508  1.00  0.00     0.006 C 
ENDBRANCH  16  17
ENDBRANCH  13  16
ENDBRANCH  11  12
ENDBRANCH   8  11
ENDBRANCH   6   8
BRANCH   6  19
ATOM     19  C   UNL     1      -3.049  -0.544  -4.588  1.00  0.00     0.455 C 
ATOM     20  F   UNL     1      -2.172  -1.241  -3.821  1.00  0.00    -0.164 F 
ATOM     21  F   UNL     1      -3.984  -0.043  -3.737  1.00  0.00    -0.164 F 
ATOM     22  F   UNL     1      -3.695  -1.429  -5.375  1.00  0.00    -0.164 F 
ENDBRANCH   6  19
ENDBRANCH   4   6
ENDBRANCH   3   4
ENDBRANCH   2   3
ENDBRANCH   1   2
BRANCH   1  23
ATOM     23  O   UNL     1       1.709  -1.458  -5.476  1.00  0.00    -0.374 OA
BRANCH  23  24
ATOM     24  C   UNL     1       1.096  -1.125  -4.231  1.00  0.00     0.202 C 
BRANCH  24  25
ATOM     25  C   UNL     1       1.986  -0.487  -3.159  1.00  0.00     0.261 C 
BRANCH  25  26
ATOM     26  O   UNL     1       2.393   0.844  -3.525  1.00  0.00    -0.460 OA
BRANCH  26  27
ATOM     27  C   UNL     1       3.705   0.964  -3.834  1.00  0.00     0.338 C 
ATOM     28  O   UNL     1       4.560   0.090  -3.761  1.00  0.00    -0.246 OA
BRANCH  27  29
ATOM     29  C   UNL     1       3.964   2.265  -4.477  1.00  0.00     0.060 A 
ATOM     30  C   UNL     1       4.681   2.254  -5.682  1.00  0.00     0.016 A 
ATOM     31  C   UNL     1       3.596   3.473  -3.880  1.00  0.00     0.016 A 
ATOM     32  C   UNL     1       5.097   3.450  -6.258  1.00  0.00     0.010 A 
ATOM     33  C   UNL     1       4.023   4.674  -4.456  1.00  0.00     0.010 A 
ATOM     34  C   UNL     1       4.816   4.663  -5.619  1.00  0.00    -0.014 A 
BRANCH  34  35
ATOM     35  C   UNL     1       5.520   5.893  -6.054  1.00  0.00     0.031 A 
ATOM     36  C   UNL     1       6.742   6.329  -5.289  1.00  0.00     0.074 A 
ATOM     37  C   UNL     1       5.108   6.588  -7.128  1.00  0.00     0.049 A 
ATOM     38  N   UNL     1       7.492   7.387  -5.458  1.00  0.00    -0.248 NA
ATOM     39  C   UNL     1       7.174   5.454  -4.186  1.00  0.00     0.031 C 
ATOM     40  C   UNL     1       3.977   6.233  -7.984  1.00  0.00     0.029 A 
ATOM     41  N   UNL     1       5.598   7.746  -7.678  1.00  0.00    -0.354 N 
ATOM     42  C   UNL     1       8.474   7.312  -4.477  1.00  0.00     0.074 A 
ATOM     43  C   UNL     1       8.211   6.120  -3.701  1.00  0.00     0.031 C 
ATOM     44  C   UNL     1       3.854   7.162  -8.949  1.00  0.00     0.029 A 
ATOM     45  C   UNL     1       4.873   8.192  -8.757  1.00  0.00     0.049 A 
ATOM     46  H   UNL     1       6.393   8.212  -7.333  1.00  0.00     0.167 HD
ATOM     47  C   UNL     1       9.505   8.158  -4.243  1.00  0.00     0.031 A 
ATOM     48  C   UNL     1       5.005   9.315  -9.490  1.00  0.00     0.031 A 
ATOM     49  C   UNL     1       9.758   9.348  -5.010  1.00  0.00     0.049 A 
ATOM     50  C   UNL     1       6.113  10.282  -9.165  1.00  0.00     0.074 A 
ATOM     51  C   UNL     1      10.778  10.270  -4.857  1.00  0.00     0.029 A 
ATOM     52  N   UNL     1       8.978   9.784  -6.071  1.00  0.00    -0.354 N 
ATOM     53  N   UNL     1       7.038  10.196  -8.239  1.00  0.00    -0.248 NA
ATOM     54  C   UNL     1       6.199  11.496  -9.991  1.00  0.00     0.031 C 
ATOM     55  C   UNL     1      10.585  11.292  -5.793  1.00  0.00     0.029 A 
ATOM     56  C   UNL     1       9.480  10.974  -6.568  1.00  0.00     0.049 A 
ATOM     57  H   UNL     1       8.185   9.316  -6.419  1.00  0.00     0.167 HD
ATOM     58  C   UNL     1       7.834  11.327  -8.390  1.00  0.00     0.074 A 
ATOM     59  C   UNL     1       7.286  12.078  -9.501  1.00  0.00     0.031 C 
ATOM     60  C   UNL     1       8.924  11.707  -7.678  1.00  0.00     0.031 A 
BRANCH  47  61
ATOM     61  C   UNL     1      10.411   7.843  -3.083  1.00  0.00    -0.014 A 
ATOM     62  C   UNL     1      11.312   6.764  -3.131  1.00  0.00     0.010 A 
ATOM     63  C   UNL     1      10.373   8.653  -1.934  1.00  0.00     0.010 A 
ATOM     64  C   UNL     1      12.128   6.475  -2.033  1.00  0.00     0.020 A 
ATOM     65  C   UNL     1      11.207   8.384  -0.845  1.00  0.00     0.020 A 
ATOM     66  C   UNL     1      12.066   7.285  -0.894  1.00  0.00     0.054 A 
BRANCH  66  67
ATOM     67  S   UNL     1      13.142   6.895   0.513  1.00  0.00     0.124 S 
ATOM     68  O   UNL     1      12.494   5.709   1.067  1.00  0.00    -0.237 OA
ATOM     69  O   UNL     1      14.435   6.663  -0.126  1.00  0.00    -0.237 OA
ATOM     70  O   UNL     1      13.069   8.091   1.348  1.00  0.00    -0.744 OA
ENDBRANCH  66  67
ENDBRANCH  47  61
BRANCH  48  71
ATOM     71  C   UNL     1       4.047   9.595 -10.594  1.00  0.00    -0.014 A 
ATOM     72  C   UNL     1       4.460   9.539 -11.936  1.00  0.00     0.010 A 
ATOM     73  C   UNL     1       2.708   9.916 -10.303  1.00  0.00     0.010 A 
ATOM     74  C   UNL     1       3.555   9.809 -12.967  1.00  0.00     0.020 A 
ATOM     75  C   UNL     1       1.794  10.162 -11.331  1.00  0.00     0.020 A 
ATOM     76  C   UNL     1       2.226  10.117 -12.657  1.00  0.00     0.054 A 
BRANCH  76  77
ATOM     77  S   UNL     1       1.056  10.410 -14.013  1.00  0.00     0.124 S 
ATOM     78  O   UNL     1       1.458  11.733 -14.479  1.00  0.00    -0.237 OA
ATOM     79  O   UNL     1       1.344   9.303 -14.922  1.00  0.00    -0.237 OA
ATOM     80  O   UNL     1      -0.248  10.345 -13.358  1.00  0.00    -0.744 OA
ENDBRANCH  76  77
ENDBRANCH  48  71
BRANCH  60  81
ATOM     81  C   UNL     1       9.629  12.969  -8.100  1.00  0.00    -0.014 A 
ATOM     82  C   UNL     1       9.075  14.236  -7.847  1.00  0.00     0.010 A 
ATOM     83  C   UNL     1      10.900  12.882  -8.698  1.00  0.00     0.010 A 
ATOM     84  C   UNL     1       9.768  15.394  -8.210  1.00  0.00     0.020 A 
ATOM     85  C   UNL     1      11.608  14.038  -9.037  1.00  0.00     0.020 A 
ATOM     86  C   UNL     1      11.031  15.287  -8.802  1.00  0.00     0.054 A 
BRANCH  86  87
ATOM     87  S   UNL     1      11.935  16.805  -9.216  1.00  0.00     0.124 S 
ATOM     88  O   UNL     1      11.217  17.273 -10.398  1.00  0.00    -0.237 OA
ATOM     89  O   UNL     1      11.764  17.618  -8.014  1.00  0.00    -0.237 OA
ATOM     90  O   UNL     1      13.299  16.341  -9.458  1.00  0.00    -0.744 OA
ENDBRANCH  86  87
ENDBRANCH  60  81
ENDBRANCH  34  35
ENDBRANCH  27  29
ENDBRANCH  26  27
ENDBRANCH  25  26
ENDBRANCH  24  25
ENDBRANCH  23  24
ENDBRANCH   1  23
TORSDOF 23
