REMARK SMILES CC(C)c1cc(O)cc(C(C)C)c1O[C@@H]1O[C@@H](C(=O)OCCOCCOC(=O)c2ccc(-c3c4nc(c(-c5ccc(S(=O)(=O)[O-])cc5)c5ccc([nH]5)c(-c5ccc(S(=O)(=O)[O-])cc5)c5nc(c(-c6ccc(S(=O)(=O)[O-])cc6)c6ccc3[nH]6)C=C5)C=C4)cc2)[C@@H](O)[C@H](O)[C@@H]1O
REMARK SMILES IDX 23 1 22 2 21 3 20 4 18 5 19 6 17 7 15 8 16 9 93 10 91 11
REMARK SMILES IDX 89 12 14 13 13 14 4 15 5 16 6 17 9 18 8 19 2 20 1 21 3 22
REMARK SMILES IDX 7 23 10 25 11 26 12 27 94 28 92 30 90 32 24 34 25 35 26 36
REMARK SMILES IDX 27 37 28 38 29 39 30 40 88 41 31 42 87 43 32 44 33 45 34 46
REMARK SMILES IDX 81 47 35 48 86 49 80 50 82 51 36 52 85 53 79 54 78 55 37 57
REMARK SMILES IDX 67 58 48 59 66 60 49 61 52 62 65 63 83 64 50 65 51 66 64 68
REMARK SMILES IDX 84 69 53 70 38 71 39 72 47 73 40 74 46 75 41 76 42 77 43 78
REMARK SMILES IDX 44 79 45 80 68 81 69 82 77 83 70 84 76 85 71 86 72 87 73 88
REMARK SMILES IDX 74 89 75 90 54 91 55 92 63 93 56 94 62 95 57 96 58 97 59 98
REMARK SMILES IDX 60 99 61 100
REMARK H PARENT 7 24 94 29 92 31 90 33 82 56 52 67
REMARK Flexibility Score: inf
ROOT
ATOM      1  O   UNL     1      -3.829   1.282  -3.821  1.00  0.00    -0.374 OA
ENDROOT
BRANCH   1   2
ATOM      2  C   UNL     1      -4.410   1.628  -2.568  1.00  0.00     0.202 C 
BRANCH   2   3
ATOM      3  C   UNL     1      -3.793   1.032  -1.300  1.00  0.00     0.261 C 
BRANCH   3   4
ATOM      4  O   UNL     1      -2.398   1.329  -1.179  1.00  0.00    -0.461 OA
BRANCH   4   5
ATOM      5  C   UNL     1      -1.554   0.300  -1.450  1.00  0.00     0.338 C 
ATOM      6  O   UNL     1      -1.919  -0.836  -1.732  1.00  0.00    -0.249 OA
BRANCH   5   7
ATOM      7  C   UNL     1      -0.070   0.727  -1.410  1.00  0.00     0.263 C 
ATOM      8  C   UNL     1       0.627  -1.137  -0.103  1.00  0.00     0.339 C 
ATOM      9  O   UNL     1       0.802  -0.404  -1.312  1.00  0.00    -0.322 OA
ATOM     10  C   UNL     1       0.574  -0.320   1.224  1.00  0.00     0.214 C 
ATOM     11  C   UNL     1      -0.035   1.085   1.064  1.00  0.00     0.181 C 
ATOM     12  C   UNL     1       0.276   1.719  -0.299  1.00  0.00     0.186 C 
BRANCH   8  13
ATOM     13  O   UNL     1       1.500  -2.255   0.045  1.00  0.00    -0.461 OA
BRANCH  13  14
ATOM     14  C   UNL     1       2.764  -2.447  -0.415  1.00  0.00     0.130 A 
ATOM     15  C   UNL     1       3.073  -3.835  -0.544  1.00  0.00     0.001 A 
ATOM     16  C   UNL     1       4.412  -4.229  -0.754  1.00  0.00     0.054 A 
ATOM     17  C   UNL     1       5.412  -3.286  -0.881  1.00  0.00     0.116 A 
ATOM     18  C   UNL     1       3.787  -1.481  -0.613  1.00  0.00     0.001 A 
ATOM     19  C   UNL     1       5.104  -1.940  -0.848  1.00  0.00     0.054 A 
BRANCH  15  20
ATOM     20  C   UNL     1       2.054  -4.989  -0.549  1.00  0.00     0.017 C 
ATOM     21  C   UNL     1       0.696  -4.806   0.135  1.00  0.00     0.012 C 
ATOM     22  C   UNL     1       1.815  -5.452  -1.997  1.00  0.00     0.012 C 
ENDBRANCH  15  20
BRANCH  17  23
ATOM     23  O   UNL     1       6.715  -3.642  -1.058  1.00  0.00    -0.508 OA
ATOM     24  H   UNL     1       6.954  -4.547  -1.084  1.00  0.00     0.293 HD
ENDBRANCH  17  23
BRANCH  18  25
ATOM     25  C   UNL     1       3.624   0.031  -0.630  1.00  0.00     0.017 C 
ATOM     26  C   UNL     1       4.538   0.783   0.346  1.00  0.00     0.012 C 
ATOM     27  C   UNL     1       3.771   0.595  -2.050  1.00  0.00     0.012 C 
ENDBRANCH  18  25
ENDBRANCH  13  14
ENDBRANCH   8  13
BRANCH  10  28
ATOM     28  O   UNL     1       1.865  -0.181   1.848  1.00  0.00    -0.384 OA
ATOM     29  H   UNL     1       2.445   0.347   1.278  1.00  0.00     0.211 HD
ENDBRANCH  10  28
BRANCH  11  30
ATOM     30  O   UNL     1       0.443   1.951   2.102  1.00  0.00    -0.387 OA
ATOM     31  H   UNL     1       1.405   2.047   2.025  1.00  0.00     0.211 HD
ENDBRANCH  11  30
BRANCH  12  32
ATOM     32  O   UNL     1      -0.374   2.975  -0.509  1.00  0.00    -0.387 OA
ATOM     33  H   UNL     1      -1.335   2.847  -0.504  1.00  0.00     0.211 HD
ENDBRANCH  12  32
ENDBRANCH   5   7
ENDBRANCH   4   5
ENDBRANCH   3   4
ENDBRANCH   2   3
ENDBRANCH   1   2
BRANCH   1  34
ATOM     34  C   UNL     1      -2.555   1.822  -4.168  1.00  0.00     0.202 C 
BRANCH  34  35
ATOM     35  C   UNL     1      -2.399   3.340  -4.317  1.00  0.00     0.261 C 
BRANCH  35  36
ATOM     36  O   UNL     1      -2.626   4.061  -3.095  1.00  0.00    -0.460 OA
BRANCH  36  37
ATOM     37  C   UNL     1      -3.683   4.903  -3.125  1.00  0.00     0.338 C 
ATOM     38  O   UNL     1      -4.444   5.104  -4.069  1.00  0.00    -0.246 OA
BRANCH  37  39
ATOM     39  C   UNL     1      -3.944   5.450  -1.788  1.00  0.00     0.060 A 
ATOM     40  C   UNL     1      -5.160   5.125  -1.173  1.00  0.00     0.016 A 
ATOM     41  C   UNL     1      -3.076   6.378  -1.210  1.00  0.00     0.016 A 
ATOM     42  C   UNL     1      -5.536   5.763   0.005  1.00  0.00     0.010 A 
ATOM     43  C   UNL     1      -3.463   7.029  -0.035  1.00  0.00     0.010 A 
ATOM     44  C   UNL     1      -4.710   6.751   0.554  1.00  0.00    -0.014 A 
BRANCH  44  45
ATOM     45  C   UNL     1      -5.230   7.599   1.651  1.00  0.00     0.031 A 
ATOM     46  C   UNL     1      -5.802   8.950   1.319  1.00  0.00     0.074 A 
ATOM     47  C   UNL     1      -5.229   7.152   2.919  1.00  0.00     0.049 A 
ATOM     48  N   UNL     1      -6.293   9.860   2.119  1.00  0.00    -0.248 NA
ATOM     49  C   UNL     1      -5.827   9.323  -0.106  1.00  0.00     0.031 C 
ATOM     50  C   UNL     1      -4.746   5.841   3.352  1.00  0.00     0.029 A 
ATOM     51  N   UNL     1      -5.646   7.758   4.077  1.00  0.00    -0.354 N 
ATOM     52  C   UNL     1      -6.679  10.915   1.300  1.00  0.00     0.074 A 
ATOM     53  C   UNL     1      -6.342  10.543  -0.057  1.00  0.00     0.031 C 
ATOM     54  C   UNL     1      -4.885   5.746   4.685  1.00  0.00     0.029 A 
ATOM     55  C   UNL     1      -5.434   6.998   5.201  1.00  0.00     0.049 A 
ATOM     56  H   UNL     1      -6.059   8.651   4.099  1.00  0.00     0.167 HD
ATOM     57  C   UNL     1      -7.267  12.085   1.646  1.00  0.00     0.031 A 
ATOM     58  C   UNL     1      -5.637   7.290   6.501  1.00  0.00     0.031 A 
ATOM     59  C   UNL     1      -7.581  12.456   3.000  1.00  0.00     0.049 A 
ATOM     60  C   UNL     1      -6.220   8.629   6.870  1.00  0.00     0.074 A 
ATOM     61  C   UNL     1      -8.177  13.618   3.459  1.00  0.00     0.029 A 
ATOM     62  N   UNL     1      -7.317  11.675   4.116  1.00  0.00    -0.354 N 
ATOM     63  N   UNL     1      -6.595   9.610   6.082  1.00  0.00    -0.248 NA
ATOM     64  C   UNL     1      -6.415   8.896   8.301  1.00  0.00     0.031 C 
ATOM     65  C   UNL     1      -8.225  13.561   4.856  1.00  0.00     0.029 A 
ATOM     66  C   UNL     1      -7.715  12.338   5.263  1.00  0.00     0.049 A 
ATOM     67  H   UNL     1      -6.907  10.780   4.094  1.00  0.00     0.167 HD
ATOM     68  C   UNL     1      -7.093  10.601   6.922  1.00  0.00     0.074 A 
ATOM     69  C   UNL     1      -6.986  10.094   8.275  1.00  0.00     0.031 C 
ATOM     70  C   UNL     1      -7.598  11.819   6.603  1.00  0.00     0.031 A 
BRANCH  57  71
ATOM     71  C   UNL     1      -7.572  13.062   0.542  1.00  0.00    -0.014 A 
ATOM     72  C   UNL     1      -8.606  12.820  -0.380  1.00  0.00     0.010 A 
ATOM     73  C   UNL     1      -6.835  14.256   0.445  1.00  0.00     0.010 A 
ATOM     74  C   UNL     1      -8.871  13.736  -1.403  1.00  0.00     0.020 A 
ATOM     75  C   UNL     1      -7.113  15.187  -0.560  1.00  0.00     0.020 A 
ATOM     76  C   UNL     1      -8.120  14.912  -1.489  1.00  0.00     0.054 A 
BRANCH  76  77
ATOM     77  S   UNL     1      -8.496  16.091  -2.814  1.00  0.00     0.124 S 
ATOM     78  O   UNL     1      -7.966  15.403  -3.989  1.00  0.00    -0.237 OA
ATOM     79  O   UNL     1      -9.952  16.192  -2.750  1.00  0.00    -0.237 OA
ATOM     80  O   UNL     1      -7.774  17.299  -2.421  1.00  0.00    -0.744 OA
ENDBRANCH  76  77
ENDBRANCH  57  71
BRANCH  58  81
ATOM     81  C   UNL     1      -5.262   6.302   7.548  1.00  0.00    -0.014 A 
ATOM     82  C   UNL     1      -6.247   5.641   8.301  1.00  0.00     0.010 A 
ATOM     83  C   UNL     1      -3.906   6.011   7.790  1.00  0.00     0.010 A 
ATOM     84  C   UNL     1      -5.883   4.717   9.286  1.00  0.00     0.020 A 
ATOM     85  C   UNL     1      -3.540   5.068   8.754  1.00  0.00     0.020 A 
ATOM     86  C   UNL     1      -4.532   4.434   9.503  1.00  0.00     0.054 A 
BRANCH  86  87
ATOM     87  S   UNL     1      -4.086   3.188  10.745  1.00  0.00     0.124 S 
ATOM     88  O   UNL     1      -4.341   3.899  11.994  1.00  0.00    -0.237 OA
ATOM     89  O   UNL     1      -5.005   2.095  10.439  1.00  0.00    -0.237 OA
ATOM     90  O   UNL     1      -2.681   2.907  10.459  1.00  0.00    -0.744 OA
ENDBRANCH  86  87
ENDBRANCH  58  81
BRANCH  70  91
ATOM     91  C   UNL     1      -8.104  12.677   7.731  1.00  0.00    -0.014 A 
ATOM     92  C   UNL     1      -7.220  13.305   8.626  1.00  0.00     0.010 A 
ATOM     93  C   UNL     1      -9.487  12.904   7.862  1.00  0.00     0.010 A 
ATOM     94  C   UNL     1      -7.712  14.119   9.650  1.00  0.00     0.020 A 
ATOM     95  C   UNL     1      -9.981  13.740   8.867  1.00  0.00     0.020 A 
ATOM     96  C   UNL     1      -9.089  14.331   9.764  1.00  0.00     0.054 A 
BRANCH  96  97
ATOM     97  S   UNL     1      -9.700  15.426  11.075  1.00  0.00     0.124 S 
ATOM     98  O   UNL     1      -9.536  14.596  12.265  1.00  0.00    -0.237 OA
ATOM     99  O   UNL     1      -8.801  16.574  10.979  1.00  0.00    -0.237 OA
ATOM    100  O   UNL     1     -11.083  15.693  10.687  1.00  0.00    -0.744 OA
ENDBRANCH  96  97
ENDBRANCH  70  91
ENDBRANCH  44  45
ENDBRANCH  37  39
ENDBRANCH  36  37
ENDBRANCH  35  36
ENDBRANCH  34  35
ENDBRANCH   1  34
TORSDOF 25
