REMARK SMILES CC1(C)S[C@H](c2ccc(-c3ccccc3)o2)[NH2+][C@H]1C(=O)OCCOCCOC(=O)c1ccc(-c2c3nc(c(-c4ccc(S(=O)(=O)[O-])cc4)c4ccc([nH]4)c(-c4ccc(S(=O)(=O)[O-])cc4)c4nc(c(-c5ccc(S(=O)(=O)[O-])cc5)c5ccc2[nH]5)C=C4)C=C3)cc1
REMARK SMILES IDX 25 1 24 2 23 3 22 4 21 5 19 6 20 7 18 8 1 9 2 10 3 11 4 12
REMARK SMILES IDX 5 13 17 14 6 17 7 18 16 19 8 20 9 21 10 22 11 23 15 24 12 25
REMARK SMILES IDX 14 26 13 27 26 28 27 29 28 30 29 31 30 32 31 33 89 34 32 35
REMARK SMILES IDX 88 36 33 37 34 38 35 39 82 40 36 41 87 42 81 43 83 44 37 45
REMARK SMILES IDX 86 46 80 47 79 48 38 50 68 51 49 52 67 53 50 54 53 55 66 56
REMARK SMILES IDX 84 57 51 58 52 59 65 61 85 62 54 63 39 64 40 65 48 66 41 67
REMARK SMILES IDX 47 68 42 69 43 70 44 71 45 72 46 73 69 74 70 75 78 76 71 77
REMARK SMILES IDX 77 78 72 79 73 80 74 81 75 82 76 83 55 84 56 85 64 86 57 87
REMARK SMILES IDX 63 88 58 89 59 90 60 91 61 92 62 93
REMARK H PARENT 17 15 17 16 83 49 53 60
REMARK Flexibility Score: inf
ROOT
ATOM      1  C   UNL     1       2.874   3.269  -0.851  1.00  0.00     0.202 C 
ENDROOT
BRANCH   1   2
ATOM      2  O   UNL     1       2.574   4.604  -0.456  1.00  0.00    -0.374 OA
BRANCH   2   3
ATOM      3  C   UNL     1       1.910   4.760   0.800  1.00  0.00     0.202 C 
BRANCH   3   4
ATOM      4  C   UNL     1       0.389   4.557   0.803  1.00  0.00     0.261 C 
BRANCH   4   5
ATOM      5  O   UNL     1       0.019   3.164   0.711  1.00  0.00    -0.459 OA
BRANCH   5   6
ATOM      6  C   UNL     1      -0.335   2.721  -0.527  1.00  0.00     0.366 C 
ATOM      7  O   UNL     1      -0.366   3.426  -1.530  1.00  0.00    -0.245 OA
BRANCH   6   8
ATOM      8  C   UNL     1      -0.683   1.227  -0.549  1.00  0.00     0.310 C 
ATOM      9  C   UNL     1       1.041   0.536   1.318  1.00  0.00     0.030 C 
ATOM     10  C   UNL     1       0.370   0.217  -0.023  1.00  0.00     0.079 C 
ATOM     11  C   UNL     1       1.405  -0.152  -1.091  1.00  0.00     0.030 C 
ATOM     12  S   UNL     1      -0.646  -1.289   0.287  1.00  0.00    -0.078 SA
ATOM     13  C   UNL     1      -2.236  -0.437   0.046  1.00  0.00     0.311 C 
ATOM     14  N   UNL     1      -1.967   0.998   0.163  1.00  0.00    -0.316 N 
ATOM     15  H   UNL     1      -1.881   1.265   1.144  1.00  0.00     0.348 HD
ATOM     16  H   UNL     1      -2.722   1.556  -0.235  1.00  0.00     0.348 HD
BRANCH  13  17
ATOM     17  C   UNL     1      -2.859  -0.867  -1.254  1.00  0.00     0.172 A 
ATOM     18  C   UNL     1      -3.333  -2.098  -1.673  1.00  0.00     0.054 A 
ATOM     19  O   UNL     1      -3.039   0.054  -2.257  1.00  0.00    -0.454 OA
ATOM     20  C   UNL     1      -3.847  -1.916  -2.975  1.00  0.00     0.051 A 
ATOM     21  C   UNL     1      -3.654  -0.589  -3.291  1.00  0.00     0.134 A 
BRANCH  21  22
ATOM     22  C   UNL     1      -4.018   0.205  -4.452  1.00  0.00     0.017 A 
ATOM     23  C   UNL     1      -3.052   0.862  -5.222  1.00  0.00     0.012 A 
ATOM     24  C   UNL     1      -5.359   0.253  -4.859  1.00  0.00     0.012 A 
ATOM     25  C   UNL     1      -3.420   1.528  -6.396  1.00  0.00     0.001 A 
ATOM     26  C   UNL     1      -5.728   0.929  -6.023  1.00  0.00     0.001 A 
ATOM     27  C   UNL     1      -4.756   1.558  -6.798  1.00  0.00     0.000 A 
ENDBRANCH  21  22
ENDBRANCH  13  17
ENDBRANCH   6   8
ENDBRANCH   5   6
ENDBRANCH   4   5
ENDBRANCH   3   4
ENDBRANCH   2   3
ENDBRANCH   1   2
BRANCH   1  28
ATOM     28  C   UNL     1       4.181   2.671  -0.317  1.00  0.00     0.261 C 
BRANCH  28  29
ATOM     29  O   UNL     1       4.157   2.543   1.115  1.00  0.00    -0.460 OA
BRANCH  29  30
ATOM     30  C   UNL     1       4.830   3.519   1.768  1.00  0.00     0.338 C 
ATOM     31  O   UNL     1       5.524   4.392   1.265  1.00  0.00    -0.246 OA
BRANCH  30  32
ATOM     32  C   UNL     1       4.466   3.521   3.198  1.00  0.00     0.060 A 
ATOM     33  C   UNL     1       4.206   4.766   3.783  1.00  0.00     0.016 A 
ATOM     34  C   UNL     1       4.427   2.354   3.967  1.00  0.00     0.016 A 
ATOM     35  C   UNL     1       3.989   4.861   5.153  1.00  0.00     0.010 A 
ATOM     36  C   UNL     1       4.207   2.452   5.346  1.00  0.00     0.010 A 
ATOM     37  C   UNL     1       4.038   3.711   5.951  1.00  0.00    -0.014 A 
BRANCH  37  38
ATOM     38  C   UNL     1       4.084   3.863   7.426  1.00  0.00     0.031 A 
ATOM     39  C   UNL     1       5.409   3.729   8.130  1.00  0.00     0.074 A 
ATOM     40  C   UNL     1       2.978   4.186   8.119  1.00  0.00     0.049 A 
ATOM     41  N   UNL     1       5.688   3.859   9.401  1.00  0.00    -0.248 NA
ATOM     42  C   UNL     1       6.574   3.405   7.290  1.00  0.00     0.031 C 
ATOM     43  C   UNL     1       1.648   4.387   7.543  1.00  0.00     0.029 A 
ATOM     44  N   UNL     1       2.801   4.412   9.461  1.00  0.00    -0.354 N 
ATOM     45  C   UNL     1       7.055   3.627   9.514  1.00  0.00     0.074 A 
ATOM     46  C   UNL     1       7.542   3.311   8.190  1.00  0.00     0.031 C 
ATOM     47  C   UNL     1       0.792   4.713   8.527  1.00  0.00     0.029 A 
ATOM     48  C   UNL     1       1.504   4.712   9.803  1.00  0.00     0.049 A 
ATOM     49  H   UNL     1       3.534   4.365  10.116  1.00  0.00     0.167 HD
ATOM     50  C   UNL     1       7.837   3.683  10.619  1.00  0.00     0.031 A 
ATOM     51  C   UNL     1       0.952   4.946  11.010  1.00  0.00     0.031 A 
ATOM     52  C   UNL     1       7.346   3.988  11.937  1.00  0.00     0.049 A 
ATOM     53  C   UNL     1       1.830   4.935  12.235  1.00  0.00     0.074 A 
ATOM     54  C   UNL     1       8.059   4.085  13.119  1.00  0.00     0.029 A 
ATOM     55  N   UNL     1       6.018   4.239  12.249  1.00  0.00    -0.354 N 
ATOM     56  N   UNL     1       3.125   4.741  12.320  1.00  0.00    -0.248 NA
ATOM     57  C   UNL     1       1.172   5.189  13.524  1.00  0.00     0.031 C 
ATOM     58  C   UNL     1       7.152   4.330  14.156  1.00  0.00     0.029 A 
ATOM     59  C   UNL     1       5.885   4.460  13.609  1.00  0.00     0.049 A 
ATOM     60  H   UNL     1       5.279   4.258  11.599  1.00  0.00     0.167 HD
ATOM     61  C   UNL     1       3.441   4.878  13.668  1.00  0.00     0.074 A 
ATOM     62  C   UNL     1       2.204   5.189  14.356  1.00  0.00     0.031 C 
ATOM     63  C   UNL     1       4.646   4.762  14.282  1.00  0.00     0.031 A 
BRANCH  50  64
ATOM     64  C   UNL     1       9.302   3.369  10.454  1.00  0.00    -0.014 A 
ATOM     65  C   UNL     1      10.168   4.242   9.770  1.00  0.00     0.010 A 
ATOM     66  C   UNL     1       9.829   2.196  11.026  1.00  0.00     0.010 A 
ATOM     67  C   UNL     1      11.523   3.930   9.629  1.00  0.00     0.020 A 
ATOM     68  C   UNL     1      11.190   1.895  10.914  1.00  0.00     0.020 A 
ATOM     69  C   UNL     1      12.025   2.757  10.202  1.00  0.00     0.054 A 
BRANCH  69  70
ATOM     70  S   UNL     1      13.792   2.389  10.024  1.00  0.00     0.124 S 
ATOM     71  O   UNL     1      13.888   2.049   8.606  1.00  0.00    -0.237 OA
ATOM     72  O   UNL     1      14.421   3.649  10.411  1.00  0.00    -0.237 OA
ATOM     73  O   UNL     1      14.011   1.277  10.945  1.00  0.00    -0.744 OA
ENDBRANCH  69  70
ENDBRANCH  50  64
BRANCH  51  74
ATOM     74  C   UNL     1      -0.512   5.197  11.121  1.00  0.00    -0.014 A 
ATOM     75  C   UNL     1      -1.003   6.458  11.502  1.00  0.00     0.010 A 
ATOM     76  C   UNL     1      -1.428   4.165  10.843  1.00  0.00     0.010 A 
ATOM     77  C   UNL     1      -2.379   6.678  11.618  1.00  0.00     0.020 A 
ATOM     78  C   UNL     1      -2.804   4.389  10.927  1.00  0.00     0.020 A 
ATOM     79  C   UNL     1      -3.271   5.642  11.325  1.00  0.00     0.054 A 
BRANCH  79  80
ATOM     80  S   UNL     1      -5.054   5.965  11.431  1.00  0.00     0.124 S 
ATOM     81  O   UNL     1      -5.261   6.057  12.872  1.00  0.00    -0.237 OA
ATOM     82  O   UNL     1      -5.190   7.216  10.689  1.00  0.00    -0.237 OA
ATOM     83  O   UNL     1      -5.651   4.798  10.784  1.00  0.00    -0.744 OA
ENDBRANCH  79  80
ENDBRANCH  51  74
BRANCH  63  84
ATOM     84  C   UNL     1       4.695   5.009  15.768  1.00  0.00    -0.014 A 
ATOM     85  C   UNL     1       4.122   4.107  16.682  1.00  0.00     0.010 A 
ATOM     86  C   UNL     1       5.367   6.144  16.259  1.00  0.00     0.010 A 
ATOM     87  C   UNL     1       4.182   4.358  18.056  1.00  0.00     0.020 A 
ATOM     88  C   UNL     1       5.459   6.382  17.632  1.00  0.00     0.020 A 
ATOM     89  C   UNL     1       4.849   5.496  18.522  1.00  0.00     0.054 A 
BRANCH  89  90
ATOM     90  S   UNL     1       4.937   5.785  20.310  1.00  0.00     0.124 S 
ATOM     91  O   UNL     1       3.566   6.178  20.622  1.00  0.00    -0.237 OA
ATOM     92  O   UNL     1       5.349   4.481  20.825  1.00  0.00    -0.237 OA
ATOM     93  O   UNL     1       5.934   6.844  20.442  1.00  0.00    -0.744 OA
ENDBRANCH  89  90
ENDBRANCH  63  84
ENDBRANCH  37  38
ENDBRANCH  30  32
ENDBRANCH  29  30
ENDBRANCH  28  29
ENDBRANCH   1  28
TORSDOF 19
