REMARK SMILES O=C(OCCOCCOC(=O)c1nccnc1C(=O)Nc1n[nH]c2ncccc12)c1ccc(-c2c3nc(c(-c4ccc(S(=O)(=O)[O-])cc4)c4ccc([nH]4)c(-c4ccc(S(=O)(=O)[O-])cc4)c4nc(c(-c5ccc(S(=O)(=O)[O-])cc5)c5ccc2[nH]5)C=C4)C=C3)cc1
REMARK SMILES IDX 5 1 4 2 3 3 2 4 1 5 30 6 31 7 89 8 32 9 88 10 33 11 34 12
REMARK SMILES IDX 35 13 82 14 36 15 87 16 81 17 83 18 37 19 86 20 80 21 79 22
REMARK SMILES IDX 38 24 68 25 49 26 67 27 50 28 53 29 66 30 84 31 51 32 52 33
REMARK SMILES IDX 65 35 85 36 54 37 39 38 40 39 48 40 41 41 47 42 42 43 43 44
REMARK SMILES IDX 44 45 45 46 46 47 69 48 70 49 78 50 71 51 77 52 72 53 73 54
REMARK SMILES IDX 74 55 75 56 76 57 55 58 56 59 64 60 57 61 63 62 58 63 59 64
REMARK SMILES IDX 60 65 61 66 62 67 6 68 7 69 8 70 9 71 10 72 11 73 12 74
REMARK SMILES IDX 13 75 17 76 14 77 16 78 15 79 18 80 19 81 20 82 21 84 22 85
REMARK SMILES IDX 29 86 23 87 24 88 28 89 25 91 27 92 26 93
REMARK H PARENT 83 23 53 34 20 83 23 90
REMARK Flexibility Score: inf
ROOT
ATOM      1  C   UNL     1       4.191  -1.082  -0.672  1.00  0.00     0.202 C 
ENDROOT
BRANCH   1   2
ATOM      2  C   UNL     1       3.539  -1.996   0.365  1.00  0.00     0.261 C 
BRANCH   2   3
ATOM      3  O   UNL     1       2.136  -1.734   0.546  1.00  0.00    -0.460 OA
BRANCH   3   4
ATOM      4  C   UNL     1       1.595  -0.979   1.540  1.00  0.00     0.338 C 
ATOM      5  O   UNL     1       0.379  -0.951   1.701  1.00  0.00    -0.246 OA
BRANCH   4   6
ATOM      6  C   UNL     1       2.455  -0.195   2.460  1.00  0.00     0.060 A 
ATOM      7  C   UNL     1       3.408   0.715   2.008  1.00  0.00     0.016 A 
ATOM      8  C   UNL     1       2.235  -0.300   3.833  1.00  0.00     0.016 A 
ATOM      9  C   UNL     1       4.293   1.328   2.872  1.00  0.00     0.010 A 
ATOM     10  C   UNL     1       3.035   0.427   4.720  1.00  0.00     0.010 A 
ATOM     11  C   UNL     1       4.114   1.191   4.240  1.00  0.00    -0.014 A 
BRANCH  11  12
ATOM     12  C   UNL     1       5.152   1.718   5.147  1.00  0.00     0.031 A 
ATOM     13  C   UNL     1       5.919   0.722   5.966  1.00  0.00     0.074 A 
ATOM     14  C   UNL     1       5.470   3.027   5.153  1.00  0.00     0.049 A 
ATOM     15  N   UNL     1       6.719   0.918   6.975  1.00  0.00    -0.248 NA
ATOM     16  C   UNL     1       5.742  -0.697   5.605  1.00  0.00     0.031 C 
ATOM     17  C   UNL     1       4.896   4.050   4.271  1.00  0.00     0.029 A 
ATOM     18  N   UNL     1       6.380   3.719   5.906  1.00  0.00    -0.354 N 
ATOM     19  C   UNL     1       7.064  -0.351   7.426  1.00  0.00     0.074 A 
ATOM     20  C   UNL     1       6.400  -1.309   6.575  1.00  0.00     0.031 C 
ATOM     21  C   UNL     1       5.506   5.224   4.500  1.00  0.00     0.029 A 
ATOM     22  C   UNL     1       6.423   5.064   5.619  1.00  0.00     0.049 A 
ATOM     23  H   UNL     1       6.949   3.295   6.588  1.00  0.00     0.167 HD
ATOM     24  C   UNL     1       7.852  -0.672   8.476  1.00  0.00     0.031 A 
ATOM     25  C   UNL     1       7.092   6.056   6.236  1.00  0.00     0.031 A 
ATOM     26  C   UNL     1       8.520   0.322   9.269  1.00  0.00     0.049 A 
ATOM     27  C   UNL     1       7.907   5.687   7.446  1.00  0.00     0.074 A 
ATOM     28  C   UNL     1       9.305   0.155  10.393  1.00  0.00     0.029 A 
ATOM     29  N   UNL     1       8.486   1.685   8.995  1.00  0.00    -0.354 N 
ATOM     30  N   UNL     1       8.129   4.496   7.956  1.00  0.00    -0.248 NA
ATOM     31  C   UNL     1       8.537   6.788   8.180  1.00  0.00     0.031 C 
ATOM     32  C   UNL     1       9.708   1.425  10.824  1.00  0.00     0.029 A 
ATOM     33  C   UNL     1       9.226   2.375   9.933  1.00  0.00     0.049 A 
ATOM     34  H   UNL     1       8.005   2.097   8.241  1.00  0.00     0.167 HD
ATOM     35  C   UNL     1       8.941   4.702   9.063  1.00  0.00     0.074 A 
ATOM     36  C   UNL     1       9.184   6.132   9.134  1.00  0.00     0.031 C 
ATOM     37  C   UNL     1       9.439   3.802   9.948  1.00  0.00     0.031 A 
BRANCH  24  38
ATOM     38  C   UNL     1       7.924  -2.126   8.861  1.00  0.00    -0.014 A 
ATOM     39  C   UNL     1       8.572  -3.083   8.059  1.00  0.00     0.010 A 
ATOM     40  C   UNL     1       7.265  -2.551  10.029  1.00  0.00     0.010 A 
ATOM     41  C   UNL     1       8.506  -4.443   8.385  1.00  0.00     0.020 A 
ATOM     42  C   UNL     1       7.222  -3.905  10.376  1.00  0.00     0.020 A 
ATOM     43  C   UNL     1       7.822  -4.845   9.537  1.00  0.00     0.054 A 
BRANCH  43  44
ATOM     44  S   UNL     1       7.728  -6.614   9.927  1.00  0.00     0.124 S 
ATOM     45  O   UNL     1       6.771  -7.091   8.930  1.00  0.00    -0.237 OA
ATOM     46  O   UNL     1       9.106  -7.058   9.735  1.00  0.00    -0.237 OA
ATOM     47  O   UNL     1       7.253  -6.641  11.308  1.00  0.00    -0.744 OA
ENDBRANCH  43  44
ENDBRANCH  24  38
BRANCH  25  48
ATOM     48  C   UNL     1       6.960   7.469   5.775  1.00  0.00    -0.014 A 
ATOM     49  C   UNL     1       8.069   8.167   5.264  1.00  0.00     0.010 A 
ATOM     50  C   UNL     1       5.717   8.129   5.835  1.00  0.00     0.010 A 
ATOM     51  C   UNL     1       7.941   9.495   4.839  1.00  0.00     0.020 A 
ATOM     52  C   UNL     1       5.577   9.444   5.381  1.00  0.00     0.020 A 
ATOM     53  C   UNL     1       6.694  10.125   4.898  1.00  0.00     0.054 A 
BRANCH  53  54
ATOM     54  S   UNL     1       6.543  11.834   4.304  1.00  0.00     0.124 S 
ATOM     55  O   UNL     1       7.228  12.582   5.353  1.00  0.00    -0.237 OA
ATOM     56  O   UNL     1       7.225  11.781   3.014  1.00  0.00    -0.237 OA
ATOM     57  O   UNL     1       5.098  12.042   4.228  1.00  0.00    -0.744 OA
ENDBRANCH  53  54
ENDBRANCH  25  48
BRANCH  37  58
ATOM     58  C   UNL     1      10.335   4.342  11.023  1.00  0.00    -0.014 A 
ATOM     59  C   UNL     1       9.818   5.071  12.107  1.00  0.00     0.010 A 
ATOM     60  C   UNL     1      11.712   4.061  10.968  1.00  0.00     0.010 A 
ATOM     61  C   UNL     1      10.672   5.541  13.104  1.00  0.00     0.020 A 
ATOM     62  C   UNL     1      12.564   4.502  11.979  1.00  0.00     0.020 A 
ATOM     63  C   UNL     1      12.040   5.253  13.033  1.00  0.00     0.054 A 
BRANCH  63  64
ATOM     64  S   UNL     1      13.123   5.834  14.364  1.00  0.00     0.124 S 
ATOM     65  O   UNL     1      13.226   7.260  14.068  1.00  0.00    -0.237 OA
ATOM     66  O   UNL     1      12.366   5.493  15.566  1.00  0.00    -0.237 OA
ATOM     67  O   UNL     1      14.351   5.066  14.170  1.00  0.00    -0.744 OA
ENDBRANCH  63  64
ENDBRANCH  37  58
ENDBRANCH  11  12
ENDBRANCH   4   6
ENDBRANCH   3   4
ENDBRANCH   2   3
ENDBRANCH   1   2
BRANCH   1  68
ATOM     68  O   UNL     1       3.601   0.197  -0.824  1.00  0.00    -0.374 OA
BRANCH  68  69
ATOM     69  C   UNL     1       2.334   0.314  -1.465  1.00  0.00     0.202 C 
BRANCH  69  70
ATOM     70  C   UNL     1       2.121   1.771  -2.270  1.00  0.00     0.261 C 
BRANCH  70  71
ATOM     71  O   UNL     1       3.211   2.570  -3.797  1.00  0.00    -0.458 OA
BRANCH  71  72
ATOM     72  C   UNL     1       4.239   2.814  -4.767  1.00  0.00     0.359 C 
ATOM     73  O   UNL     1       4.419   3.946  -5.215  1.00  0.00    -0.244 OA
BRANCH  72  74
ATOM     74  C   UNL     1       5.068   1.697  -5.359  1.00  0.00     0.179 A 
ATOM     75  N   UNL     1       4.552   1.408  -6.614  1.00  0.00    -0.245 NA
ATOM     76  C   UNL     1       6.132   0.948  -4.816  1.00  0.00     0.161 A 
ATOM     77  C   UNL     1       5.102   0.395  -7.305  1.00  0.00     0.132 A 
ATOM     78  N   UNL     1       6.623  -0.110  -5.562  1.00  0.00    -0.247 NA
ATOM     79  C   UNL     1       6.118  -0.358  -6.783  1.00  0.00     0.132 A 
BRANCH  76  80
ATOM     80  C   UNL     1       6.953   1.005  -3.519  1.00  0.00     0.278 C 
ATOM     81  O   UNL     1       7.986   0.320  -3.461  1.00  0.00    -0.267 OA
ATOM     82  N   UNL     1       6.720   1.761  -2.403  1.00  0.00    -0.303 N 
ATOM     83  H   UNL     1       7.503   1.919  -1.828  1.00  0.00     0.172 HD
BRANCH  82  84
ATOM     84  C   UNL     1       5.565   2.321  -1.980  1.00  0.00     0.164 A 
ATOM     85  N   UNL     1       5.595   3.417  -1.210  1.00  0.00    -0.155 NA
ATOM     86  C   UNL     1       4.298   1.932  -2.404  1.00  0.00     0.063 A 
ATOM     87  N   UNL     1       4.439   4.118  -1.418  1.00  0.00    -0.259 N 
ATOM     88  C   UNL     1       3.520   3.470  -2.185  1.00  0.00     0.157 A 
ATOM     89  C   UNL     1       3.516   0.702  -3.514  1.00  0.00     0.017 A 
ATOM     90  H   UNL     1       4.284   5.015  -1.043  1.00  0.00     0.192 HD
ATOM     91  N   UNL     1       2.063   3.931  -2.954  1.00  0.00    -0.237 NA
ATOM     92  C   UNL     1       2.015   1.156  -4.374  1.00  0.00     0.021 A 
ATOM     93  C   UNL     1       1.375   2.774  -4.078  1.00  0.00     0.113 A 
ENDBRANCH  82  84
ENDBRANCH  76  80
ENDBRANCH  72  74
ENDBRANCH  71  72
ENDBRANCH  70  71
ENDBRANCH  69  70
ENDBRANCH  68  69
ENDBRANCH   1  68
TORSDOF 19
