REMARK SMILES COc1cccc(-c2nn(-c3cc4c(cc3C(N)=O)OCO4)cc2C(=O)OCCOCCOC(=O)c2ccc(-c3c4nc(c(-c5ccc(S(=O)(=O)[O-])cc5)c5ccc([nH]5)c(-c5ccc(S(=O)(=O)[O-])cc5)c5nc(c(-c6ccc(S(=O)(=O)[O-])cc6)c6ccc3[nH]6)C=C5)C=C4)cc2)c1
REMARK SMILES IDX 31 1 30 2 29 3 28 4 27 5 25 6 26 7 24 8 8 9 9 10 10 11 23 12
REMARK SMILES IDX 7 13 3 14 4 15 96 16 5 17 6 18 2 19 1 20 11 21 12 22 16 23
REMARK SMILES IDX 13 24 15 25 14 26 22 27 20 28 21 29 17 30 18 31 19 32 32 35
REMARK SMILES IDX 33 36 34 37 35 38 36 39 37 40 95 41 38 42 94 43 39 44 40 45
REMARK SMILES IDX 41 46 88 47 42 48 93 49 87 50 89 51 43 52 92 53 86 54 85 55
REMARK SMILES IDX 44 57 74 58 55 59 73 60 56 61 59 62 72 63 90 64 57 65 58 66
REMARK SMILES IDX 71 68 91 69 60 70 45 71 46 72 54 73 47 74 53 75 48 76 49 77
REMARK SMILES IDX 50 78 51 79 52 80 75 81 76 82 84 83 77 84 83 85 78 86 79 87
REMARK SMILES IDX 80 88 81 89 82 90 61 91 62 92 70 93 63 94 69 95 64 96 65 97
REMARK SMILES IDX 66 98 67 99 68 100
REMARK H PARENT 18 33 18 34 89 56 59 67
REMARK Flexibility Score: inf
ROOT
ATOM      1  C   UNL     1       1.867   6.375  -2.679  1.00  0.00     0.202 C 
ENDROOT
BRANCH   1   2
ATOM      2  O   UNL     1       1.642   7.329  -1.649  1.00  0.00    -0.374 OA
BRANCH   2   3
ATOM      3  C   UNL     1       2.733   7.874  -0.908  1.00  0.00     0.202 C 
BRANCH   3   4
ATOM      4  C   UNL     1       3.609   6.934  -0.079  1.00  0.00     0.261 C 
BRANCH   4   5
ATOM      5  O   UNL     1       4.397   6.057  -0.896  1.00  0.00    -0.460 OA
BRANCH   5   6
ATOM      6  C   UNL     1       4.027   4.742  -0.858  1.00  0.00     0.342 C 
ATOM      7  O   UNL     1       3.148   4.287  -0.143  1.00  0.00    -0.246 OA
BRANCH   6   8
ATOM      8  C   UNL     1       4.732   3.946  -1.835  1.00  0.00     0.106 A 
ATOM      9  C   UNL     1       4.255   2.847  -2.603  1.00  0.00     0.107 A 
ATOM     10  N   UNL     1       5.260   2.257  -3.277  1.00  0.00    -0.167 NA
ATOM     11  N   UNL     1       6.369   2.856  -2.766  1.00  0.00    -0.239 N 
ATOM     12  C   UNL     1       6.053   4.070  -2.204  1.00  0.00     0.131 A 
BRANCH   9  13
ATOM     13  C   UNL     1       2.869   2.408  -2.715  1.00  0.00     0.007 A 
ATOM     14  C   UNL     1       0.998   1.131  -1.859  1.00  0.00     0.119 A 
ATOM     15  C   UNL     1       0.148   1.789  -2.752  1.00  0.00     0.046 A 
ATOM     16  C   UNL     1       2.360   1.443  -1.838  1.00  0.00     0.056 A 
ATOM     17  C   UNL     1       0.650   2.741  -3.635  1.00  0.00     0.005 A 
ATOM     18  C   UNL     1       2.014   3.031  -3.632  1.00  0.00     0.011 A 
BRANCH  14  19
ATOM     19  O   UNL     1       0.394   0.174  -1.088  1.00  0.00    -0.497 OA
ATOM     20  C   UNL     1       0.973  -0.041   0.193  1.00  0.00     0.278 C 
ENDBRANCH  14  19
ENDBRANCH   9  13
BRANCH  11  21
ATOM     21  C   UNL     1       7.658   2.274  -2.856  1.00  0.00     0.081 A 
ATOM     22  C   UNL     1       7.960   1.523  -4.009  1.00  0.00     0.079 A 
ATOM     23  C   UNL     1       8.630   2.441  -1.820  1.00  0.00     0.069 A 
ATOM     24  C   UNL     1       9.242   1.035  -4.134  1.00  0.00     0.167 A 
ATOM     25  C   UNL     1       9.953   2.037  -2.062  1.00  0.00     0.066 A 
ATOM     26  C   UNL     1      10.214   1.318  -3.206  1.00  0.00     0.166 A 
ATOM     27  O   UNL     1       9.710   0.233  -5.128  1.00  0.00    -0.454 OA
ATOM     28  O   UNL     1      11.409   0.741  -3.502  1.00  0.00    -0.454 OA
ATOM     29  C   UNL     1      11.022  -0.089  -4.617  1.00  0.00     0.468 C 
BRANCH  23  30
ATOM     30  C   UNL     1       8.237   2.761  -0.397  1.00  0.00     0.251 C 
ATOM     31  N   UNL     1       9.191   2.719   0.583  1.00  0.00    -0.366 N 
ATOM     32  O   UNL     1       7.086   2.959  -0.032  1.00  0.00    -0.269 OA
ATOM     33  H   UNL     1      10.133   2.562   0.347  1.00  0.00     0.159 HD
ATOM     34  H   UNL     1       8.934   2.845   1.526  1.00  0.00     0.159 HD
ENDBRANCH  23  30
ENDBRANCH  11  21
ENDBRANCH   6   8
ENDBRANCH   5   6
ENDBRANCH   4   5
ENDBRANCH   3   4
ENDBRANCH   2   3
ENDBRANCH   1   2
BRANCH   1  35
ATOM     35  C   UNL     1       2.568   6.802  -3.962  1.00  0.00     0.261 C 
BRANCH  35  36
ATOM     36  O   UNL     1       3.742   7.549  -3.720  1.00  0.00    -0.460 OA
BRANCH  36  37
ATOM     37  C   UNL     1       3.523   8.884  -3.757  1.00  0.00     0.338 C 
ATOM     38  O   UNL     1       2.451   9.457  -3.709  1.00  0.00    -0.246 OA
BRANCH  37  39
ATOM     39  C   UNL     1       4.798   9.547  -4.035  1.00  0.00     0.060 A 
ATOM     40  C   UNL     1       4.708  10.916  -4.283  1.00  0.00     0.016 A 
ATOM     41  C   UNL     1       5.900   8.774  -4.430  1.00  0.00     0.016 A 
ATOM     42  C   UNL     1       5.577  11.451  -5.197  1.00  0.00     0.010 A 
ATOM     43  C   UNL     1       6.759   9.307  -5.352  1.00  0.00     0.010 A 
ATOM     44  C   UNL     1       6.508  10.600  -5.800  1.00  0.00    -0.014 A 
BRANCH  44  45
ATOM     45  C   UNL     1       7.298  11.132  -6.879  1.00  0.00     0.031 A 
ATOM     46  C   UNL     1       8.368  12.011  -6.377  1.00  0.00     0.074 A 
ATOM     47  C   UNL     1       7.110  10.769  -8.159  1.00  0.00     0.049 A 
ATOM     48  N   UNL     1       8.383  13.301  -6.391  1.00  0.00    -0.248 NA
ATOM     49  C   UNL     1       9.407  11.400  -5.530  1.00  0.00     0.031 C 
ATOM     50  C   UNL     1       6.272   9.698  -8.704  1.00  0.00     0.029 A 
ATOM     51  N   UNL     1       7.746  11.236  -9.258  1.00  0.00    -0.354 N 
ATOM     52  C   UNL     1       9.572  13.650  -5.770  1.00  0.00     0.074 A 
ATOM     53  C   UNL     1      10.003  12.486  -5.040  1.00  0.00     0.031 C 
ATOM     54  C   UNL     1       6.672   9.432  -9.971  1.00  0.00     0.029 A 
ATOM     55  C   UNL     1       7.697  10.390 -10.356  1.00  0.00     0.049 A 
ATOM     56  H   UNL     1       8.206  12.105  -9.277  1.00  0.00     0.167 HD
ATOM     57  C   UNL     1      10.277  14.743  -6.166  1.00  0.00     0.031 A 
ATOM     58  C   UNL     1       8.537  10.431 -11.426  1.00  0.00     0.031 A 
ATOM     59  C   UNL     1       9.481  15.621  -6.986  1.00  0.00     0.049 A 
ATOM     60  C   UNL     1       9.152  11.792 -11.432  1.00  0.00     0.074 A 
ATOM     61  C   UNL     1       8.285  16.289  -6.801  1.00  0.00     0.029 A 
ATOM     62  N   UNL     1       9.671  15.553  -8.349  1.00  0.00    -0.354 N 
ATOM     63  N   UNL     1       8.458  12.884 -11.625  1.00  0.00    -0.248 NA
ATOM     64  C   UNL     1      10.401  11.976 -10.702  1.00  0.00     0.031 C 
ATOM     65  C   UNL     1       7.592  16.147  -8.039  1.00  0.00     0.029 A 
ATOM     66  C   UNL     1       8.432  15.483  -8.935  1.00  0.00     0.049 A 
ATOM     67  H   UNL     1      10.537  15.553  -8.817  1.00  0.00     0.167 HD
ATOM     68  C   UNL     1       8.945  13.793 -10.692  1.00  0.00     0.074 A 
ATOM     69  C   UNL     1      10.188  13.197 -10.197  1.00  0.00     0.031 C 
ATOM     70  C   UNL     1       8.159  14.788 -10.178  1.00  0.00     0.031 A 
BRANCH  57  71
ATOM     71  C   UNL     1      11.782  14.768  -6.179  1.00  0.00    -0.014 A 
ATOM     72  C   UNL     1      12.435  15.962  -6.532  1.00  0.00     0.010 A 
ATOM     73  C   UNL     1      12.571  13.598  -6.119  1.00  0.00     0.010 A 
ATOM     74  C   UNL     1      13.795  15.968  -6.867  1.00  0.00     0.020 A 
ATOM     75  C   UNL     1      13.934  13.601  -6.402  1.00  0.00     0.020 A 
ATOM     76  C   UNL     1      14.531  14.784  -6.808  1.00  0.00     0.054 A 
BRANCH  76  77
ATOM     77  S   UNL     1      16.260  14.783  -7.328  1.00  0.00     0.124 S 
ATOM     78  O   UNL     1      16.144  15.077  -8.753  1.00  0.00    -0.237 OA
ATOM     79  O   UNL     1      16.828  15.845  -6.503  1.00  0.00    -0.237 OA
ATOM     80  O   UNL     1      16.716  13.434  -7.000  1.00  0.00    -0.744 OA
ENDBRANCH  76  77
ENDBRANCH  57  71
BRANCH  58  81
ATOM     81  C   UNL     1       9.145   9.247 -12.103  1.00  0.00    -0.014 A 
ATOM     82  C   UNL     1       9.900   9.367 -13.286  1.00  0.00     0.010 A 
ATOM     83  C   UNL     1       9.196   8.004 -11.435  1.00  0.00     0.010 A 
ATOM     84  C   UNL     1      10.704   8.304 -13.751  1.00  0.00     0.020 A 
ATOM     85  C   UNL     1       9.984   6.941 -11.893  1.00  0.00     0.020 A 
ATOM     86  C   UNL     1      10.753   7.102 -13.039  1.00  0.00     0.054 A 
BRANCH  86  87
ATOM     87  S   UNL     1      11.911   5.790 -13.539  1.00  0.00     0.124 S 
ATOM     88  O   UNL     1      11.323   5.312 -14.786  1.00  0.00    -0.237 OA
ATOM     89  O   UNL     1      13.173   6.511 -13.669  1.00  0.00    -0.237 OA
ATOM     90  O   UNL     1      11.857   4.841 -12.427  1.00  0.00    -0.744 OA
ENDBRANCH  86  87
ENDBRANCH  58  81
BRANCH  70  91
ATOM     91  C   UNL     1       6.803  15.053 -10.799  1.00  0.00    -0.014 A 
ATOM     92  C   UNL     1       5.754  14.112 -10.839  1.00  0.00     0.010 A 
ATOM     93  C   UNL     1       6.525  16.376 -11.184  1.00  0.00     0.010 A 
ATOM     94  C   UNL     1       4.470  14.486 -11.274  1.00  0.00     0.020 A 
ATOM     95  C   UNL     1       5.247  16.759 -11.599  1.00  0.00     0.020 A 
ATOM     96  C   UNL     1       4.226  15.810 -11.651  1.00  0.00     0.054 A 
BRANCH  96  97
ATOM     97  S   UNL     1       2.559  16.306 -12.174  1.00  0.00     0.124 S 
ATOM     98  O   UNL     1       2.397  15.591 -13.436  1.00  0.00    -0.237 OA
ATOM     99  O   UNL     1       1.720  15.840 -11.073  1.00  0.00    -0.237 OA
ATOM    100  O   UNL     1       2.651  17.761 -12.297  1.00  0.00    -0.744 OA
ENDBRANCH  96  97
ENDBRANCH  70  91
ENDBRANCH  44  45
ENDBRANCH  37  39
ENDBRANCH  36  37
ENDBRANCH  35  36
ENDBRANCH   1  35
TORSDOF 21
