REMARK SMILES CC[C@H]1CCCCN1S(=O)(=O)c1ccc2oc(C(=O)OCCOCCOC(=O)c3ccc(-c4c5nc(c(-c6ccc(S(=O)(=O)[O-])cc6)c6ccc([nH]6)c(-c6ccc(S(=O)(=O)[O-])cc6)c6nc(c(-c7ccc(S(=O)(=O)[O-])cc7)c7ccc4[nH]7)C=C6)C=C5)cc3)c(C)c2c1
REMARK SMILES IDX 23 1 22 2 21 3 20 4 18 5 19 6 17 7 12 8 13 9 92 10 14 11
REMARK SMILES IDX 91 12 15 13 89 14 16 15 90 16 9 17 10 18 11 19 8 20 3 21
REMARK SMILES IDX 4 22 5 23 7 24 6 25 2 26 1 27 24 28 25 29 26 30 27 31 28 32
REMARK SMILES IDX 29 33 30 34 88 35 31 36 87 37 32 38 33 39 34 40 81 41 35 42
REMARK SMILES IDX 86 43 80 44 82 45 36 46 85 47 79 48 78 49 37 51 67 52 48 53
REMARK SMILES IDX 66 54 49 55 52 56 65 57 83 58 50 59 51 60 64 62 84 63 53 64
REMARK SMILES IDX 38 65 39 66 47 67 40 68 46 69 41 70 42 71 43 72 44 73 45 74
REMARK SMILES IDX 68 75 69 76 77 77 70 78 76 79 71 80 72 81 73 82 74 83 75 84
REMARK SMILES IDX 54 85 55 86 63 87 56 88 62 89 57 90 58 91 59 92 60 93 61 94
REMARK H PARENT 82 50 52 61
REMARK Flexibility Score: inf
ROOT
ATOM      1  O   UNL     1       0.400  11.087  -5.494  1.00  0.00    -0.374 OA
ENDROOT
BRANCH   1   2
ATOM      2  C   UNL     1       0.434  11.909  -4.325  1.00  0.00     0.202 C 
BRANCH   2   3
ATOM      3  C   UNL     1      -0.718  11.663  -3.348  1.00  0.00     0.261 C 
BRANCH   3   4
ATOM      4  O   UNL     1      -0.563  10.373  -2.733  1.00  0.00    -0.457 OA
BRANCH   4   5
ATOM      5  C   UNL     1      -1.451   9.417  -3.120  1.00  0.00     0.374 C 
ATOM      6  O   UNL     1      -2.473   9.635  -3.760  1.00  0.00    -0.242 OA
BRANCH   5   7
ATOM      7  C   UNL     1      -0.966   8.104  -2.746  1.00  0.00     0.215 A 
ATOM      8  C   UNL     1       0.182   3.837  -1.564  1.00  0.00     0.083 A 
ATOM      9  C   UNL     1      -0.886   3.568  -2.429  1.00  0.00     0.025 A 
ATOM     10  C   UNL     1       0.699   5.137  -1.436  1.00  0.00     0.034 A 
ATOM     11  C   UNL     1      -1.522   4.610  -3.117  1.00  0.00     0.049 A 
ATOM     12  C   UNL     1      -0.009   6.201  -2.012  1.00  0.00     0.025 A 
ATOM     13  C   UNL     1      -1.081   5.901  -2.833  1.00  0.00     0.135 A 
ATOM     14  C   UNL     1       0.077   7.627  -1.950  1.00  0.00     0.010 A 
ATOM     15  O   UNL     1      -1.637   7.041  -3.302  1.00  0.00    -0.449 OA
ATOM     16  C   UNL     1       1.055   8.382  -1.118  1.00  0.00     0.049 C 
BRANCH   8  17
ATOM     17  S   UNL     1       1.035   2.513  -0.735  1.00  0.00     0.243 S 
ATOM     18  O   UNL     1       2.425   2.704  -1.079  1.00  0.00    -0.207 OA
ATOM     19  O   UNL     1       0.356   1.279  -1.082  1.00  0.00    -0.207 OA
BRANCH  17  20
ATOM     20  N   UNL     1       0.818   2.736   0.952  1.00  0.00    -0.195 NA
ATOM     21  C   UNL     1       1.246   1.586   1.828  1.00  0.00     0.073 C 
ATOM     22  C   UNL     1       0.375   1.643   3.105  1.00  0.00     0.020 C 
ATOM     23  C   UNL     1       0.524   2.973   3.846  1.00  0.00     0.003 C 
ATOM     24  C   UNL     1       1.054   4.049   1.592  1.00  0.00     0.103 C 
ATOM     25  C   UNL     1       0.275   4.145   2.908  1.00  0.00     0.017 C 
BRANCH  21  26
ATOM     26  C   UNL     1       2.737   1.556   2.241  1.00  0.00     0.017 C 
ATOM     27  C   UNL     1       3.779   1.536   1.141  1.00  0.00     0.005 C 
ENDBRANCH  21  26
ENDBRANCH  17  20
ENDBRANCH   8  17
ENDBRANCH   5   7
ENDBRANCH   4   5
ENDBRANCH   3   4
ENDBRANCH   2   3
ENDBRANCH   1   2
BRANCH   1  28
ATOM     28  C   UNL     1       1.035   9.810  -5.395  1.00  0.00     0.202 C 
BRANCH  28  29
ATOM     29  C   UNL     1       2.547   9.807  -5.640  1.00  0.00     0.261 C 
BRANCH  29  30
ATOM     30  O   UNL     1       3.250  10.450  -4.561  1.00  0.00    -0.460 OA
BRANCH  30  31
ATOM     31  C   UNL     1       3.709  11.691  -4.852  1.00  0.00     0.338 C 
ATOM     32  O   UNL     1       3.662  12.254  -5.933  1.00  0.00    -0.246 OA
BRANCH  31  33
ATOM     33  C   UNL     1       4.141  12.380  -3.619  1.00  0.00     0.060 A 
ATOM     34  C   UNL     1       3.759  13.720  -3.475  1.00  0.00     0.016 A 
ATOM     35  C   UNL     1       4.961  11.771  -2.666  1.00  0.00     0.016 A 
ATOM     36  C   UNL     1       4.266  14.481  -2.427  1.00  0.00     0.010 A 
ATOM     37  C   UNL     1       5.471  12.539  -1.611  1.00  0.00     0.010 A 
ATOM     38  C   UNL     1       5.168  13.910  -1.521  1.00  0.00    -0.014 A 
BRANCH  38  39
ATOM     39  C   UNL     1       5.938  14.803  -0.620  1.00  0.00     0.031 A 
ATOM     40  C   UNL     1       7.338  15.195  -1.016  1.00  0.00     0.074 A 
ATOM     41  C   UNL     1       5.380  15.318   0.491  1.00  0.00     0.049 A 
ATOM     42  N   UNL     1       8.178  15.994  -0.410  1.00  0.00    -0.248 NA
ATOM     43  C   UNL     1       7.860  14.608  -2.261  1.00  0.00     0.031 C 
ATOM     44  C   UNL     1       4.020  15.052   0.958  1.00  0.00     0.029 A 
ATOM     45  N   UNL     1       5.894  16.185   1.423  1.00  0.00    -0.354 N 
ATOM     46  C   UNL     1       9.325  16.003  -1.195  1.00  0.00     0.074 A 
ATOM     47  C   UNL     1       9.088  15.102  -2.302  1.00  0.00     0.031 C 
ATOM     48  C   UNL     1       3.806  15.745   2.091  1.00  0.00     0.029 A 
ATOM     49  C   UNL     1       5.018  16.484   2.439  1.00  0.00     0.049 A 
ATOM     50  H   UNL     1       6.804  16.556   1.369  1.00  0.00     0.167 HD
ATOM     51  C   UNL     1      10.470  16.704  -1.020  1.00  0.00     0.031 A 
ATOM     52  C   UNL     1       5.178  17.262   3.528  1.00  0.00     0.031 A 
ATOM     53  C   UNL     1      10.710  17.595   0.082  1.00  0.00     0.049 A 
ATOM     54  C   UNL     1       6.479  17.996   3.728  1.00  0.00     0.074 A 
ATOM     55  C   UNL     1      11.837  18.354   0.347  1.00  0.00     0.029 A 
ATOM     56  N   UNL     1       9.808  17.848   1.104  1.00  0.00    -0.354 N 
ATOM     57  N   UNL     1       7.548  18.003   2.967  1.00  0.00    -0.248 NA
ATOM     58  C   UNL     1       6.586  18.842   4.925  1.00  0.00     0.031 C 
ATOM     59  C   UNL     1      11.633  19.031   1.554  1.00  0.00     0.029 A 
ATOM     60  C   UNL     1      10.357  18.739   2.010  1.00  0.00     0.049 A 
ATOM     61  H   UNL     1       8.909  17.452   1.175  1.00  0.00     0.167 HD
ATOM     62  C   UNL     1       8.440  18.882   3.575  1.00  0.00     0.074 A 
ATOM     63  C   UNL     1       7.782  19.391   4.761  1.00  0.00     0.031 C 
ATOM     64  C   UNL     1       9.688  19.241   3.183  1.00  0.00     0.031 A 
BRANCH  51  65
ATOM     65  C   UNL     1      11.565  16.506  -2.035  1.00  0.00    -0.014 A 
ATOM     66  C   UNL     1      11.453  17.023  -3.339  1.00  0.00     0.010 A 
ATOM     67  C   UNL     1      12.733  15.812  -1.672  1.00  0.00     0.010 A 
ATOM     68  C   UNL     1      12.472  16.814  -4.272  1.00  0.00     0.020 A 
ATOM     69  C   UNL     1      13.766  15.625  -2.594  1.00  0.00     0.020 A 
ATOM     70  C   UNL     1      13.620  16.112  -3.895  1.00  0.00     0.054 A 
BRANCH  70  71
ATOM     71  S   UNL     1      14.935  15.867  -5.120  1.00  0.00     0.124 S 
ATOM     72  O   UNL     1      14.354  14.842  -5.984  1.00  0.00    -0.237 OA
ATOM     73  O   UNL     1      15.067  17.192  -5.719  1.00  0.00    -0.237 OA
ATOM     74  O   UNL     1      16.078  15.432  -4.320  1.00  0.00    -0.744 OA
ENDBRANCH  70  71
ENDBRANCH  51  65
BRANCH  52  75
ATOM     75  C   UNL     1       4.074  17.390   4.517  1.00  0.00    -0.014 A 
ATOM     76  C   UNL     1       3.360  18.594   4.650  1.00  0.00     0.010 A 
ATOM     77  C   UNL     1       3.732  16.298   5.336  1.00  0.00     0.010 A 
ATOM     78  C   UNL     1       2.337  18.709   5.596  1.00  0.00     0.020 A 
ATOM     79  C   UNL     1       2.693  16.401   6.264  1.00  0.00     0.020 A 
ATOM     80  C   UNL     1       2.009  17.611   6.397  1.00  0.00     0.054 A 
BRANCH  80  81
ATOM     81  S   UNL     1       0.643  17.763   7.581  1.00  0.00     0.124 S 
ATOM     82  O   UNL     1       1.247  18.567   8.639  1.00  0.00    -0.237 OA
ATOM     83  O   UNL     1      -0.389  18.428   6.790  1.00  0.00    -0.237 OA
ATOM     84  O   UNL     1       0.347  16.378   7.938  1.00  0.00    -0.744 OA
ENDBRANCH  80  81
ENDBRANCH  52  75
BRANCH  64  85
ATOM     85  C   UNL     1      10.406  20.273   4.011  1.00  0.00    -0.014 A 
ATOM     86  C   UNL     1      10.918  19.968   5.284  1.00  0.00     0.010 A 
ATOM     87  C   UNL     1      10.608  21.561   3.482  1.00  0.00     0.010 A 
ATOM     88  C   UNL     1      11.582  20.946   6.031  1.00  0.00     0.020 A 
ATOM     89  C   UNL     1      11.295  22.533   4.213  1.00  0.00     0.020 A 
ATOM     90  C   UNL     1      11.762  22.224   5.492  1.00  0.00     0.054 A 
BRANCH  90  91
ATOM     91  S   UNL     1      12.647  23.470   6.468  1.00  0.00     0.124 S 
ATOM     92  O   UNL     1      11.641  23.855   7.454  1.00  0.00    -0.237 OA
ATOM     93  O   UNL     1      13.786  22.720   6.992  1.00  0.00    -0.237 OA
ATOM     94  O   UNL     1      12.986  24.500   5.489  1.00  0.00    -0.744 OA
ENDBRANCH  90  91
ENDBRANCH  64  85
ENDBRANCH  38  39
ENDBRANCH  31  33
ENDBRANCH  30  31
ENDBRANCH  29  30
ENDBRANCH  28  29
ENDBRANCH   1  28
TORSDOF 20
