REMARK SMILES Cc1sc(C(=O)OCCOCCOC(=O)c2ccc(-c3c4nc(c(-c5ccc(S(=O)(=O)[O-])cc5)c5ccc([nH]5)c(-c5ccc(S(=O)(=O)[O-])cc5)c5nc(c(-c6ccc(S(=O)(=O)[O-])cc6)c6ccc3[nH]6)C=C5)C=C4)cc2)cc1Br
REMARK SMILES IDX 11 1 10 2 9 3 8 4 7 5 5 6 6 7 4 8 1 9 2 10 3 11 77 12 76 13
REMARK SMILES IDX 78 14 12 15 13 16 14 17 15 18 16 19 17 20 75 21 18 22 74 23
REMARK SMILES IDX 19 24 20 25 21 26 68 27 22 28 73 29 67 30 69 31 23 32 72 33
REMARK SMILES IDX 66 34 65 35 24 37 54 38 35 39 53 40 36 41 39 42 52 43 70 44
REMARK SMILES IDX 37 45 38 46 51 48 71 49 40 50 25 51 26 52 34 53 27 54 33 55
REMARK SMILES IDX 28 56 29 57 30 58 31 59 32 60 55 61 56 62 64 63 57 64 63 65
REMARK SMILES IDX 58 66 59 67 60 68 61 69 62 70 41 71 42 72 50 73 43 74 49 75
REMARK SMILES IDX 44 76 45 77 46 78 47 79 48 80
REMARK H PARENT 69 36 39 47
REMARK Flexibility Score: inf
ROOT
ATOM      1  C   UNL     1      -4.038   2.820  -1.802  1.00  0.00     0.202 C 
ENDROOT
BRANCH   1   2
ATOM      2  O   UNL     1      -4.888   3.704  -1.065  1.00  0.00    -0.374 OA
BRANCH   2   3
ATOM      3  C   UNL     1      -4.237   4.792  -0.404  1.00  0.00     0.202 C 
BRANCH   3   4
ATOM      4  C   UNL     1      -3.764   4.467   1.015  1.00  0.00     0.261 C 
BRANCH   4   5
ATOM      5  O   UNL     1      -2.701   3.499   0.974  1.00  0.00    -0.459 OA
BRANCH   5   6
ATOM      6  C   UNL     1      -3.006   2.255   1.441  1.00  0.00     0.348 C 
ATOM      7  O   UNL     1      -4.029   1.972   2.053  1.00  0.00    -0.245 OA
BRANCH   6   8
ATOM      8  C   UNL     1      -1.985   1.315   1.013  1.00  0.00     0.114 A 
ATOM      9  C   UNL     1      -0.561  -2.220   0.048  1.00  0.00     0.057 C 
ATOM     10  C   UNL     1      -0.842  -0.786   0.344  1.00  0.00     0.017 A 
ATOM     11  S   UNL     1      -2.345  -0.361   1.048  1.00  0.00    -0.132 S 
ATOM     12  C   UNL     1      -0.075   0.335   0.126  1.00  0.00     0.032 A 
ATOM     13  C   UNL     1      -0.719   1.544   0.503  1.00  0.00     0.043 A 
ATOM     14  Br  UNL     1       1.659   0.358  -0.627  1.00  0.00    -0.050 Br
ENDBRANCH   6   8
ENDBRANCH   5   6
ENDBRANCH   4   5
ENDBRANCH   3   4
ENDBRANCH   2   3
ENDBRANCH   1   2
BRANCH   1  15
ATOM     15  C   UNL     1      -3.709   3.283  -3.226  1.00  0.00     0.261 C 
BRANCH  15  16
ATOM     16  O   UNL     1      -2.802   4.401  -3.208  1.00  0.00    -0.460 OA
BRANCH  16  17
ATOM     17  C   UNL     1      -3.346   5.587  -3.577  1.00  0.00     0.338 C 
ATOM     18  O   UNL     1      -4.470   5.775  -4.011  1.00  0.00    -0.246 OA
BRANCH  17  19
ATOM     19  C   UNL     1      -2.435   6.691  -3.212  1.00  0.00     0.060 A 
ATOM     20  C   UNL     1      -2.997   7.803  -2.573  1.00  0.00     0.016 A 
ATOM     21  C   UNL     1      -1.072   6.670  -3.522  1.00  0.00     0.016 A 
ATOM     22  C   UNL     1      -2.211   8.917  -2.284  1.00  0.00     0.010 A 
ATOM     23  C   UNL     1      -0.285   7.793  -3.238  1.00  0.00     0.010 A 
ATOM     24  C   UNL     1      -0.858   8.933  -2.647  1.00  0.00    -0.014 A 
BRANCH  24  25
ATOM     25  C   UNL     1      -0.083  10.193  -2.528  1.00  0.00     0.031 A 
ATOM     26  C   UNL     1       0.101  11.057  -3.747  1.00  0.00     0.074 A 
ATOM     27  C   UNL     1       0.421  10.583  -1.343  1.00  0.00     0.049 A 
ATOM     28  N   UNL     1       0.745  12.189  -3.869  1.00  0.00    -0.248 NA
ATOM     29  C   UNL     1      -0.526  10.583  -4.992  1.00  0.00     0.031 C 
ATOM     30  C   UNL     1       0.279   9.856  -0.081  1.00  0.00     0.029 A 
ATOM     31  N   UNL     1       1.158  11.692  -1.010  1.00  0.00    -0.354 N 
ATOM     32  C   UNL     1       0.603  12.562  -5.200  1.00  0.00     0.074 A 
ATOM     33  C   UNL     1      -0.164  11.523  -5.853  1.00  0.00     0.031 C 
ATOM     34  C   UNL     1       0.916  10.536   0.888  1.00  0.00     0.029 A 
ATOM     35  C   UNL     1       1.532  11.730   0.312  1.00  0.00     0.049 A 
ATOM     36  H   UNL     1       1.397  12.394  -1.658  1.00  0.00     0.167 HD
ATOM     37  C   UNL     1       1.063  13.673  -5.823  1.00  0.00     0.031 A 
ATOM     38  C   UNL     1       2.299  12.616   0.977  1.00  0.00     0.031 A 
ATOM     39  C   UNL     1       1.837  14.701  -5.180  1.00  0.00     0.049 A 
ATOM     40  C   UNL     1       2.859  13.808   0.246  1.00  0.00     0.074 A 
ATOM     41  C   UNL     1       2.340  15.869  -5.727  1.00  0.00     0.029 A 
ATOM     42  N   UNL     1       2.224  14.684  -3.849  1.00  0.00    -0.354 N 
ATOM     43  N   UNL     1       2.697  14.157  -1.008  1.00  0.00    -0.248 NA
ATOM     44  C   UNL     1       3.701  14.729   1.023  1.00  0.00     0.031 C 
ATOM     45  C   UNL     1       3.072  16.535  -4.739  1.00  0.00     0.029 A 
ATOM     46  C   UNL     1       2.980  15.808  -3.562  1.00  0.00     0.049 A 
ATOM     47  H   UNL     1       1.995  13.977  -3.203  1.00  0.00     0.167 HD
ATOM     48  C   UNL     1       3.396  15.350  -1.163  1.00  0.00     0.074 A 
ATOM     49  C   UNL     1       3.971  15.669   0.127  1.00  0.00     0.031 C 
ATOM     50  C   UNL     1       3.546  16.113  -2.273  1.00  0.00     0.031 A 
BRANCH  37  51
ATOM     51  C   UNL     1       0.762  13.822  -7.290  1.00  0.00    -0.014 A 
ATOM     52  C   UNL     1      -0.530  14.154  -7.734  1.00  0.00     0.010 A 
ATOM     53  C   UNL     1       1.795  13.671  -8.232  1.00  0.00     0.010 A 
ATOM     54  C   UNL     1      -0.791  14.303  -9.099  1.00  0.00     0.020 A 
ATOM     55  C   UNL     1       1.543  13.841  -9.597  1.00  0.00     0.020 A 
ATOM     56  C   UNL     1       0.247  14.142 -10.022  1.00  0.00     0.054 A 
BRANCH  56  57
ATOM     57  S   UNL     1      -0.112  14.367 -11.786  1.00  0.00     0.124 S 
ATOM     58  O   UNL     1      -0.844  13.143 -12.102  1.00  0.00    -0.237 OA
ATOM     59  O   UNL     1      -0.906  15.593 -11.798  1.00  0.00    -0.237 OA
ATOM     60  O   UNL     1       1.210  14.478 -12.397  1.00  0.00    -0.744 OA
ENDBRANCH  56  57
ENDBRANCH  37  51
BRANCH  38  61
ATOM     61  C   UNL     1       2.606  12.401   2.417  1.00  0.00    -0.014 A 
ATOM     62  C   UNL     1       2.058  13.239   3.404  1.00  0.00     0.010 A 
ATOM     63  C   UNL     1       3.467  11.358   2.807  1.00  0.00     0.010 A 
ATOM     64  C   UNL     1       2.380  13.051   4.751  1.00  0.00     0.020 A 
ATOM     65  C   UNL     1       3.772  11.152   4.154  1.00  0.00     0.020 A 
ATOM     66  C   UNL     1       3.236  12.009   5.118  1.00  0.00     0.054 A 
BRANCH  66  67
ATOM     67  S   UNL     1       3.610  11.754   6.875  1.00  0.00     0.124 S 
ATOM     68  O   UNL     1       4.569  12.821   7.139  1.00  0.00    -0.237 OA
ATOM     69  O   UNL     1       2.300  11.909   7.503  1.00  0.00    -0.237 OA
ATOM     70  O   UNL     1       4.152  10.397   6.913  1.00  0.00    -0.744 OA
ENDBRANCH  66  67
ENDBRANCH  38  61
BRANCH  50  71
ATOM     71  C   UNL     1       4.337  17.387  -2.140  1.00  0.00    -0.014 A 
ATOM     72  C   UNL     1       5.737  17.365  -2.021  1.00  0.00     0.010 A 
ATOM     73  C   UNL     1       3.671  18.626  -2.190  1.00  0.00     0.010 A 
ATOM     74  C   UNL     1       6.456  18.560  -1.926  1.00  0.00     0.020 A 
ATOM     75  C   UNL     1       4.389  19.823  -2.120  1.00  0.00     0.020 A 
ATOM     76  C   UNL     1       5.777  19.782  -1.975  1.00  0.00     0.054 A 
BRANCH  76  77
ATOM     77  S   UNL     1       6.735  21.320  -1.895  1.00  0.00     0.124 S 
ATOM     78  O   UNL     1       7.074  21.393  -0.476  1.00  0.00    -0.237 OA
ATOM     79  O   UNL     1       7.853  21.052  -2.795  1.00  0.00    -0.237 OA
ATOM     80  O   UNL     1       5.796  22.337  -2.364  1.00  0.00    -0.744 OA
ENDBRANCH  76  77
ENDBRANCH  50  71
ENDBRANCH  24  25
ENDBRANCH  17  19
ENDBRANCH  16  17
ENDBRANCH  15  16
ENDBRANCH   1  15
TORSDOF 17
