REMARK SMILES C=CCn1nc(C(=O)OCCOCCOC(=O)c2ccc(-c3c4nc(c(-c5ccc(S(=O)(=O)[O-])cc5)c5ccc([nH]5)c(-c5ccc(S(=O)(=O)[O-])cc5)c5nc(c(-c6ccc(S(=O)(=O)[O-])cc6)c6ccc3[nH]6)C=C5)C=C4)cc2)c2c1CC[C@@H]([NH+]1CCC(C(C)(C)O)CC1)C2
REMARK SMILES IDX 12 1 11 2 10 3 9 4 7 5 8 6 6 7 4 8 5 9 79 10 78 11 80 12
REMARK SMILES IDX 93 13 81 14 82 15 3 16 2 17 1 18 83 19 84 20 92 21 85 23
REMARK SMILES IDX 91 24 86 25 87 26 88 27 89 28 90 29 13 31 14 32 15 33 16 34
REMARK SMILES IDX 17 35 18 36 19 37 77 38 20 39 76 40 21 41 22 42 23 43 70 44
REMARK SMILES IDX 24 45 75 46 69 47 71 48 25 49 74 50 68 51 67 52 26 54 56 55
REMARK SMILES IDX 37 56 55 57 38 58 41 59 54 60 72 61 39 62 40 63 53 65 73 66
REMARK SMILES IDX 42 67 27 68 28 69 36 70 29 71 35 72 30 73 31 74 32 75 33 76
REMARK SMILES IDX 34 77 57 78 58 79 66 80 59 81 65 82 60 83 61 84 62 85 63 86
REMARK SMILES IDX 64 87 43 88 44 89 52 90 45 91 51 92 46 93 47 94 48 95 49 96
REMARK SMILES IDX 50 97
REMARK H PARENT 83 22 90 30 71 53 41 64
REMARK Flexibility Score: inf
ROOT
ATOM      1  O   UNL     1      -0.228  -8.399  -0.660  1.00  0.00    -0.374 OA
ENDROOT
BRANCH   1   2
ATOM      2  C   UNL     1      -1.298  -8.753  -1.537  1.00  0.00     0.202 C 
BRANCH   2   3
ATOM      3  C   UNL     1      -2.691  -8.300  -1.104  1.00  0.00     0.261 C 
BRANCH   3   4
ATOM      4  O   UNL     1      -2.820  -6.881  -1.232  1.00  0.00    -0.458 OA
BRANCH   4   5
ATOM      5  C   UNL     1      -2.644  -6.154  -0.084  1.00  0.00     0.359 C 
ATOM      6  O   UNL     1      -2.564  -6.637   1.030  1.00  0.00    -0.244 OA
BRANCH   5   7
ATOM      7  C   UNL     1      -2.517  -4.717  -0.386  1.00  0.00     0.174 A 
ATOM      8  N   UNL     1      -2.261  -2.621  -0.079  1.00  0.00    -0.265 N 
ATOM      9  N   UNL     1      -2.116  -3.815   0.542  1.00  0.00    -0.165 NA
ATOM     10  C   UNL     1      -2.989  -2.759  -1.223  1.00  0.00     0.043 A 
ATOM     11  C   UNL     1      -2.784  -4.059  -1.615  1.00  0.00     0.014 A 
ATOM     12  C   UNL     1      -3.784  -1.756  -1.952  1.00  0.00     0.062 C 
ATOM     13  C   UNL     1      -3.058  -4.537  -3.002  1.00  0.00     0.105 C 
ATOM     14  C   UNL     1      -4.236  -2.325  -3.311  1.00  0.00     0.072 C 
ATOM     15  C   UNL     1      -3.277  -3.339  -3.995  1.00  0.00     0.189 C 
BRANCH   8  16
ATOM     16  C   UNL     1      -1.666  -1.411   0.487  1.00  0.00     0.171 C 
BRANCH  16  17
ATOM     17  C   UNL     1      -0.158  -1.384   0.365  1.00  0.00    -0.011 C 
ATOM     18  C   UNL     1       0.570  -0.363  -0.112  1.00  0.00     0.006 C 
ENDBRANCH  16  17
ENDBRANCH   8  16
BRANCH  15  19
ATOM     19  N   UNL     1      -2.041  -2.882  -4.673  1.00  0.00    -0.332 N 
ATOM     20  C   UNL     1      -0.949  -2.284  -3.925  1.00  0.00     0.262 C 
ATOM     21  C   UNL     1      -2.218  -2.151  -5.925  1.00  0.00     0.262 C 
ATOM     22  H   UNL     1      -1.720  -3.833  -4.855  1.00  0.00     0.348 HD
ATOM     23  C   UNL     1      -1.077  -0.787  -3.634  1.00  0.00     0.068 C 
ATOM     24  C   UNL     1      -2.603  -0.687  -5.748  1.00  0.00     0.068 C 
ATOM     25  C   UNL     1      -1.807   0.099  -4.677  1.00  0.00     0.031 C 
BRANCH  25  26
ATOM     26  C   UNL     1      -2.677   1.263  -4.055  1.00  0.00     0.062 C 
ATOM     27  C   UNL     1      -2.026   1.953  -2.850  1.00  0.00     0.042 C 
ATOM     28  C   UNL     1      -3.020   2.314  -5.120  1.00  0.00     0.042 C 
BRANCH  26  29
ATOM     29  O   UNL     1      -3.932   0.753  -3.590  1.00  0.00    -0.390 OA
ATOM     30  H   UNL     1      -3.775   0.079  -2.909  1.00  0.00     0.211 HD
ENDBRANCH  26  29
ENDBRANCH  25  26
ENDBRANCH  15  19
ENDBRANCH   5   7
ENDBRANCH   4   5
ENDBRANCH   3   4
ENDBRANCH   2   3
ENDBRANCH   1   2
BRANCH   1  31
ATOM     31  C   UNL     1       0.329  -7.090  -0.754  1.00  0.00     0.202 C 
BRANCH  31  32
ATOM     32  C   UNL     1       1.253  -6.810  -1.924  1.00  0.00     0.261 C 
BRANCH  32  33
ATOM     33  O   UNL     1       0.541  -6.801  -3.154  1.00  0.00    -0.460 OA
BRANCH  33  34
ATOM     34  C   UNL     1       0.720  -7.904  -3.914  1.00  0.00     0.338 C 
ATOM     35  O   UNL     1       1.091  -9.003  -3.542  1.00  0.00    -0.246 OA
BRANCH  34  36
ATOM     36  C   UNL     1       0.584  -7.504  -5.319  1.00  0.00     0.060 A 
ATOM     37  C   UNL     1       0.965  -8.451  -6.269  1.00  0.00     0.016 A 
ATOM     38  C   UNL     1       0.382  -6.154  -5.652  1.00  0.00     0.016 A 
ATOM     39  C   UNL     1       1.361  -8.001  -7.508  1.00  0.00     0.010 A 
ATOM     40  C   UNL     1       0.791  -5.706  -6.884  1.00  0.00     0.010 A 
ATOM     41  C   UNL     1       1.356  -6.623  -7.763  1.00  0.00    -0.014 A 
BRANCH  41  42
ATOM     42  C   UNL     1       1.834  -6.171  -9.048  1.00  0.00     0.031 A 
ATOM     43  C   UNL     1       0.902  -6.522 -10.137  1.00  0.00     0.074 A 
ATOM     44  C   UNL     1       2.963  -5.460  -9.224  1.00  0.00     0.049 A 
ATOM     45  N   UNL     1       1.047  -7.478 -10.990  1.00  0.00    -0.248 NA
ATOM     46  C   UNL     1      -0.430  -5.897 -10.145  1.00  0.00     0.031 C 
ATOM     47  C   UNL     1       3.834  -4.845  -8.222  1.00  0.00     0.029 A 
ATOM     48  N   UNL     1       3.527  -5.067 -10.395  1.00  0.00    -0.354 N 
ATOM     49  C   UNL     1      -0.081  -7.431 -11.794  1.00  0.00     0.074 A 
ATOM     50  C   UNL     1      -1.032  -6.589 -11.113  1.00  0.00     0.031 C 
ATOM     51  C   UNL     1       4.667  -3.967  -8.835  1.00  0.00     0.029 A 
ATOM     52  C   UNL     1       4.487  -4.072 -10.274  1.00  0.00     0.049 A 
ATOM     53  H   UNL     1       3.275  -5.458 -11.262  1.00  0.00     0.167 HD
ATOM     54  C   UNL     1      -0.044  -7.877 -13.078  1.00  0.00     0.031 A 
ATOM     55  C   UNL     1       5.043  -3.364 -11.294  1.00  0.00     0.031 A 
ATOM     56  C   UNL     1       1.141  -8.653 -13.339  1.00  0.00     0.049 A 
ATOM     57  C   UNL     1       4.858  -4.171 -12.529  1.00  0.00     0.074 A 
ATOM     58  C   UNL     1       1.655  -9.834 -12.842  1.00  0.00     0.029 A 
ATOM     59  N   UNL     1       2.193  -7.994 -13.931  1.00  0.00    -0.354 N 
ATOM     60  N   UNL     1       5.449  -5.316 -12.722  1.00  0.00    -0.248 NA
ATOM     61  C   UNL     1       3.654  -3.952 -13.318  1.00  0.00     0.031 C 
ATOM     62  C   UNL     1       3.060  -9.614 -12.751  1.00  0.00     0.029 A 
ATOM     63  C   UNL     1       3.340  -8.347 -13.267  1.00  0.00     0.049 A 
ATOM     64  H   UNL     1       2.134  -7.377 -14.697  1.00  0.00     0.167 HD
ATOM     65  C   UNL     1       4.478  -6.126 -13.293  1.00  0.00     0.074 A 
ATOM     66  C   UNL     1       3.422  -5.207 -13.719  1.00  0.00     0.031 C 
ATOM     67  C   UNL     1       4.491  -7.481 -13.112  1.00  0.00     0.031 A 
BRANCH  54  68
ATOM     68  C   UNL     1      -0.857  -7.261 -14.181  1.00  0.00    -0.014 A 
ATOM     69  C   UNL     1      -0.838  -7.860 -15.453  1.00  0.00     0.010 A 
ATOM     70  C   UNL     1      -1.416  -5.969 -14.082  1.00  0.00     0.010 A 
ATOM     71  C   UNL     1      -1.314  -7.178 -16.579  1.00  0.00     0.020 A 
ATOM     72  C   UNL     1      -1.932  -5.298 -15.189  1.00  0.00     0.020 A 
ATOM     73  C   UNL     1      -1.851  -5.898 -16.438  1.00  0.00     0.054 A 
BRANCH  73  74
ATOM     74  S   UNL     1      -2.395  -4.999 -17.909  1.00  0.00     0.124 S 
ATOM     75  O   UNL     1      -1.139  -4.810 -18.628  1.00  0.00    -0.237 OA
ATOM     76  O   UNL     1      -3.337  -5.938 -18.511  1.00  0.00    -0.237 OA
ATOM     77  O   UNL     1      -2.995  -3.783 -17.365  1.00  0.00    -0.744 OA
ENDBRANCH  73  74
ENDBRANCH  54  68
BRANCH  55  78
ATOM     78  C   UNL     1       5.383  -1.917 -11.334  1.00  0.00    -0.014 A 
ATOM     79  C   UNL     1       6.128  -1.370 -12.399  1.00  0.00     0.010 A 
ATOM     80  C   UNL     1       4.715  -1.016 -10.480  1.00  0.00     0.010 A 
ATOM     81  C   UNL     1       6.147   0.018 -12.638  1.00  0.00     0.020 A 
ATOM     82  C   UNL     1       4.731   0.366 -10.710  1.00  0.00     0.020 A 
ATOM     83  C   UNL     1       5.427   0.876 -11.803  1.00  0.00     0.054 A 
BRANCH  83  84
ATOM     84  S   UNL     1       5.294   2.642 -12.223  1.00  0.00     0.124 S 
ATOM     85  O   UNL     1       6.643   3.130 -11.955  1.00  0.00    -0.237 OA
ATOM     86  O   UNL     1       4.902   2.607 -13.630  1.00  0.00    -0.237 OA
ATOM     87  O   UNL     1       4.263   3.136 -11.311  1.00  0.00    -0.744 OA
ENDBRANCH  83  84
ENDBRANCH  55  78
BRANCH  67  88
ATOM     88  C   UNL     1       5.731  -8.113 -12.517  1.00  0.00    -0.014 A 
ATOM     89  C   UNL     1       6.226  -7.829 -11.227  1.00  0.00     0.010 A 
ATOM     90  C   UNL     1       6.334  -9.149 -13.250  1.00  0.00     0.010 A 
ATOM     91  C   UNL     1       7.316  -8.546 -10.704  1.00  0.00     0.020 A 
ATOM     92  C   UNL     1       7.404  -9.877 -12.729  1.00  0.00     0.020 A 
ATOM     93  C   UNL     1       7.899  -9.565 -11.463  1.00  0.00     0.054 A 
BRANCH  93  94
ATOM     94  S   UNL     1       9.290 -10.512 -10.780  1.00  0.00     0.124 S 
ATOM     95  O   UNL     1      10.361  -9.519 -10.742  1.00  0.00    -0.237 OA
ATOM     96  O   UNL     1       8.784 -10.943  -9.479  1.00  0.00    -0.237 OA
ATOM     97  O   UNL     1       9.484 -11.592 -11.748  1.00  0.00    -0.744 OA
ENDBRANCH  93  94
ENDBRANCH  67  88
ENDBRANCH  41  42
ENDBRANCH  34  36
ENDBRANCH  33  34
ENDBRANCH  32  33
ENDBRANCH  31  32
ENDBRANCH   1  31
TORSDOF 22
