REMARK SMILES Cc1nc2cc(C(=O)OCCOCCOC(=O)c3ccc(-c4c5nc(c(-c6ccc(S(=O)(=O)[O-])cc6)c6ccc([nH]6)c(-c6ccc(S(=O)(=O)[O-])cc6)c6nc(c(-c7ccc(S(=O)(=O)[O-])cc7)c7ccc4[nH]7)C=C6)C=C5)cc3)ccc2n1CCC[NH+]1CCOCC1
REMARK SMILES IDX 11 1 10 2 9 3 7 4 8 5 6 6 1 7 2 8 3 9 81 10 4 11 80 12 5 13
REMARK SMILES IDX 79 14 78 15 82 16 83 17 84 18 85 19 86 20 90 21 87 23 89 24
REMARK SMILES IDX 88 25 12 26 13 27 14 28 15 29 16 30 17 31 18 32 19 33 77 34
REMARK SMILES IDX 20 35 76 36 21 37 22 38 23 39 70 40 24 41 75 42 69 43 71 44
REMARK SMILES IDX 25 45 74 46 68 47 67 48 26 50 56 51 37 52 55 53 38 54 41 55
REMARK SMILES IDX 54 56 72 57 39 58 40 59 53 61 73 62 42 63 27 64 28 65 36 66
REMARK SMILES IDX 29 67 35 68 30 69 31 70 32 71 33 72 34 73 57 74 58 75 66 76
REMARK SMILES IDX 59 77 65 78 60 79 61 80 62 81 63 82 64 83 43 84 44 85 52 86
REMARK SMILES IDX 45 87 51 88 46 89 47 90 48 91 49 92 50 93
REMARK H PARENT 85 22 71 49 41 60
REMARK Flexibility Score: inf
ROOT
ATOM      1  C   UNL     1      -4.612   7.879  -2.540  1.00  0.00     0.202 C 
ENDROOT
BRANCH   1   2
ATOM      2  C   UNL     1      -4.248   7.984  -1.057  1.00  0.00     0.261 C 
BRANCH   2   3
ATOM      3  O   UNL     1      -2.932   7.513  -0.776  1.00  0.00    -0.460 OA
BRANCH   3   4
ATOM      4  C   UNL     1      -2.935   6.541   0.159  1.00  0.00     0.338 C 
ATOM      5  O   UNL     1      -3.866   6.177   0.860  1.00  0.00    -0.246 OA
BRANCH   4   6
ATOM      6  C   UNL     1      -1.759   5.700  -0.039  1.00  0.00     0.062 A 
ATOM      7  C   UNL     1      -0.054   0.181  -0.222  1.00  0.00     0.088 C 
ATOM      8  C   UNL     1      -0.114   1.627  -0.384  1.00  0.00     0.106 A 
ATOM      9  N   UNL     1      -1.223   2.180  -0.788  1.00  0.00    -0.233 NA
ATOM     10  N   UNL     1       0.848   2.560  -0.038  1.00  0.00    -0.328 N 
ATOM     11  C   UNL     1      -1.077   3.479  -0.479  1.00  0.00     0.090 A 
ATOM     12  C   UNL     1       0.222   3.798  -0.092  1.00  0.00     0.068 A 
ATOM     13  C   UNL     1      -2.085   4.418  -0.460  1.00  0.00     0.046 A 
ATOM     14  C   UNL     1       0.593   5.125   0.191  1.00  0.00     0.029 A 
ATOM     15  C   UNL     1      -0.441   6.084   0.216  1.00  0.00     0.018 A 
BRANCH  10  16
ATOM     16  C   UNL     1       2.247   2.317   0.291  1.00  0.00     0.130 C 
BRANCH  16  17
ATOM     17  C   UNL     1       2.573   1.722   1.669  1.00  0.00     0.083 C 
BRANCH  17  18
ATOM     18  C   UNL     1       2.576   0.189   1.898  1.00  0.00     0.264 C 
BRANCH  18  19
ATOM     19  N   UNL     1       3.560  -0.617   1.139  1.00  0.00    -0.331 N 
ATOM     20  C   UNL     1       3.117  -1.136  -0.182  1.00  0.00     0.291 C 
ATOM     21  C   UNL     1       3.971  -1.817   1.921  1.00  0.00     0.291 C 
ATOM     22  H   UNL     1       4.313   0.052   0.975  1.00  0.00     0.348 HD
ATOM     23  C   UNL     1       2.115  -2.321  -0.138  1.00  0.00     0.221 C 
ATOM     24  C   UNL     1       2.900  -2.923   1.977  1.00  0.00     0.221 C 
ATOM     25  O   UNL     1       2.614  -3.400   0.656  1.00  0.00    -0.370 OA
ENDBRANCH  18  19
ENDBRANCH  17  18
ENDBRANCH  16  17
ENDBRANCH  10  16
ENDBRANCH   4   6
ENDBRANCH   3   4
ENDBRANCH   2   3
ENDBRANCH   1   2
BRANCH   1  26
ATOM     26  O   UNL     1      -4.451   6.625  -3.196  1.00  0.00    -0.374 OA
BRANCH  26  27
ATOM     27  C   UNL     1      -3.115   6.184  -3.461  1.00  0.00     0.202 C 
BRANCH  27  28
ATOM     28  C   UNL     1      -2.207   7.041  -4.365  1.00  0.00     0.261 C 
BRANCH  28  29
ATOM     29  O   UNL     1      -1.840   8.275  -3.723  1.00  0.00    -0.460 OA
BRANCH  29  30
ATOM     30  C   UNL     1      -1.980   9.405  -4.466  1.00  0.00     0.338 C 
ATOM     31  O   UNL     1      -2.007   9.489  -5.686  1.00  0.00    -0.246 OA
BRANCH  30  32
ATOM     32  C   UNL     1      -2.504  10.431  -3.537  1.00  0.00     0.060 A 
ATOM     33  C   UNL     1      -1.938  10.599  -2.271  1.00  0.00     0.016 A 
ATOM     34  C   UNL     1      -3.789  10.925  -3.822  1.00  0.00     0.016 A 
ATOM     35  C   UNL     1      -2.713  11.158  -1.259  1.00  0.00     0.010 A 
ATOM     36  C   UNL     1      -4.582  11.423  -2.790  1.00  0.00     0.010 A 
ATOM     37  C   UNL     1      -4.062  11.497  -1.496  1.00  0.00    -0.014 A 
BRANCH  37  38
ATOM     38  C   UNL     1      -4.806  12.176  -0.427  1.00  0.00     0.031 A 
ATOM     39  C   UNL     1      -4.280  13.553  -0.251  1.00  0.00     0.074 A 
ATOM     40  C   UNL     1      -5.888  11.754   0.270  1.00  0.00     0.049 A 
ATOM     41  N   UNL     1      -3.588  14.005   0.740  1.00  0.00    -0.248 NA
ATOM     42  C   UNL     1      -4.337  14.455  -1.416  1.00  0.00     0.031 C 
ATOM     43  C   UNL     1      -6.698  10.550   0.074  1.00  0.00     0.029 A 
ATOM     44  N   UNL     1      -6.556  12.386   1.289  1.00  0.00    -0.354 N 
ATOM     45  C   UNL     1      -3.307  15.325   0.415  1.00  0.00     0.074 A 
ATOM     46  C   UNL     1      -3.587  15.468  -0.990  1.00  0.00     0.031 C 
ATOM     47  C   UNL     1      -7.852  10.652   0.778  1.00  0.00     0.029 A 
ATOM     48  C   UNL     1      -7.822  11.867   1.572  1.00  0.00     0.049 A 
ATOM     49  H   UNL     1      -6.173  13.147   1.783  1.00  0.00     0.167 HD
ATOM     50  C   UNL     1      -3.129  16.271   1.375  1.00  0.00     0.031 A 
ATOM     51  C   UNL     1      -8.791  12.408   2.364  1.00  0.00     0.031 A 
ATOM     52  C   UNL     1      -2.852  15.681   2.658  1.00  0.00     0.049 A 
ATOM     53  C   UNL     1      -8.132  13.368   3.274  1.00  0.00     0.074 A 
ATOM     54  C   UNL     1      -1.862  14.858   3.156  1.00  0.00     0.029 A 
ATOM     55  N   UNL     1      -3.896  15.605   3.547  1.00  0.00    -0.354 N 
ATOM     56  N   UNL     1      -7.323  13.014   4.229  1.00  0.00    -0.248 NA
ATOM     57  C   UNL     1      -8.038  14.751   2.844  1.00  0.00     0.031 C 
ATOM     58  C   UNL     1      -2.526  13.986   4.064  1.00  0.00     0.029 A 
ATOM     59  C   UNL     1      -3.867  14.367   4.135  1.00  0.00     0.049 A 
ATOM     60  H   UNL     1      -4.552  16.316   3.730  1.00  0.00     0.167 HD
ATOM     61  C   UNL     1      -6.317  13.966   4.194  1.00  0.00     0.074 A 
ATOM     62  C   UNL     1      -6.858  15.059   3.386  1.00  0.00     0.031 C 
ATOM     63  C   UNL     1      -5.047  13.656   4.587  1.00  0.00     0.031 A 
BRANCH  50  64
ATOM     64  C   UNL     1      -3.604  17.693   1.207  1.00  0.00    -0.014 A 
ATOM     65  C   UNL     1      -4.473  18.105   0.173  1.00  0.00     0.010 A 
ATOM     66  C   UNL     1      -3.373  18.616   2.245  1.00  0.00     0.010 A 
ATOM     67  C   UNL     1      -5.049  19.373   0.143  1.00  0.00     0.020 A 
ATOM     68  C   UNL     1      -3.986  19.877   2.251  1.00  0.00     0.020 A 
ATOM     69  C   UNL     1      -4.806  20.252   1.188  1.00  0.00     0.054 A 
BRANCH  69  70
ATOM     70  S   UNL     1      -5.615  21.866   1.140  1.00  0.00     0.124 S 
ATOM     71  O   UNL     1      -4.952  22.495   0.000  1.00  0.00    -0.237 OA
ATOM     72  O   UNL     1      -7.015  21.507   0.934  1.00  0.00    -0.237 OA
ATOM     73  O   UNL     1      -5.302  22.444   2.443  1.00  0.00    -0.744 OA
ENDBRANCH  69  70
ENDBRANCH  50  64
BRANCH  51  74
ATOM     74  C   UNL     1     -10.264  12.492   2.127  1.00  0.00    -0.014 A 
ATOM     75  C   UNL     1     -10.764  12.413   0.814  1.00  0.00     0.010 A 
ATOM     76  C   UNL     1     -11.124  13.014   3.121  1.00  0.00     0.010 A 
ATOM     77  C   UNL     1     -12.020  12.938   0.480  1.00  0.00     0.020 A 
ATOM     78  C   UNL     1     -12.386  13.545   2.792  1.00  0.00     0.020 A 
ATOM     79  C   UNL     1     -12.803  13.546   1.462  1.00  0.00     0.054 A 
BRANCH  79  80
ATOM     80  S   UNL     1     -14.305  14.428   0.938  1.00  0.00     0.124 S 
ATOM     81  O   UNL     1     -13.751  15.541   0.172  1.00  0.00    -0.237 OA
ATOM     82  O   UNL     1     -15.008  13.417   0.150  1.00  0.00    -0.237 OA
ATOM     83  O   UNL     1     -14.953  14.794   2.195  1.00  0.00    -0.744 OA
ENDBRANCH  79  80
ENDBRANCH  51  74
BRANCH  63  84
ATOM     84  C   UNL     1      -4.810  12.372   5.360  1.00  0.00    -0.014 A 
ATOM     85  C   UNL     1      -4.051  12.470   6.540  1.00  0.00     0.010 A 
ATOM     86  C   UNL     1      -5.171  11.085   4.908  1.00  0.00     0.010 A 
ATOM     87  C   UNL     1      -3.641  11.332   7.236  1.00  0.00     0.020 A 
ATOM     88  C   UNL     1      -4.788   9.934   5.621  1.00  0.00     0.020 A 
ATOM     89  C   UNL     1      -4.008  10.069   6.772  1.00  0.00     0.054 A 
BRANCH  89  90
ATOM     90  S   UNL     1      -3.435   8.625   7.708  1.00  0.00     0.124 S 
ATOM     91  O   UNL     1      -2.001   8.618   7.422  1.00  0.00    -0.237 OA
ATOM     92  O   UNL     1      -3.791   8.971   9.083  1.00  0.00    -0.237 OA
ATOM     93  O   UNL     1      -4.186   7.508   7.140  1.00  0.00    -0.744 OA
ENDBRANCH  89  90
ENDBRANCH  63  84
ENDBRANCH  37  38
ENDBRANCH  30  32
ENDBRANCH  29  30
ENDBRANCH  28  29
ENDBRANCH  27  28
ENDBRANCH  26  27
ENDBRANCH   1  26
TORSDOF 21
