REMARK SMILES CC(=O)Nc1ccc(/C(=C\c2ccc(S(C)(=O)=O)cc2)C(=O)OCCOCCOC(=O)c2ccc(-c3c4nc(c(-c5ccc(S(=O)(=O)[O-])cc5)c5ccc([nH]5)c(-c5ccc(S(=O)(=O)[O-])cc5)c5nc(c(-c6ccc(S(=O)(=O)[O-])cc6)c6ccc3[nH]6)C=C5)C=C4)cc2)cc1
REMARK SMILES IDX 27 1 26 2 25 3 24 4 23 5 21 6 22 7 9 8 10 9 8 10 5 11 6 12
REMARK SMILES IDX 93 13 7 14 92 15 4 16 1 17 2 18 3 19 11 21 12 22 20 23 13 24
REMARK SMILES IDX 19 25 14 26 15 27 16 28 17 29 18 30 28 31 29 32 30 33 31 34
REMARK SMILES IDX 32 35 33 36 91 37 34 38 90 39 35 40 36 41 37 42 84 43 38 44
REMARK SMILES IDX 89 45 83 46 85 47 39 48 88 49 82 50 81 51 40 53 70 54 51 55
REMARK SMILES IDX 69 56 52 57 55 58 68 59 86 60 53 61 54 62 67 64 87 65 56 66
REMARK SMILES IDX 41 67 42 68 50 69 43 70 49 71 44 72 45 73 46 74 47 75 48 76
REMARK SMILES IDX 71 77 72 78 80 79 73 80 79 81 74 82 75 83 76 84 77 85 78 86
REMARK SMILES IDX 57 87 58 88 66 89 59 90 65 91 60 92 61 93 62 94 63 95 64 96
REMARK H PARENT 4 20 85 52 55 63
REMARK Flexibility Score: inf
ROOT
ATOM      1  C   UNL     1       4.599  -3.273  -3.676  1.00  0.00     0.202 C 
ENDROOT
BRANCH   1   2
ATOM      2  O   UNL     1       5.994  -2.968  -3.664  1.00  0.00    -0.374 OA
BRANCH   2   3
ATOM      3  C   UNL     1       6.905  -4.042  -3.901  1.00  0.00     0.202 C 
BRANCH   3   4
ATOM      4  C   UNL     1       7.178  -4.997  -2.734  1.00  0.00     0.261 C 
BRANCH   4   5
ATOM      5  O   UNL     1       5.964  -5.580  -2.241  1.00  0.00    -0.460 OA
BRANCH   5   6
ATOM      6  C   UNL     1       5.630  -5.230  -0.971  1.00  0.00     0.338 C 
ATOM      7  O   UNL     1       6.340  -4.614  -0.189  1.00  0.00    -0.246 OA
BRANCH   6   8
ATOM      8  C   UNL     1       4.190  -5.553  -0.679  1.00  0.00     0.067 C 
ATOM      9  C   UNL     1       3.729  -6.731  -1.166  1.00  0.00     0.024 C 
BRANCH   8  10
ATOM     10  C   UNL     1       3.404  -4.545   0.097  1.00  0.00    -0.011 A 
ATOM     11  C   UNL     1       1.750  -2.539   1.254  1.00  0.00     0.041 A 
ATOM     12  C   UNL     1       1.621  -3.881   1.623  1.00  0.00     0.027 A 
ATOM     13  C   UNL     1       2.789  -2.192   0.401  1.00  0.00     0.027 A 
ATOM     14  C   UNL     1       2.451  -4.866   1.067  1.00  0.00     0.011 A 
ATOM     15  C   UNL     1       3.597  -3.181  -0.172  1.00  0.00     0.011 A 
BRANCH  11  16
ATOM     16  N   UNL     1       0.841  -1.627   1.814  1.00  0.00    -0.326 N 
ATOM     17  C   UNL     1       0.923   0.255   0.169  1.00  0.00     0.114 C 
ATOM     18  C   UNL     1       0.483  -0.355   1.472  1.00  0.00     0.221 C 
ATOM     19  O   UNL     1      -0.258   0.275   2.232  1.00  0.00    -0.275 OA
ATOM     20  H   UNL     1       0.370  -1.971   2.607  1.00  0.00     0.169 HD
ENDBRANCH  11  16
ENDBRANCH   8  10
BRANCH   9  21
ATOM     21  C   UNL     1       2.447  -7.372  -0.838  1.00  0.00    -0.025 A 
ATOM     22  C   UNL     1       2.526  -8.541  -0.066  1.00  0.00     0.009 A 
ATOM     23  C   UNL     1       1.196  -6.796  -1.095  1.00  0.00     0.009 A 
ATOM     24  C   UNL     1       1.395  -9.043   0.572  1.00  0.00     0.021 A 
ATOM     25  C   UNL     1       0.056  -7.292  -0.452  1.00  0.00     0.021 A 
ATOM     26  C   UNL     1       0.174  -8.387   0.411  1.00  0.00     0.067 A 
BRANCH  26  27
ATOM     27  S   UNL     1      -1.172  -8.842   1.479  1.00  0.00     0.175 S 
ATOM     28  C   UNL     1      -1.692 -10.426   0.883  1.00  0.00     0.163 C 
ATOM     29  O   UNL     1      -0.612  -9.017   2.806  1.00  0.00    -0.224 OA
ATOM     30  O   UNL     1      -2.254  -7.902   1.256  1.00  0.00    -0.224 OA
ENDBRANCH  26  27
ENDBRANCH   9  21
ENDBRANCH   6   8
ENDBRANCH   5   6
ENDBRANCH   4   5
ENDBRANCH   3   4
ENDBRANCH   2   3
ENDBRANCH   1   2
BRANCH   1  31
ATOM     31  C   UNL     1       3.924  -3.529  -5.027  1.00  0.00     0.261 C 
BRANCH  31  32
ATOM     32  O   UNL     1       4.430  -4.697  -5.692  1.00  0.00    -0.460 OA
BRANCH  32  33
ATOM     33  C   UNL     1       5.165  -4.446  -6.803  1.00  0.00     0.338 C 
ATOM     34  O   UNL     1       5.387  -3.356  -7.312  1.00  0.00    -0.246 OA
BRANCH  33  35
ATOM     35  C   UNL     1       5.842  -5.682  -7.230  1.00  0.00     0.060 A 
ATOM     36  C   UNL     1       7.242  -5.674  -7.293  1.00  0.00     0.016 A 
ATOM     37  C   UNL     1       5.119  -6.819  -7.592  1.00  0.00     0.016 A 
ATOM     38  C   UNL     1       7.925  -6.808  -7.729  1.00  0.00     0.010 A 
ATOM     39  C   UNL     1       5.807  -7.950  -8.042  1.00  0.00     0.010 A 
ATOM     40  C   UNL     1       7.212  -7.947  -8.124  1.00  0.00    -0.014 A 
BRANCH  40  41
ATOM     41  C   UNL     1       7.927  -9.123  -8.674  1.00  0.00     0.031 A 
ATOM     42  C   UNL     1       7.937  -9.358 -10.159  1.00  0.00     0.074 A 
ATOM     43  C   UNL     1       8.557  -9.977  -7.846  1.00  0.00     0.049 A 
ATOM     44  N   UNL     1       8.429 -10.367 -10.829  1.00  0.00    -0.248 NA
ATOM     45  C   UNL     1       7.311  -8.323 -10.997  1.00  0.00     0.031 C 
ATOM     46  C   UNL     1       8.653  -9.829  -6.393  1.00  0.00     0.029 A 
ATOM     47  N   UNL     1       9.226 -11.146  -8.109  1.00  0.00    -0.354 N 
ATOM     48  C   UNL     1       8.172 -10.093 -12.168  1.00  0.00     0.074 A 
ATOM     49  C   UNL     1       7.457  -8.836 -12.212  1.00  0.00     0.031 C 
ATOM     50  C   UNL     1       9.329 -10.877  -5.892  1.00  0.00     0.029 A 
ATOM     51  C   UNL     1       9.673 -11.790  -6.980  1.00  0.00     0.049 A 
ATOM     52  H   UNL     1       9.370 -11.491  -9.020  1.00  0.00     0.167 HD
ATOM     53  C   UNL     1       8.507 -10.823 -13.259  1.00  0.00     0.031 A 
ATOM     54  C   UNL     1      10.261 -12.994  -6.835  1.00  0.00     0.031 A 
ATOM     55  C   UNL     1       9.204 -12.081 -13.206  1.00  0.00     0.049 A 
ATOM     56  C   UNL     1      10.530 -13.832  -8.058  1.00  0.00     0.074 A 
ATOM     57  C   UNL     1       9.598 -12.889 -14.259  1.00  0.00     0.029 A 
ATOM     58  N   UNL     1       9.603 -12.720 -12.042  1.00  0.00    -0.354 N 
ATOM     59  N   UNL     1      10.306 -13.546  -9.319  1.00  0.00    -0.248 NA
ATOM     60  C   UNL     1      11.130 -15.155  -7.838  1.00  0.00     0.031 C 
ATOM     61  C   UNL     1      10.179 -14.046 -13.729  1.00  0.00     0.029 A 
ATOM     62  C   UNL     1      10.205 -13.929 -12.349  1.00  0.00     0.049 A 
ATOM     63  H   UNL     1       9.477 -12.367 -11.132  1.00  0.00     0.167 HD
ATOM     64  C   UNL     1      10.757 -14.646 -10.042  1.00  0.00     0.074 A 
ATOM     65  C   UNL     1      11.289 -15.590  -9.081  1.00  0.00     0.031 C 
ATOM     66  C   UNL     1      10.728 -14.860 -11.381  1.00  0.00     0.031 A 
BRANCH  53  67
ATOM     67  C   UNL     1       8.106 -10.294 -14.610  1.00  0.00    -0.014 A 
ATOM     68  C   UNL     1       8.759  -9.186 -15.179  1.00  0.00     0.010 A 
ATOM     69  C   UNL     1       7.118 -10.964 -15.356  1.00  0.00     0.010 A 
ATOM     70  C   UNL     1       8.419  -8.747 -16.462  1.00  0.00     0.020 A 
ATOM     71  C   UNL     1       6.793 -10.543 -16.649  1.00  0.00     0.020 A 
ATOM     72  C   UNL     1       7.441  -9.431 -17.190  1.00  0.00     0.054 A 
BRANCH  72  73
ATOM     73  S   UNL     1       7.061  -8.870 -18.873  1.00  0.00     0.124 S 
ATOM     74  O   UNL     1       6.378  -7.604 -18.621  1.00  0.00    -0.237 OA
ATOM     75  O   UNL     1       8.385  -8.761 -19.479  1.00  0.00    -0.237 OA
ATOM     76  O   UNL     1       6.217  -9.934 -19.413  1.00  0.00    -0.744 OA
ENDBRANCH  72  73
ENDBRANCH  53  67
BRANCH  54  77
ATOM     77  C   UNL     1      10.591 -13.510  -5.478  1.00  0.00    -0.014 A 
ATOM     78  C   UNL     1      11.927 -13.707  -5.086  1.00  0.00     0.010 A 
ATOM     79  C   UNL     1       9.560 -13.841  -4.578  1.00  0.00     0.010 A 
ATOM     80  C   UNL     1      12.224 -14.253  -3.833  1.00  0.00     0.020 A 
ATOM     81  C   UNL     1       9.854 -14.356  -3.313  1.00  0.00     0.020 A 
ATOM     82  C   UNL     1      11.185 -14.575  -2.956  1.00  0.00     0.054 A 
BRANCH  82  83
ATOM     83  S   UNL     1      11.593 -15.262  -1.327  1.00  0.00     0.124 S 
ATOM     84  O   UNL     1      12.013 -16.617  -1.666  1.00  0.00    -0.237 OA
ATOM     85  O   UNL     1      12.650 -14.366  -0.864  1.00  0.00    -0.237 OA
ATOM     86  O   UNL     1      10.335 -15.161  -0.590  1.00  0.00    -0.744 OA
ENDBRANCH  82  83
ENDBRANCH  54  77
BRANCH  66  87
ATOM     87  C   UNL     1      11.303 -16.155 -11.891  1.00  0.00    -0.014 A 
ATOM     88  C   UNL     1      10.637 -17.376 -11.683  1.00  0.00     0.010 A 
ATOM     89  C   UNL     1      12.496 -16.144 -12.638  1.00  0.00     0.010 A 
ATOM     90  C   UNL     1      11.168 -18.566 -12.188  1.00  0.00     0.020 A 
ATOM     91  C   UNL     1      13.014 -17.328 -13.171  1.00  0.00     0.020 A 
ATOM     92  C   UNL     1      12.352 -18.534 -12.932  1.00  0.00     0.054 A 
BRANCH  92  93
ATOM     93  S   UNL     1      12.990 -20.086 -13.619  1.00  0.00     0.124 S 
ATOM     94  O   UNL     1      13.475 -20.771 -12.424  1.00  0.00    -0.237 OA
ATOM     95  O   UNL     1      11.805 -20.671 -14.241  1.00  0.00    -0.237 OA
ATOM     96  O   UNL     1      14.027 -19.652 -14.553  1.00  0.00    -0.744 OA
ENDBRANCH  92  93
ENDBRANCH  66  87
ENDBRANCH  40  41
ENDBRANCH  33  35
ENDBRANCH  32  33
ENDBRANCH  31  32
ENDBRANCH   1  31
TORSDOF 21
