REMARK SMILES Cc1ccc(-c2ccc(/C=C(\C#N)C3N=c4ccccc4=N3)o2)cc1C(=O)OCCOCCOC(=O)c1ccc(-c2c3nc(c(-c4ccc(S(=O)(=O)[O-])cc4)c4ccc([nH]4)c(-c4ccc(S(=O)(=O)[O-])cc4)c4nc(c(-c5ccc(S(=O)(=O)[O-])cc5)c5ccc2[nH]5)C=C4)C=C3)cc1
REMARK SMILES IDX 31 1 30 2 29 3 28 4 26 5 27 6 25 7 1 8 2 9 3 10 4 11 24 12
REMARK SMILES IDX 5 13 6 14 7 15 23 16 8 17 9 18 10 19 11 20 12 21 13 22 14 23
REMARK SMILES IDX 15 24 22 25 16 26 21 27 17 28 20 29 18 30 19 31 32 32 33 33
REMARK SMILES IDX 34 34 35 35 36 36 37 37 38 38 96 39 39 40 95 41 40 42 41 43
REMARK SMILES IDX 42 44 89 45 43 46 94 47 88 48 90 49 44 50 93 51 87 52 86 53
REMARK SMILES IDX 45 55 75 56 56 57 74 58 57 59 60 60 73 61 91 62 58 63 59 64
REMARK SMILES IDX 72 66 92 67 61 68 46 69 47 70 55 71 48 72 54 73 49 74 50 75
REMARK SMILES IDX 51 76 52 77 53 78 76 79 77 80 85 81 78 82 84 83 79 84 80 85
REMARK SMILES IDX 81 86 82 87 83 88 62 89 63 90 71 91 64 92 70 93 65 94 66 95
REMARK SMILES IDX 67 96 68 97 69 98
REMARK H PARENT 90 54 60 65
REMARK Flexibility Score: inf
ROOT
ATOM      1  O   UNL     1       1.049   3.208  -2.034  1.00  0.00    -0.374 OA
ENDROOT
BRANCH   1   2
ATOM      2  C   UNL     1       2.271   2.526  -2.280  1.00  0.00     0.202 C 
BRANCH   2   3
ATOM      3  C   UNL     1       2.831   2.328  -0.927  1.00  0.00     0.261 C 
BRANCH   3   4
ATOM      4  O   UNL     1       2.022   1.394  -0.198  1.00  0.00    -0.460 OA
BRANCH   4   5
ATOM      5  C   UNL     1       0.796   1.670   0.268  1.00  0.00     0.338 C 
ATOM      6  O   UNL     1       0.307   2.747   0.553  1.00  0.00    -0.246 OA
BRANCH   5   7
ATOM      7  C   UNL     1       0.047   0.397   0.211  1.00  0.00     0.063 A 
ATOM      8  C   UNL     1       2.066  -1.261  -0.040  1.00  0.00     0.045 C 
ATOM      9  C   UNL     1       0.603  -0.894   0.044  1.00  0.00    -0.037 A 
ATOM     10  C   UNL     1      -0.284  -1.971  -0.117  1.00  0.00     0.005 A 
ATOM     11  C   UNL     1      -1.663  -1.775  -0.169  1.00  0.00     0.012 A 
ATOM     12  C   UNL     1      -1.344   0.580   0.182  1.00  0.00     0.028 A 
ATOM     13  C   UNL     1      -2.193  -0.492  -0.055  1.00  0.00     0.018 A 
BRANCH  13  14
ATOM     14  C   UNL     1      -3.604  -0.249  -0.212  1.00  0.00     0.134 A 
ATOM     15  C   UNL     1      -4.363   0.499  -1.078  1.00  0.00     0.051 A 
ATOM     16  O   UNL     1      -4.389  -0.828   0.718  1.00  0.00    -0.457 OA
ATOM     17  C   UNL     1      -5.697   0.375  -0.620  1.00  0.00     0.051 A 
ATOM     18  C   UNL     1      -5.681  -0.418   0.523  1.00  0.00     0.128 A 
BRANCH  18  19
ATOM     19  C   UNL     1      -6.755  -0.789   1.371  1.00  0.00     0.066 C 
ATOM     20  C   UNL     1      -6.608  -1.460   2.533  1.00  0.00     0.080 C 
BRANCH  20  21
ATOM     21  C   UNL     1      -5.346  -1.861   3.068  1.00  0.00     0.099 C 
ATOM     22  N   UNL     1      -4.354  -2.250   3.549  1.00  0.00    -0.193 NA
ENDBRANCH  20  21
BRANCH  20  23
ATOM     23  C   UNL     1      -7.830  -1.869   3.316  1.00  0.00     0.263 C 
ATOM     24  N   UNL     1      -7.997  -3.347   3.229  1.00  0.00    -0.251 NA
ATOM     25  N   UNL     1      -7.739  -1.434   4.733  1.00  0.00    -0.251 NA
ATOM     26  C   UNL     1      -7.939  -3.704   4.465  1.00  0.00     0.086 A 
ATOM     27  C   UNL     1      -7.796  -2.547   5.376  1.00  0.00     0.086 A 
ATOM     28  C   UNL     1      -8.012  -5.057   5.019  1.00  0.00     0.030 A 
ATOM     29  C   UNL     1      -7.758  -2.774   6.822  1.00  0.00     0.030 A 
ATOM     30  C   UNL     1      -7.974  -5.177   6.354  1.00  0.00     0.002 A 
ATOM     31  C   UNL     1      -7.856  -4.042   7.249  1.00  0.00     0.002 A 
ENDBRANCH  20  23
ENDBRANCH  18  19
ENDBRANCH  13  14
ENDBRANCH   5   7
ENDBRANCH   4   5
ENDBRANCH   3   4
ENDBRANCH   2   3
ENDBRANCH   1   2
BRANCH   1  32
ATOM     32  C   UNL     1       0.207   3.359  -3.140  1.00  0.00     0.202 C 
BRANCH  32  33
ATOM     33  C   UNL     1       0.945   3.994  -4.316  1.00  0.00     0.261 C 
BRANCH  33  34
ATOM     34  O   UNL     1       1.256   5.394  -4.069  1.00  0.00    -0.460 OA
BRANCH  34  35
ATOM     35  C   UNL     1       2.520   5.743  -3.659  1.00  0.00     0.338 C 
ATOM     36  O   UNL     1       3.410   6.053  -4.433  1.00  0.00    -0.246 OA
BRANCH  35  37
ATOM     37  C   UNL     1       2.606   5.902  -2.172  1.00  0.00     0.060 A 
ATOM     38  C   UNL     1       3.826   5.847  -1.465  1.00  0.00     0.016 A 
ATOM     39  C   UNL     1       1.414   5.940  -1.465  1.00  0.00     0.016 A 
ATOM     40  C   UNL     1       3.838   5.648  -0.067  1.00  0.00     0.010 A 
ATOM     41  C   UNL     1       1.427   5.613  -0.129  1.00  0.00     0.010 A 
ATOM     42  C   UNL     1       2.628   5.439   0.586  1.00  0.00    -0.014 A 
BRANCH  42  43
ATOM     43  C   UNL     1       2.405   4.998   1.972  1.00  0.00     0.031 A 
ATOM     44  C   UNL     1       1.626   5.943   2.806  1.00  0.00     0.074 A 
ATOM     45  C   UNL     1       2.555   3.694   2.339  1.00  0.00     0.049 A 
ATOM     46  N   UNL     1       1.342   5.741   4.037  1.00  0.00    -0.248 NA
ATOM     47  C   UNL     1       1.103   7.232   2.330  1.00  0.00     0.031 C 
ATOM     48  C   UNL     1       1.839   2.912   3.355  1.00  0.00     0.029 A 
ATOM     49  N   UNL     1       3.405   2.729   1.802  1.00  0.00    -0.354 N 
ATOM     50  C   UNL     1       0.350   6.623   4.391  1.00  0.00     0.074 A 
ATOM     51  C   UNL     1       0.319   7.607   3.345  1.00  0.00     0.031 C 
ATOM     52  C   UNL     1       2.460   1.729   3.554  1.00  0.00     0.029 A 
ATOM     53  C   UNL     1       3.666   1.724   2.737  1.00  0.00     0.049 A 
ATOM     54  H   UNL     1       3.771   2.751   0.889  1.00  0.00     0.167 HD
ATOM     55  C   UNL     1      -0.408   6.310   5.474  1.00  0.00     0.031 A 
ATOM     56  C   UNL     1       4.955   1.492   3.099  1.00  0.00     0.031 A 
ATOM     57  C   UNL     1       0.139   5.115   6.133  1.00  0.00     0.049 A 
ATOM     58  C   UNL     1       5.051   2.046   4.494  1.00  0.00     0.074 A 
ATOM     59  C   UNL     1      -0.253   3.790   6.171  1.00  0.00     0.029 A 
ATOM     60  N   UNL     1       1.476   5.138   6.532  1.00  0.00    -0.354 N 
ATOM     61  N   UNL     1       4.281   3.016   4.920  1.00  0.00    -0.248 NA
ATOM     62  C   UNL     1       5.813   1.411   5.564  1.00  0.00     0.031 C 
ATOM     63  C   UNL     1       0.908   3.010   6.485  1.00  0.00     0.029 A 
ATOM     64  C   UNL     1       1.994   3.861   6.650  1.00  0.00     0.049 A 
ATOM     65  H   UNL     1       1.987   5.961   6.707  1.00  0.00     0.167 HD
ATOM     66  C   UNL     1       4.265   2.994   6.277  1.00  0.00     0.074 A 
ATOM     67  C   UNL     1       5.301   2.034   6.639  1.00  0.00     0.031 C 
ATOM     68  C   UNL     1       3.385   3.679   7.061  1.00  0.00     0.031 A 
BRANCH  55  69
ATOM     69  C   UNL     1      -1.725   6.950   5.847  1.00  0.00    -0.014 A 
ATOM     70  C   UNL     1      -2.402   6.470   6.985  1.00  0.00     0.010 A 
ATOM     71  C   UNL     1      -2.383   7.965   5.119  1.00  0.00     0.010 A 
ATOM     72  C   UNL     1      -3.651   6.972   7.380  1.00  0.00     0.020 A 
ATOM     73  C   UNL     1      -3.627   8.492   5.513  1.00  0.00     0.020 A 
ATOM     74  C   UNL     1      -4.255   7.988   6.646  1.00  0.00     0.054 A 
BRANCH  74  75
ATOM     75  S   UNL     1      -5.854   8.636   7.197  1.00  0.00     0.124 S 
ATOM     76  O   UNL     1      -6.720   7.463   7.098  1.00  0.00    -0.237 OA
ATOM     77  O   UNL     1      -5.561   9.088   8.554  1.00  0.00    -0.237 OA
ATOM     78  O   UNL     1      -6.149   9.702   6.241  1.00  0.00    -0.744 OA
ENDBRANCH  74  75
ENDBRANCH  55  69
BRANCH  56  79
ATOM     79  C   UNL     1       5.891   1.603   1.917  1.00  0.00    -0.014 A 
ATOM     80  C   UNL     1       5.878   0.523   0.992  1.00  0.00     0.010 A 
ATOM     81  C   UNL     1       6.326   2.854   1.439  1.00  0.00     0.010 A 
ATOM     82  C   UNL     1       6.130   0.720  -0.379  1.00  0.00     0.020 A 
ATOM     83  C   UNL     1       6.559   3.060   0.059  1.00  0.00     0.020 A 
ATOM     84  C   UNL     1       6.418   2.002  -0.848  1.00  0.00     0.054 A 
BRANCH  84  85
ATOM     85  S   UNL     1       6.250   2.334  -2.647  1.00  0.00     0.124 S 
ATOM     86  O   UNL     1       7.532   1.885  -3.174  1.00  0.00    -0.237 OA
ATOM     87  O   UNL     1       5.097   1.515  -3.025  1.00  0.00    -0.237 OA
ATOM     88  O   UNL     1       6.006   3.771  -2.700  1.00  0.00    -0.744 OA
ENDBRANCH  84  85
ENDBRANCH  56  79
BRANCH  68  89
ATOM     89  C   UNL     1       3.852   4.253   8.362  1.00  0.00    -0.014 A 
ATOM     90  C   UNL     1       5.215   4.356   8.682  1.00  0.00     0.010 A 
ATOM     91  C   UNL     1       2.926   4.874   9.225  1.00  0.00     0.010 A 
ATOM     92  C   UNL     1       5.630   4.926   9.877  1.00  0.00     0.020 A 
ATOM     93  C   UNL     1       3.338   5.525  10.382  1.00  0.00     0.020 A 
ATOM     94  C   UNL     1       4.684   5.494  10.726  1.00  0.00     0.054 A 
BRANCH  94  95
ATOM     95  S   UNL     1       5.244   6.185  12.288  1.00  0.00     0.124 S 
ATOM     96  O   UNL     1       5.439   4.976  13.086  1.00  0.00    -0.237 OA
ATOM     97  O   UNL     1       6.466   6.890  11.909  1.00  0.00    -0.237 OA
ATOM     98  O   UNL     1       4.138   7.041  12.705  1.00  0.00    -0.744 OA
ENDBRANCH  94  95
ENDBRANCH  68  89
ENDBRANCH  42  43
ENDBRANCH  35  37
ENDBRANCH  34  35
ENDBRANCH  33  34
ENDBRANCH  32  33
ENDBRANCH   1  32
TORSDOF 21
