REMARK SMILES O=C(OCCOCCOC(=O)[C@@H]1c2ccccc2C(=O)N(C2CCCC2)C12CCCCC2)c1ccc(-c2c3nc(c(-c4ccc(S(=O)(=O)[O-])cc4)c4ccc([nH]4)c(-c4ccc(S(=O)(=O)[O-])cc4)c4nc(c(-c5ccc(S(=O)(=O)[O-])cc5)c5ccc2[nH]5)C=C4)C=C3)cc1
REMARK SMILES IDX 5 1 4 2 3 3 2 4 1 5 33 6 34 7 92 8 35 9 91 10 36 11 37 12
REMARK SMILES IDX 38 13 85 14 39 15 90 16 84 17 86 18 40 19 89 20 83 21 82 22
REMARK SMILES IDX 41 24 71 25 52 26 70 27 53 28 56 29 69 30 87 31 54 32 55 33
REMARK SMILES IDX 68 35 88 36 57 37 42 38 43 39 51 40 44 41 50 42 45 43 46 44
REMARK SMILES IDX 47 45 48 46 49 47 72 48 73 49 81 50 74 51 80 52 75 53 76 54
REMARK SMILES IDX 77 55 78 56 79 57 58 58 59 59 67 60 60 61 66 62 61 63 62 64
REMARK SMILES IDX 63 65 64 66 65 67 6 68 7 69 8 70 9 71 10 72 11 73 12 74
REMARK SMILES IDX 13 75 27 76 14 77 18 78 21 79 28 80 32 81 15 82 17 83 19 84
REMARK SMILES IDX 29 85 31 86 16 87 20 88 30 89 22 90 23 91 26 92 24 93 25 94
REMARK H PARENT 86 23 56 34
REMARK Flexibility Score: inf
ROOT
ATOM      1  C   UNL     1       4.984   7.104  -1.113  1.00  0.00     0.202 C 
ENDROOT
BRANCH   1   2
ATOM      2  C   UNL     1       4.274   8.454  -1.184  1.00  0.00     0.261 C 
BRANCH   2   3
ATOM      3  O   UNL     1       4.726   9.266  -2.275  1.00  0.00    -0.460 OA
BRANCH   3   4
ATOM      4  C   UNL     1       5.846  10.024  -2.356  1.00  0.00     0.338 C 
ATOM      5  O   UNL     1       6.024  10.659  -3.396  1.00  0.00    -0.246 OA
BRANCH   4   6
ATOM      6  C   UNL     1       6.930  10.066  -1.315  1.00  0.00     0.060 A 
ATOM      7  C   UNL     1       8.135  10.695  -1.685  1.00  0.00     0.016 A 
ATOM      8  C   UNL     1       6.878   9.472  -0.052  1.00  0.00     0.016 A 
ATOM      9  C   UNL     1       9.255  10.663  -0.849  1.00  0.00     0.010 A 
ATOM     10  C   UNL     1       8.006   9.341   0.737  1.00  0.00     0.010 A 
ATOM     11  C   UNL     1       9.190   9.957   0.352  1.00  0.00    -0.014 A 
BRANCH  11  12
ATOM     12  C   UNL     1      10.223  10.036   1.387  1.00  0.00     0.031 A 
ATOM     13  C   UNL     1      11.204   8.934   1.586  1.00  0.00     0.074 A 
ATOM     14  C   UNL     1      10.060  11.032   2.275  1.00  0.00     0.049 A 
ATOM     15  N   UNL     1      12.200   8.880   2.426  1.00  0.00    -0.248 NA
ATOM     16  C   UNL     1      11.037   7.724   0.764  1.00  0.00     0.031 C 
ATOM     17  C   UNL     1       8.979  12.027   2.217  1.00  0.00     0.029 A 
ATOM     18  N   UNL     1      10.743  11.348   3.411  1.00  0.00    -0.354 N 
ATOM     19  C   UNL     1      12.816   7.657   2.200  1.00  0.00     0.074 A 
ATOM     20  C   UNL     1      12.032   6.962   1.204  1.00  0.00     0.031 C 
ATOM     21  C   UNL     1       9.071  12.838   3.276  1.00  0.00     0.029 A 
ATOM     22  C   UNL     1      10.235  12.447   4.057  1.00  0.00     0.049 A 
ATOM     23  H   UNL     1      11.521  10.840   3.735  1.00  0.00     0.167 HD
ATOM     24  C   UNL     1      13.956   7.199   2.768  1.00  0.00     0.031 A 
ATOM     25  C   UNL     1      10.699  13.105   5.133  1.00  0.00     0.031 A 
ATOM     26  C   UNL     1      14.640   7.928   3.809  1.00  0.00     0.049 A 
ATOM     27  C   UNL     1      12.011  12.646   5.685  1.00  0.00     0.074 A 
ATOM     28  C   UNL     1      15.839   7.638   4.431  1.00  0.00     0.029 A 
ATOM     29  N   UNL     1      14.163   9.101   4.389  1.00  0.00    -0.354 N 
ATOM     30  N   UNL     1      12.700  11.576   5.356  1.00  0.00    -0.248 NA
ATOM     31  C   UNL     1      12.643  13.495   6.694  1.00  0.00     0.031 C 
ATOM     32  C   UNL     1      16.058   8.602   5.420  1.00  0.00     0.029 A 
ATOM     33  C   UNL     1      15.032   9.537   5.372  1.00  0.00     0.049 A 
ATOM     34  H   UNL     1      13.327   9.555   4.135  1.00  0.00     0.167 HD
ATOM     35  C   UNL     1      13.859  11.623   6.112  1.00  0.00     0.074 A 
ATOM     36  C   UNL     1      13.784  12.846   6.896  1.00  0.00     0.031 C 
ATOM     37  C   UNL     1      14.888  10.741   6.160  1.00  0.00     0.031 A 
BRANCH  24  38
ATOM     38  C   UNL     1      14.559   5.915   2.247  1.00  0.00    -0.014 A 
ATOM     39  C   UNL     1      14.774   4.816   3.098  1.00  0.00     0.010 A 
ATOM     40  C   UNL     1      15.031   5.841   0.921  1.00  0.00     0.010 A 
ATOM     41  C   UNL     1      15.470   3.686   2.647  1.00  0.00     0.020 A 
ATOM     42  C   UNL     1      15.701   4.705   0.456  1.00  0.00     0.020 A 
ATOM     43  C   UNL     1      15.939   3.643   1.331  1.00  0.00     0.054 A 
BRANCH  43  44
ATOM     44  S   UNL     1      16.872   2.190   0.771  1.00  0.00     0.124 S 
ATOM     45  O   UNL     1      18.158   2.373   1.437  1.00  0.00    -0.237 OA
ATOM     46  O   UNL     1      16.058   1.080   1.260  1.00  0.00    -0.237 OA
ATOM     47  O   UNL     1      16.895   2.337  -0.684  1.00  0.00    -0.744 OA
ENDBRANCH  43  44
ENDBRANCH  24  38
BRANCH  25  48
ATOM     48  C   UNL     1       9.992  14.347   5.540  1.00  0.00    -0.014 A 
ATOM     49  C   UNL     1       8.721  14.277   6.145  1.00  0.00     0.010 A 
ATOM     50  C   UNL     1      10.463  15.589   5.081  1.00  0.00     0.010 A 
ATOM     51  C   UNL     1       7.906  15.412   6.211  1.00  0.00     0.020 A 
ATOM     52  C   UNL     1       9.659  16.730   5.164  1.00  0.00     0.020 A 
ATOM     53  C   UNL     1       8.370  16.625   5.692  1.00  0.00     0.054 A 
BRANCH  53  54
ATOM     54  S   UNL     1       7.245  18.048   5.653  1.00  0.00     0.124 S 
ATOM     55  O   UNL     1       6.346  17.689   4.559  1.00  0.00    -0.237 OA
ATOM     56  O   UNL     1       6.653  18.025   6.988  1.00  0.00    -0.237 OA
ATOM     57  O   UNL     1       8.132  19.178   5.387  1.00  0.00    -0.744 OA
ENDBRANCH  53  54
ENDBRANCH  25  48
BRANCH  37  58
ATOM     58  C   UNL     1      15.983  11.039   7.142  1.00  0.00    -0.014 A 
ATOM     59  C   UNL     1      17.267  11.380   6.682  1.00  0.00     0.010 A 
ATOM     60  C   UNL     1      15.758  10.881   8.521  1.00  0.00     0.010 A 
ATOM     61  C   UNL     1      18.317  11.536   7.586  1.00  0.00     0.020 A 
ATOM     62  C   UNL     1      16.799  11.066   9.429  1.00  0.00     0.020 A 
ATOM     63  C   UNL     1      18.077  11.371   8.953  1.00  0.00     0.054 A 
BRANCH  63  64
ATOM     64  S   UNL     1      19.454  11.569  10.114  1.00  0.00     0.124 S 
ATOM     65  O   UNL     1      20.162  10.301   9.967  1.00  0.00    -0.237 OA
ATOM     66  O   UNL     1      20.148  12.744   9.592  1.00  0.00    -0.237 OA
ATOM     67  O   UNL     1      18.789  11.770  11.400  1.00  0.00    -0.744 OA
ENDBRANCH  63  64
ENDBRANCH  37  58
ENDBRANCH  11  12
ENDBRANCH   4   6
ENDBRANCH   3   4
ENDBRANCH   2   3
ENDBRANCH   1   2
BRANCH   1  68
ATOM     68  O   UNL     1       6.402   7.140  -1.175  1.00  0.00    -0.374 OA
BRANCH  68  69
ATOM     69  C   UNL     1       6.968   6.831  -2.448  1.00  0.00     0.202 C 
BRANCH  69  70
ATOM     70  C   UNL     1       7.404   5.374  -2.504  1.00  0.00     0.261 C 
BRANCH  70  71
ATOM     71  O   UNL     1       6.284   4.484  -2.630  1.00  0.00    -0.463 OA
BRANCH  71  72
ATOM     72  C   UNL     1       5.688   4.032  -1.496  1.00  0.00     0.315 C 
ATOM     73  O   UNL     1       5.878   4.462  -0.360  1.00  0.00    -0.251 OA
BRANCH  72  74
ATOM     74  C   UNL     1       4.934   2.745  -1.764  1.00  0.00     0.156 C 
ATOM     75  C   UNL     1       5.965   1.715  -2.209  1.00  0.00    -0.019 A 
ATOM     76  C   UNL     1       3.667   2.880  -2.707  1.00  0.00     0.061 C 
ATOM     77  C   UNL     1       7.224   1.641  -1.574  1.00  0.00     0.005 A 
ATOM     78  C   UNL     1       5.707   0.875  -3.289  1.00  0.00     0.044 A 
ATOM     79  N   UNL     1       3.318   1.436  -3.098  1.00  0.00    -0.329 N 
ATOM     80  C   UNL     1       3.910   3.604  -4.078  1.00  0.00     0.030 C 
ATOM     81  C   UNL     1       2.516   3.595  -1.916  1.00  0.00     0.030 C 
ATOM     82  C   UNL     1       8.251   0.874  -2.116  1.00  0.00     0.000 A 
ATOM     83  C   UNL     1       6.747   0.120  -3.847  1.00  0.00     0.014 A 
ATOM     84  C   UNL     1       4.307   0.662  -3.733  1.00  0.00     0.254 C 
ATOM     85  C   UNL     1       3.714   5.113  -4.162  1.00  0.00     0.002 C 
ATOM     86  C   UNL     1       2.292   5.091  -2.078  1.00  0.00     0.002 C 
ATOM     87  C   UNL     1       8.023   0.147  -3.280  1.00  0.00     0.001 A 
ATOM     88  O   UNL     1       4.059  -0.237  -4.536  1.00  0.00    -0.269 OA
ATOM     89  C   UNL     1       2.440   5.595  -3.499  1.00  0.00     0.000 C 
BRANCH  79  90
ATOM     90  C   UNL     1       1.980   0.829  -3.018  1.00  0.00     0.086 C 
ATOM     91  C   UNL     1       1.441   0.656  -1.595  1.00  0.00     0.025 C 
ATOM     92  C   UNL     1       0.883   1.484  -3.859  1.00  0.00     0.025 C 
ATOM     93  C   UNL     1      -0.068   0.625  -1.761  1.00  0.00     0.002 C 
ATOM     94  C   UNL     1      -0.383   1.445  -3.007  1.00  0.00     0.002 C 
ENDBRANCH  79  90
ENDBRANCH  72  74
ENDBRANCH  71  72
ENDBRANCH  70  71
ENDBRANCH  69  70
ENDBRANCH  68  69
ENDBRANCH   1  68
TORSDOF 18
