REMARK SMILES CC(=O)c1ccc(N2CCN(c3ccc(C(=O)OCCOCCOC(=O)c4ccc(-c5c6nc(c(-c7ccc(S(=O)(=O)[O-])cc7)c7ccc([nH]7)c(-c7ccc(S(=O)(=O)[O-])cc7)c7nc(c(-c8ccc(S(=O)(=O)[O-])cc8)c8ccc5[nH]8)C=C7)C=C6)cc4)cc3NS(=O)(=O)c3ccc(C)cc3)CC2)cc1
REMARK SMILES IDX 21 1 20 2 19 3 18 4 16 5 17 6 15 7 12 8 13 9 88 10 14 11
REMARK SMILES IDX 87 12 11 13 8 14 9 15 101 16 10 17 100 18 7 19 4 20 5 21
REMARK SMILES IDX 103 22 6 23 102 24 2 25 1 26 3 27 89 28 90 30 91 31 92 32
REMARK SMILES IDX 93 33 94 34 99 35 95 36 98 37 96 38 97 39 22 40 23 41 24 42
REMARK SMILES IDX 25 43 26 44 27 45 28 46 86 47 29 48 85 49 30 50 31 51 32 52
REMARK SMILES IDX 79 53 33 54 84 55 78 56 80 57 34 58 83 59 77 60 76 61 35 63
REMARK SMILES IDX 65 64 46 65 64 66 47 67 50 68 63 69 81 70 48 71 49 72 62 74
REMARK SMILES IDX 82 75 51 76 36 77 37 78 45 79 38 80 44 81 39 82 40 83 41 84
REMARK SMILES IDX 42 85 43 86 66 87 67 88 75 89 68 90 74 91 69 92 70 93 71 94
REMARK SMILES IDX 72 95 73 96 52 97 53 98 61 99 54 100 60 101 55 102 56 103
REMARK SMILES IDX 57 104 58 105 59 106
REMARK H PARENT 89 29 80 62 50 73
REMARK Flexibility Score: inf
ROOT
ATOM      1  O   UNL     1       3.432 -12.772  11.119  1.00  0.00    -0.374 OA
ENDROOT
BRANCH   1   2
ATOM      2  C   UNL     1       4.240 -12.198  12.149  1.00  0.00     0.202 C 
BRANCH   2   3
ATOM      3  C   UNL     1       5.503 -11.478  11.661  1.00  0.00     0.261 C 
BRANCH   3   4
ATOM      4  O   UNL     1       5.169 -10.285  10.927  1.00  0.00    -0.460 OA
BRANCH   4   5
ATOM      5  C   UNL     1       5.559 -10.256   9.630  1.00  0.00     0.338 C 
ATOM      6  O   UNL     1       6.245 -11.090   9.062  1.00  0.00    -0.246 OA
BRANCH   5   7
ATOM      7  C   UNL     1       4.972  -9.088   8.916  1.00  0.00     0.062 A 
ATOM      8  C   UNL     1       3.907  -6.934   7.446  1.00  0.00     0.061 A 
ATOM      9  C   UNL     1       4.522  -8.003   6.789  1.00  0.00     0.029 A 
ATOM     10  C   UNL     1       3.820  -6.961   8.854  1.00  0.00     0.073 A 
ATOM     11  C   UNL     1       5.061  -9.065   7.519  1.00  0.00     0.018 A 
ATOM     12  C   UNL     1       4.314  -8.046   9.578  1.00  0.00     0.044 A 
BRANCH   8  13
ATOM     13  N   UNL     1       3.326  -5.877   6.761  1.00  0.00    -0.366 N 
ATOM     14  N   UNL     1       2.160  -3.741   5.361  1.00  0.00    -0.368 N 
ATOM     15  C   UNL     1       1.365  -4.948   5.626  1.00  0.00     0.138 C 
ATOM     16  C   UNL     1       3.256  -3.448   6.304  1.00  0.00     0.138 C 
ATOM     17  C   UNL     1       2.309  -6.164   5.741  1.00  0.00     0.138 C 
ATOM     18  C   UNL     1       4.161  -4.690   6.487  1.00  0.00     0.138 C 
BRANCH  14  19
ATOM     19  C   UNL     1       1.727  -2.795   4.465  1.00  0.00     0.037 A 
ATOM     20  C   UNL     1       0.861  -0.975   2.494  1.00  0.00     0.017 A 
ATOM     21  C   UNL     1      -0.028  -1.434   3.470  1.00  0.00     0.014 A 
ATOM     22  C   UNL     1       2.190  -1.402   2.518  1.00  0.00     0.014 A 
ATOM     23  C   UNL     1       0.402  -2.348   4.436  1.00  0.00     0.026 A 
ATOM     24  C   UNL     1       2.615  -2.291   3.507  1.00  0.00     0.026 A 
BRANCH  20  25
ATOM     25  C   UNL     1       0.352  -0.050   1.447  1.00  0.00     0.159 C 
ATOM     26  C   UNL     1       1.018  -0.060   0.095  1.00  0.00     0.093 C 
ATOM     27  O   UNL     1      -0.629   0.653   1.674  1.00  0.00    -0.295 OA
ENDBRANCH  20  25
ENDBRANCH  14  19
ENDBRANCH   8  13
BRANCH  10  28
ATOM     28  N   UNL     1       3.104  -5.883   9.486  1.00  0.00    -0.277 N 
ATOM     29  H   UNL     1       2.134  -5.783   9.351  1.00  0.00     0.180 HD
BRANCH  28  30
ATOM     30  S   UNL     1       3.950  -4.784  10.466  1.00  0.00     0.261 S 
ATOM     31  O   UNL     1       5.218  -4.479   9.838  1.00  0.00    -0.201 OA
ATOM     32  O   UNL     1       3.013  -3.732  10.799  1.00  0.00    -0.201 OA
BRANCH  30  33
ATOM     33  C   UNL     1       4.231  -5.748  11.920  1.00  0.00     0.087 A 
ATOM     34  C   UNL     1       5.497  -6.302  12.134  1.00  0.00     0.022 A 
ATOM     35  C   UNL     1       3.134  -6.114  12.699  1.00  0.00     0.022 A 
ATOM     36  C   UNL     1       5.631  -7.346  13.043  1.00  0.00     0.005 A 
ATOM     37  C   UNL     1       3.284  -7.143  13.619  1.00  0.00     0.005 A 
ATOM     38  C   UNL     1       4.517  -7.796  13.757  1.00  0.00    -0.051 A 
ATOM     39  C   UNL     1       4.613  -9.049  14.563  1.00  0.00     0.044 C 
ENDBRANCH  30  33
ENDBRANCH  28  30
ENDBRANCH  10  28
ENDBRANCH   5   7
ENDBRANCH   4   5
ENDBRANCH   3   4
ENDBRANCH   2   3
ENDBRANCH   1   2
BRANCH   1  40
ATOM     40  C   UNL     1       2.567 -11.874  10.427  1.00  0.00     0.202 C 
BRANCH  40  41
ATOM     41  C   UNL     1       1.221 -11.567  11.098  1.00  0.00     0.261 C 
BRANCH  41  42
ATOM     42  O   UNL     1       1.348 -10.928  12.380  1.00  0.00    -0.460 OA
BRANCH  42  43
ATOM     43  C   UNL     1       1.155 -11.742  13.449  1.00  0.00     0.338 C 
ATOM     44  O   UNL     1       0.915 -12.939  13.424  1.00  0.00    -0.246 OA
BRANCH  43  45
ATOM     45  C   UNL     1       1.395 -10.995  14.703  1.00  0.00     0.060 A 
ATOM     46  C   UNL     1       2.159 -11.606  15.706  1.00  0.00     0.016 A 
ATOM     47  C   UNL     1       0.846  -9.729  14.915  1.00  0.00     0.016 A 
ATOM     48  C   UNL     1       2.371 -10.954  16.926  1.00  0.00     0.010 A 
ATOM     49  C   UNL     1       1.062  -9.076  16.136  1.00  0.00     0.010 A 
ATOM     50  C   UNL     1       1.814  -9.689  17.157  1.00  0.00    -0.014 A 
BRANCH  50  51
ATOM     51  C   UNL     1       1.885  -9.065  18.506  1.00  0.00     0.031 A 
ATOM     52  C   UNL     1       0.670  -9.143  19.390  1.00  0.00     0.074 A 
ATOM     53  C   UNL     1       2.988  -8.428  18.947  1.00  0.00     0.049 A 
ATOM     54  N   UNL     1       0.505  -8.693  20.607  1.00  0.00    -0.248 NA
ATOM     55  C   UNL     1      -0.512  -9.819  18.829  1.00  0.00     0.031 C 
ATOM     56  C   UNL     1       4.243  -8.293  18.215  1.00  0.00     0.029 A 
ATOM     57  N   UNL     1       3.228  -7.759  20.124  1.00  0.00    -0.354 N 
ATOM     58  C   UNL     1      -0.792  -9.042  20.961  1.00  0.00     0.074 A 
ATOM     59  C   UNL     1      -1.388  -9.688  19.813  1.00  0.00     0.031 C 
ATOM     60  C   UNL     1       5.107  -7.557  18.932  1.00  0.00     0.029 A 
ATOM     61  C   UNL     1       4.475  -7.178  20.189  1.00  0.00     0.049 A 
ATOM     62  H   UNL     1       2.569  -7.701  20.853  1.00  0.00     0.167 HD
ATOM     63  C   UNL     1      -1.424  -8.865  22.144  1.00  0.00     0.031 A 
ATOM     64  C   UNL     1       5.054  -6.434  21.152  1.00  0.00     0.031 A 
ATOM     65  C   UNL     1      -0.844  -8.200  23.279  1.00  0.00     0.049 A 
ATOM     66  C   UNL     1       4.308  -6.190  22.436  1.00  0.00     0.074 A 
ATOM     67  C   UNL     1      -1.397  -7.996  24.530  1.00  0.00     0.029 A 
ATOM     68  N   UNL     1       0.415  -7.619  23.297  1.00  0.00    -0.354 N 
ATOM     69  N   UNL     1       3.111  -6.601  22.782  1.00  0.00    -0.248 NA
ATOM     70  C   UNL     1       5.002  -5.411  23.471  1.00  0.00     0.031 C 
ATOM     71  C   UNL     1      -0.496  -7.239  25.286  1.00  0.00     0.029 A 
ATOM     72  C   UNL     1       0.645  -7.030  24.528  1.00  0.00     0.049 A 
ATOM     73  H   UNL     1       1.051  -7.624  22.545  1.00  0.00     0.167 HD
ATOM     74  C   UNL     1       2.926  -6.166  24.090  1.00  0.00     0.074 A 
ATOM     75  C   UNL     1       4.136  -5.467  24.474  1.00  0.00     0.031 C 
ATOM     76  C   UNL     1       1.855  -6.340  24.902  1.00  0.00     0.031 A 
BRANCH  63  77
ATOM     77  C   UNL     1      -2.830  -9.389  22.256  1.00  0.00    -0.014 A 
ATOM     78  C   UNL     1      -3.085 -10.773  22.280  1.00  0.00     0.010 A 
ATOM     79  C   UNL     1      -3.906  -8.491  22.352  1.00  0.00     0.010 A 
ATOM     80  C   UNL     1      -4.396 -11.248  22.354  1.00  0.00     0.020 A 
ATOM     81  C   UNL     1      -5.218  -8.962  22.456  1.00  0.00     0.020 A 
ATOM     82  C   UNL     1      -5.455 -10.338  22.437  1.00  0.00     0.054 A 
BRANCH  82  83
ATOM     83  S   UNL     1      -7.146 -10.984  22.543  1.00  0.00     0.124 S 
ATOM     84  O   UNL     1      -7.364 -11.477  21.185  1.00  0.00    -0.237 OA
ATOM     85  O   UNL     1      -7.032 -12.012  23.573  1.00  0.00    -0.237 OA
ATOM     86  O   UNL     1      -7.940  -9.816  22.916  1.00  0.00    -0.744 OA
ENDBRANCH  82  83
ENDBRANCH  63  77
BRANCH  64  87
ATOM     87  C   UNL     1       6.429  -5.893  20.959  1.00  0.00    -0.014 A 
ATOM     88  C   UNL     1       7.512  -6.404  21.697  1.00  0.00     0.010 A 
ATOM     89  C   UNL     1       6.663  -4.854  20.039  1.00  0.00     0.010 A 
ATOM     90  C   UNL     1       8.794  -5.870  21.540  1.00  0.00     0.020 A 
ATOM     91  C   UNL     1       7.949  -4.334  19.860  1.00  0.00     0.020 A 
ATOM     92  C   UNL     1       9.005  -4.837  20.622  1.00  0.00     0.054 A 
BRANCH  92  93
ATOM     93  S   UNL     1      10.686  -4.185  20.412  1.00  0.00     0.124 S 
ATOM     94  O   UNL     1      10.882  -3.442  21.652  1.00  0.00    -0.237 OA
ATOM     95  O   UNL     1      11.480  -5.404  20.271  1.00  0.00    -0.237 OA
ATOM     96  O   UNL     1      10.589  -3.372  19.202  1.00  0.00    -0.744 OA
ENDBRANCH  92  93
ENDBRANCH  64  87
BRANCH  76  97
ATOM     97  C   UNL     1       1.949  -5.808  26.307  1.00  0.00    -0.014 A 
ATOM     98  C   UNL     1       1.916  -4.428  26.573  1.00  0.00     0.010 A 
ATOM     99  C   UNL     1       2.005  -6.712  27.384  1.00  0.00     0.010 A 
ATOM    100  C   UNL     1       1.965  -3.962  27.890  1.00  0.00     0.020 A 
ATOM    101  C   UNL     1       2.023  -6.251  28.702  1.00  0.00     0.020 A 
ATOM    102  C   UNL     1       2.016  -4.877  28.946  1.00  0.00     0.054 A 
BRANCH 102 103
ATOM    103  S   UNL     1       2.025  -4.248  30.647  1.00  0.00     0.124 S 
ATOM    104  O   UNL     1       3.379  -3.715  30.767  1.00  0.00    -0.237 OA
ATOM    105  O   UNL     1       0.956  -3.252  30.625  1.00  0.00    -0.237 OA
ATOM    106  O   UNL     1       1.747  -5.433  31.456  1.00  0.00    -0.744 OA
ENDBRANCH 102 103
ENDBRANCH  76  97
ENDBRANCH  50  51
ENDBRANCH  43  45
ENDBRANCH  42  43
ENDBRANCH  41  42
ENDBRANCH  40  41
ENDBRANCH   1  40
TORSDOF 23
