REMARK SMILES Cc1c(C(=O)OCCOCCOC(=O)c2ccc(-c3c4nc(c(-c5ccc(S(=O)(=O)[O-])cc5)c5ccc([nH]5)c(-c5ccc(S(=O)(=O)[O-])cc5)c5nc(c(-c6ccc(S(=O)(=O)[O-])cc6)c6ccc3[nH]6)C=C5)C=C4)cc2)cccc1-n1c(C)cc(/C=C2/C(=O)NC(=S)N=C2O)c1C
REMARK SMILES IDX 9 1 8 2 7 3 6 4 4 5 5 6 3 7 1 8 2 9 78 10 75 11 77 12 76 13
REMARK SMILES IDX 79 14 80 15 94 16 81 17 82 18 83 19 95 20 84 21 85 22 86 23
REMARK SMILES IDX 92 24 87 25 88 26 91 27 89 28 90 30 93 31 10 33 11 34 12 35
REMARK SMILES IDX 13 36 14 37 15 38 16 39 74 40 17 41 73 42 18 43 19 44 20 45
REMARK SMILES IDX 67 46 21 47 72 48 66 49 68 50 22 51 71 52 65 53 64 54 23 56
REMARK SMILES IDX 53 57 34 58 52 59 35 60 38 61 51 62 69 63 36 64 37 65 50 67
REMARK SMILES IDX 70 68 39 69 24 70 25 71 33 72 26 73 32 74 27 75 28 76 29 77
REMARK SMILES IDX 30 78 31 79 54 80 55 81 63 82 56 83 62 84 57 85 58 86 59 87
REMARK SMILES IDX 60 88 61 89 40 90 41 91 49 92 42 93 48 94 43 95 44 96 45 97
REMARK SMILES IDX 46 98 47 99
REMARK H PARENT 88 29 93 32 68 55 38 66
REMARK Flexibility Score: inf
ROOT
ATOM      1  O   UNL     1       0.894  -3.376   2.219  1.00  0.00    -0.374 OA
ENDROOT
BRANCH   1   2
ATOM      2  C   UNL     1       2.105  -2.652   2.340  1.00  0.00     0.202 C 
BRANCH   2   3
ATOM      3  C   UNL     1       2.617  -2.542   0.945  1.00  0.00     0.261 C 
BRANCH   3   4
ATOM      4  O   UNL     1       1.727  -1.812   0.077  1.00  0.00    -0.460 OA
BRANCH   4   5
ATOM      5  C   UNL     1       0.421  -2.035  -0.159  1.00  0.00     0.338 C 
ATOM      6  O   UNL     1      -0.182  -3.075  -0.216  1.00  0.00    -0.246 OA
BRANCH   5   7
ATOM      7  C   UNL     1      -0.199  -0.683  -0.313  1.00  0.00     0.065 A 
ATOM      8  C   UNL     1       1.984   0.607   0.206  1.00  0.00     0.047 C 
ATOM      9  C   UNL     1       0.518   0.531  -0.192  1.00  0.00    -0.012 A 
ATOM     10  C   UNL     1      -0.214   1.716  -0.346  1.00  0.00     0.049 A 
ATOM     11  C   UNL     1      -1.598  -0.667  -0.494  1.00  0.00     0.016 A 
ATOM     12  C   UNL     1      -1.607   1.738  -0.485  1.00  0.00     0.027 A 
ATOM     13  C   UNL     1      -2.301   0.537  -0.552  1.00  0.00     0.003 A 
BRANCH  10  14
ATOM     14  N   UNL     1       0.454   2.941  -0.186  1.00  0.00    -0.318 N 
ATOM     15  C   UNL     1       1.359   3.486  -1.083  1.00  0.00     0.020 A 
ATOM     16  C   UNL     1       0.637   3.541   1.054  1.00  0.00     0.027 A 
ATOM     17  C   UNL     1       1.730   2.845  -2.381  1.00  0.00     0.065 C 
ATOM     18  C   UNL     1       1.826   4.649  -0.505  1.00  0.00     0.031 A 
ATOM     19  C   UNL     1       1.298   4.732   0.815  1.00  0.00    -0.003 A 
ATOM     20  C   UNL     1       0.220   2.838   2.311  1.00  0.00     0.065 C 
BRANCH  19  21
ATOM     21  C   UNL     1       1.618   5.782   1.723  1.00  0.00     0.029 C 
ATOM     22  C   UNL     1       0.948   6.276   2.780  1.00  0.00     0.102 C 
ATOM     23  C   UNL     1       1.639   7.350   3.534  1.00  0.00     0.262 C 
ATOM     24  C   UNL     1      -0.338   5.891   3.365  1.00  0.00     0.226 C 
ATOM     25  O   UNL     1       2.571   8.017   3.100  1.00  0.00    -0.269 OA
ATOM     26  N   UNL     1       1.146   7.543   4.795  1.00  0.00    -0.297 N 
ATOM     27  N   UNL     1      -0.755   6.163   4.548  1.00  0.00    -0.184 NA
ATOM     28  C   UNL     1       0.045   6.935   5.345  1.00  0.00     0.203 C 
ATOM     29  H   UNL     1       1.630   8.183   5.366  1.00  0.00     0.172 HD
ATOM     30  S   UNL     1      -0.295   7.256   6.955  1.00  0.00    -0.038 S 
BRANCH  24  31
ATOM     31  O   UNL     1      -1.199   5.256   2.570  1.00  0.00    -0.493 OA
ATOM     32  H   UNL     1      -0.950   5.031   1.695  1.00  0.00     0.295 HD
ENDBRANCH  24  31
ENDBRANCH  19  21
ENDBRANCH  10  14
ENDBRANCH   5   7
ENDBRANCH   4   5
ENDBRANCH   3   4
ENDBRANCH   2   3
ENDBRANCH   1   2
BRANCH   1  33
ATOM     33  C   UNL     1       0.140  -3.522   3.393  1.00  0.00     0.202 C 
BRANCH  33  34
ATOM     34  C   UNL     1       0.907  -4.310   4.453  1.00  0.00     0.261 C 
BRANCH  34  35
ATOM     35  O   UNL     1       1.131  -5.664   3.998  1.00  0.00    -0.460 OA
BRANCH  35  36
ATOM     36  C   UNL     1       2.397  -5.951   3.565  1.00  0.00     0.338 C 
ATOM     37  O   UNL     1       3.357  -6.058   4.307  1.00  0.00    -0.246 OA
BRANCH  36  38
ATOM     38  C   UNL     1       2.427  -6.101   2.077  1.00  0.00     0.060 A 
ATOM     39  C   UNL     1       3.630  -6.008   1.347  1.00  0.00     0.016 A 
ATOM     40  C   UNL     1       1.216  -6.112   1.395  1.00  0.00     0.016 A 
ATOM     41  C   UNL     1       3.611  -5.788  -0.048  1.00  0.00     0.010 A 
ATOM     42  C   UNL     1       1.200  -5.786   0.055  1.00  0.00     0.010 A 
ATOM     43  C   UNL     1       2.385  -5.601  -0.683  1.00  0.00    -0.014 A 
BRANCH  43  44
ATOM     44  C   UNL     1       2.146  -5.159  -2.065  1.00  0.00     0.031 A 
ATOM     45  C   UNL     1       1.410  -6.081  -2.955  1.00  0.00     0.074 A 
ATOM     46  C   UNL     1       2.217  -3.852  -2.422  1.00  0.00     0.049 A 
ATOM     47  N   UNL     1       1.242  -5.890  -4.217  1.00  0.00    -0.248 NA
ATOM     48  C   UNL     1       0.812  -7.331  -2.487  1.00  0.00     0.031 C 
ATOM     49  C   UNL     1       1.373  -3.135  -3.381  1.00  0.00     0.029 A 
ATOM     50  N   UNL     1       3.082  -2.862  -1.972  1.00  0.00    -0.354 N 
ATOM     51  C   UNL     1       0.212  -6.713  -4.604  1.00  0.00     0.074 A 
ATOM     52  C   UNL     1       0.078  -7.681  -3.543  1.00  0.00     0.031 C 
ATOM     53  C   UNL     1       1.872  -1.904  -3.594  1.00  0.00     0.029 A 
ATOM     54  C   UNL     1       3.153  -1.830  -2.913  1.00  0.00     0.049 A 
ATOM     55  H   UNL     1       3.572  -2.883  -1.119  1.00  0.00     0.167 HD
ATOM     56  C   UNL     1      -0.542  -6.369  -5.684  1.00  0.00     0.031 A 
ATOM     57  C   UNL     1       4.355  -1.439  -3.415  1.00  0.00     0.031 A 
ATOM     58  C   UNL     1      -0.087  -5.102  -6.286  1.00  0.00     0.049 A 
ATOM     59  C   UNL     1       4.403  -1.773  -4.881  1.00  0.00     0.074 A 
ATOM     60  C   UNL     1      -0.619  -3.822  -6.340  1.00  0.00     0.029 A 
ATOM     61  N   UNL     1       1.247  -4.963  -6.670  1.00  0.00    -0.354 N 
ATOM     62  N   UNL     1       3.468  -2.466  -5.470  1.00  0.00    -0.248 NA
ATOM     63  C   UNL     1       5.455  -1.387  -5.806  1.00  0.00     0.031 C 
ATOM     64  C   UNL     1       0.402  -2.929  -6.785  1.00  0.00     0.029 A 
ATOM     65  C   UNL     1       1.552  -3.661  -7.029  1.00  0.00     0.049 A 
ATOM     66  H   UNL     1       1.895  -5.704  -6.684  1.00  0.00     0.167 HD
ATOM     67  C   UNL     1       3.740  -2.638  -6.787  1.00  0.00     0.074 A 
ATOM     68  C   UNL     1       5.026  -1.970  -6.944  1.00  0.00     0.031 C 
ATOM     69  C   UNL     1       2.872  -3.333  -7.585  1.00  0.00     0.031 A 
BRANCH  56  70
ATOM     70  C   UNL     1      -1.858  -7.050  -6.015  1.00  0.00    -0.014 A 
ATOM     71  C   UNL     1      -2.820  -6.382  -6.797  1.00  0.00     0.010 A 
ATOM     72  C   UNL     1      -2.213  -8.348  -5.588  1.00  0.00     0.010 A 
ATOM     73  C   UNL     1      -4.074  -6.948  -7.084  1.00  0.00     0.020 A 
ATOM     74  C   UNL     1      -3.477  -8.909  -5.825  1.00  0.00     0.020 A 
ATOM     75  C   UNL     1      -4.401  -8.206  -6.585  1.00  0.00     0.054 A 
BRANCH  75  76
ATOM     76  S   UNL     1      -6.012  -8.931  -6.982  1.00  0.00     0.124 S 
ATOM     77  O   UNL     1      -6.945  -7.907  -6.520  1.00  0.00    -0.237 OA
ATOM     78  O   UNL     1      -5.927  -9.101  -8.429  1.00  0.00    -0.237 OA
ATOM     79  O   UNL     1      -6.034 -10.175  -6.212  1.00  0.00    -0.744 OA
ENDBRANCH  75  76
ENDBRANCH  56  70
BRANCH  57  80
ATOM     80  C   UNL     1       5.452  -1.484  -2.386  1.00  0.00    -0.014 A 
ATOM     81  C   UNL     1       5.493  -0.420  -1.453  1.00  0.00     0.010 A 
ATOM     82  C   UNL     1       5.998  -2.723  -1.993  1.00  0.00     0.010 A 
ATOM     83  C   UNL     1       5.883  -0.636  -0.120  1.00  0.00     0.020 A 
ATOM     84  C   UNL     1       6.365  -2.949  -0.651  1.00  0.00     0.020 A 
ATOM     85  C   UNL     1       6.256  -1.917   0.288  1.00  0.00     0.054 A 
BRANCH  85  86
ATOM     86  S   UNL     1       6.262  -2.304   2.080  1.00  0.00     0.124 S 
ATOM     87  O   UNL     1       7.607  -1.914   2.483  1.00  0.00    -0.237 OA
ATOM     88  O   UNL     1       5.182  -1.464   2.602  1.00  0.00    -0.237 OA
ATOM     89  O   UNL     1       5.972  -3.734   2.109  1.00  0.00    -0.744 OA
ENDBRANCH  85  86
ENDBRANCH  57  80
BRANCH  69  90
ATOM     90  C   UNL     1       3.185  -3.805  -8.981  1.00  0.00    -0.014 A 
ATOM     91  C   UNL     1       4.151  -3.230  -9.811  1.00  0.00     0.010 A 
ATOM     92  C   UNL     1       2.474  -4.912  -9.508  1.00  0.00     0.010 A 
ATOM     93  C   UNL     1       4.490  -3.809 -11.037  1.00  0.00     0.020 A 
ATOM     94  C   UNL     1       2.783  -5.487 -10.738  1.00  0.00     0.020 A 
ATOM     95  C   UNL     1       3.818  -4.947 -11.481  1.00  0.00     0.054 A 
BRANCH  95  96
ATOM     96  S   UNL     1       4.299  -5.679 -13.055  1.00  0.00     0.124 S 
ATOM     97  O   UNL     1       4.215  -4.539 -13.965  1.00  0.00    -0.237 OA
ATOM     98  O   UNL     1       5.651  -6.154 -12.768  1.00  0.00    -0.237 OA
ATOM     99  O   UNL     1       3.305  -6.726 -13.275  1.00  0.00    -0.744 OA
ENDBRANCH  95  96
ENDBRANCH  69  90
ENDBRANCH  43  44
ENDBRANCH  36  38
ENDBRANCH  35  36
ENDBRANCH  34  35
ENDBRANCH  33  34
ENDBRANCH   1  33
TORSDOF 20
