REMARK SMILES COc1ccc(-c2nc(NCC(=O)OCCOCCOCCOC(=O)c3ccc(-c4c5nc(c(-c6ccc(S(=O)(=O)[O-])cc6)c6ccc([nH]6)c(-c6ccc(S(=O)(=O)[O-])cc6)c6nc(c(-c7ccc(S(=O)(=O)[O-])cc7)c7ccc4[nH]7)C=C6)C=C5)cc3)sc2-c2ccc(OC)cc2)cc1
REMARK SMILES IDX 18 1 17 2 16 3 15 4 14 5 12 6 13 7 11 8 10 9 9 11 7 12 8 13
REMARK SMILES IDX 87 14 86 15 6 16 3 17 4 18 97 19 5 20 96 21 2 22 1 23 88 24
REMARK SMILES IDX 89 25 95 26 90 27 94 28 91 29 92 30 93 31 19 32 20 33 21 34
REMARK SMILES IDX 22 35 23 36 24 37 25 38 26 39 27 40 85 41 28 42 84 43 29 44
REMARK SMILES IDX 30 45 31 46 78 47 32 48 83 49 77 50 79 51 33 52 82 53 76 54
REMARK SMILES IDX 75 55 34 57 64 58 45 59 63 60 46 61 49 62 62 63 80 64 47 65
REMARK SMILES IDX 48 66 61 68 81 69 50 70 35 71 36 72 44 73 37 74 43 75 38 76
REMARK SMILES IDX 39 77 40 78 41 79 42 80 65 81 66 82 74 83 67 84 73 85 68 86
REMARK SMILES IDX 69 87 70 88 71 89 72 90 51 91 52 92 60 93 53 94 59 95 54 96
REMARK SMILES IDX 55 97 56 98 57 99 58 100
REMARK H PARENT 10 10 79 56 49 67
REMARK Flexibility Score: inf
ROOT
ATOM      1  C   UNL     1       7.109  -9.216   6.766  1.00  0.00     0.188 C 
ENDROOT
BRANCH   1   2
ATOM      2  O   UNL     1       7.965 -10.175   6.153  1.00  0.00    -0.376 OA
BRANCH   2   3
ATOM      3  C   UNL     1       7.761 -10.493   4.777  1.00  0.00     0.202 C 
BRANCH   3   4
ATOM      4  C   UNL     1       6.336 -10.847   4.309  1.00  0.00     0.261 C 
BRANCH   4   5
ATOM      5  O   UNL     1       5.338  -9.861   4.650  1.00  0.00    -0.462 OA
BRANCH   5   6
ATOM      6  C   UNL     1       4.149 -10.327   5.121  1.00  0.00     0.325 C 
ATOM      7  O   UNL     1       3.827 -11.512   5.100  1.00  0.00    -0.250 OA
BRANCH   6   8
ATOM      8  C   UNL     1       3.308  -9.273   5.857  1.00  0.00     0.238 C 
BRANCH   8   9
ATOM      9  N   UNL     1       3.419  -7.885   5.412  1.00  0.00    -0.351 N 
ATOM     10  H   UNL     1       4.119  -7.333   5.831  1.00  0.00     0.163 HD
BRANCH   9  11
ATOM     11  C   UNL     1       2.649  -7.296   4.478  1.00  0.00     0.184 A 
ATOM     12  C   UNL     1       1.691  -5.617   3.387  1.00  0.00     0.091 A 
ATOM     13  N   UNL     1       2.678  -5.993   4.285  1.00  0.00    -0.220 NA
ATOM     14  C   UNL     1       0.947  -6.669   2.880  1.00  0.00     0.064 A 
ATOM     15  S   UNL     1       1.538  -8.150   3.490  1.00  0.00    -0.096 S 
BRANCH  12  16
ATOM     16  C   UNL     1       1.457  -4.231   2.989  1.00  0.00     0.002 A 
ATOM     17  C   UNL     1       0.863  -1.714   1.869  1.00  0.00     0.118 A 
ATOM     18  C   UNL     1      -0.090  -2.390   2.630  1.00  0.00     0.047 A 
ATOM     19  C   UNL     1       2.138  -2.263   1.727  1.00  0.00     0.047 A 
ATOM     20  C   UNL     1       0.201  -3.640   3.185  1.00  0.00     0.014 A 
ATOM     21  C   UNL     1       2.436  -3.516   2.291  1.00  0.00     0.014 A 
BRANCH  17  22
ATOM     22  O   UNL     1       0.453  -0.515   1.353  1.00  0.00    -0.497 OA
ATOM     23  C   UNL     1       1.046  -0.140   0.114  1.00  0.00     0.278 C 
ENDBRANCH  17  22
ENDBRANCH  12  16
BRANCH  14  24
ATOM     24  C   UNL     1      -0.153  -6.692   1.932  1.00  0.00    -0.006 A 
ATOM     25  C   UNL     1      -1.431  -7.087   2.340  1.00  0.00     0.013 A 
ATOM     26  C   UNL     1       0.064  -6.306   0.608  1.00  0.00     0.013 A 
ATOM     27  C   UNL     1      -2.477  -7.109   1.421  1.00  0.00     0.047 A 
ATOM     28  C   UNL     1      -0.985  -6.328  -0.309  1.00  0.00     0.047 A 
ATOM     29  C   UNL     1      -2.260  -6.733   0.094  1.00  0.00     0.118 A 
BRANCH  29  30
ATOM     30  O   UNL     1      -3.363  -6.806  -0.710  1.00  0.00    -0.497 OA
ATOM     31  C   UNL     1      -3.193  -6.361  -2.048  1.00  0.00     0.278 C 
ENDBRANCH  29  30
ENDBRANCH  14  24
ENDBRANCH   9  11
ENDBRANCH   8   9
ENDBRANCH   6   8
ENDBRANCH   5   6
ENDBRANCH   4   5
ENDBRANCH   3   4
ENDBRANCH   2   3
ENDBRANCH   1   2
BRANCH   1  32
ATOM     32  C   UNL     1       6.805  -7.913   6.007  1.00  0.00     0.188 C 
BRANCH  32  33
ATOM     33  O   UNL     1       7.424  -7.822   4.746  1.00  0.00    -0.376 OA
BRANCH  33  34
ATOM     34  C   UNL     1       8.309  -6.747   4.516  1.00  0.00     0.202 C 
BRANCH  34  35
ATOM     35  C   UNL     1       9.494  -6.553   5.478  1.00  0.00     0.261 C 
BRANCH  35  36
ATOM     36  O   UNL     1       9.226  -6.700   6.884  1.00  0.00    -0.460 OA
BRANCH  36  37
ATOM     37  C   UNL     1       8.603  -5.673   7.506  1.00  0.00     0.338 C 
ATOM     38  O   UNL     1       8.245  -4.620   6.995  1.00  0.00    -0.246 OA
BRANCH  37  39
ATOM     39  C   UNL     1       8.207  -6.130   8.859  1.00  0.00     0.060 A 
ATOM     40  C   UNL     1       6.845  -6.185   9.194  1.00  0.00     0.016 A 
ATOM     41  C   UNL     1       9.174  -6.511   9.791  1.00  0.00     0.016 A 
ATOM     42  C   UNL     1       6.449  -6.598  10.469  1.00  0.00     0.010 A 
ATOM     43  C   UNL     1       8.777  -6.899  11.075  1.00  0.00     0.010 A 
ATOM     44  C   UNL     1       7.415  -6.916  11.432  1.00  0.00    -0.014 A 
BRANCH  44  45
ATOM     45  C   UNL     1       7.027  -7.076  12.857  1.00  0.00     0.031 A 
ATOM     46  C   UNL     1       7.219  -5.905  13.784  1.00  0.00     0.074 A 
ATOM     47  C   UNL     1       6.515  -8.228  13.328  1.00  0.00     0.049 A 
ATOM     48  N   UNL     1       7.027  -5.827  15.076  1.00  0.00    -0.248 NA
ATOM     49  C   UNL     1       7.695  -4.655  13.169  1.00  0.00     0.031 C 
ATOM     50  C   UNL     1       6.231  -9.420  12.530  1.00  0.00     0.029 A 
ATOM     51  N   UNL     1       6.152  -8.584  14.605  1.00  0.00    -0.354 N 
ATOM     52  C   UNL     1       7.375  -4.528  15.430  1.00  0.00     0.074 A 
ATOM     53  C   UNL     1       7.814  -3.862  14.223  1.00  0.00     0.031 C 
ATOM     54  C   UNL     1       5.750 -10.381  13.340  1.00  0.00     0.029 A 
ATOM     55  C   UNL     1       5.731  -9.888  14.717  1.00  0.00     0.049 A 
ATOM     56  H   UNL     1       6.191  -7.963  15.368  1.00  0.00     0.167 HD
ATOM     57  C   UNL     1       7.333  -3.940  16.650  1.00  0.00     0.031 A 
ATOM     58  C   UNL     1       5.395 -10.609  15.807  1.00  0.00     0.031 A 
ATOM     59  C   UNL     1       6.912  -4.608  17.853  1.00  0.00     0.049 A 
ATOM     60  C   UNL     1       5.433  -9.958  17.168  1.00  0.00     0.074 A 
ATOM     61  C   UNL     1       6.819  -4.093  19.134  1.00  0.00     0.029 A 
ATOM     62  N   UNL     1       6.524  -5.937  17.928  1.00  0.00    -0.354 N 
ATOM     63  N   UNL     1       5.742  -8.723  17.485  1.00  0.00    -0.248 NA
ATOM     64  C   UNL     1       5.069 -10.799  18.318  1.00  0.00     0.031 C 
ATOM     65  C   UNL     1       6.441  -5.128  19.995  1.00  0.00     0.029 A 
ATOM     66  C   UNL     1       6.222  -6.268  19.239  1.00  0.00     0.049 A 
ATOM     67  H   UNL     1       6.471  -6.555  17.163  1.00  0.00     0.167 HD
ATOM     68  C   UNL     1       5.577  -8.631  18.865  1.00  0.00     0.074 A 
ATOM     69  C   UNL     1       5.128  -9.931  19.319  1.00  0.00     0.031 C 
ATOM     70  C   UNL     1       5.774  -7.566  19.681  1.00  0.00     0.031 A 
BRANCH  57  71
ATOM     71  C   UNL     1       7.796  -2.510  16.750  1.00  0.00    -0.014 A 
ATOM     72  C   UNL     1       7.054  -1.456  16.186  1.00  0.00     0.010 A 
ATOM     73  C   UNL     1       8.979  -2.213  17.453  1.00  0.00     0.010 A 
ATOM     74  C   UNL     1       7.505  -0.138  16.290  1.00  0.00     0.020 A 
ATOM     75  C   UNL     1       9.417  -0.892  17.586  1.00  0.00     0.020 A 
ATOM     76  C   UNL     1       8.685   0.135  16.989  1.00  0.00     0.054 A 
BRANCH  76  77
ATOM     77  S   UNL     1       9.234   1.858  17.128  1.00  0.00     0.124 S 
ATOM     78  O   UNL     1       9.658   2.150  15.761  1.00  0.00    -0.237 OA
ATOM     79  O   UNL     1       8.023   2.544  17.569  1.00  0.00    -0.237 OA
ATOM     80  O   UNL     1      10.310   1.802  18.114  1.00  0.00    -0.744 OA
ENDBRANCH  76  77
ENDBRANCH  57  71
BRANCH  58  81
ATOM     81  C   UNL     1       5.013 -12.043  15.665  1.00  0.00    -0.014 A 
ATOM     82  C   UNL     1       3.700 -12.469  15.932  1.00  0.00     0.010 A 
ATOM     83  C   UNL     1       5.971 -12.997  15.271  1.00  0.00     0.010 A 
ATOM     84  C   UNL     1       3.356 -13.821  15.823  1.00  0.00     0.020 A 
ATOM     85  C   UNL     1       5.623 -14.344  15.130  1.00  0.00     0.020 A 
ATOM     86  C   UNL     1       4.319 -14.749  15.418  1.00  0.00     0.054 A 
BRANCH  86  87
ATOM     87  S   UNL     1       3.834 -16.488  15.231  1.00  0.00     0.124 S 
ATOM     88  O   UNL     1       3.650 -16.903  16.618  1.00  0.00    -0.237 OA
ATOM     89  O   UNL     1       2.615 -16.388  14.433  1.00  0.00    -0.237 OA
ATOM     90  O   UNL     1       4.974 -17.089  14.543  1.00  0.00    -0.744 OA
ENDBRANCH  86  87
ENDBRANCH  58  81
BRANCH  70  91
ATOM     91  C   UNL     1       5.463  -7.737  21.148  1.00  0.00    -0.014 A 
ATOM     92  C   UNL     1       6.265  -8.534  21.984  1.00  0.00     0.010 A 
ATOM     93  C   UNL     1       4.379  -7.035  21.710  1.00  0.00     0.010 A 
ATOM     94  C   UNL     1       5.967  -8.655  23.345  1.00  0.00     0.020 A 
ATOM     95  C   UNL     1       4.098  -7.127  23.076  1.00  0.00     0.020 A 
ATOM     96  C   UNL     1       4.886  -7.949  23.883  1.00  0.00     0.054 A 
BRANCH  96  97
ATOM     97  S   UNL     1       4.546  -8.091  25.659  1.00  0.00     0.124 S 
ATOM     98  O   UNL     1       4.027  -9.452  25.761  1.00  0.00    -0.237 OA
ATOM     99  O   UNL     1       5.862  -7.874  26.255  1.00  0.00    -0.237 OA
ATOM    100  O   UNL     1       3.571  -7.033  25.912  1.00  0.00    -0.744 OA
ENDBRANCH  96  97
ENDBRANCH  70  91
ENDBRANCH  44  45
ENDBRANCH  37  39
ENDBRANCH  36  37
ENDBRANCH  35  36
ENDBRANCH  34  35
ENDBRANCH  33  34
ENDBRANCH  32  33
ENDBRANCH   1  32
TORSDOF 26
