REMARK SMILES CC(C)(C)c1cc2c(cc1Cl)C=C(C(=O)OCCOCCOCCOC(=O)c1ccc(-c3c4nc(c(-c5ccc(S(=O)(=O)[O-])cc5)c5ccc([nH]5)c(-c5ccc(S(=O)(=O)[O-])cc5)c5nc(c(-c6ccc(S(=O)(=O)[O-])cc6)c6ccc3[nH]6)C=C5)C=C4)cc1)[C@@H](C(F)(F)F)O2
REMARK SMILES IDX 21 1 20 2 19 3 18 4 17 5 16 6 14 7 15 8 13 9 5 10 6 11 10 12
REMARK SMILES IDX 7 13 9 14 11 15 8 16 93 17 12 18 88 19 2 20 1 21 3 22 4 23
REMARK SMILES IDX 89 24 90 25 91 26 92 27 22 28 23 29 24 30 25 31 26 32 27 33
REMARK SMILES IDX 28 34 29 35 87 36 30 37 86 38 31 39 32 40 33 41 80 42 34 43
REMARK SMILES IDX 85 44 79 45 81 46 35 47 84 48 78 49 77 50 36 52 66 53 47 54
REMARK SMILES IDX 65 55 48 56 51 57 64 58 82 59 49 60 50 61 63 63 83 64 52 65
REMARK SMILES IDX 37 66 38 67 46 68 39 69 45 70 40 71 41 72 42 73 43 74 44 75
REMARK SMILES IDX 67 76 68 77 76 78 69 79 75 80 70 81 71 82 72 83 73 84 74 85
REMARK SMILES IDX 53 86 54 87 62 88 55 89 61 90 56 91 57 92 58 93 59 94 60 95
REMARK H PARENT 81 51 51 62
REMARK Flexibility Score: inf
ROOT
ATOM      1  C   UNL     1       4.985  -3.416  -7.186  1.00  0.00     0.188 C 
ENDROOT
BRANCH   1   2
ATOM      2  C   UNL     1       4.337  -4.516  -8.055  1.00  0.00     0.188 C 
BRANCH   2   3
ATOM      3  O   UNL     1       4.630  -4.374  -9.432  1.00  0.00    -0.376 OA
BRANCH   3   4
ATOM      4  C   UNL     1       3.570  -4.016 -10.299  1.00  0.00     0.202 C 
BRANCH   4   5
ATOM      5  C   UNL     1       2.841  -2.681 -10.067  1.00  0.00     0.261 C 
BRANCH   5   6
ATOM      6  O   UNL     1       2.641  -2.304  -8.697  1.00  0.00    -0.460 OA
BRANCH   6   7
ATOM      7  C   UNL     1       1.504  -2.727  -8.104  1.00  0.00     0.338 C 
ATOM      8  O   UNL     1       0.629  -3.406  -8.614  1.00  0.00    -0.246 OA
BRANCH   7   9
ATOM      9  C   UNL     1       1.538  -2.332  -6.679  1.00  0.00     0.087 C 
ATOM     10  C   UNL     1       0.856  -2.046  -1.671  1.00  0.00    -0.020 A 
ATOM     11  C   UNL     1       1.349  -1.181  -2.678  1.00  0.00     0.053 A 
ATOM     12  C   UNL     1       0.638  -3.387  -2.065  1.00  0.00     0.045 A 
ATOM     13  C   UNL     1       1.513  -1.589  -4.009  1.00  0.00     0.128 A 
ATOM     14  C   UNL     1       0.823  -3.798  -3.397  1.00  0.00     0.032 A 
ATOM     15  Cl  UNL     1       0.076  -4.637  -1.011  1.00  0.00    -0.084 Cl
ATOM     16  C   UNL     1       1.212  -2.891  -4.380  1.00  0.00     0.019 A 
ATOM     17  O   UNL     1       1.945  -0.633  -4.883  1.00  0.00    -0.475 OA
ATOM     18  C   UNL     1       1.233  -3.276  -5.781  1.00  0.00     0.027 C 
ATOM     19  C   UNL     1       1.934  -0.924  -6.310  1.00  0.00     0.316 C 
BRANCH  10  20
ATOM     20  C   UNL     1       0.475  -1.470  -0.281  1.00  0.00    -0.012 C 
ATOM     21  C   UNL     1       0.926   0.004  -0.074  1.00  0.00     0.016 C 
ATOM     22  C   UNL     1       1.089  -2.248   0.903  1.00  0.00     0.016 C 
ATOM     23  C   UNL     1      -1.067  -1.461  -0.165  1.00  0.00     0.016 C 
ENDBRANCH  10  20
BRANCH  19  24
ATOM     24  C   UNL     1       1.067   0.132  -7.009  1.00  0.00     0.430 C 
ATOM     25  F   UNL     1       1.437   1.387  -6.651  1.00  0.00    -0.167 F 
ATOM     26  F   UNL     1       1.181   0.070  -8.357  1.00  0.00    -0.167 F 
ATOM     27  F   UNL     1      -0.244  -0.003  -6.707  1.00  0.00    -0.167 F 
ENDBRANCH  19  24
ENDBRANCH   7   9
ENDBRANCH   6   7
ENDBRANCH   5   6
ENDBRANCH   4   5
ENDBRANCH   3   4
ENDBRANCH   2   3
ENDBRANCH   1   2
BRANCH   1  28
ATOM     28  O   UNL     1       5.843  -2.450  -7.784  1.00  0.00    -0.376 OA
BRANCH  28  29
ATOM     29  C   UNL     1       6.835  -2.878  -8.712  1.00  0.00     0.202 C 
BRANCH  29  30
ATOM     30  C   UNL     1       7.862  -3.935  -8.282  1.00  0.00     0.261 C 
BRANCH  30  31
ATOM     31  O   UNL     1       7.307  -5.123  -7.698  1.00  0.00    -0.460 OA
BRANCH  31  32
ATOM     32  C   UNL     1       7.521  -5.272  -6.366  1.00  0.00     0.338 C 
ATOM     33  O   UNL     1       8.133  -4.516  -5.631  1.00  0.00    -0.246 OA
BRANCH  32  34
ATOM     34  C   UNL     1       6.721  -6.411  -5.866  1.00  0.00     0.060 A 
ATOM     35  C   UNL     1       6.800  -7.669  -6.462  1.00  0.00     0.016 A 
ATOM     36  C   UNL     1       5.886  -6.203  -4.758  1.00  0.00     0.016 A 
ATOM     37  C   UNL     1       6.063  -8.729  -5.927  1.00  0.00     0.010 A 
ATOM     38  C   UNL     1       5.142  -7.261  -4.231  1.00  0.00     0.010 A 
ATOM     39  C   UNL     1       5.242  -8.538  -4.799  1.00  0.00    -0.014 A 
BRANCH  39  40
ATOM     40  C   UNL     1       4.634  -9.713  -4.128  1.00  0.00     0.031 A 
ATOM     41  C   UNL     1       3.192 -10.074  -4.313  1.00  0.00     0.074 A 
ATOM     42  C   UNL     1       5.427 -10.475  -3.350  1.00  0.00     0.049 A 
ATOM     43  N   UNL     1       2.571 -11.160  -3.932  1.00  0.00    -0.248 NA
ATOM     44  C   UNL     1       2.337  -9.100  -5.006  1.00  0.00     0.031 C 
ATOM     45  C   UNL     1       6.836 -10.194  -3.069  1.00  0.00     0.029 A 
ATOM     46  N   UNL     1       5.178 -11.646  -2.679  1.00  0.00    -0.354 N 
ATOM     47  C   UNL     1       1.259 -11.022  -4.367  1.00  0.00     0.074 A 
ATOM     48  C   UNL     1       1.161  -9.719  -4.992  1.00  0.00     0.031 C 
ATOM     49  C   UNL     1       7.339 -11.189  -2.324  1.00  0.00     0.029 A 
ATOM     50  C   UNL     1       6.288 -12.168  -2.058  1.00  0.00     0.049 A 
ATOM     51  H   UNL     1       4.290 -12.070  -2.645  1.00  0.00     0.167 HD
ATOM     52  C   UNL     1       0.244 -11.914  -4.272  1.00  0.00     0.031 A 
ATOM     53  C   UNL     1       6.457 -13.318  -1.376  1.00  0.00     0.031 A 
ATOM     54  C   UNL     1       0.353 -13.197  -3.622  1.00  0.00     0.049 A 
ATOM     55  C   UNL     1       5.310 -14.283  -1.265  1.00  0.00     0.074 A 
ATOM     56  C   UNL     1      -0.615 -14.181  -3.506  1.00  0.00     0.029 A 
ATOM     57  N   UNL     1       1.483 -13.674  -2.974  1.00  0.00    -0.354 N 
ATOM     58  N   UNL     1       4.101 -14.178  -1.762  1.00  0.00    -0.248 NA
ATOM     59  C   UNL     1       5.553 -15.530  -0.528  1.00  0.00     0.031 C 
ATOM     60  C   UNL     1      -0.094 -15.221  -2.733  1.00  0.00     0.029 A 
ATOM     61  C   UNL     1       1.226 -14.924  -2.433  1.00  0.00     0.049 A 
ATOM     62  H   UNL     1       2.340 -13.195  -2.907  1.00  0.00     0.167 HD
ATOM     63  C   UNL     1       3.448 -15.357  -1.423  1.00  0.00     0.074 A 
ATOM     64  C   UNL     1       4.398 -16.165  -0.688  1.00  0.00     0.031 C 
ATOM     65  C   UNL     1       2.175 -15.731  -1.704  1.00  0.00     0.031 A 
BRANCH  52  66
ATOM     66  C   UNL     1      -1.078 -11.568  -4.908  1.00  0.00    -0.014 A 
ATOM     67  C   UNL     1      -2.225 -11.399  -4.109  1.00  0.00     0.010 A 
ATOM     68  C   UNL     1      -1.215 -11.560  -6.308  1.00  0.00     0.010 A 
ATOM     69  C   UNL     1      -3.486 -11.263  -4.697  1.00  0.00     0.020 A 
ATOM     70  C   UNL     1      -2.471 -11.397  -6.900  1.00  0.00     0.020 A 
ATOM     71  C   UNL     1      -3.602 -11.275  -6.090  1.00  0.00     0.054 A 
BRANCH  71  72
ATOM     72  S   UNL     1      -5.251 -11.136  -6.835  1.00  0.00     0.124 S 
ATOM     73  O   UNL     1      -5.812 -12.461  -6.592  1.00  0.00    -0.237 OA
ATOM     74  O   UNL     1      -5.854 -10.045  -6.073  1.00  0.00    -0.237 OA
ATOM     75  O   UNL     1      -4.967 -10.823  -8.234  1.00  0.00    -0.744 OA
ENDBRANCH  71  72
ENDBRANCH  52  66
BRANCH  53  76
ATOM     76  C   UNL     1       7.804 -13.637  -0.828  1.00  0.00    -0.014 A 
ATOM     77  C   UNL     1       8.342 -12.875   0.227  1.00  0.00     0.010 A 
ATOM     78  C   UNL     1       8.595 -14.634  -1.424  1.00  0.00     0.010 A 
ATOM     79  C   UNL     1       9.663 -13.066   0.638  1.00  0.00     0.020 A 
ATOM     80  C   UNL     1       9.909 -14.849  -0.994  1.00  0.00     0.020 A 
ATOM     81  C   UNL     1      10.443 -14.043   0.013  1.00  0.00     0.054 A 
BRANCH  81  82
ATOM     82  S   UNL     1      12.173 -14.234   0.524  1.00  0.00     0.124 S 
ATOM     83  O   UNL     1      12.801 -13.079  -0.110  1.00  0.00    -0.237 OA
ATOM     84  O   UNL     1      12.083 -14.181   1.981  1.00  0.00    -0.237 OA
ATOM     85  O   UNL     1      12.550 -15.533  -0.027  1.00  0.00    -0.744 OA
ENDBRANCH  81  82
ENDBRANCH  53  76
BRANCH  65  86
ATOM     86  C   UNL     1       1.705 -17.084  -1.233  1.00  0.00    -0.014 A 
ATOM     87  C   UNL     1       1.383 -18.075  -2.181  1.00  0.00     0.010 A 
ATOM     88  C   UNL     1       1.445 -17.329   0.126  1.00  0.00     0.010 A 
ATOM     89  C   UNL     1       0.771 -19.267  -1.784  1.00  0.00     0.020 A 
ATOM     90  C   UNL     1       0.860 -18.534   0.530  1.00  0.00     0.020 A 
ATOM     91  C   UNL     1       0.501 -19.482  -0.431  1.00  0.00     0.054 A 
BRANCH  91  92
ATOM     92  S   UNL     1      -0.338 -21.015   0.060  1.00  0.00     0.124 S 
ATOM     93  O   UNL     1      -1.719 -20.748  -0.329  1.00  0.00    -0.237 OA
ATOM     94  O   UNL     1       0.355 -22.029  -0.731  1.00  0.00    -0.237 OA
ATOM     95  O   UNL     1      -0.098 -21.089   1.500  1.00  0.00    -0.744 OA
ENDBRANCH  91  92
ENDBRANCH  65  86
ENDBRANCH  39  40
ENDBRANCH  32  34
ENDBRANCH  31  32
ENDBRANCH  30  31
ENDBRANCH  29  30
ENDBRANCH  28  29
ENDBRANCH   1  28
TORSDOF 22
