REMARK SMILES C[C@H](NC(=O)N1CC[C@@H](C(=O)OCCOCCOCCOC(=O)c2ccc(-c3c4nc(c(-c5ccc(S(=O)(=O)[O-])cc5)c5ccc([nH]5)c(-c5ccc(S(=O)(=O)[O-])cc5)c5nc(c(-c6ccc(S(=O)(=O)[O-])cc6)c6ccc3[nH]6)C=C5)C=C4)cc2)[C@H]1C)c1ccc(Cl)cc1
REMARK SMILES IDX 16 1 15 2 14 3 13 4 12 5 10 6 11 7 9 8 6 9 7 10 84 11 8 12
REMARK SMILES IDX 85 13 4 14 3 15 5 17 2 18 1 19 86 20 87 21 92 22 88 23 91 24
REMARK SMILES IDX 89 25 90 26 17 27 18 28 19 29 20 30 21 31 22 32 23 33 24 34
REMARK SMILES IDX 25 35 83 36 26 37 82 38 27 39 28 40 29 41 76 42 30 43 81 44
REMARK SMILES IDX 75 45 77 46 31 47 80 48 74 49 73 50 32 52 62 53 43 54 61 55
REMARK SMILES IDX 44 56 47 57 60 58 78 59 45 60 46 61 59 63 79 64 48 65 33 66
REMARK SMILES IDX 34 67 42 68 35 69 41 70 36 71 37 72 38 73 39 74 40 75 63 76
REMARK SMILES IDX 64 77 72 78 65 79 71 80 66 81 67 82 68 83 69 84 70 85 49 86
REMARK SMILES IDX 50 87 58 88 51 89 57 90 52 91 53 92 54 93 55 94 56 95
REMARK H PARENT 3 16 77 51 47 62
REMARK Flexibility Score: inf
ROOT
ATOM      1  C   UNL     1       3.468  -5.238  -4.230  1.00  0.00     0.188 C 
ENDROOT
BRANCH   1   2
ATOM      2  O   UNL     1       3.289  -6.643  -4.348  1.00  0.00    -0.376 OA
BRANCH   2   3
ATOM      3  C   UNL     1       2.691  -7.303  -3.235  1.00  0.00     0.202 C 
BRANCH   3   4
ATOM      4  C   UNL     1       3.477  -7.189  -1.928  1.00  0.00     0.261 C 
BRANCH   4   5
ATOM      5  O   UNL     1       3.368  -5.837  -1.452  1.00  0.00    -0.463 OA
BRANCH   5   6
ATOM      6  C   UNL     1       4.458  -5.251  -0.911  1.00  0.00     0.311 C 
ATOM      7  O   UNL     1       5.504  -5.840  -0.670  1.00  0.00    -0.252 OA
BRANCH   6   8
ATOM      8  C   UNL     1       4.280  -3.748  -0.726  1.00  0.00     0.123 C 
ATOM      9  N   UNL     1       3.134  -1.848   0.171  1.00  0.00    -0.321 N 
ATOM     10  C   UNL     1       4.472  -1.904   0.746  1.00  0.00     0.122 C 
ATOM     11  C   UNL     1       2.863  -3.105  -0.613  1.00  0.00     0.098 C 
ATOM     12  C   UNL     1       4.919  -3.338   0.600  1.00  0.00     0.039 C 
ATOM     13  C   UNL     1       1.883  -4.098   0.037  1.00  0.00     0.032 C 
BRANCH   9  14
ATOM     14  C   UNL     1       2.585  -0.580   0.079  1.00  0.00     0.318 C 
ATOM     15  N   UNL     1       1.245  -0.395  -0.066  1.00  0.00    -0.331 N 
ATOM     16  H   UNL     1       0.943   0.478  -0.407  1.00  0.00     0.165 HD
ATOM     17  O   UNL     1       3.264   0.438   0.238  1.00  0.00    -0.249 OA
BRANCH  15  18
ATOM     18  C   UNL     1       0.239  -1.367   0.238  1.00  0.00     0.111 C 
ATOM     19  C   UNL     1       0.337  -1.801   1.714  1.00  0.00     0.036 C 
BRANCH  18  20
ATOM     20  C   UNL     1      -1.221  -1.077  -0.048  1.00  0.00    -0.026 A 
ATOM     21  C   UNL     1      -1.829   0.176   0.033  1.00  0.00     0.007 A 
ATOM     22  C   UNL     1      -2.036  -2.216  -0.258  1.00  0.00     0.007 A 
ATOM     23  C   UNL     1      -3.225   0.277  -0.062  1.00  0.00     0.021 A 
ATOM     24  C   UNL     1      -3.420  -2.117  -0.335  1.00  0.00     0.021 A 
ATOM     25  C   UNL     1      -4.011  -0.867  -0.227  1.00  0.00     0.041 A 
ATOM     26  Cl  UNL     1      -5.727  -0.744  -0.264  1.00  0.00    -0.084 Cl
ENDBRANCH  18  20
ENDBRANCH  15  18
ENDBRANCH   9  14
ENDBRANCH   6   8
ENDBRANCH   5   6
ENDBRANCH   4   5
ENDBRANCH   3   4
ENDBRANCH   2   3
ENDBRANCH   1   2
BRANCH   1  27
ATOM     27  C   UNL     1       2.207  -4.401  -4.409  1.00  0.00     0.188 C 
BRANCH  27  28
ATOM     28  O   UNL     1       1.069  -4.603  -3.586  1.00  0.00    -0.376 OA
BRANCH  28  29
ATOM     29  C   UNL     1      -0.112  -5.108  -4.221  1.00  0.00     0.202 C 
BRANCH  29  30
ATOM     30  C   UNL     1      -0.672  -4.566  -5.570  1.00  0.00     0.261 C 
BRANCH  30  31
ATOM     31  O   UNL     1       0.245  -3.937  -6.472  1.00  0.00    -0.460 OA
BRANCH  31  32
ATOM     32  C   UNL     1       0.478  -2.621  -6.233  1.00  0.00     0.338 C 
ATOM     33  O   UNL     1      -0.150  -1.909  -5.466  1.00  0.00    -0.246 OA
BRANCH  32  34
ATOM     34  C   UNL     1       1.786  -2.242  -6.838  1.00  0.00     0.060 A 
ATOM     35  C   UNL     1       2.644  -1.435  -6.075  1.00  0.00     0.016 A 
ATOM     36  C   UNL     1       2.211  -2.726  -8.079  1.00  0.00     0.016 A 
ATOM     37  C   UNL     1       3.908  -1.087  -6.557  1.00  0.00     0.010 A 
ATOM     38  C   UNL     1       3.469  -2.355  -8.574  1.00  0.00     0.010 A 
ATOM     39  C   UNL     1       4.311  -1.507  -7.830  1.00  0.00    -0.014 A 
BRANCH  39  40
ATOM     40  C   UNL     1       5.485  -0.868  -8.480  1.00  0.00     0.031 A 
ATOM     41  C   UNL     1       5.225   0.295  -9.403  1.00  0.00     0.074 A 
ATOM     42  C   UNL     1       6.749  -1.276  -8.260  1.00  0.00     0.049 A 
ATOM     43  N   UNL     1       6.064   0.981 -10.135  1.00  0.00    -0.248 NA
ATOM     44  C   UNL     1       3.825   0.739  -9.514  1.00  0.00     0.031 C 
ATOM     45  C   UNL     1       7.153  -2.346  -7.350  1.00  0.00     0.029 A 
ATOM     46  N   UNL     1       7.933  -0.831  -8.800  1.00  0.00    -0.354 N 
ATOM     47  C   UNL     1       5.293   1.927 -10.801  1.00  0.00     0.074 A 
ATOM     48  C   UNL     1       3.918   1.710 -10.409  1.00  0.00     0.031 C 
ATOM     49  C   UNL     1       8.491  -2.483  -7.405  1.00  0.00     0.029 A 
ATOM     50  C   UNL     1       9.036  -1.535  -8.378  1.00  0.00     0.049 A 
ATOM     51  H   UNL     1       7.985  -0.077  -9.431  1.00  0.00     0.167 HD
ATOM     52  C   UNL     1       5.689   2.896 -11.659  1.00  0.00     0.031 A 
ATOM     53  C   UNL     1      10.330  -1.443  -8.751  1.00  0.00     0.031 A 
ATOM     54  C   UNL     1       7.052   3.108 -12.065  1.00  0.00     0.049 A 
ATOM     55  C   UNL     1      10.738  -0.413  -9.779  1.00  0.00     0.074 A 
ATOM     56  C   UNL     1       7.551   4.068 -12.927  1.00  0.00     0.029 A 
ATOM     57  N   UNL     1       8.131   2.347 -11.645  1.00  0.00    -0.354 N 
ATOM     58  N   UNL     1      10.000   0.485 -10.389  1.00  0.00    -0.248 NA
ATOM     59  C   UNL     1      12.157  -0.383 -10.166  1.00  0.00     0.031 C 
ATOM     60  C   UNL     1       8.924   3.849 -13.075  1.00  0.00     0.029 A 
ATOM     61  C   UNL     1       9.290   2.797 -12.252  1.00  0.00     0.049 A 
ATOM     62  H   UNL     1       8.080   1.597 -11.008  1.00  0.00     0.167 HD
ATOM     63  C   UNL     1      10.871   1.205 -11.203  1.00  0.00     0.074 A 
ATOM     64  C   UNL     1      12.191   0.646 -11.001  1.00  0.00     0.031 C 
ATOM     65  C   UNL     1      10.602   2.238 -12.040  1.00  0.00     0.031 A 
BRANCH  52  66
ATOM     66  C   UNL     1       4.620   3.775 -12.251  1.00  0.00    -0.014 A 
ATOM     67  C   UNL     1       3.945   4.730 -11.470  1.00  0.00     0.010 A 
ATOM     68  C   UNL     1       4.306   3.660 -13.617  1.00  0.00     0.010 A 
ATOM     69  C   UNL     1       2.949   5.529 -12.037  1.00  0.00     0.020 A 
ATOM     70  C   UNL     1       3.332   4.478 -14.195  1.00  0.00     0.020 A 
ATOM     71  C   UNL     1       2.648   5.396 -13.396  1.00  0.00     0.054 A 
BRANCH  71  72
ATOM     72  S   UNL     1       1.367   6.462 -14.111  1.00  0.00     0.124 S 
ATOM     73  O   UNL     1       0.149   5.896 -13.535  1.00  0.00    -0.237 OA
ATOM     74  O   UNL     1       1.739   7.785 -13.617  1.00  0.00    -0.237 OA
ATOM     75  O   UNL     1       1.520   6.272 -15.551  1.00  0.00    -0.744 OA
ENDBRANCH  71  72
ENDBRANCH  52  66
BRANCH  53  76
ATOM     76  C   UNL     1      11.347  -2.369  -8.175  1.00  0.00    -0.014 A 
ATOM     77  C   UNL     1      12.363  -1.889  -7.328  1.00  0.00     0.010 A 
ATOM     78  C   UNL     1      11.320  -3.740  -8.494  1.00  0.00     0.010 A 
ATOM     79  C   UNL     1      13.341  -2.756  -6.829  1.00  0.00     0.020 A 
ATOM     80  C   UNL     1      12.278  -4.615  -7.973  1.00  0.00     0.020 A 
ATOM     81  C   UNL     1      13.291  -4.115  -7.153  1.00  0.00     0.054 A 
BRANCH  81  82
ATOM     82  S   UNL     1      14.543  -5.229  -6.457  1.00  0.00     0.124 S 
ATOM     83  O   UNL     1      15.734  -4.860  -7.216  1.00  0.00    -0.237 OA
ATOM     84  O   UNL     1      14.550  -4.852  -5.045  1.00  0.00    -0.237 OA
ATOM     85  O   UNL     1      14.010  -6.560  -6.736  1.00  0.00    -0.744 OA
ENDBRANCH  81  82
ENDBRANCH  53  76
BRANCH  65  86
ATOM     86  C   UNL     1      11.757   2.872 -12.774  1.00  0.00    -0.014 A 
ATOM     87  C   UNL     1      12.406   2.212 -13.832  1.00  0.00     0.010 A 
ATOM     88  C   UNL     1      12.149   4.184 -12.444  1.00  0.00     0.010 A 
ATOM     89  C   UNL     1      13.445   2.841 -14.527  1.00  0.00     0.020 A 
ATOM     90  C   UNL     1      13.166   4.826 -13.155  1.00  0.00     0.020 A 
ATOM     91  C   UNL     1      13.817   4.145 -14.185  1.00  0.00     0.054 A 
BRANCH  91  92
ATOM     92  S   UNL     1      15.133   4.956 -15.134  1.00  0.00     0.124 S 
ATOM     93  O   UNL     1      16.325   4.255 -14.663  1.00  0.00    -0.237 OA
ATOM     94  O   UNL     1      14.747   4.681 -16.517  1.00  0.00    -0.237 OA
ATOM     95  O   UNL     1      15.037   6.358 -14.735  1.00  0.00    -0.744 OA
ENDBRANCH  91  92
ENDBRANCH  65  86
ENDBRANCH  39  40
ENDBRANCH  32  34
ENDBRANCH  31  32
ENDBRANCH  30  31
ENDBRANCH  29  30
ENDBRANCH  28  29
ENDBRANCH  27  28
ENDBRANCH   1  27
TORSDOF 23
