REMARK SMILES Cc1c(C(=O)Nc2ccc(C(=O)Nc3ccccc3C(=O)OCCOCCOCCOC(=O)c3ccc(-c4c5nc(c(-c6ccc(S(=O)(=O)[O-])cc6)c6ccc([nH]6)c(-c6ccc(S(=O)(=O)[O-])cc6)c6nc(c(-c7ccc(S(=O)(=O)[O-])cc7)c7ccc4[nH]7)C=C6)C=C5)cc3)cc2)cccc1[N+](=O)[O-]
REMARK SMILES IDX 26 1 25 2 24 3 23 4 22 5 20 6 21 7 19 8 14 9 15 10 16 11
REMARK SMILES IDX 18 12 17 13 13 14 11 15 12 16 10 18 7 19 8 20 95 21 9 22
REMARK SMILES IDX 94 23 6 24 4 25 5 26 3 28 1 29 2 30 99 31 96 32 98 33 97 34
REMARK SMILES IDX 100 35 101 36 102 37 27 38 28 39 29 40 30 41 31 42 32 43
REMARK SMILES IDX 33 44 34 45 35 46 93 47 36 48 92 49 37 50 38 51 39 52 86 53
REMARK SMILES IDX 40 54 91 55 85 56 87 57 41 58 90 59 84 60 83 61 42 63 72 64
REMARK SMILES IDX 53 65 71 66 54 67 57 68 70 69 88 70 55 71 56 72 69 74 89 75
REMARK SMILES IDX 58 76 43 77 44 78 52 79 45 80 51 81 46 82 47 83 48 84 49 85
REMARK SMILES IDX 50 86 73 87 74 88 82 89 75 90 81 91 76 92 77 93 78 94 79 95
REMARK SMILES IDX 80 96 59 97 60 98 68 99 61 100 67 101 62 102 63 103 64 104
REMARK SMILES IDX 65 105 66 106
REMARK H PARENT 13 17 6 27 87 62 57 73
REMARK Flexibility Score: inf
ROOT
ATOM      1  C   UNL     1       8.073  -1.249  -0.073  1.00  0.00     0.188 C 
ENDROOT
BRANCH   1   2
ATOM      2  O   UNL     1       8.662  -1.389   1.191  1.00  0.00    -0.376 OA
BRANCH   2   3
ATOM      3  C   UNL     1       7.780  -1.572   2.261  1.00  0.00     0.202 C 
BRANCH   3   4
ATOM      4  C   UNL     1       6.404  -0.846   2.399  1.00  0.00     0.261 C 
BRANCH   4   5
ATOM      5  O   UNL     1       5.735   0.682   1.758  1.00  0.00    -0.460 OA
BRANCH   5   6
ATOM      6  C   UNL     1       5.560   2.293   2.054  1.00  0.00     0.340 C 
ATOM      7  O   UNL     1       6.423   2.988   1.520  1.00  0.00    -0.246 OA
BRANCH   6   8
ATOM      8  C   UNL     1       4.462   3.280   2.490  1.00  0.00     0.083 A 
ATOM      9  C   UNL     1       3.973   3.997   1.396  1.00  0.00     0.056 A 
ATOM     10  C   UNL     1       2.986   5.003   1.588  1.00  0.00     0.027 A 
ATOM     11  C   UNL     1       2.334   5.173   2.818  1.00  0.00     0.002 A 
ATOM     12  C   UNL     1       3.912   3.623   3.762  1.00  0.00     0.018 A 
ATOM     13  C   UNL     1       2.788   4.465   3.914  1.00  0.00     0.001 A 
BRANCH   9  14
ATOM     14  N   UNL     1       4.293   3.636   0.051  1.00  0.00    -0.321 N 
ATOM     15  C   UNL     1       4.286   2.374  -0.672  1.00  0.00     0.255 C 
ATOM     16  O   UNL     1       3.694   2.570  -1.740  1.00  0.00    -0.269 OA
ATOM     17  H   UNL     1       4.575   4.401  -0.502  1.00  0.00     0.170 HD
BRANCH  15  18
ATOM     18  C   UNL     1       4.473   0.809  -0.079  1.00  0.00     0.040 A 
ATOM     19  C   UNL     1       1.858  -1.937   0.700  1.00  0.00     0.041 A 
ATOM     20  C   UNL     1       1.957  -0.477   1.622  1.00  0.00     0.027 A 
ATOM     21  C   UNL     1       3.166  -2.126  -0.445  1.00  0.00     0.027 A 
ATOM     22  C   UNL     1       3.424   0.823   1.163  1.00  0.00     0.016 A 
ATOM     23  C   UNL     1       4.473  -0.780  -0.778  1.00  0.00     0.016 A 
BRANCH  19  24
ATOM     24  N   UNL     1       0.767  -2.752   0.457  1.00  0.00    -0.322 N 
ATOM     25  C   UNL     1      -0.484  -2.457  -0.051  1.00  0.00     0.256 C 
ATOM     26  O   UNL     1      -1.129  -3.404  -0.510  1.00  0.00    -0.269 OA
ATOM     27  H   UNL     1       0.904  -3.701   0.682  1.00  0.00     0.170 HD
BRANCH  25  28
ATOM     28  C   UNL     1      -1.151  -1.118  -0.036  1.00  0.00     0.049 A 
ATOM     29  C   UNL     1      -0.002  -0.134  -2.015  1.00  0.00     0.053 C 
ATOM     30  C   UNL     1      -0.813   0.026  -0.784  1.00  0.00     0.039 A 
ATOM     31  C   UNL     1      -1.476   1.252  -0.532  1.00  0.00     0.273 A 
ATOM     32  C   UNL     1      -2.399  -1.111   0.585  1.00  0.00     0.014 A 
ATOM     33  C   UNL     1      -2.662   1.255   0.190  1.00  0.00     0.086 A 
ATOM     34  C   UNL     1      -3.170   0.051   0.654  1.00  0.00     0.008 A 
BRANCH  31  35
ATOM     35  N   UNL     1      -0.962   2.581  -0.928  1.00  0.00     0.063 N 
ATOM     36  O   UNL     1      -1.063   3.483  -0.078  1.00  0.00    -0.258 OA
ATOM     37  O   UNL     1      -0.482   2.737  -2.053  1.00  0.00    -0.258 OA
ENDBRANCH  31  35
ENDBRANCH  25  28
ENDBRANCH  19  24
ENDBRANCH  15  18
ENDBRANCH   9  14
ENDBRANCH   6   8
ENDBRANCH   5   6
ENDBRANCH   4   5
ENDBRANCH   3   4
ENDBRANCH   2   3
ENDBRANCH   1   2
BRANCH   1  38
ATOM     38  C   UNL     1       6.880  -2.093  -0.462  1.00  0.00     0.188 C 
BRANCH  38  39
ATOM     39  O   UNL     1       6.700  -3.485  -0.364  1.00  0.00    -0.376 OA
BRANCH  39  40
ATOM     40  C   UNL     1       5.309  -3.804  -0.728  1.00  0.00     0.202 C 
BRANCH  40  41
ATOM     41  C   UNL     1       4.692  -3.221  -2.207  1.00  0.00     0.261 C 
BRANCH  41  42
ATOM     42  O   UNL     1       3.610  -1.881  -2.603  1.00  0.00    -0.460 OA
BRANCH  42  43
ATOM     43  C   UNL     1       2.770  -0.588  -2.072  1.00  0.00     0.338 C 
ATOM     44  O   UNL     1       2.356   0.078  -3.015  1.00  0.00    -0.246 OA
BRANCH  43  45
ATOM     45  C   UNL     1       2.532  -0.135  -0.218  1.00  0.00     0.060 A 
ATOM     46  C   UNL     1       1.584   1.263   0.577  1.00  0.00     0.016 A 
ATOM     47  C   UNL     1       3.710  -1.040   1.159  1.00  0.00     0.016 A 
ATOM     48  C   UNL     1       1.968   1.593   2.396  1.00  0.00     0.010 A 
ATOM     49  C   UNL     1       3.806  -0.684   2.824  1.00  0.00     0.010 A 
ATOM     50  C   UNL     1       3.303   0.703   3.343  1.00  0.00    -0.014 A 
BRANCH  50  51
ATOM     51  C   UNL     1       4.966   0.969   4.187  1.00  0.00     0.031 A 
ATOM     52  C   UNL     1       4.519   0.938   5.582  1.00  0.00     0.074 A 
ATOM     53  C   UNL     1       6.540   1.089   3.950  1.00  0.00     0.049 A 
ATOM     54  N   UNL     1       4.783   1.865   6.444  1.00  0.00    -0.248 NA
ATOM     55  C   UNL     1       3.387   0.060   5.987  1.00  0.00     0.031 C 
ATOM     56  C   UNL     1       7.775   0.616   4.679  1.00  0.00     0.029 A 
ATOM     57  N   UNL     1       7.437   1.269   2.742  1.00  0.00    -0.354 N 
ATOM     58  C   UNL     1       4.333   1.269   7.585  1.00  0.00     0.074 A 
ATOM     59  C   UNL     1       3.120   0.624   7.163  1.00  0.00     0.031 C 
ATOM     60  C   UNL     1       8.988   0.874   4.044  1.00  0.00     0.029 A 
ATOM     61  C   UNL     1       8.788   1.426   2.716  1.00  0.00     0.049 A 
ATOM     62  H   UNL     1       6.986   1.274   1.867  1.00  0.00     0.167 HD
ATOM     63  C   UNL     1       5.287   0.699   8.385  1.00  0.00     0.031 A 
ATOM     64  C   UNL     1       9.301   2.481   1.977  1.00  0.00     0.031 A 
ATOM     65  C   UNL     1       6.674   1.043   7.970  1.00  0.00     0.049 A 
ATOM     66  C   UNL     1       9.261   3.548   3.052  1.00  0.00     0.074 A 
ATOM     67  C   UNL     1       7.822   0.301   7.754  1.00  0.00     0.029 A 
ATOM     68  N   UNL     1       6.965   2.311   7.434  1.00  0.00    -0.354 N 
ATOM     69  N   UNL     1       8.447   3.470   4.081  1.00  0.00    -0.248 NA
ATOM     70  C   UNL     1      10.317   4.528   3.238  1.00  0.00     0.031 C 
ATOM     71  C   UNL     1       8.828   1.175   7.215  1.00  0.00     0.029 A 
ATOM     72  C   UNL     1       8.244   2.404   6.911  1.00  0.00     0.049 A 
ATOM     73  H   UNL     1       6.324   3.057   7.432  1.00  0.00     0.167 HD
ATOM     74  C   UNL     1       9.078   3.999   5.157  1.00  0.00     0.074 A 
ATOM     75  C   UNL     1      10.185   4.754   4.558  1.00  0.00     0.031 C 
ATOM     76  C   UNL     1       8.778   3.706   6.462  1.00  0.00     0.031 A 
BRANCH  63  77
ATOM     77  C   UNL     1       4.933  -0.418   9.357  1.00  0.00    -0.014 A 
ATOM     78  C   UNL     1       5.945  -0.930  10.179  1.00  0.00     0.010 A 
ATOM     79  C   UNL     1       3.643  -0.974   9.556  1.00  0.00     0.010 A 
ATOM     80  C   UNL     1       5.676  -1.865  11.185  1.00  0.00     0.020 A 
ATOM     81  C   UNL     1       3.355  -1.907  10.554  1.00  0.00     0.020 A 
ATOM     82  C   UNL     1       4.374  -2.317  11.390  1.00  0.00     0.054 A 
BRANCH  82  83
ATOM     83  S   UNL     1       4.015  -3.355  12.819  1.00  0.00     0.124 S 
ATOM     84  O   UNL     1       4.833  -4.535  12.554  1.00  0.00    -0.237 OA
ATOM     85  O   UNL     1       4.454  -2.511  13.926  1.00  0.00    -0.237 OA
ATOM     86  O   UNL     1       2.571  -3.570  12.738  1.00  0.00    -0.744 OA
ENDBRANCH  82  83
ENDBRANCH  63  77
BRANCH  64  87
ATOM     87  C   UNL     1       8.970   2.705   0.444  1.00  0.00    -0.014 A 
ATOM     88  C   UNL     1       9.372   1.752  -0.523  1.00  0.00     0.010 A 
ATOM     89  C   UNL     1       8.089   3.683  -0.078  1.00  0.00     0.010 A 
ATOM     90  C   UNL     1       8.726   1.600  -1.786  1.00  0.00     0.020 A 
ATOM     91  C   UNL     1       7.346   3.472  -1.290  1.00  0.00     0.020 A 
ATOM     92  C   UNL     1       7.627   2.382  -2.109  1.00  0.00     0.054 A 
BRANCH  92  93
ATOM     93  S   UNL     1       6.566   1.888  -3.530  1.00  0.00     0.124 S 
ATOM     94  O   UNL     1       6.299   3.153  -4.205  1.00  0.00    -0.237 OA
ATOM     95  O   UNL     1       7.396   0.941  -4.272  1.00  0.00    -0.237 OA
ATOM     96  O   UNL     1       5.459   1.228  -2.865  1.00  0.00    -0.744 OA
ENDBRANCH  92  93
ENDBRANCH  64  87
BRANCH  76  97
ATOM     97  C   UNL     1       9.026   4.708   7.534  1.00  0.00    -0.014 A 
ATOM     98  C   UNL     1       9.464   6.008   7.276  1.00  0.00     0.010 A 
ATOM     99  C   UNL     1       8.653   4.388   8.859  1.00  0.00     0.010 A 
ATOM    100  C   UNL     1       9.673   6.898   8.312  1.00  0.00     0.020 A 
ATOM    101  C   UNL     1       8.748   5.306   9.885  1.00  0.00     0.020 A 
ATOM    102  C   UNL     1       9.311   6.539   9.607  1.00  0.00     0.054 A 
BRANCH 102 103
ATOM    103  S   UNL     1       9.574   7.734  10.911  1.00  0.00     0.124 S 
ATOM    104  O   UNL     1      11.031   7.743  11.006  1.00  0.00    -0.237 OA
ATOM    105  O   UNL     1       8.969   8.940  10.349  1.00  0.00    -0.237 OA
ATOM    106  O   UNL     1       8.871   7.160  12.054  1.00  0.00    -0.744 OA
ENDBRANCH 102 103
ENDBRANCH  76  97
ENDBRANCH  50  51
ENDBRANCH  43  45
ENDBRANCH  42  43
ENDBRANCH  41  42
ENDBRANCH  40  41
ENDBRANCH  39  40
ENDBRANCH  38  39
ENDBRANCH   1  38
TORSDOF 25
