REMARK SMILES O=C(OCCOCCOCCOC(=O)[C@@H]1[C@@H](C(=O)Nc2cccc([N+](=O)[O-])c2)[C@@H]2C=C[C@H]1O2)c1ccc(-c2c3nc(c(-c4ccc(S(=O)(=O)[O-])cc4)c4ccc([nH]4)c(-c4ccc(S(=O)(=O)[O-])cc4)c4nc(c(-c5ccc(S(=O)(=O)[O-])cc5)c5ccc2[nH]5)C=C4)C=C3)cc1
REMARK SMILES IDX 7 1 6 2 5 3 4 4 3 5 2 6 1 7 34 8 35 9 93 10 36 11 92 12
REMARK SMILES IDX 37 13 38 14 39 15 86 16 40 17 91 18 85 19 87 20 41 21 90 22
REMARK SMILES IDX 84 23 83 24 42 26 72 27 53 28 71 29 54 30 57 31 70 32 88 33
REMARK SMILES IDX 55 34 56 35 69 37 89 38 58 39 43 40 44 41 52 42 45 43 51 44
REMARK SMILES IDX 46 45 47 46 48 47 49 48 50 49 73 50 74 51 82 52 75 53 81 54
REMARK SMILES IDX 76 55 77 56 78 57 79 58 80 59 59 60 60 61 68 62 61 63 67 64
REMARK SMILES IDX 62 65 63 66 64 67 65 68 66 69 8 70 9 71 10 72 11 73 12 74
REMARK SMILES IDX 13 75 14 76 15 77 16 78 32 79 29 80 31 81 33 82 30 83 17 84
REMARK SMILES IDX 18 85 19 86 20 88 21 89 28 90 22 91 24 92 23 93 25 94 26 95
REMARK SMILES IDX 27 96
REMARK H PARENT 87 25 57 36 19 87
REMARK Flexibility Score: inf
ROOT
ATOM      1  C   UNL     1       2.501   1.059  -1.601  1.00  0.00     0.188 C 
ENDROOT
BRANCH   1   2
ATOM      2  O   UNL     1       3.835   1.221  -1.114  1.00  0.00    -0.376 OA
BRANCH   2   3
ATOM      3  C   UNL     1       4.701   0.108  -1.368  1.00  0.00     0.202 C 
BRANCH   3   4
ATOM      4  C   UNL     1       4.357  -1.219  -0.664  1.00  0.00     0.261 C 
BRANCH   4   5
ATOM      5  O   UNL     1       2.965  -1.373  -0.332  1.00  0.00    -0.460 OA
BRANCH   5   6
ATOM      6  C   UNL     1       2.335  -1.086   0.836  1.00  0.00     0.338 C 
ATOM      7  O   UNL     1       1.156  -1.414   0.961  1.00  0.00    -0.246 OA
BRANCH   6   8
ATOM      8  C   UNL     1       2.995  -0.380   1.975  1.00  0.00     0.060 A 
ATOM      9  C   UNL     1       4.106   0.450   1.852  1.00  0.00     0.016 A 
ATOM     10  C   UNL     1       2.421  -0.520   3.250  1.00  0.00     0.016 A 
ATOM     11  C   UNL     1       4.722   1.010   2.956  1.00  0.00     0.010 A 
ATOM     12  C   UNL     1       3.000   0.090   4.369  1.00  0.00     0.010 A 
ATOM     13  C   UNL     1       4.187   0.814   4.225  1.00  0.00    -0.014 A 
BRANCH  13  14
ATOM     14  C   UNL     1       5.013   1.242   5.368  1.00  0.00     0.031 A 
ATOM     15  C   UNL     1       5.755   0.187   6.126  1.00  0.00     0.074 A 
ATOM     16  C   UNL     1       5.243   2.552   5.567  1.00  0.00     0.049 A 
ATOM     17  N   UNL     1       6.577   0.321   7.129  1.00  0.00    -0.248 NA
ATOM     18  C   UNL     1       5.552  -1.207   5.693  1.00  0.00     0.031 C 
ATOM     19  C   UNL     1       4.644   3.625   4.776  1.00  0.00     0.029 A 
ATOM     20  N   UNL     1       6.076   3.206   6.432  1.00  0.00    -0.354 N 
ATOM     21  C   UNL     1       6.946  -0.970   7.481  1.00  0.00     0.074 A 
ATOM     22  C   UNL     1       6.268  -1.875   6.582  1.00  0.00     0.031 C 
ATOM     23  C   UNL     1       5.191   4.797   5.134  1.00  0.00     0.029 A 
ATOM     24  C   UNL     1       6.096   4.571   6.250  1.00  0.00     0.049 A 
ATOM     25  H   UNL     1       6.611   2.745   7.119  1.00  0.00     0.167 HD
ATOM     26  C   UNL     1       7.765  -1.354   8.485  1.00  0.00     0.031 A 
ATOM     27  C   UNL     1       6.747   5.527   6.938  1.00  0.00     0.031 A 
ATOM     28  C   UNL     1       8.405  -0.416   9.365  1.00  0.00     0.049 A 
ATOM     29  C   UNL     1       7.579   5.074   8.107  1.00  0.00     0.074 A 
ATOM     30  C   UNL     1       9.196  -0.666  10.469  1.00  0.00     0.029 A 
ATOM     31  N   UNL     1       8.318   0.966   9.232  1.00  0.00    -0.354 N 
ATOM     32  N   UNL     1       7.856   3.849   8.491  1.00  0.00    -0.248 NA
ATOM     33  C   UNL     1       8.161   6.122   8.952  1.00  0.00     0.031 C 
ATOM     34  C   UNL     1       9.537   0.566  11.039  1.00  0.00     0.029 A 
ATOM     35  C   UNL     1       9.024   1.584  10.247  1.00  0.00     0.049 A 
ATOM     36  H   UNL     1       7.827   1.434   8.520  1.00  0.00     0.167 HD
ATOM     37  C   UNL     1       8.652   3.975   9.620  1.00  0.00     0.074 A 
ATOM     38  C   UNL     1       8.836   5.399   9.835  1.00  0.00     0.031 C 
ATOM     39  C   UNL     1       9.177   3.009  10.416  1.00  0.00     0.031 A 
BRANCH  26  40
ATOM     40  C   UNL     1       7.896  -2.833   8.728  1.00  0.00    -0.014 A 
ATOM     41  C   UNL     1       8.567  -3.681   7.828  1.00  0.00     0.010 A 
ATOM     42  C   UNL     1       7.278  -3.393   9.861  1.00  0.00     0.010 A 
ATOM     43  C   UNL     1       8.569  -5.065   8.028  1.00  0.00     0.020 A 
ATOM     44  C   UNL     1       7.304  -4.772  10.082  1.00  0.00     0.020 A 
ATOM     45  C   UNL     1       7.931  -5.602   9.151  1.00  0.00     0.054 A 
BRANCH  45  46
ATOM     46  S   UNL     1       7.939  -7.401   9.382  1.00  0.00     0.124 S 
ATOM     47  O   UNL     1       7.020  -7.843   8.337  1.00  0.00    -0.237 OA
ATOM     48  O   UNL     1       9.343  -7.744   9.169  1.00  0.00    -0.237 OA
ATOM     49  O   UNL     1       7.458  -7.578  10.750  1.00  0.00    -0.744 OA
ENDBRANCH  45  46
ENDBRANCH  26  40
BRANCH  27  50
ATOM     50  C   UNL     1       6.579   6.972   6.599  1.00  0.00    -0.014 A 
ATOM     51  C   UNL     1       7.672   7.762   6.202  1.00  0.00     0.010 A 
ATOM     52  C   UNL     1       5.308   7.575   6.676  1.00  0.00     0.010 A 
ATOM     53  C   UNL     1       7.501   9.122   5.907  1.00  0.00     0.020 A 
ATOM     54  C   UNL     1       5.125   8.921   6.347  1.00  0.00     0.020 A 
ATOM     55  C   UNL     1       6.226   9.692   5.979  1.00  0.00     0.054 A 
BRANCH  55  56
ATOM     56  S   UNL     1       6.016  11.445   5.558  1.00  0.00     0.124 S 
ATOM     57  O   UNL     1       6.645  12.109   6.695  1.00  0.00    -0.237 OA
ATOM     58  O   UNL     1       6.727  11.553   4.287  1.00  0.00    -0.237 OA
ATOM     59  O   UNL     1       4.566  11.604   5.464  1.00  0.00    -0.744 OA
ENDBRANCH  55  56
ENDBRANCH  27  50
BRANCH  39  60
ATOM     60  C   UNL     1      10.036   3.472  11.558  1.00  0.00    -0.014 A 
ATOM     61  C   UNL     1       9.479   4.098  12.686  1.00  0.00     0.010 A 
ATOM     62  C   UNL     1      11.419   3.222  11.515  1.00  0.00     0.010 A 
ATOM     63  C   UNL     1      10.301   4.502  13.739  1.00  0.00     0.020 A 
ATOM     64  C   UNL     1      12.237   3.592  12.581  1.00  0.00     0.020 A 
ATOM     65  C   UNL     1      11.674   4.244  13.680  1.00  0.00     0.054 A 
BRANCH  65  66
ATOM     66  S   UNL     1      12.714   4.738  15.079  1.00  0.00     0.124 S 
ATOM     67  O   UNL     1      12.757   6.189  14.926  1.00  0.00    -0.237 OA
ATOM     68  O   UNL     1      11.957   4.247  16.228  1.00  0.00    -0.237 OA
ATOM     69  O   UNL     1      13.978   4.047  14.832  1.00  0.00    -0.744 OA
ENDBRANCH  65  66
ENDBRANCH  39  60
ENDBRANCH  13  14
ENDBRANCH   6   8
ENDBRANCH   5   6
ENDBRANCH   4   5
ENDBRANCH   3   4
ENDBRANCH   2   3
ENDBRANCH   1   2
BRANCH   1  70
ATOM     70  C   UNL     1       1.903   2.339  -2.180  1.00  0.00     0.188 C 
BRANCH  70  71
ATOM     71  O   UNL     1       2.516   2.881  -3.347  1.00  0.00    -0.376 OA
BRANCH  71  72
ATOM     72  C   UNL     1       3.930   3.028  -3.353  1.00  0.00     0.202 C 
BRANCH  72  73
ATOM     73  C   UNL     1       4.568   4.096  -2.452  1.00  0.00     0.261 C 
BRANCH  73  74
ATOM     74  O   UNL     1       4.141   4.089  -1.084  1.00  0.00    -0.463 OA
BRANCH  74  75
ATOM     75  C   UNL     1       3.133   4.964  -0.810  1.00  0.00     0.312 C 
ATOM     76  O   UNL     1       2.568   5.648  -1.649  1.00  0.00    -0.252 OA
BRANCH  75  77
ATOM     77  C   UNL     1       2.734   4.902   0.643  1.00  0.00     0.147 C 
ATOM     78  C   UNL     1       1.763   6.067   0.989  1.00  0.00     0.129 C 
ATOM     79  C   UNL     1       3.912   5.209   1.569  1.00  0.00     0.157 C 
ATOM     80  C   UNL     1       2.529   6.798   2.099  1.00  0.00     0.155 C 
ATOM     81  C   UNL     1       4.594   6.495   1.204  1.00  0.00     0.004 C 
ATOM     82  O   UNL     1       3.178   5.669   2.735  1.00  0.00    -0.365 OA
ATOM     83  C   UNL     1       3.734   7.474   1.513  1.00  0.00     0.004 C 
BRANCH  78  84
ATOM     84  C   UNL     1       0.383   5.654   1.489  1.00  0.00     0.231 C 
ATOM     85  O   UNL     1       0.083   4.484   1.727  1.00  0.00    -0.274 OA
ATOM     86  N   UNL     1      -0.541   6.649   1.752  1.00  0.00    -0.325 N 
ATOM     87  H   UNL     1      -1.346   6.378   2.250  1.00  0.00     0.169 HD
BRANCH  86  88
ATOM     88  C   UNL     1      -0.457   8.002   1.388  1.00  0.00     0.048 A 
ATOM     89  C   UNL     1      -0.750   8.975   2.343  1.00  0.00     0.026 A 
ATOM     90  C   UNL     1      -0.017   8.389   0.121  1.00  0.00     0.111 A 
ATOM     91  C   UNL     1      -0.440  10.315   2.087  1.00  0.00     0.009 A 
ATOM     92  C   UNL     1       0.331   9.720  -0.119  1.00  0.00     0.271 A 
ATOM     93  C   UNL     1       0.135  10.688   0.869  1.00  0.00     0.086 A 
BRANCH  92  94
ATOM     94  N   UNL     1       0.956  10.080  -1.396  1.00  0.00     0.062 N 
ATOM     95  O   UNL     1       1.144  11.282  -1.628  1.00  0.00    -0.258 OA
ATOM     96  O   UNL     1       1.246   9.162  -2.176  1.00  0.00    -0.258 OA
ENDBRANCH  92  94
ENDBRANCH  86  88
ENDBRANCH  78  84
ENDBRANCH  75  77
ENDBRANCH  74  75
ENDBRANCH  73  74
ENDBRANCH  72  73
ENDBRANCH  71  72
ENDBRANCH  70  71
ENDBRANCH   1  70
TORSDOF 23
