REMARK SMILES CCN(C(=O)c1ccc(C)cc1F)[C@@H]1COC[C@@H]1C(=O)OCCOCCOCCOC(=O)c1ccc(-c2c3nc(c(-c4ccc(S(=O)(=O)[O-])cc4)c4ccc([nH]4)c(-c4ccc(S(=O)(=O)[O-])cc4)c4nc(c(-c5ccc(S(=O)(=O)[O-])cc5)c5ccc2[nH]5)C=C4)C=C3)cc1
REMARK SMILES IDX 25 1 24 2 23 3 22 4 21 5 19 6 20 7 18 8 14 9 15 10 16 11
REMARK SMILES IDX 17 12 3 13 2 14 1 15 4 16 5 17 6 18 7 19 12 20 8 21 11 22
REMARK SMILES IDX 13 23 9 24 10 25 26 26 27 27 28 28 29 29 30 30 31 31 32 32
REMARK SMILES IDX 33 33 34 34 92 35 35 36 91 37 36 38 37 39 38 40 85 41 39 42
REMARK SMILES IDX 90 43 84 44 86 45 40 46 89 47 83 48 82 49 41 51 71 52 52 53
REMARK SMILES IDX 70 54 53 55 56 56 69 57 87 58 54 59 55 60 68 62 88 63 57 64
REMARK SMILES IDX 42 65 43 66 51 67 44 68 50 69 45 70 46 71 47 72 48 73 49 74
REMARK SMILES IDX 72 75 73 76 81 77 74 78 80 79 75 80 76 81 77 82 78 83 79 84
REMARK SMILES IDX 58 85 59 86 67 87 60 88 66 89 61 90 62 91 63 92 64 93 65 94
REMARK H PARENT 86 50 56 61
REMARK Flexibility Score: inf
ROOT
ATOM      1  C   UNL     1       0.699   2.020   6.131  1.00  0.00     0.188 C 
ENDROOT
BRANCH   1   2
ATOM      2  O   UNL     1      -0.075   3.084   6.664  1.00  0.00    -0.376 OA
BRANCH   2   3
ATOM      3  C   UNL     1      -0.615   4.008   5.714  1.00  0.00     0.202 C 
BRANCH   3   4
ATOM      4  C   UNL     1       0.413   4.788   4.897  1.00  0.00     0.261 C 
BRANCH   4   5
ATOM      5  O   UNL     1       0.979   3.960   3.856  1.00  0.00    -0.463 OA
BRANCH   5   6
ATOM      6  C   UNL     1       2.331   3.889   3.829  1.00  0.00     0.313 C 
ATOM      7  O   UNL     1       3.039   4.453   4.659  1.00  0.00    -0.252 OA
BRANCH   6   8
ATOM      8  C   UNL     1       2.900   3.190   2.608  1.00  0.00     0.150 C 
ATOM      9  C   UNL     1       2.435   1.839   2.032  1.00  0.00     0.127 C 
ATOM     10  C   UNL     1       3.204   0.816   2.877  1.00  0.00     0.186 C 
ATOM     11  O   UNL     1       4.343   1.464   3.433  1.00  0.00    -0.378 OA
ATOM     12  C   UNL     1       4.353   2.819   2.965  1.00  0.00     0.177 C 
BRANCH   9  13
ATOM     13  N   UNL     1       1.046   1.405   1.709  1.00  0.00    -0.333 N 
BRANCH  13  14
ATOM     14  C   UNL     1       0.970   0.097   1.013  1.00  0.00     0.117 C 
ATOM     15  C   UNL     1       1.530   0.131  -0.405  1.00  0.00     0.027 C 
ENDBRANCH  13  14
BRANCH  13  16
ATOM     16  C   UNL     1       0.035   2.372   1.521  1.00  0.00     0.257 C 
ATOM     17  O   UNL     1       0.369   3.529   1.259  1.00  0.00    -0.269 OA
BRANCH  16  18
ATOM     18  C   UNL     1      -1.448   2.047   1.613  1.00  0.00     0.075 A 
ATOM     19  C   UNL     1      -1.994   0.778   1.847  1.00  0.00     0.017 A 
ATOM     20  C   UNL     1      -2.379   3.092   1.514  1.00  0.00     0.136 A 
ATOM     21  C   UNL     1      -3.380   0.537   1.848  1.00  0.00     0.004 A 
ATOM     22  C   UNL     1      -3.767   2.874   1.591  1.00  0.00     0.043 A 
ATOM     23  F   UNL     1      -1.989   4.369   1.383  1.00  0.00    -0.206 F 
ATOM     24  C   UNL     1      -4.284   1.587   1.745  1.00  0.00    -0.048 A 
ATOM     25  C   UNL     1      -5.761   1.347   1.835  1.00  0.00     0.044 C 
ENDBRANCH  16  18
ENDBRANCH  13  16
ENDBRANCH   9  13
ENDBRANCH   6   8
ENDBRANCH   5   6
ENDBRANCH   4   5
ENDBRANCH   3   4
ENDBRANCH   2   3
ENDBRANCH   1   2
BRANCH   1  26
ATOM     26  C   UNL     1      -0.084   0.872   5.505  1.00  0.00     0.188 C 
BRANCH  26  27
ATOM     27  O   UNL     1      -1.259   1.223   4.783  1.00  0.00    -0.376 OA
BRANCH  27  28
ATOM     28  C   UNL     1      -2.465   0.952   5.503  1.00  0.00     0.202 C 
BRANCH  28  29
ATOM     29  C   UNL     1      -2.961  -0.492   5.325  1.00  0.00     0.261 C 
BRANCH  29  30
ATOM     30  O   UNL     1      -1.983  -1.450   5.765  1.00  0.00    -0.460 OA
BRANCH  30  31
ATOM     31  C   UNL     1      -1.233  -2.016   4.782  1.00  0.00     0.338 C 
ATOM     32  O   UNL     1      -1.419  -1.962   3.582  1.00  0.00    -0.246 OA
BRANCH  31  33
ATOM     33  C   UNL     1       0.004  -2.561   5.380  1.00  0.00     0.060 A 
ATOM     34  C   UNL     1       1.221  -2.275   4.745  1.00  0.00     0.016 A 
ATOM     35  C   UNL     1      -0.023  -3.321   6.549  1.00  0.00     0.016 A 
ATOM     36  C   UNL     1       2.418  -2.756   5.269  1.00  0.00     0.010 A 
ATOM     37  C   UNL     1       1.174  -3.823   7.060  1.00  0.00     0.010 A 
ATOM     38  C   UNL     1       2.395  -3.564   6.409  1.00  0.00    -0.014 A 
BRANCH  38  39
ATOM     39  C   UNL     1       3.607  -4.306   6.822  1.00  0.00     0.031 A 
ATOM     40  C   UNL     1       3.680  -5.769   6.486  1.00  0.00     0.074 A 
ATOM     41  C   UNL     1       4.605  -3.700   7.489  1.00  0.00     0.049 A 
ATOM     42  N   UNL     1       4.529  -6.673   6.893  1.00  0.00    -0.248 NA
ATOM     43  C   UNL     1       2.642  -6.283   5.574  1.00  0.00     0.031 C 
ATOM     44  C   UNL     1       4.675  -2.272   7.800  1.00  0.00     0.029 A 
ATOM     45  N   UNL     1       5.747  -4.220   8.043  1.00  0.00    -0.354 N 
ATOM     46  C   UNL     1       4.102  -7.869   6.327  1.00  0.00     0.074 A 
ATOM     47  C   UNL     1       2.919  -7.578   5.550  1.00  0.00     0.031 C 
ATOM     48  C   UNL     1       5.791  -2.034   8.511  1.00  0.00     0.029 A 
ATOM     49  C   UNL     1       6.481  -3.299   8.753  1.00  0.00     0.049 A 
ATOM     50  H   UNL     1       6.015  -5.162   7.943  1.00  0.00     0.167 HD
ATOM     51  C   UNL     1       4.646  -9.101   6.458  1.00  0.00     0.031 A 
ATOM     52  C   UNL     1       7.559  -3.470   9.545  1.00  0.00     0.031 A 
ATOM     53  C   UNL     1       5.830  -9.367   7.229  1.00  0.00     0.049 A 
ATOM     54  C   UNL     1       8.116  -4.861   9.719  1.00  0.00     0.074 A 
ATOM     55  C   UNL     1       6.479 -10.573   7.420  1.00  0.00     0.029 A 
ATOM     56  N   UNL     1       6.542  -8.409   7.936  1.00  0.00    -0.354 N 
ATOM     57  N   UNL     1       7.699  -5.989   9.190  1.00  0.00    -0.248 NA
ATOM     58  C   UNL     1       9.287  -5.004  10.594  1.00  0.00     0.031 C 
ATOM     59  C   UNL     1       7.550 -10.354   8.292  1.00  0.00     0.029 A 
ATOM     60  C   UNL     1       7.610  -9.000   8.586  1.00  0.00     0.049 A 
ATOM     61  H   UNL     1       6.320  -7.451   7.970  1.00  0.00     0.167 HD
ATOM     62  C   UNL     1       8.573  -6.970   9.648  1.00  0.00     0.074 A 
ATOM     63  C   UNL     1       9.551  -6.299  10.481  1.00  0.00     0.031 C 
ATOM     64  C   UNL     1       8.571  -8.304   9.404  1.00  0.00     0.031 A 
BRANCH  51  65
ATOM     65  C   UNL     1       3.935 -10.256   5.804  1.00  0.00    -0.014 A 
ATOM     66  C   UNL     1       3.917 -10.420   4.407  1.00  0.00     0.010 A 
ATOM     67  C   UNL     1       3.301 -11.219   6.612  1.00  0.00     0.010 A 
ATOM     68  C   UNL     1       3.254 -11.508   3.832  1.00  0.00     0.020 A 
ATOM     69  C   UNL     1       2.662 -12.323   6.043  1.00  0.00     0.020 A 
ATOM     70  C   UNL     1       2.632 -12.453   4.653  1.00  0.00     0.054 A 
BRANCH  70  71
ATOM     71  S   UNL     1       1.812 -13.874   3.880  1.00  0.00     0.124 S 
ATOM     72  O   UNL     1       0.636 -13.252   3.275  1.00  0.00    -0.237 OA
ATOM     73  O   UNL     1       2.822 -14.353   2.940  1.00  0.00    -0.237 OA
ATOM     74  O   UNL     1       1.534 -14.768   5.001  1.00  0.00    -0.744 OA
ENDBRANCH  70  71
ENDBRANCH  51  65
BRANCH  52  75
ATOM     75  C   UNL     1       8.145  -2.312  10.279  1.00  0.00    -0.014 A 
ATOM     76  C   UNL     1       9.436  -1.842   9.979  1.00  0.00     0.010 A 
ATOM     77  C   UNL     1       7.413  -1.677  11.301  1.00  0.00     0.010 A 
ATOM     78  C   UNL     1       9.991  -0.779  10.701  1.00  0.00     0.020 A 
ATOM     79  C   UNL     1       7.951  -0.594  12.002  1.00  0.00     0.020 A 
ATOM     80  C   UNL     1       9.244  -0.162  11.708  1.00  0.00     0.054 A 
BRANCH  80  81
ATOM     81  S   UNL     1       9.972   1.235  12.611  1.00  0.00     0.124 S 
ATOM     82  O   UNL     1      10.973   0.571  13.441  1.00  0.00    -0.237 OA
ATOM     83  O   UNL     1      10.497   2.068  11.532  1.00  0.00    -0.237 OA
ATOM     84  O   UNL     1       8.837   1.805  13.334  1.00  0.00    -0.744 OA
ENDBRANCH  80  81
ENDBRANCH  52  75
BRANCH  64  85
ATOM     85  C   UNL     1       9.685  -9.120  10.004  1.00  0.00    -0.014 A 
ATOM     86  C   UNL     1       9.738  -9.388  11.383  1.00  0.00     0.010 A 
ATOM     87  C   UNL     1      10.661  -9.679   9.158  1.00  0.00     0.010 A 
ATOM     88  C   UNL     1      10.766 -10.173  11.909  1.00  0.00     0.020 A 
ATOM     89  C   UNL     1      11.672 -10.491   9.676  1.00  0.00     0.020 A 
ATOM     90  C   UNL     1      11.726 -10.720  11.052  1.00  0.00     0.054 A 
BRANCH  90  91
ATOM     91  S   UNL     1      13.026 -11.772  11.754  1.00  0.00     0.124 S 
ATOM     92  O   UNL     1      13.873 -10.795  12.432  1.00  0.00    -0.237 OA
ATOM     93  O   UNL     1      12.274 -12.668  12.629  1.00  0.00    -0.237 OA
ATOM     94  O   UNL     1      13.625 -12.411  10.584  1.00  0.00    -0.744 OA
ENDBRANCH  90  91
ENDBRANCH  64  85
ENDBRANCH  38  39
ENDBRANCH  31  33
ENDBRANCH  30  31
ENDBRANCH  29  30
ENDBRANCH  28  29
ENDBRANCH  27  28
ENDBRANCH  26  27
ENDBRANCH   1  26
TORSDOF 24
