REMARK SMILES O=C1OC(c2ccc(Cl)cc2)=N/C1=C/Nc1ccc(O)c(C(=O)OCCOCCOCCOC(=O)c2ccc(-c3c4nc(c(-c5ccc(S(=O)(=O)[O-])cc5)c5ccc([nH]5)c(-c5ccc(S(=O)(=O)[O-])cc5)c5nc(c(-c6ccc(S(=O)(=O)[O-])cc6)c6ccc3[nH]6)C=C5)C=C4)cc2)c1
REMARK SMILES IDX 28 1 27 2 26 3 25 4 24 5 22 6 23 7 21 8 16 9 17 10 96 11
REMARK SMILES IDX 18 12 19 13 15 14 14 16 1 17 2 18 3 19 13 20 4 21 12 22 5 23
REMARK SMILES IDX 6 24 11 25 7 26 10 27 8 28 9 29 20 30 29 32 30 33 31 34
REMARK SMILES IDX 32 35 33 36 34 37 35 38 36 39 37 40 95 41 38 42 94 43 39 44
REMARK SMILES IDX 40 45 41 46 88 47 42 48 93 49 87 50 89 51 43 52 92 53 86 54
REMARK SMILES IDX 85 55 44 57 74 58 55 59 73 60 56 61 59 62 72 63 90 64 57 65
REMARK SMILES IDX 58 66 71 68 91 69 60 70 45 71 46 72 54 73 47 74 53 75 48 76
REMARK SMILES IDX 49 77 50 78 51 79 52 80 75 81 76 82 84 83 77 84 83 85 78 86
REMARK SMILES IDX 79 87 80 88 81 89 82 90 61 91 62 92 70 93 63 94 69 95 64 96
REMARK SMILES IDX 65 97 66 98 67 99 68 100
REMARK H PARENT 15 15 20 31 89 56 59 67
REMARK Flexibility Score: inf
ROOT
ATOM      1  C   UNL     1      -4.787  -6.772  -1.631  1.00  0.00     0.188 C 
ENDROOT
BRANCH   1   2
ATOM      2  O   UNL     1      -5.439  -7.669  -2.500  1.00  0.00    -0.376 OA
BRANCH   2   3
ATOM      3  C   UNL     1      -4.722  -8.719  -3.126  1.00  0.00     0.202 C 
BRANCH   3   4
ATOM      4  C   UNL     1      -3.194  -8.907  -3.098  1.00  0.00     0.261 C 
BRANCH   4   5
ATOM      5  O   UNL     1      -2.476  -8.268  -2.042  1.00  0.00    -0.460 OA
BRANCH   5   6
ATOM      6  C   UNL     1      -1.625  -7.279  -2.418  1.00  0.00     0.342 C 
ATOM      7  O   UNL     1      -1.435  -6.881  -3.556  1.00  0.00    -0.246 OA
BRANCH   6   8
ATOM      8  C   UNL     1      -1.100  -6.573  -1.229  1.00  0.00     0.103 A 
ATOM      9  C   UNL     1      -0.712  -4.430  -0.136  1.00  0.00     0.039 A 
ATOM     10  C   UNL     1      -0.104  -5.114   0.924  1.00  0.00     0.030 A 
ATOM     11  C   UNL     1      -1.204  -5.171  -1.215  1.00  0.00     0.045 A 
ATOM     12  C   UNL     1      -0.037  -6.510   0.939  1.00  0.00     0.049 A 
ATOM     13  C   UNL     1      -0.539  -7.239  -0.137  1.00  0.00     0.130 A 
BRANCH   9  14
ATOM     14  N   UNL     1      -0.751  -3.030  -0.166  1.00  0.00    -0.360 N 
ATOM     15  H   UNL     1      -1.629  -2.600  -0.276  1.00  0.00     0.166 HD
BRANCH  14  16
ATOM     16  C   UNL     1       0.350  -2.214  -0.052  1.00  0.00     0.119 C 
ATOM     17  O   UNL     1      -1.925  -0.246   0.022  1.00  0.00    -0.244 OA
ATOM     18  C   UNL     1      -0.745   0.034   0.009  1.00  0.00     0.365 C 
ATOM     19  O   UNL     1      -0.165   1.269   0.058  1.00  0.00    -0.402 OA
ATOM     20  C   UNL     1       0.430  -0.879  -0.024  1.00  0.00     0.168 C 
ATOM     21  C   UNL     1       1.170   1.056   0.018  1.00  0.00     0.231 C 
ATOM     22  N   UNL     1       1.598  -0.164  -0.020  1.00  0.00    -0.204 NA
BRANCH  21  23
ATOM     23  C   UNL     1       1.996   2.260  -0.020  1.00  0.00     0.037 A 
ATOM     24  C   UNL     1       1.896   3.223   0.987  1.00  0.00     0.015 A 
ATOM     25  C   UNL     1       2.927   2.403  -1.055  1.00  0.00     0.015 A 
ATOM     26  C   UNL     1       2.746   4.332   0.962  1.00  0.00     0.021 A 
ATOM     27  C   UNL     1       3.760   3.523  -1.086  1.00  0.00     0.021 A 
ATOM     28  C   UNL     1       3.672   4.479  -0.073  1.00  0.00     0.041 A 
ATOM     29  Cl  UNL     1       4.726   5.839  -0.092  1.00  0.00    -0.084 Cl
ENDBRANCH  21  23
ENDBRANCH  14  16
ENDBRANCH   9  14
BRANCH  13  30
ATOM     30  O   UNL     1      -0.457  -8.601  -0.112  1.00  0.00    -0.507 OA
ATOM     31  H   UNL     1      -0.078  -9.034   0.627  1.00  0.00     0.293 HD
ENDBRANCH  13  30
ENDBRANCH   6   8
ENDBRANCH   5   6
ENDBRANCH   4   5
ENDBRANCH   3   4
ENDBRANCH   2   3
ENDBRANCH   1   2
BRANCH   1  32
ATOM     32  C   UNL     1      -4.478  -7.260  -0.200  1.00  0.00     0.188 C 
BRANCH  32  33
ATOM     33  O   UNL     1      -4.679  -8.612   0.160  1.00  0.00    -0.376 OA
BRANCH  33  34
ATOM     34  C   UNL     1      -5.964  -9.196   0.032  1.00  0.00     0.202 C 
BRANCH  34  35
ATOM     35  C   UNL     1      -7.285  -8.436   0.261  1.00  0.00     0.261 C 
BRANCH  35  36
ATOM     36  O   UNL     1      -7.327  -7.056  -0.118  1.00  0.00    -0.460 OA
BRANCH  36  37
ATOM     37  C   UNL     1      -7.319  -6.172   0.911  1.00  0.00     0.338 C 
ATOM     38  O   UNL     1      -7.268  -6.427   2.101  1.00  0.00    -0.246 OA
BRANCH  37  39
ATOM     39  C   UNL     1      -7.198  -4.804   0.371  1.00  0.00     0.060 A 
ATOM     40  C   UNL     1      -6.024  -4.079   0.624  1.00  0.00     0.016 A 
ATOM     41  C   UNL     1      -8.251  -4.225  -0.337  1.00  0.00     0.016 A 
ATOM     42  C   UNL     1      -5.907  -2.761   0.185  1.00  0.00     0.010 A 
ATOM     43  C   UNL     1      -8.142  -2.895  -0.752  1.00  0.00     0.010 A 
ATOM     44  C   UNL     1      -6.984  -2.148  -0.467  1.00  0.00    -0.014 A 
BRANCH  44  45
ATOM     45  C   UNL     1      -6.975  -0.681  -0.682  1.00  0.00     0.031 A 
ATOM     46  C   UNL     1      -7.729   0.190   0.287  1.00  0.00     0.074 A 
ATOM     47  C   UNL     1      -6.301  -0.128  -1.707  1.00  0.00     0.049 A 
ATOM     48  N   UNL     1      -7.912   1.484   0.271  1.00  0.00    -0.248 NA
ATOM     49  C   UNL     1      -8.368  -0.496   1.424  1.00  0.00     0.031 C 
ATOM     50  C   UNL     1      -5.491  -0.857  -2.681  1.00  0.00     0.029 A 
ATOM     51  N   UNL     1      -6.201   1.184  -2.099  1.00  0.00    -0.354 N 
ATOM     52  C   UNL     1      -8.696   1.767   1.384  1.00  0.00     0.074 A 
ATOM     53  C   UNL     1      -8.981   0.507   2.034  1.00  0.00     0.031 C 
ATOM     54  C   UNL     1      -4.982   0.019  -3.565  1.00  0.00     0.029 A 
ATOM     55  C   UNL     1      -5.461   1.362  -3.243  1.00  0.00     0.049 A 
ATOM     56  H   UNL     1      -6.621   1.927  -1.608  1.00  0.00     0.167 HD
ATOM     57  C   UNL     1      -9.135   2.969   1.827  1.00  0.00     0.031 A 
ATOM     58  C   UNL     1      -5.218   2.478  -3.961  1.00  0.00     0.031 A 
ATOM     59  C   UNL     1      -8.859   4.218   1.169  1.00  0.00     0.049 A 
ATOM     60  C   UNL     1      -5.789   3.795  -3.494  1.00  0.00     0.074 A 
ATOM     61  C   UNL     1      -9.246   5.492   1.548  1.00  0.00     0.029 A 
ATOM     62  N   UNL     1      -8.139   4.352  -0.008  1.00  0.00    -0.354 N 
ATOM     63  N   UNL     1      -6.505   4.053  -2.425  1.00  0.00    -0.248 NA
ATOM     64  C   UNL     1      -5.510   4.973  -4.328  1.00  0.00     0.031 C 
ATOM     65  C   UNL     1      -8.819   6.388   0.563  1.00  0.00     0.029 A 
ATOM     66  C   UNL     1      -8.098   5.683  -0.389  1.00  0.00     0.049 A 
ATOM     67  H   UNL     1      -7.718   3.611  -0.501  1.00  0.00     0.167 HD
ATOM     68  C   UNL     1      -6.733   5.426  -2.442  1.00  0.00     0.074 A 
ATOM     69  C   UNL     1      -6.067   5.945  -3.619  1.00  0.00     0.031 C 
ATOM     70  C   UNL     1      -7.428   6.189  -1.562  1.00  0.00     0.031 A 
BRANCH  57  71
ATOM     71  C   UNL     1      -9.995   2.984   3.064  1.00  0.00    -0.014 A 
ATOM     72  C   UNL     1      -9.465   2.674   4.330  1.00  0.00     0.010 A 
ATOM     73  C   UNL     1     -11.350   3.351   2.962  1.00  0.00     0.010 A 
ATOM     74  C   UNL     1     -10.283   2.694   5.464  1.00  0.00     0.020 A 
ATOM     75  C   UNL     1     -12.163   3.403   4.098  1.00  0.00     0.020 A 
ATOM     76  C   UNL     1     -11.627   3.059   5.340  1.00  0.00     0.054 A 
BRANCH  76  77
ATOM     77  S   UNL     1     -12.657   3.102   6.832  1.00  0.00     0.124 S 
ATOM     78  O   UNL     1     -12.784   1.682   7.152  1.00  0.00    -0.237 OA
ATOM     79  O   UNL     1     -11.842   3.883   7.759  1.00  0.00    -0.237 OA
ATOM     80  O   UNL     1     -13.887   3.751   6.388  1.00  0.00    -0.744 OA
ENDBRANCH  76  77
ENDBRANCH  57  71
BRANCH  58  81
ATOM     81  C   UNL     1      -4.412   2.401  -5.212  1.00  0.00    -0.014 A 
ATOM     82  C   UNL     1      -3.149   3.013  -5.293  1.00  0.00     0.010 A 
ATOM     83  C   UNL     1      -4.912   1.720  -6.338  1.00  0.00     0.010 A 
ATOM     84  C   UNL     1      -2.411   2.962  -6.479  1.00  0.00     0.020 A 
ATOM     85  C   UNL     1      -4.163   1.638  -7.515  1.00  0.00     0.020 A 
ATOM     86  C   UNL     1      -2.921   2.271  -7.582  1.00  0.00     0.054 A 
BRANCH  86  87
ATOM     87  S   UNL     1      -1.920   2.178  -9.092  1.00  0.00     0.124 S 
ATOM     88  O   UNL     1      -1.986   3.549  -9.586  1.00  0.00    -0.237 OA
ATOM     89  O   UNL     1      -0.620   1.752  -8.579  1.00  0.00    -0.237 OA
ATOM     90  O   UNL     1      -2.617   1.184  -9.905  1.00  0.00    -0.744 OA
ENDBRANCH  86  87
ENDBRANCH  58  81
BRANCH  70  91
ATOM     91  C   UNL     1      -7.473   7.677  -1.804  1.00  0.00    -0.014 A 
ATOM     92  C   UNL     1      -8.207   8.228  -2.869  1.00  0.00     0.010 A 
ATOM     93  C   UNL     1      -6.821   8.543  -0.904  1.00  0.00     0.010 A 
ATOM     94  C   UNL     1      -8.263   9.614  -3.047  1.00  0.00     0.020 A 
ATOM     95  C   UNL     1      -6.902   9.929  -1.060  1.00  0.00     0.020 A 
ATOM     96  C   UNL     1      -7.612  10.456  -2.139  1.00  0.00     0.054 A 
BRANCH  96  97
ATOM     97  S   UNL     1      -7.741  12.251  -2.366  1.00  0.00     0.124 S 
ATOM     98  O   UNL     1      -6.918  12.468  -3.553  1.00  0.00    -0.237 OA
ATOM     99  O   UNL     1      -9.177  12.447  -2.552  1.00  0.00    -0.237 OA
ATOM    100  O   UNL     1      -7.199  12.798  -1.125  1.00  0.00    -0.744 OA
ENDBRANCH  96  97
ENDBRANCH  70  91
ENDBRANCH  44  45
ENDBRANCH  37  39
ENDBRANCH  36  37
ENDBRANCH  35  36
ENDBRANCH  34  35
ENDBRANCH  33  34
ENDBRANCH  32  33
ENDBRANCH   1  32
TORSDOF 24
