REMARK SMILES CS(=O)(=O)c1ccc(N2N=C(C(=O)OCCOCCOCCOC(=O)c3ccc(-c4c5nc(c(-c6ccc(S(=O)(=O)[O-])cc6)c6ccc([nH]6)c(-c6ccc(S(=O)(=O)[O-])cc6)c6nc(c(-c7ccc(S(=O)(=O)[O-])cc7)c7ccc4[nH]7)C=C6)C=C5)cc3)C[C@H]2c2ccco2)cc1
REMARK SMILES IDX 19 1 18 2 17 3 16 4 15 5 14 6 12 7 13 8 11 9 9 10 10 11
REMARK SMILES IDX 87 12 86 13 8 14 5 15 6 16 94 17 7 18 93 19 2 20 1 21 3 22
REMARK SMILES IDX 4 23 88 24 89 25 92 26 90 27 91 28 20 29 21 30 22 31 23 32
REMARK SMILES IDX 24 33 25 34 26 35 27 36 85 37 28 38 84 39 29 40 30 41 31 42
REMARK SMILES IDX 78 43 32 44 83 45 77 46 79 47 33 48 82 49 76 50 75 51 34 53
REMARK SMILES IDX 64 54 45 55 63 56 46 57 49 58 62 59 80 60 47 61 48 62 61 64
REMARK SMILES IDX 81 65 50 66 35 67 36 68 44 69 37 70 43 71 38 72 39 73 40 74
REMARK SMILES IDX 41 75 42 76 65 77 66 78 74 79 67 80 73 81 68 82 69 83 70 84
REMARK SMILES IDX 71 85 72 86 51 87 52 88 60 89 53 90 59 91 54 92 55 93 56 94
REMARK SMILES IDX 57 95 58 96
REMARK H PARENT 79 52 49 63
REMARK Flexibility Score: inf
ROOT
ATOM      1  C   UNL     1       2.040  -6.691   7.207  1.00  0.00     0.188 C 
ENDROOT
BRANCH   1   2
ATOM      2  C   UNL     1       3.529  -6.816   6.822  1.00  0.00     0.188 C 
BRANCH   2   3
ATOM      3  O   UNL     1       4.375  -7.692   7.546  1.00  0.00    -0.376 OA
BRANCH   3   4
ATOM      4  C   UNL     1       4.577  -7.490   8.938  1.00  0.00     0.202 C 
BRANCH   4   5
ATOM      5  C   UNL     1       4.812  -6.079   9.477  1.00  0.00     0.261 C 
BRANCH   5   6
ATOM      6  O   UNL     1       3.739  -5.196   9.130  1.00  0.00    -0.459 OA
BRANCH   6   7
ATOM      7  C   UNL     1       4.126  -3.936   8.831  1.00  0.00     0.354 C 
ATOM      8  O   UNL     1       5.201  -3.423   9.020  1.00  0.00    -0.245 OA
BRANCH   7   9
ATOM      9  C   UNL     1       2.995  -3.240   8.118  1.00  0.00     0.148 C 
ATOM     10  N   UNL     1       1.891  -2.210   6.643  1.00  0.00    -0.254 N 
ATOM     11  N   UNL     1       3.082  -2.825   6.890  1.00  0.00    -0.169 NA
ATOM     12  C   UNL     1       1.094  -1.992   7.863  1.00  0.00     0.180 C 
ATOM     13  C   UNL     1       1.664  -3.084   8.780  1.00  0.00     0.101 C 
BRANCH  10  14
ATOM     14  C   UNL     1       1.677  -1.555   5.439  1.00  0.00     0.060 A 
ATOM     15  C   UNL     1       1.030  -0.210   3.053  1.00  0.00     0.067 A 
ATOM     16  C   UNL     1       0.768  -1.576   3.170  1.00  0.00     0.022 A 
ATOM     17  C   UNL     1       1.656   0.479   4.093  1.00  0.00     0.022 A 
ATOM     18  C   UNL     1       1.101  -2.240   4.358  1.00  0.00     0.029 A 
ATOM     19  C   UNL     1       1.988  -0.200   5.269  1.00  0.00     0.029 A 
BRANCH  15  20
ATOM     20  S   UNL     1       0.467   0.680   1.619  1.00  0.00     0.175 S 
ATOM     21  C   UNL     1       1.253  -0.101   0.237  1.00  0.00     0.163 C 
ATOM     22  O   UNL     1       0.983   2.034   1.715  1.00  0.00    -0.224 OA
ATOM     23  O   UNL     1      -0.963   0.446   1.532  1.00  0.00    -0.224 OA
ENDBRANCH  15  20
ENDBRANCH  10  14
BRANCH  12  24
ATOM     24  C   UNL     1       1.171  -0.636   8.511  1.00  0.00     0.128 A 
ATOM     25  C   UNL     1       0.570   0.577   8.232  1.00  0.00     0.048 A 
ATOM     26  O   UNL     1       1.955  -0.505   9.625  1.00  0.00    -0.467 OA
ATOM     27  C   UNL     1       1.025   1.491   9.213  1.00  0.00     0.042 A 
ATOM     28  C   UNL     1       1.856   0.780  10.043  1.00  0.00     0.195 A 
ENDBRANCH  12  24
ENDBRANCH   7   9
ENDBRANCH   6   7
ENDBRANCH   5   6
ENDBRANCH   4   5
ENDBRANCH   3   4
ENDBRANCH   2   3
ENDBRANCH   1   2
BRANCH   1  29
ATOM     29  O   UNL     1       1.488  -7.426   8.281  1.00  0.00    -0.376 OA
BRANCH  29  30
ATOM     30  C   UNL     1       1.512  -8.845   8.261  1.00  0.00     0.202 C 
BRANCH  30  31
ATOM     31  C   UNL     1       1.202  -9.667   7.003  1.00  0.00     0.261 C 
BRANCH  31  32
ATOM     32  O   UNL     1       1.785  -9.187   5.790  1.00  0.00    -0.460 OA
BRANCH  32  33
ATOM     33  C   UNL     1       0.896  -8.706   4.885  1.00  0.00     0.338 C 
ATOM     34  O   UNL     1      -0.314  -8.624   5.005  1.00  0.00    -0.246 OA
BRANCH  33  35
ATOM     35  C   UNL     1       1.639  -8.110   3.764  1.00  0.00     0.060 A 
ATOM     36  C   UNL     1       1.508  -6.735   3.528  1.00  0.00     0.016 A 
ATOM     37  C   UNL     1       2.429  -8.909   2.938  1.00  0.00     0.016 A 
ATOM     38  C   UNL     1       2.163  -6.151   2.447  1.00  0.00     0.010 A 
ATOM     39  C   UNL     1       3.062  -8.327   1.840  1.00  0.00     0.010 A 
ATOM     40  C   UNL     1       2.913  -6.953   1.578  1.00  0.00    -0.014 A 
BRANCH  40  41
ATOM     41  C   UNL     1       3.413  -6.404   0.299  1.00  0.00     0.031 A 
ATOM     42  C   UNL     1       2.594  -6.623  -0.941  1.00  0.00     0.074 A 
ATOM     43  C   UNL     1       4.588  -5.753   0.237  1.00  0.00     0.049 A 
ATOM     44  N   UNL     1       2.885  -6.344  -2.183  1.00  0.00    -0.248 NA
ATOM     45  C   UNL     1       1.270  -7.242  -0.752  1.00  0.00     0.031 C 
ATOM     46  C   UNL     1       5.444  -5.437   1.381  1.00  0.00     0.029 A 
ATOM     47  N   UNL     1       5.274  -5.263  -0.845  1.00  0.00    -0.354 N 
ATOM     48  C   UNL     1       1.792  -6.770  -2.928  1.00  0.00     0.074 A 
ATOM     49  C   UNL     1       0.836  -7.333  -2.001  1.00  0.00     0.031 C 
ATOM     50  C   UNL     1       6.557  -4.830   0.934  1.00  0.00     0.029 A 
ATOM     51  C   UNL     1       6.509  -4.751  -0.525  1.00  0.00     0.049 A 
ATOM     52  H   UNL     1       4.916  -5.276  -1.762  1.00  0.00     0.167 HD
ATOM     53  C   UNL     1       1.606  -6.702  -4.267  1.00  0.00     0.031 A 
ATOM     54  C   UNL     1       7.500  -4.307  -1.323  1.00  0.00     0.031 A 
ATOM     55  C   UNL     1       2.570  -6.164  -5.186  1.00  0.00     0.049 A 
ATOM     56  C   UNL     1       7.303  -4.319  -2.818  1.00  0.00     0.074 A 
ATOM     57  C   UNL     1       2.471  -6.039  -6.561  1.00  0.00     0.029 A 
ATOM     58  N   UNL     1       3.817  -5.674  -4.827  1.00  0.00    -0.354 N 
ATOM     59  N   UNL     1       6.255  -4.699  -3.509  1.00  0.00    -0.248 NA
ATOM     60  C   UNL     1       8.424  -3.839  -3.640  1.00  0.00     0.031 C 
ATOM     61  C   UNL     1       3.680  -5.521  -7.038  1.00  0.00     0.029 A 
ATOM     62  C   UNL     1       4.507  -5.269  -5.955  1.00  0.00     0.049 A 
ATOM     63  H   UNL     1       4.159  -5.623  -3.905  1.00  0.00     0.167 HD
ATOM     64  C   UNL     1       6.579  -4.478  -4.844  1.00  0.00     0.074 A 
ATOM     65  C   UNL     1       7.917  -3.923  -4.864  1.00  0.00     0.031 C 
ATOM     66  C   UNL     1       5.835  -4.708  -5.954  1.00  0.00     0.031 A 
BRANCH  53  67
ATOM     67  C   UNL     1       0.325  -7.264  -4.817  1.00  0.00    -0.014 A 
ATOM     68  C   UNL     1      -0.901  -6.600  -4.634  1.00  0.00     0.010 A 
ATOM     69  C   UNL     1       0.353  -8.460  -5.558  1.00  0.00     0.010 A 
ATOM     70  C   UNL     1      -2.081  -7.139  -5.152  1.00  0.00     0.020 A 
ATOM     71  C   UNL     1      -0.821  -8.990  -6.099  1.00  0.00     0.020 A 
ATOM     72  C   UNL     1      -2.033  -8.334  -5.879  1.00  0.00     0.054 A 
BRANCH  72  73
ATOM     73  S   UNL     1      -3.576  -9.000  -6.560  1.00  0.00     0.124 S 
ATOM     74  O   UNL     1      -4.239  -9.507  -5.361  1.00  0.00    -0.237 OA
ATOM     75  O   UNL     1      -4.192  -7.823  -7.168  1.00  0.00    -0.237 OA
ATOM     76  O   UNL     1      -3.127 -10.021  -7.503  1.00  0.00    -0.744 OA
ENDBRANCH  72  73
ENDBRANCH  53  67
BRANCH  54  77
ATOM     77  C   UNL     1       8.785  -3.847  -0.731  1.00  0.00    -0.014 A 
ATOM     78  C   UNL     1       9.147  -2.490  -0.767  1.00  0.00     0.010 A 
ATOM     79  C   UNL     1       9.662  -4.772  -0.133  1.00  0.00     0.010 A 
ATOM     80  C   UNL     1      10.369  -2.068  -0.236  1.00  0.00     0.020 A 
ATOM     81  C   UNL     1      10.873  -4.351   0.423  1.00  0.00     0.020 A 
ATOM     82  C   UNL     1      11.225  -3.002   0.356  1.00  0.00     0.054 A 
BRANCH  82  83
ATOM     83  S   UNL     1      12.790  -2.426   1.073  1.00  0.00     0.124 S 
ATOM     84  O   UNL     1      13.592  -2.169  -0.118  1.00  0.00    -0.237 OA
ATOM     85  O   UNL     1      12.377  -1.245   1.826  1.00  0.00    -0.237 OA
ATOM     86  O   UNL     1      13.226  -3.556   1.891  1.00  0.00    -0.744 OA
ENDBRANCH  82  83
ENDBRANCH  54  77
BRANCH  66  87
ATOM     87  C   UNL     1       6.422  -4.321  -7.285  1.00  0.00    -0.014 A 
ATOM     88  C   UNL     1       7.439  -5.083  -7.885  1.00  0.00     0.010 A 
ATOM     89  C   UNL     1       5.883  -3.224  -7.983  1.00  0.00     0.010 A 
ATOM     90  C   UNL     1       7.919  -4.744  -9.154  1.00  0.00     0.020 A 
ATOM     91  C   UNL     1       6.342  -2.898  -9.261  1.00  0.00     0.020 A 
ATOM     92  C   UNL     1       7.365  -3.655  -9.835  1.00  0.00     0.054 A 
BRANCH  92  93
ATOM     93  S   UNL     1       7.957  -3.276 -11.508  1.00  0.00     0.124 S 
ATOM     94  O   UNL     1       9.262  -2.678 -11.240  1.00  0.00    -0.237 OA
ATOM     95  O   UNL     1       7.986  -4.591 -12.144  1.00  0.00    -0.237 OA
ATOM     96  O   UNL     1       6.947  -2.360 -12.034  1.00  0.00    -0.744 OA
ENDBRANCH  92  93
ENDBRANCH  66  87
ENDBRANCH  40  41
ENDBRANCH  33  35
ENDBRANCH  32  33
ENDBRANCH  31  32
ENDBRANCH  30  31
ENDBRANCH  29  30
ENDBRANCH   1  29
TORSDOF 23
