REMARK SMILES Cc1ccc(-c2nc(NC(=O)[C@H]3[C@@H](C(=O)OCCOCCOCCOC(=O)c4ccc(-c5c6nc(c(-c7ccc(S(=O)(=O)[O-])cc7)c7ccc([nH]7)c(-c7ccc(S(=O)(=O)[O-])cc7)c7nc(c(-c8ccc(S(=O)(=O)[O-])cc8)c8ccc5[nH]8)C=C7)C=C6)cc4)[C@@H]4CC[C@H]3O4)sc2C)cc1
REMARK SMILES IDX 20 1 19 2 18 3 17 4 16 5 14 6 15 7 13 8 12 9 91 10 88 11
REMARK SMILES IDX 90 12 92 13 89 14 10 15 9 16 11 18 8 19 6 20 7 21 94 22
REMARK SMILES IDX 93 23 95 24 5 25 1 26 2 27 3 28 97 29 4 30 96 31 21 32 22 33
REMARK SMILES IDX 23 34 24 35 25 36 26 37 27 38 28 39 29 40 87 41 30 42 86 43
REMARK SMILES IDX 31 44 32 45 33 46 80 47 34 48 85 49 79 50 81 51 35 52 84 53
REMARK SMILES IDX 78 54 77 55 36 57 66 58 47 59 65 60 48 61 51 62 64 63 82 64
REMARK SMILES IDX 49 65 50 66 63 68 83 69 52 70 37 71 38 72 46 73 39 74 45 75
REMARK SMILES IDX 40 76 41 77 42 78 43 79 44 80 67 81 68 82 76 83 69 84 75 85
REMARK SMILES IDX 70 86 71 87 72 88 73 89 74 90 53 91 54 92 62 93 55 94 61 95
REMARK SMILES IDX 56 96 57 97 58 98 59 99 60 100
REMARK H PARENT 9 17 81 56 51 67
REMARK Flexibility Score: inf
ROOT
ATOM      1  C   UNL     1      -7.216   2.522  -3.305  1.00  0.00     0.188 C 
ENDROOT
BRANCH   1   2
ATOM      2  O   UNL     1      -6.204   3.489  -3.382  1.00  0.00    -0.376 OA
BRANCH   2   3
ATOM      3  C   UNL     1      -5.160   3.490  -2.451  1.00  0.00     0.202 C 
BRANCH   3   4
ATOM      4  C   UNL     1      -4.926   2.528  -1.270  1.00  0.00     0.261 C 
BRANCH   4   5
ATOM      5  O   UNL     1      -5.389   1.162  -1.062  1.00  0.00    -0.463 OA
BRANCH   5   6
ATOM      6  C   UNL     1      -6.593   1.107  -0.460  1.00  0.00     0.312 C 
ATOM      7  O   UNL     1      -7.309   2.054  -0.488  1.00  0.00    -0.252 OA
BRANCH   6   8
ATOM      8  C   UNL     1      -7.108  -0.035   0.358  1.00  0.00     0.143 C 
ATOM      9  C   UNL     1      -6.085  -0.685   1.233  1.00  0.00     0.124 C 
ATOM     10  C   UNL     1      -6.222  -2.152   0.587  1.00  0.00     0.132 C 
ATOM     11  C   UNL     1      -7.806  -1.144  -0.432  1.00  0.00     0.133 C 
ATOM     12  C   UNL     1      -7.502  -2.936   1.027  1.00  0.00     0.035 C 
ATOM     13  O   UNL     1      -6.654  -1.903  -0.781  1.00  0.00    -0.373 OA
ATOM     14  C   UNL     1      -8.626  -2.141   0.388  1.00  0.00     0.036 C 
BRANCH   9  15
ATOM     15  C   UNL     1      -4.647   0.026   1.275  1.00  0.00     0.232 C 
ATOM     16  N   UNL     1      -4.257   1.372   1.479  1.00  0.00    -0.302 N 
ATOM     17  H   UNL     1      -3.282   1.467   1.389  1.00  0.00     0.172 HD
ATOM     18  O   UNL     1      -3.696  -0.747   1.059  1.00  0.00    -0.274 OA
BRANCH  16  19
ATOM     19  C   UNL     1      -4.854   2.618   1.774  1.00  0.00     0.190 A 
ATOM     20  C   UNL     1      -5.527   4.861   1.802  1.00  0.00     0.086 A 
ATOM     21  N   UNL     1      -4.446   3.896   1.552  1.00  0.00    -0.220 NA
ATOM     22  C   UNL     1      -6.645   4.171   2.208  1.00  0.00     0.031 A 
ATOM     23  S   UNL     1      -6.369   2.519   2.386  1.00  0.00    -0.101 S 
ATOM     24  C   UNL     1      -8.014   4.648   2.256  1.00  0.00     0.059 C 
BRANCH  20  25
ATOM     25  C   UNL     1      -5.696   6.385   1.551  1.00  0.00     0.001 A 
ATOM     26  C   UNL     1      -7.287  10.516   0.878  1.00  0.00     0.044 C 
ATOM     27  C   UNL     1      -6.698   9.145   1.099  1.00  0.00    -0.051 A 
ATOM     28  C   UNL     1      -5.976   8.416   0.133  1.00  0.00     0.004 A 
ATOM     29  C   UNL     1      -6.939   8.486   2.283  1.00  0.00     0.004 A 
ATOM     30  C   UNL     1      -5.491   7.064   0.350  1.00  0.00     0.010 A 
ATOM     31  C   UNL     1      -6.434   7.175   2.471  1.00  0.00     0.010 A 
ENDBRANCH  20  25
ENDBRANCH  16  19
ENDBRANCH   9  15
ENDBRANCH   6   8
ENDBRANCH   5   6
ENDBRANCH   4   5
ENDBRANCH   3   4
ENDBRANCH   2   3
ENDBRANCH   1   2
BRANCH   1  32
ATOM     32  C   UNL     1      -6.705   1.107  -3.629  1.00  0.00     0.188 C 
BRANCH  32  33
ATOM     33  O   UNL     1      -5.897   0.993  -4.775  1.00  0.00    -0.376 OA
BRANCH  33  34
ATOM     34  C   UNL     1      -6.467   1.609  -5.917  1.00  0.00     0.202 C 
BRANCH  34  35
ATOM     35  C   UNL     1      -8.040   1.589  -6.179  1.00  0.00     0.261 C 
BRANCH  35  36
ATOM     36  O   UNL     1      -8.916   1.131  -5.074  1.00  0.00    -0.460 OA
BRANCH  36  37
ATOM     37  C   UNL     1     -10.272   0.872  -5.051  1.00  0.00     0.338 C 
ATOM     38  O   UNL     1     -10.960   0.545  -6.001  1.00  0.00    -0.246 OA
BRANCH  37  39
ATOM     39  C   UNL     1     -10.746   0.931  -3.564  1.00  0.00     0.060 A 
ATOM     40  C   UNL     1     -11.900   1.442  -2.947  1.00  0.00     0.016 A 
ATOM     41  C   UNL     1      -9.845   0.474  -2.650  1.00  0.00     0.016 A 
ATOM     42  C   UNL     1     -11.991   1.657  -1.466  1.00  0.00     0.010 A 
ATOM     43  C   UNL     1      -9.895   0.833  -1.283  1.00  0.00     0.010 A 
ATOM     44  C   UNL     1     -10.912   1.423  -0.570  1.00  0.00    -0.014 A 
BRANCH  44  45
ATOM     45  C   UNL     1     -10.377   2.267   0.700  1.00  0.00     0.031 A 
ATOM     46  C   UNL     1      -9.756   1.731   2.201  1.00  0.00     0.074 A 
ATOM     47  C   UNL     1      -9.928   3.389   0.049  1.00  0.00     0.049 A 
ATOM     48  N   UNL     1      -9.361   2.442   3.262  1.00  0.00    -0.248 NA
ATOM     49  C   UNL     1      -9.656   0.320   2.624  1.00  0.00     0.031 C 
ATOM     50  C   UNL     1      -8.645   4.082  -0.210  1.00  0.00     0.029 A 
ATOM     51  N   UNL     1     -10.789   4.231  -0.629  1.00  0.00    -0.354 N 
ATOM     52  C   UNL     1      -8.567   1.647   4.178  1.00  0.00     0.074 A 
ATOM     53  C   UNL     1      -8.869   0.306   3.727  1.00  0.00     0.031 C 
ATOM     54  C   UNL     1      -8.800   5.332  -0.629  1.00  0.00     0.029 A 
ATOM     55  C   UNL     1     -10.193   5.479  -0.667  1.00  0.00     0.049 A 
ATOM     56  H   UNL     1     -11.663   3.989  -1.012  1.00  0.00     0.167 HD
ATOM     57  C   UNL     1      -7.598   2.157   5.079  1.00  0.00     0.031 A 
ATOM     58  C   UNL     1     -10.770   6.665  -0.595  1.00  0.00     0.031 A 
ATOM     59  C   UNL     1      -7.656   3.645   5.251  1.00  0.00     0.049 A 
ATOM     60  C   UNL     1     -10.894   6.909   0.990  1.00  0.00     0.074 A 
ATOM     61  C   UNL     1      -6.725   4.674   5.373  1.00  0.00     0.029 A 
ATOM     62  N   UNL     1      -8.881   4.307   5.182  1.00  0.00    -0.354 N 
ATOM     63  N   UNL     1      -9.997   6.593   1.950  1.00  0.00    -0.248 NA
ATOM     64  C   UNL     1     -12.044   7.543   1.622  1.00  0.00     0.031 C 
ATOM     65  C   UNL     1      -7.416   5.930   5.293  1.00  0.00     0.029 A 
ATOM     66  C   UNL     1      -8.727   5.685   4.865  1.00  0.00     0.049 A 
ATOM     67  H   UNL     1      -9.751   3.872   5.335  1.00  0.00     0.167 HD
ATOM     68  C   UNL     1     -10.478   6.831   3.275  1.00  0.00     0.074 A 
ATOM     69  C   UNL     1     -11.729   7.530   2.938  1.00  0.00     0.031 C 
ATOM     70  C   UNL     1      -9.980   6.461   4.567  1.00  0.00     0.031 A 
BRANCH  57  71
ATOM     71  C   UNL     1      -6.253   1.409   5.682  1.00  0.00    -0.014 A 
ATOM     72  C   UNL     1      -5.353   2.119   6.544  1.00  0.00     0.010 A 
ATOM     73  C   UNL     1      -5.741   0.137   5.321  1.00  0.00     0.010 A 
ATOM     74  C   UNL     1      -4.066   1.661   6.959  1.00  0.00     0.020 A 
ATOM     75  C   UNL     1      -4.464  -0.368   5.779  1.00  0.00     0.020 A 
ATOM     76  C   UNL     1      -3.626   0.403   6.588  1.00  0.00     0.054 A 
BRANCH  76  77
ATOM     77  S   UNL     1      -2.029  -0.215   7.261  1.00  0.00     0.124 S 
ATOM     78  O   UNL     1      -1.038   0.604   6.566  1.00  0.00    -0.237 OA
ATOM     79  O   UNL     1      -2.156   0.051   8.693  1.00  0.00    -0.237 OA
ATOM     80  O   UNL     1      -2.024  -1.631   6.901  1.00  0.00    -0.744 OA
ENDBRANCH  76  77
ENDBRANCH  57  71
BRANCH  58  81
ATOM     81  C   UNL     1     -11.284   6.736  -2.075  1.00  0.00    -0.014 A 
ATOM     82  C   UNL     1     -10.297   7.242  -2.991  1.00  0.00     0.010 A 
ATOM     83  C   UNL     1     -12.105   5.716  -2.682  1.00  0.00     0.010 A 
ATOM     84  C   UNL     1     -10.065   6.723  -4.306  1.00  0.00     0.020 A 
ATOM     85  C   UNL     1     -11.852   5.165  -3.992  1.00  0.00     0.020 A 
ATOM     86  C   UNL     1     -10.834   5.678  -4.800  1.00  0.00     0.054 A 
BRANCH  86  87
ATOM     87  S   UNL     1     -10.418   4.897  -6.413  1.00  0.00     0.124 S 
ATOM     88  O   UNL     1     -11.393   5.495  -7.319  1.00  0.00    -0.237 OA
ATOM     89  O   UNL     1      -9.028   5.280  -6.651  1.00  0.00    -0.237 OA
ATOM     90  O   UNL     1     -10.617   3.481  -6.132  1.00  0.00    -0.744 OA
ENDBRANCH  86  87
ENDBRANCH  58  81
BRANCH  70  91
ATOM     91  C   UNL     1     -10.718   6.593   5.936  1.00  0.00    -0.014 A 
ATOM     92  C   UNL     1     -12.080   6.801   6.108  1.00  0.00     0.010 A 
ATOM     93  C   UNL     1     -10.004   6.232   7.135  1.00  0.00     0.010 A 
ATOM     94  C   UNL     1     -12.678   6.671   7.375  1.00  0.00     0.020 A 
ATOM     95  C   UNL     1     -10.597   5.982   8.363  1.00  0.00     0.020 A 
ATOM     96  C   UNL     1     -11.939   6.247   8.484  1.00  0.00     0.054 A 
BRANCH  96  97
ATOM     97  S   UNL     1     -12.731   6.052  10.088  1.00  0.00     0.124 S 
ATOM     98  O   UNL     1     -12.798   7.438  10.544  1.00  0.00    -0.237 OA
ATOM     99  O   UNL     1     -14.009   5.437   9.739  1.00  0.00    -0.237 OA
ATOM    100  O   UNL     1     -11.813   5.191  10.830  1.00  0.00    -0.744 OA
ENDBRANCH  96  97
ENDBRANCH  70  91
ENDBRANCH  44  45
ENDBRANCH  37  39
ENDBRANCH  36  37
ENDBRANCH  35  36
ENDBRANCH  34  35
ENDBRANCH  33  34
ENDBRANCH  32  33
ENDBRANCH   1  32
TORSDOF 23
