REMARK SMILES O=C(OCCOCCOCCOC(=O)[C@@H]1CCCCN1c1ccccc1[N+](=O)[O-])c1ccc(-c2c3nc(c(-c4ccc(S(=O)(=O)[O-])cc4)c4ccc([nH]4)c(-c4ccc(S(=O)(=O)[O-])cc4)c4nc(c(-c5ccc(S(=O)(=O)[O-])cc5)c5ccc2[nH]5)C=C4)C=C3)cc1
REMARK SMILES IDX 7 1 6 2 5 3 4 4 3 5 2 6 1 7 30 8 31 9 89 10 32 11 88 12
REMARK SMILES IDX 33 13 34 14 35 15 82 16 36 17 87 18 81 19 83 20 37 21 86 22
REMARK SMILES IDX 80 23 79 24 38 26 68 27 49 28 67 29 50 30 53 31 66 32 84 33
REMARK SMILES IDX 51 34 52 35 65 37 85 38 54 39 39 40 40 41 48 42 41 43 47 44
REMARK SMILES IDX 42 45 43 46 44 47 45 48 46 49 69 50 70 51 78 52 71 53 77 54
REMARK SMILES IDX 72 55 73 56 74 57 75 58 76 59 55 60 56 61 64 62 57 63 63 64
REMARK SMILES IDX 58 65 59 66 60 67 61 68 62 69 8 70 9 71 10 72 11 73 12 74
REMARK SMILES IDX 13 75 14 76 15 77 16 78 20 79 17 80 19 81 18 82 21 83 22 84
REMARK SMILES IDX 26 85 23 86 25 87 24 88 27 89 28 90 29 91
REMARK H PARENT 83 25 53 36
REMARK Flexibility Score: inf
ROOT
ATOM      1  C   UNL     1       2.262   2.281  -0.887  1.00  0.00     0.188 C 
ENDROOT
BRANCH   1   2
ATOM      2  O   UNL     1       3.632   1.903  -0.865  1.00  0.00    -0.376 OA
BRANCH   2   3
ATOM      3  C   UNL     1       4.144   1.271  -2.024  1.00  0.00     0.202 C 
BRANCH   3   4
ATOM      4  C   UNL     1       3.997  -0.244  -1.977  1.00  0.00     0.261 C 
BRANCH   4   5
ATOM      5  O   UNL     1       2.620  -0.596  -1.789  1.00  0.00    -0.460 OA
BRANCH   5   6
ATOM      6  C   UNL     1       2.068  -1.051  -0.644  1.00  0.00     0.338 C 
ATOM      7  O   UNL     1       0.901  -1.435  -0.643  1.00  0.00    -0.246 OA
BRANCH   6   8
ATOM      8  C   UNL     1       2.824  -1.210   0.617  1.00  0.00     0.060 A 
ATOM      9  C   UNL     1       4.129  -0.152   1.277  1.00  0.00     0.016 A 
ATOM     10  C   UNL     1       2.392  -2.655   1.564  1.00  0.00     0.016 A 
ATOM     11  C   UNL     1       5.036  -0.709   2.988  1.00  0.00     0.010 A 
ATOM     12  C   UNL     1       3.193  -3.105   3.103  1.00  0.00     0.010 A 
ATOM     13  C   UNL     1       4.499  -2.177   3.840  1.00  0.00    -0.014 A 
BRANCH  13  14
ATOM     14  C   UNL     1       5.376  -2.603   4.960  1.00  0.00     0.031 A 
ATOM     15  C   UNL     1       6.067  -3.925   4.879  1.00  0.00     0.074 A 
ATOM     16  C   UNL     1       5.769  -1.701   5.889  1.00  0.00     0.049 A 
ATOM     17  N   UNL     1       6.912  -4.452   5.722  1.00  0.00    -0.248 NA
ATOM     18  C   UNL     1       5.838  -4.739   3.676  1.00  0.00     0.031 C 
ATOM     19  C   UNL     1       5.357  -0.306   5.913  1.00  0.00     0.029 A 
ATOM     20  N   UNL     1       6.637  -1.760   6.951  1.00  0.00    -0.354 N 
ATOM     21  C   UNL     1       7.313  -5.649   5.150  1.00  0.00     0.074 A 
ATOM     22  C   UNL     1       6.596  -5.798   3.908  1.00  0.00     0.031 C 
ATOM     23  C   UNL     1       5.975   0.372   6.879  1.00  0.00     0.029 A 
ATOM     24  C   UNL     1       6.728  -0.572   7.654  1.00  0.00     0.049 A 
ATOM     25  H   UNL     1       7.146  -2.568   7.189  1.00  0.00     0.167 HD
ATOM     26  C   UNL     1       8.216  -6.535   5.624  1.00  0.00     0.031 A 
ATOM     27  C   UNL     1       7.294  -0.259   8.831  1.00  0.00     0.031 A 
ATOM     28  C   UNL     1       8.895  -6.356   6.877  1.00  0.00     0.049 A 
ATOM     29  C   UNL     1       8.097  -1.340   9.458  1.00  0.00     0.074 A 
ATOM     30  C   UNL     1       9.732  -7.232   7.540  1.00  0.00     0.029 A 
ATOM     31  N   UNL     1       8.810  -5.208   7.658  1.00  0.00    -0.354 N 
ATOM     32  N   UNL     1       8.353  -2.530   8.969  1.00  0.00    -0.248 NA
ATOM     33  C   UNL     1       8.706  -1.054  10.754  1.00  0.00     0.031 C 
ATOM     34  C   UNL     1      10.101  -6.638   8.751  1.00  0.00     0.029 A 
ATOM     35  C   UNL     1       9.558  -5.362   8.810  1.00  0.00     0.049 A 
ATOM     36  H   UNL     1       8.292  -4.403   7.424  1.00  0.00     0.167 HD
ATOM     37  C   UNL     1       9.187  -3.134   9.885  1.00  0.00     0.074 A 
ATOM     38  C   UNL     1       9.405  -2.163  10.947  1.00  0.00     0.031 C 
ATOM     39  C   UNL     1       9.729  -4.373   9.846  1.00  0.00     0.031 A 
BRANCH  26  40
ATOM     40  C   UNL     1       8.422  -7.787   4.819  1.00  0.00    -0.014 A 
ATOM     41  C   UNL     1       9.091  -7.768   3.580  1.00  0.00     0.010 A 
ATOM     42  C   UNL     1       7.884  -8.998   5.287  1.00  0.00     0.010 A 
ATOM     43  C   UNL     1       9.187  -8.932   2.811  1.00  0.00     0.020 A 
ATOM     44  C   UNL     1       8.002 -10.169   4.535  1.00  0.00     0.020 A 
ATOM     45  C   UNL     1       8.641 -10.125   3.294  1.00  0.00     0.054 A 
BRANCH  45  46
ATOM     46  S   UNL     1       8.798 -11.624   2.286  1.00  0.00     0.124 S 
ATOM     47  O   UNL     1       7.895 -11.337   1.174  1.00  0.00    -0.237 OA
ATOM     48  O   UNL     1      10.220 -11.635   1.954  1.00  0.00    -0.237 OA
ATOM     49  O   UNL     1       8.361 -12.693   3.182  1.00  0.00    -0.744 OA
ENDBRANCH  45  46
ENDBRANCH  26  40
BRANCH  27  50
ATOM     50  C   UNL     1       7.026   1.057   9.488  1.00  0.00    -0.014 A 
ATOM     51  C   UNL     1       8.047   1.980   9.766  1.00  0.00     0.010 A 
ATOM     52  C   UNL     1       5.701   1.394   9.847  1.00  0.00     0.010 A 
ATOM     53  C   UNL     1       7.758   3.184  10.425  1.00  0.00     0.020 A 
ATOM     54  C   UNL     1       5.403   2.608  10.472  1.00  0.00     0.020 A 
ATOM     55  C   UNL     1       6.439   3.487  10.780  1.00  0.00     0.054 A 
BRANCH  55  56
ATOM     56  S   UNL     1       6.094   5.040  11.654  1.00  0.00     0.124 S 
ATOM     57  O   UNL     1       6.724   4.806  12.950  1.00  0.00    -0.237 OA
ATOM     58  O   UNL     1       6.745   6.031  10.802  1.00  0.00    -0.237 OA
ATOM     59  O   UNL     1       4.634   5.107  11.673  1.00  0.00    -0.744 OA
ENDBRANCH  55  56
ENDBRANCH  27  50
BRANCH  39  60
ATOM     60  C   UNL     1      10.641  -4.710  10.981  1.00  0.00    -0.014 A 
ATOM     61  C   UNL     1      10.139  -4.917  12.276  1.00  0.00     0.010 A 
ATOM     62  C   UNL     1      12.019  -4.820  10.732  1.00  0.00     0.010 A 
ATOM     63  C   UNL     1      11.016  -5.185  13.323  1.00  0.00     0.020 A 
ATOM     64  C   UNL     1      12.892  -5.129  11.769  1.00  0.00     0.020 A 
ATOM     65  C   UNL     1      12.386  -5.292  13.060  1.00  0.00     0.054 A 
BRANCH  65  66
ATOM     66  S   UNL     1      13.499  -5.681  14.432  1.00  0.00     0.124 S 
ATOM     67  O   UNL     1      13.515  -4.423  15.173  1.00  0.00    -0.237 OA
ATOM     68  O   UNL     1      12.815  -6.792  15.089  1.00  0.00    -0.237 OA
ATOM     69  O   UNL     1      14.753  -6.032  13.769  1.00  0.00    -0.744 OA
ENDBRANCH  65  66
ENDBRANCH  39  60
ENDBRANCH  13  14
ENDBRANCH   6   8
ENDBRANCH   5   6
ENDBRANCH   4   5
ENDBRANCH   3   4
ENDBRANCH   2   3
ENDBRANCH   1   2
BRANCH   1  70
ATOM     70  C   UNL     1       2.086   3.544  -0.046  1.00  0.00     0.188 C 
BRANCH  70  71
ATOM     71  O   UNL     1       2.925   4.634  -0.438  1.00  0.00    -0.376 OA
BRANCH  71  72
ATOM     72  C   UNL     1       4.294   4.577  -0.022  1.00  0.00     0.202 C 
BRANCH  72  73
ATOM     73  C   UNL     1       4.562   4.975   1.430  1.00  0.00     0.261 C 
BRANCH  73  74
ATOM     74  O   UNL     1       4.159   3.959   2.363  1.00  0.00    -0.462 OA
BRANCH  74  75
ATOM     75  C   UNL     1       3.017   4.174   3.043  1.00  0.00     0.328 C 
ATOM     76  O   UNL     1       2.311   5.168   2.869  1.00  0.00    -0.250 OA
BRANCH  75  77
ATOM     77  C   UNL     1       2.693   3.174   4.138  1.00  0.00     0.192 C 
ATOM     78  C   UNL     1       3.182   3.781   5.463  1.00  0.00     0.037 C 
ATOM     79  N   UNL     1       2.989   1.699   4.120  1.00  0.00    -0.353 N 
ATOM     80  C   UNL     1       2.435   3.162   6.636  1.00  0.00     0.005 C 
ATOM     81  C   UNL     1       2.299   1.018   5.258  1.00  0.00     0.118 C 
ATOM     82  C   UNL     1       2.602   1.658   6.620  1.00  0.00     0.022 C 
BRANCH  79  83
ATOM     83  C   UNL     1       3.627   0.915   3.134  1.00  0.00     0.116 A 
ATOM     84  C   UNL     1       5.201   1.452   2.514  1.00  0.00     0.033 A 
ATOM     85  C   UNL     1       3.148  -0.807   2.768  1.00  0.00     0.292 A 
ATOM     86  C   UNL     1       6.321   0.446   1.557  1.00  0.00     0.003 A 
ATOM     87  C   UNL     1       4.451  -1.952   1.714  1.00  0.00     0.088 A 
ATOM     88  C   UNL     1       6.003  -1.230   1.153  1.00  0.00     0.007 A 
BRANCH  85  89
ATOM     89  N   UNL     1       1.656  -0.910   3.142  1.00  0.00     0.064 N 
ATOM     90  O   UNL     1       1.316  -1.598   4.119  1.00  0.00    -0.258 OA
ATOM     91  O   UNL     1       0.878  -0.196   2.487  1.00  0.00    -0.258 OA
ENDBRANCH  85  89
ENDBRANCH  79  83
ENDBRANCH  75  77
ENDBRANCH  74  75
ENDBRANCH  73  74
ENDBRANCH  72  73
ENDBRANCH  71  72
ENDBRANCH  70  71
ENDBRANCH   1  70
TORSDOF 22
