REMARK SMILES CCOC(=O)C1=NN(c2ccc([N+](=O)[O-])cc2C(F)(F)F)[C@@](C)(C(=O)OCCOCCOCCOC(=O)c2ccc(-c3c4nc(c(-c5ccc(S(=O)(=O)[O-])cc5)c5ccc([nH]5)c(-c5ccc(S(=O)(=O)[O-])cc5)c5nc(c(-c6ccc(S(=O)(=O)[O-])cc6)c6ccc3[nH]6)C=C5)C=C4)cc2)C1
REMARK SMILES IDX 30 1 29 2 28 3 27 4 26 5 24 6 25 7 22 8 6 9 7 10 98 11 8 12
REMARK SMILES IDX 23 13 4 14 5 15 3 16 2 17 1 18 9 19 10 20 17 21 11 22 16 23
REMARK SMILES IDX 12 24 18 25 19 26 20 27 21 28 13 29 14 30 15 31 31 32 32 33
REMARK SMILES IDX 33 34 34 35 35 36 36 37 37 38 38 39 39 40 97 41 40 42 96 43
REMARK SMILES IDX 41 44 42 45 43 46 90 47 44 48 95 49 89 50 91 51 45 52 94 53
REMARK SMILES IDX 88 54 87 55 46 57 76 58 57 59 75 60 58 61 61 62 74 63 92 64
REMARK SMILES IDX 59 65 60 66 73 68 93 69 62 70 47 71 48 72 56 73 49 74 55 75
REMARK SMILES IDX 50 76 51 77 52 78 53 79 54 80 77 81 78 82 86 83 79 84 85 85
REMARK SMILES IDX 80 86 81 87 82 88 83 89 84 90 63 91 64 92 72 93 65 94 71 95
REMARK SMILES IDX 66 96 67 97 68 98 69 99 70 100
REMARK H PARENT 91 56 61 67
REMARK Flexibility Score: inf
ROOT
ATOM      1  C   UNL     1       5.870   1.165   5.205  1.00  0.00     0.188 C 
ENDROOT
BRANCH   1   2
ATOM      2  O   UNL     1       7.272   1.322   5.383  1.00  0.00    -0.376 OA
BRANCH   2   3
ATOM      3  C   UNL     1       7.790   2.427   6.102  1.00  0.00     0.202 C 
BRANCH   3   4
ATOM      4  C   UNL     1       7.528   3.849   5.574  1.00  0.00     0.261 C 
BRANCH   4   5
ATOM      5  O   UNL     1       6.166   4.206   5.233  1.00  0.00    -0.461 OA
BRANCH   5   6
ATOM      6  C   UNL     1       5.877   4.136   3.906  1.00  0.00     0.334 C 
ATOM      7  O   UNL     1       6.711   3.779   3.074  1.00  0.00    -0.249 OA
BRANCH   6   8
ATOM      8  C   UNL     1       4.494   4.681   3.465  1.00  0.00     0.163 C 
ATOM      9  C   UNL     1       2.954   3.056   2.785  1.00  0.00     0.149 C 
ATOM     10  N   UNL     1       2.530   3.402   3.960  1.00  0.00    -0.169 NA
ATOM     11  C   UNL     1       4.078   3.854   2.221  1.00  0.00     0.108 C 
ATOM     12  N   UNL     1       3.313   4.462   4.375  1.00  0.00    -0.247 N 
ATOM     13  C   UNL     1       4.781   6.128   3.089  1.00  0.00     0.050 C 
BRANCH   9  14
ATOM     14  C   UNL     1       2.420   1.883   1.996  1.00  0.00     0.354 C 
ATOM     15  O   UNL     1       3.202   1.144   1.429  1.00  0.00    -0.245 OA
BRANCH  14  16
ATOM     16  O   UNL     1       1.081   1.791   2.058  1.00  0.00    -0.461 OA
BRANCH  16  17
ATOM     17  C   UNL     1       0.446   0.615   1.508  1.00  0.00     0.230 C 
ATOM     18  C   UNL     1       0.724   0.367   0.035  1.00  0.00     0.049 C 
ENDBRANCH  16  17
ENDBRANCH  14  16
ENDBRANCH   9  14
BRANCH  12  19
ATOM     19  C   UNL     1       2.770   5.202   5.423  1.00  0.00     0.073 A 
ATOM     20  C   UNL     1       2.590   4.552   6.672  1.00  0.00     0.036 A 
ATOM     21  C   UNL     1       2.190   6.483   5.316  1.00  0.00     0.088 A 
ATOM     22  C   UNL     1       2.000   5.155   7.792  1.00  0.00     0.088 A 
ATOM     23  C   UNL     1       1.653   7.128   6.468  1.00  0.00     0.101 A 
ATOM     24  C   UNL     1       1.558   6.465   7.692  1.00  0.00     0.270 A 
BRANCH  21  25
ATOM     25  C   UNL     1       1.956   7.204   4.013  1.00  0.00     0.418 C 
ATOM     26  F   UNL     1       0.790   7.919   4.019  1.00  0.00    -0.166 F 
ATOM     27  F   UNL     1       2.924   8.127   3.755  1.00  0.00    -0.166 F 
ATOM     28  F   UNL     1       1.868   6.407   2.915  1.00  0.00    -0.166 F 
ENDBRANCH  21  25
BRANCH  24  29
ATOM     29  N   UNL     1       0.936   7.130   8.844  1.00  0.00     0.062 N 
ATOM     30  O   UNL     1       0.762   6.465   9.875  1.00  0.00    -0.258 OA
ATOM     31  O   UNL     1       0.628   8.325   8.720  1.00  0.00    -0.258 OA
ENDBRANCH  24  29
ENDBRANCH  12  19
ENDBRANCH   6   8
ENDBRANCH   5   6
ENDBRANCH   4   5
ENDBRANCH   3   4
ENDBRANCH   2   3
ENDBRANCH   1   2
BRANCH   1  32
ATOM     32  C   UNL     1       4.883   1.823   6.182  1.00  0.00     0.188 C 
BRANCH  32  33
ATOM     33  O   UNL     1       5.455   2.236   7.402  1.00  0.00    -0.376 OA
BRANCH  33  34
ATOM     34  C   UNL     1       5.081   1.570   8.588  1.00  0.00     0.202 C 
BRANCH  34  35
ATOM     35  C   UNL     1       5.138   0.036   8.661  1.00  0.00     0.261 C 
BRANCH  35  36
ATOM     36  O   UNL     1       4.803  -0.695   7.473  1.00  0.00    -0.460 OA
BRANCH  36  37
ATOM     37  C   UNL     1       3.493  -0.904   7.213  1.00  0.00     0.338 C 
ATOM     38  O   UNL     1       2.542  -0.489   7.856  1.00  0.00    -0.246 OA
BRANCH  37  39
ATOM     39  C   UNL     1       3.409  -1.565   5.893  1.00  0.00     0.060 A 
ATOM     40  C   UNL     1       2.960  -0.840   4.784  1.00  0.00     0.016 A 
ATOM     41  C   UNL     1       3.817  -2.893   5.746  1.00  0.00     0.016 A 
ATOM     42  C   UNL     1       2.933  -1.446   3.527  1.00  0.00     0.010 A 
ATOM     43  C   UNL     1       3.736  -3.505   4.490  1.00  0.00     0.010 A 
ATOM     44  C   UNL     1       3.273  -2.790   3.373  1.00  0.00    -0.014 A 
BRANCH  44  45
ATOM     45  C   UNL     1       2.969  -3.501   2.104  1.00  0.00     0.031 A 
ATOM     46  C   UNL     1       1.774  -4.413   2.076  1.00  0.00     0.074 A 
ATOM     47  C   UNL     1       3.713  -3.347   0.994  1.00  0.00     0.049 A 
ATOM     48  N   UNL     1       1.431  -5.308   1.189  1.00  0.00    -0.248 NA
ATOM     49  C   UNL     1       0.838  -4.292   3.207  1.00  0.00     0.031 C 
ATOM     50  C   UNL     1       4.807  -2.393   0.826  1.00  0.00     0.029 A 
ATOM     51  N   UNL     1       3.667  -4.021  -0.204  1.00  0.00    -0.354 N 
ATOM     52  C   UNL     1       0.271  -5.896   1.678  1.00  0.00     0.074 A 
ATOM     53  C   UNL     1      -0.037  -5.248   2.934  1.00  0.00     0.031 C 
ATOM     54  C   UNL     1       5.354  -2.569  -0.390  1.00  0.00     0.029 A 
ATOM     55  C   UNL     1       4.694  -3.691  -1.058  1.00  0.00     0.049 A 
ATOM     56  H   UNL     1       2.966  -4.675  -0.430  1.00  0.00     0.167 HD
ATOM     57  C   UNL     1      -0.458  -6.900   1.138  1.00  0.00     0.031 A 
ATOM     58  C   UNL     1       5.093  -4.265  -2.212  1.00  0.00     0.031 A 
ATOM     59  C   UNL     1      -0.139  -7.542  -0.110  1.00  0.00     0.049 A 
ATOM     60  C   UNL     1       4.342  -5.462  -2.741  1.00  0.00     0.074 A 
ATOM     61  C   UNL     1      -0.805  -8.580  -0.737  1.00  0.00     0.029 A 
ATOM     62  N   UNL     1       0.939  -7.211  -0.917  1.00  0.00    -0.354 N 
ATOM     63  N   UNL     1       3.278  -6.053  -2.249  1.00  0.00    -0.248 NA
ATOM     64  C   UNL     1       4.848  -6.076  -3.979  1.00  0.00     0.031 C 
ATOM     65  C   UNL     1      -0.091  -8.921  -1.889  1.00  0.00     0.029 A 
ATOM     66  C   UNL     1       0.972  -8.042  -2.022  1.00  0.00     0.049 A 
ATOM     67  H   UNL     1       1.585  -6.492  -0.731  1.00  0.00     0.167 HD
ATOM     68  C   UNL     1       2.967  -7.080  -3.136  1.00  0.00     0.074 A 
ATOM     69  C   UNL     1       3.953  -7.032  -4.195  1.00  0.00     0.031 C 
ATOM     70  C   UNL     1       1.949  -7.974  -3.082  1.00  0.00     0.031 A 
BRANCH  57  71
ATOM     71  C   UNL     1      -1.624  -7.421   1.935  1.00  0.00    -0.014 A 
ATOM     72  C   UNL     1      -2.796  -6.666   2.117  1.00  0.00     0.010 A 
ATOM     73  C   UNL     1      -1.547  -8.710   2.495  1.00  0.00     0.010 A 
ATOM     74  C   UNL     1      -3.851  -7.174   2.881  1.00  0.00     0.020 A 
ATOM     75  C   UNL     1      -2.612  -9.234   3.231  1.00  0.00     0.020 A 
ATOM     76  C   UNL     1      -3.750  -8.454   3.435  1.00  0.00     0.054 A 
BRANCH  76  77
ATOM     77  S   UNL     1      -5.139  -9.092   4.412  1.00  0.00     0.124 S 
ATOM     78  O   UNL     1      -5.056  -8.274   5.620  1.00  0.00    -0.237 OA
ATOM     79  O   UNL     1      -6.286  -8.823   3.549  1.00  0.00    -0.237 OA
ATOM     80  O   UNL     1      -4.816 -10.505   4.595  1.00  0.00    -0.744 OA
ENDBRANCH  76  77
ENDBRANCH  57  71
BRANCH  58  81
ATOM     81  C   UNL     1       6.306  -3.757  -2.916  1.00  0.00    -0.014 A 
ATOM     82  C   UNL     1       6.205  -3.140  -4.175  1.00  0.00     0.010 A 
ATOM     83  C   UNL     1       7.577  -3.890  -2.325  1.00  0.00     0.010 A 
ATOM     84  C   UNL     1       7.350  -2.675  -4.832  1.00  0.00     0.020 A 
ATOM     85  C   UNL     1       8.720  -3.398  -2.963  1.00  0.00     0.020 A 
ATOM     86  C   UNL     1       8.600  -2.801  -4.218  1.00  0.00     0.054 A 
BRANCH  86  87
ATOM     87  S   UNL     1      10.061  -2.133  -5.062  1.00  0.00     0.124 S 
ATOM     88  O   UNL     1      10.224  -3.066  -6.173  1.00  0.00    -0.237 OA
ATOM     89  O   UNL     1       9.626  -0.787  -5.425  1.00  0.00    -0.237 OA
ATOM     90  O   UNL     1      11.104  -2.189  -4.040  1.00  0.00    -0.744 OA
ENDBRANCH  86  87
ENDBRANCH  58  81
BRANCH  70  91
ATOM     91  C   UNL     1       1.788  -8.942  -4.227  1.00  0.00    -0.014 A 
ATOM     92  C   UNL     1       2.659 -10.031  -4.403  1.00  0.00     0.010 A 
ATOM     93  C   UNL     1       0.673  -8.812  -5.077  1.00  0.00     0.010 A 
ATOM     94  C   UNL     1       2.420 -10.967  -5.415  1.00  0.00     0.020 A 
ATOM     95  C   UNL     1       0.415  -9.761  -6.069  1.00  0.00     0.020 A 
ATOM     96  C   UNL     1       1.295 -10.831  -6.236  1.00  0.00     0.054 A 
BRANCH  96  97
ATOM     97  S   UNL     1       0.963 -12.105  -7.485  1.00  0.00     0.124 S 
ATOM     98  O   UNL     1       2.016 -11.854  -8.464  1.00  0.00    -0.237 OA
ATOM     99  O   UNL     1       1.097 -13.343  -6.721  1.00  0.00    -0.237 OA
ATOM    100  O   UNL     1      -0.393 -11.803  -7.938  1.00  0.00    -0.744 OA
ENDBRANCH  96  97
ENDBRANCH  70  91
ENDBRANCH  44  45
ENDBRANCH  37  39
ENDBRANCH  36  37
ENDBRANCH  35  36
ENDBRANCH  34  35
ENDBRANCH  33  34
ENDBRANCH  32  33
ENDBRANCH   1  32
TORSDOF 26
