REMARK SMILES C[C@@H](O)CN(C)C(=O)N[C@H]1C=C[C@@H](C(=O)OCCOCCOCCOC(=O)c2ccc(-c3c4nc(c(-c5ccc(S(=O)(=O)[O-])cc5)c5ccc([nH]5)c(-c5ccc(S(=O)(=O)[O-])cc5)c5nc(c(-c6ccc(S(=O)(=O)[O-])cc6)c6ccc3[nH]6)C=C5)C=C4)cc2)C1
REMARK SMILES IDX 20 1 19 2 18 3 17 4 16 5 14 6 15 7 13 8 10 9 11 10 88 11
REMARK SMILES IDX 12 12 9 13 7 14 8 15 5 17 6 18 4 19 2 20 1 21 3 22 21 24
REMARK SMILES IDX 22 25 23 26 24 27 25 28 26 29 27 30 28 31 29 32 87 33 30 34
REMARK SMILES IDX 86 35 31 36 32 37 33 38 80 39 34 40 85 41 79 42 81 43 35 44
REMARK SMILES IDX 84 45 78 46 77 47 36 49 66 50 47 51 65 52 48 53 51 54 64 55
REMARK SMILES IDX 82 56 49 57 50 58 63 60 83 61 52 62 37 63 38 64 46 65 39 66
REMARK SMILES IDX 45 67 40 68 41 69 42 70 43 71 44 72 67 73 68 74 76 75 69 76
REMARK SMILES IDX 75 77 70 78 71 79 72 80 73 81 74 82 53 83 54 84 62 85 55 86
REMARK SMILES IDX 61 87 56 88 57 89 58 90 59 91 60 92
REMARK H PARENT 9 16 3 23 81 48 51 59
REMARK Flexibility Score: inf
ROOT
ATOM      1  C   UNL     1      -1.490   7.334   2.475  1.00  0.00     0.188 C 
ENDROOT
BRANCH   1   2
ATOM      2  O   UNL     1      -0.701   8.272   3.199  1.00  0.00    -0.376 OA
BRANCH   2   3
ATOM      3  C   UNL     1       0.290   7.782   4.096  1.00  0.00     0.202 C 
BRANCH   3   4
ATOM      4  C   UNL     1      -0.120   6.728   5.141  1.00  0.00     0.261 C 
BRANCH   4   5
ATOM      5  O   UNL     1      -0.849   5.598   4.611  1.00  0.00    -0.463 OA
BRANCH   5   6
ATOM      6  C   UNL     1      -1.891   5.150   5.359  1.00  0.00     0.312 C 
ATOM      7  O   UNL     1      -2.176   5.597   6.467  1.00  0.00    -0.252 OA
BRANCH   6   8
ATOM      8  C   UNL     1      -2.757   4.088   4.665  1.00  0.00     0.124 C 
ATOM      9  C   UNL     1      -2.788   1.967   3.400  1.00  0.00     0.107 C 
ATOM     10  C   UNL     1      -2.992   1.756   4.872  1.00  0.00    -0.006 C 
ATOM     11  C   UNL     1      -2.258   3.402   3.388  1.00  0.00     0.048 C 
ATOM     12  C   UNL     1      -2.976   2.905   5.559  1.00  0.00    -0.014 C 
BRANCH   9  13
ATOM     13  N   UNL     1      -1.862   0.966   2.914  1.00  0.00    -0.332 N 
ATOM     14  C   UNL     1      -1.450   0.501   1.722  1.00  0.00     0.317 C 
ATOM     15  O   UNL     1      -0.852  -0.579   1.779  1.00  0.00    -0.249 OA
ATOM     16  H   UNL     1      -1.414   0.499   3.656  1.00  0.00     0.165 HD
BRANCH  14  17
ATOM     17  N   UNL     1      -1.621   1.158   0.537  1.00  0.00    -0.325 N 
ATOM     18  C   UNL     1      -2.274   2.435   0.323  1.00  0.00     0.148 C 
BRANCH  17  19
ATOM     19  C   UNL     1      -0.974   0.579  -0.657  1.00  0.00     0.152 C 
BRANCH  19  20
ATOM     20  C   UNL     1       0.522   0.927  -0.822  1.00  0.00     0.130 C 
ATOM     21  C   UNL     1       1.450   0.070   0.033  1.00  0.00     0.040 C 
BRANCH  20  22
ATOM     22  O   UNL     1       0.883   0.721  -2.195  1.00  0.00    -0.392 OA
ATOM     23  H   UNL     1       0.757  -0.213  -2.426  1.00  0.00     0.211 HD
ENDBRANCH  20  22
ENDBRANCH  19  20
ENDBRANCH  17  19
ENDBRANCH  14  17
ENDBRANCH   9  13
ENDBRANCH   6   8
ENDBRANCH   5   6
ENDBRANCH   4   5
ENDBRANCH   3   4
ENDBRANCH   2   3
ENDBRANCH   1   2
BRANCH   1  24
ATOM     24  C   UNL     1      -0.788   6.127   1.831  1.00  0.00     0.188 C 
BRANCH  24  25
ATOM     25  O   UNL     1       0.604   6.072   2.035  1.00  0.00    -0.376 OA
BRANCH  25  26
ATOM     26  C   UNL     1       1.436   6.070   0.893  1.00  0.00     0.202 C 
BRANCH  26  27
ATOM     27  C   UNL     1       1.307   7.236  -0.102  1.00  0.00     0.261 C 
BRANCH  27  28
ATOM     28  O   UNL     1      -0.023   7.664  -0.447  1.00  0.00    -0.460 OA
BRANCH  28  29
ATOM     29  C   UNL     1      -0.728   6.884  -1.298  1.00  0.00     0.338 C 
ATOM     30  O   UNL     1      -0.357   5.827  -1.792  1.00  0.00    -0.246 OA
BRANCH  29  31
ATOM     31  C   UNL     1      -2.123   7.384  -1.332  1.00  0.00     0.060 A 
ATOM     32  C   UNL     1      -3.162   6.543  -0.904  1.00  0.00     0.016 A 
ATOM     33  C   UNL     1      -2.407   8.679  -1.768  1.00  0.00     0.016 A 
ATOM     34  C   UNL     1      -4.488   6.988  -0.932  1.00  0.00     0.010 A 
ATOM     35  C   UNL     1      -3.737   9.113  -1.819  1.00  0.00     0.010 A 
ATOM     36  C   UNL     1      -4.787   8.264  -1.425  1.00  0.00    -0.014 A 
BRANCH  36  37
ATOM     37  C   UNL     1      -6.196   8.656  -1.695  1.00  0.00     0.031 A 
ATOM     38  C   UNL     1      -6.705   8.570  -3.110  1.00  0.00     0.074 A 
ATOM     39  C   UNL     1      -7.013   9.083  -0.713  1.00  0.00     0.049 A 
ATOM     40  N   UNL     1      -7.856   8.947  -3.603  1.00  0.00    -0.248 NA
ATOM     41  C   UNL     1      -5.789   7.981  -4.102  1.00  0.00     0.031 C 
ATOM     42  C   UNL     1      -6.667   9.164   0.705  1.00  0.00     0.029 A 
ATOM     43  N   UNL     1      -8.307   9.544  -0.769  1.00  0.00    -0.354 N 
ATOM     44  C   UNL     1      -7.800   8.654  -4.961  1.00  0.00     0.074 A 
ATOM     45  C   UNL     1      -6.493   8.091  -5.220  1.00  0.00     0.031 C 
ATOM     46  C   UNL     1      -7.716   9.663   1.383  1.00  0.00     0.029 A 
ATOM     47  C   UNL     1      -8.793   9.976   0.443  1.00  0.00     0.049 A 
ATOM     48  H   UNL     1      -8.836   9.563  -1.599  1.00  0.00     0.167 HD
ATOM     49  C   UNL     1      -8.751   8.833  -5.908  1.00  0.00     0.031 A 
ATOM     50  C   UNL     1      -9.957  10.585   0.754  1.00  0.00     0.031 A 
ATOM     51  C   UNL     1     -10.046   9.406  -5.654  1.00  0.00     0.049 A 
ATOM     52  C   UNL     1     -10.964  10.859  -0.337  1.00  0.00     0.074 A 
ATOM     53  C   UNL     1     -11.079   9.623  -6.550  1.00  0.00     0.029 A 
ATOM     54  N   UNL     1     -10.486   9.858  -4.420  1.00  0.00    -0.354 N 
ATOM     55  N   UNL     1     -10.903  10.560  -1.613  1.00  0.00    -0.248 NA
ATOM     56  C   UNL     1     -12.203  11.548   0.058  1.00  0.00     0.031 C 
ATOM     57  C   UNL     1     -12.119  10.263  -5.871  1.00  0.00     0.029 A 
ATOM     58  C   UNL     1     -11.765  10.377  -4.537  1.00  0.00     0.049 A 
ATOM     59  H   UNL     1      -9.967   9.817  -3.585  1.00  0.00     0.167 HD
ATOM     60  C   UNL     1     -12.108  10.993  -2.163  1.00  0.00     0.074 A 
ATOM     61  C   UNL     1     -12.884  11.558  -1.080  1.00  0.00     0.031 C 
ATOM     62  C   UNL     1     -12.534  10.928  -3.449  1.00  0.00     0.031 A 
BRANCH  49  63
ATOM     63  C   UNL     1      -8.419   8.429  -7.320  1.00  0.00    -0.014 A 
ATOM     64  C   UNL     1      -8.314   7.074  -7.684  1.00  0.00     0.010 A 
ATOM     65  C   UNL     1      -8.279   9.417  -8.312  1.00  0.00     0.010 A 
ATOM     66  C   UNL     1      -8.052   6.717  -9.009  1.00  0.00     0.020 A 
ATOM     67  C   UNL     1      -8.046   9.063  -9.644  1.00  0.00     0.020 A 
ATOM     68  C   UNL     1      -7.924   7.714  -9.982  1.00  0.00     0.054 A 
BRANCH  68  69
ATOM     69  S   UNL     1      -7.635   7.216 -11.702  1.00  0.00     0.124 S 
ATOM     70  O   UNL     1      -6.268   6.706 -11.642  1.00  0.00    -0.237 OA
ATOM     71  O   UNL     1      -8.672   6.211 -11.920  1.00  0.00    -0.237 OA
ATOM     72  O   UNL     1      -7.804   8.456 -12.456  1.00  0.00    -0.744 OA
ENDBRANCH  68  69
ENDBRANCH  49  63
BRANCH  50  73
ATOM     73  C   UNL     1     -10.231  11.021   2.154  1.00  0.00    -0.014 A 
ATOM     74  C   UNL     1     -11.275  10.442   2.899  1.00  0.00     0.010 A 
ATOM     75  C   UNL     1      -9.473  12.054   2.737  1.00  0.00     0.010 A 
ATOM     76  C   UNL     1     -11.576  10.909   4.183  1.00  0.00     0.020 A 
ATOM     77  C   UNL     1      -9.748  12.500   4.033  1.00  0.00     0.020 A 
ATOM     78  C   UNL     1     -10.810  11.936   4.741  1.00  0.00     0.054 A 
BRANCH  78  79
ATOM     79  S   UNL     1     -11.205  12.510   6.417  1.00  0.00     0.124 S 
ATOM     80  O   UNL     1     -12.457  13.229   6.205  1.00  0.00    -0.237 OA
ATOM     81  O   UNL     1     -11.311  11.258   7.161  1.00  0.00    -0.237 OA
ATOM     82  O   UNL     1     -10.057  13.343   6.772  1.00  0.00    -0.744 OA
ENDBRANCH  78  79
ENDBRANCH  50  73
BRANCH  62  83
ATOM     83  C   UNL     1     -13.922  11.430  -3.758  1.00  0.00    -0.014 A 
ATOM     84  C   UNL     1     -14.234  12.800  -3.722  1.00  0.00     0.010 A 
ATOM     85  C   UNL     1     -14.916  10.514  -4.151  1.00  0.00     0.010 A 
ATOM     86  C   UNL     1     -15.522  13.241  -4.041  1.00  0.00     0.020 A 
ATOM     87  C   UNL     1     -16.195  10.953  -4.503  1.00  0.00     0.020 A 
ATOM     88  C   UNL     1     -16.494  12.315  -4.432  1.00  0.00     0.054 A 
BRANCH  88  89
ATOM     89  S   UNL     1     -18.144  12.918  -4.884  1.00  0.00     0.124 S 
ATOM     90  O   UNL     1     -18.689  13.317  -3.589  1.00  0.00    -0.237 OA
ATOM     91  O   UNL     1     -17.843  14.013  -5.803  1.00  0.00    -0.237 OA
ATOM     92  O   UNL     1     -18.784  11.756  -5.497  1.00  0.00    -0.744 OA
ENDBRANCH  88  89
ENDBRANCH  62  83
ENDBRANCH  36  37
ENDBRANCH  29  31
ENDBRANCH  28  29
ENDBRANCH  27  28
ENDBRANCH  26  27
ENDBRANCH  25  26
ENDBRANCH  24  25
ENDBRANCH   1  24
TORSDOF 25
