REMARK SMILES COC(=O)c1ccc([C@H]2[C@H]3C(=O)CC(C)(C)CC3=Nc3ccccc3N2C(=O)CCC(=O)OCCOCCOCCOC(=O)c2ccc(-c3c4nc(c(-c5ccc(S(=O)(=O)[O-])cc5)c5ccc([nH]5)c(-c5ccc(S(=O)(=O)[O-])cc5)c5nc(c(-c6ccc(S(=O)(=O)[O-])cc6)c6ccc3[nH]6)C=C5)C=C4)cc2)cc1
REMARK SMILES IDX 35 1 34 2 33 3 31 4 32 5 30 6 29 7 27 8 28 9 26 10 9 11 8 13
REMARK SMILES IDX 5 14 6 15 106 16 7 17 105 18 3 19 4 20 2 21 1 22 25 23 20 24
REMARK SMILES IDX 24 25 21 26 23 27 22 28 19 29 18 30 10 31 17 32 11 33 14 35
REMARK SMILES IDX 12 36 13 37 15 38 16 39 36 40 37 41 38 42 39 43 40 44 41 45
REMARK SMILES IDX 42 46 43 47 44 48 45 49 46 50 104 51 47 52 103 53 48 54
REMARK SMILES IDX 49 55 50 56 97 57 51 58 102 59 96 60 98 61 52 62 101 63
REMARK SMILES IDX 95 64 94 65 53 67 83 68 64 69 82 70 65 71 68 72 81 73 99 74
REMARK SMILES IDX 66 75 67 76 80 78 100 79 69 80 54 81 55 82 63 83 56 84 62 85
REMARK SMILES IDX 57 86 58 87 59 88 60 89 61 90 84 91 85 92 93 93 86 94 92 95
REMARK SMILES IDX 87 96 88 97 89 98 90 99 91 100 70 101 71 102 79 103 72 104
REMARK SMILES IDX 78 105 73 106 74 107 75 108 76 109 77 110
REMARK H PARENT 98 66 68 77
REMARK Flexibility Score: 90.00
ROOT
ATOM      1  C   UNL     1      -2.378  -2.739  -8.250  1.00  0.00     0.202 C 
ENDROOT
BRANCH   1   2
ATOM      2  C   UNL     1      -1.454  -3.236  -6.886  1.00  0.00     0.261 C 
BRANCH   2   3
ATOM      3  O   UNL     1      -0.276  -2.480  -6.492  1.00  0.00    -0.463 OA
BRANCH   3   4
ATOM      4  C   UNL     1       0.916  -3.138  -6.540  1.00  0.00     0.306 C 
ATOM      5  O   UNL     1       1.032  -4.352  -6.425  1.00  0.00    -0.252 OA
BRANCH   4   6
ATOM      6  C   UNL     1       2.103  -2.236  -6.871  1.00  0.00     0.132 C 
BRANCH   6   7
ATOM      7  C   UNL     1       1.954  -1.153  -7.948  1.00  0.00     0.112 C 
BRANCH   7   8
ATOM      8  C   UNL     1       1.055  -0.028  -7.516  1.00  0.00     0.228 C 
ATOM      9  O   UNL     1       1.622   0.954  -7.031  1.00  0.00    -0.274 OA
BRANCH   8  10
ATOM     10  N   UNL     1      -0.317  -0.097  -7.685  1.00  0.00    -0.302 N 
BRANCH  10  11
ATOM     11  C   UNL     1      -1.285   0.790  -6.853  1.00  0.00     0.137 CG0
ATOM     12  G   UNL     1      -2.078   1.905  -7.558  1.00  0.00     0.000 G0
BRANCH  11  13
ATOM     13  C   UNL     1      -0.899   1.086  -5.402  1.00  0.00    -0.024 A 
ATOM     14  C   UNL     1       0.067   1.255  -2.767  1.00  0.00     0.060 A 
ATOM     15  C   UNL     1       0.652   2.015  -3.774  1.00  0.00     0.016 A 
ATOM     16  C   UNL     1      -1.102   0.538  -3.038  1.00  0.00     0.016 A 
ATOM     17  C   UNL     1       0.134   1.966  -5.065  1.00  0.00     0.007 A 
ATOM     18  C   UNL     1      -1.577   0.450  -4.349  1.00  0.00     0.007 A 
BRANCH  14  19
ATOM     19  C   UNL     1       0.769   1.186  -1.459  1.00  0.00     0.337 C 
ATOM     20  O   UNL     1       1.672   1.919  -1.129  1.00  0.00    -0.246 OA
BRANCH  19  21
ATOM     21  O   UNL     1       0.300   0.118  -0.758  1.00  0.00    -0.465 OA
ATOM     22  C   UNL     1       1.027  -0.141   0.440  1.00  0.00     0.282 C 
ENDBRANCH  19  21
ENDBRANCH  14  19
ENDBRANCH  11  13
ENDBRANCH  10  11
BRANCH  10  23
ATOM     23  C   UNL     1      -0.986  -1.048  -8.589  1.00  0.00     0.070 A 
ATOM     24  C   UNL     1      -2.665  -0.570  -9.107  1.00  0.00     0.087 A 
ATOM     25  C   UNL     1      -0.372  -2.727  -9.024  1.00  0.00     0.028 A 
ATOM     26  C   UNL     1      -3.740  -1.789  -9.889  1.00  0.00     0.030 A 
ATOM     27  C   UNL     1      -1.481  -3.938  -9.810  1.00  0.00     0.002 A 
ATOM     28  C   UNL     1      -3.149  -3.441 -10.268  1.00  0.00     0.002 A 
BRANCH  24  29
ATOM     29  N   UNL     1      -2.881   0.786  -9.497  1.00  0.00    -0.255 NA
ATOM     30  C   UNL     1      -2.029   1.632  -9.007  1.00  0.00     0.032 C 
ATOM     31  C   UNL     1      -2.078   1.905  -7.558  1.00  0.00     0.128 CG0
ATOM     32  C   UNL     1      -0.836   2.176  -9.774  1.00  0.00     0.059 C 
ATOM     33  C   UNL     1      -1.860   3.380  -7.296  1.00  0.00     0.144 C 
ATOM     34  G   UNL     1      -1.285   0.790  -6.853  1.00  0.00     0.000 G0
ATOM     35  C   UNL     1      -0.366   3.588  -9.379  1.00  0.00    -0.023 C 
ATOM     36  O   UNL     1      -2.256   3.898  -6.247  1.00  0.00    -0.299 OA
ATOM     37  C   UNL     1      -1.371   4.269  -8.440  1.00  0.00     0.083 C 
ATOM     38  C   UNL     1       1.027   3.598  -8.716  1.00  0.00     0.012 C 
ATOM     39  C   UNL     1      -0.215   4.375 -10.699  1.00  0.00     0.012 C 
ENDBRANCH  24  29
ENDBRANCH  10  23
ENDBRANCH   8  10
ENDBRANCH   7   8
ENDBRANCH   6   7
ENDBRANCH   4   6
ENDBRANCH   3   4
ENDBRANCH   2   3
ENDBRANCH   1   2
BRANCH   1  40
ATOM     40  O   UNL     1      -1.827  -2.004 -10.010  1.00  0.00    -0.376 OA
BRANCH  40  41
ATOM     41  C   UNL     1      -1.060  -2.094 -11.320  1.00  0.00     0.188 C 
BRANCH  41  42
ATOM     42  C   UNL     1      -0.511  -0.703 -11.685  1.00  0.00     0.188 C 
BRANCH  42  43
ATOM     43  O   UNL     1      -1.389   0.355 -12.036  1.00  0.00    -0.376 OA
BRANCH  43  44
ATOM     44  C   UNL     1      -2.662   0.093 -12.598  1.00  0.00     0.202 C 
BRANCH  44  45
ATOM     45  C   UNL     1      -2.663   0.203 -14.116  1.00  0.00     0.261 C 
BRANCH  45  46
ATOM     46  O   UNL     1      -1.883  -0.861 -14.671  1.00  0.00    -0.460 OA
BRANCH  46  47
ATOM     47  C   UNL     1      -0.582  -0.556 -14.898  1.00  0.00     0.338 C 
ATOM     48  O   UNL     1      -0.056   0.542 -14.862  1.00  0.00    -0.246 OA
BRANCH  47  49
ATOM     49  C   UNL     1       0.167  -1.825 -14.994  1.00  0.00     0.060 A 
ATOM     50  C   UNL     1       1.447  -1.887 -14.422  1.00  0.00     0.016 A 
ATOM     51  C   UNL     1      -0.392  -2.940 -15.622  1.00  0.00     0.016 A 
ATOM     52  C   UNL     1       2.187  -3.059 -14.500  1.00  0.00     0.010 A 
ATOM     53  C   UNL     1       0.364  -4.100 -15.738  1.00  0.00     0.010 A 
ATOM     54  C   UNL     1       1.667  -4.141 -15.215  1.00  0.00    -0.014 A 
BRANCH  54  55
ATOM     55  C   UNL     1       2.573  -5.205 -15.675  1.00  0.00     0.031 A 
ATOM     56  C   UNL     1       3.218  -5.014 -17.019  1.00  0.00     0.074 A 
ATOM     57  C   UNL     1       2.772  -6.309 -14.938  1.00  0.00     0.049 A 
ATOM     58  N   UNL     1       3.937  -5.849 -17.715  1.00  0.00    -0.248 NA
ATOM     59  C   UNL     1       3.015  -3.704 -17.671  1.00  0.00     0.031 C 
ATOM     60  C   UNL     1       2.226  -6.548 -13.602  1.00  0.00     0.029 A 
ATOM     61  N   UNL     1       3.473  -7.448 -15.227  1.00  0.00    -0.354 N 
ATOM     62  C   UNL     1       4.251  -5.179 -18.891  1.00  0.00     0.074 A 
ATOM     63  C   UNL     1       3.645  -3.871 -18.823  1.00  0.00     0.031 C 
ATOM     64  C   UNL     1       2.592  -7.778 -13.198  1.00  0.00     0.029 A 
ATOM     65  C   UNL     1       3.357  -8.421 -14.264  1.00  0.00     0.049 A 
ATOM     66  H   UNL     1       4.009  -7.559 -16.046  1.00  0.00     0.167 HD
ATOM     67  C   UNL     1       4.975  -5.627 -19.940  1.00  0.00     0.031 A 
ATOM     68  C   UNL     1       3.787  -9.697 -14.276  1.00  0.00     0.031 A 
ATOM     69  C   UNL     1       5.556  -6.939 -19.990  1.00  0.00     0.049 A 
ATOM     70  C   UNL     1       4.524 -10.195 -15.495  1.00  0.00     0.074 A 
ATOM     71  C   UNL     1       6.337  -7.495 -20.985  1.00  0.00     0.029 A 
ATOM     72  N   UNL     1       5.404  -7.903 -19.005  1.00  0.00    -0.354 N 
ATOM     73  N   UNL     1       4.856  -9.539 -16.583  1.00  0.00    -0.248 NA
ATOM     74  C   UNL     1       4.938 -11.604 -15.489  1.00  0.00     0.031 C 
ATOM     75  C   UNL     1       6.602  -8.821 -20.631  1.00  0.00     0.029 A 
ATOM     76  C   UNL     1       6.041  -9.068 -19.386  1.00  0.00     0.049 A 
ATOM     77  H   UNL     1       4.915  -7.777 -18.160  1.00  0.00     0.167 HD
ATOM     78  C   UNL     1       5.538 -10.451 -17.381  1.00  0.00     0.074 A 
ATOM     79  C   UNL     1       5.589 -11.696 -16.640  1.00  0.00     0.031 C 
ATOM     80  C   UNL     1       6.072 -10.285 -18.617  1.00  0.00     0.031 A 
BRANCH  67  81
ATOM     81  C   UNL     1       5.139  -4.721 -21.127  1.00  0.00    -0.014 A 
ATOM     82  C   UNL     1       5.982  -3.596 -21.079  1.00  0.00     0.010 A 
ATOM     83  C   UNL     1       4.489  -5.041 -22.333  1.00  0.00     0.010 A 
ATOM     84  C   UNL     1       6.168  -2.806 -22.217  1.00  0.00     0.020 A 
ATOM     85  C   UNL     1       4.692  -4.268 -23.479  1.00  0.00     0.020 A 
ATOM     86  C   UNL     1       5.528  -3.152 -23.412  1.00  0.00     0.054 A 
BRANCH  86  87
ATOM     87  S   UNL     1       5.852  -2.155 -24.892  1.00  0.00     0.124 S 
ATOM     88  O   UNL     1       5.155  -0.911 -24.577  1.00  0.00    -0.237 OA
ATOM     89  O   UNL     1       7.311  -2.072 -24.906  1.00  0.00    -0.237 OA
ATOM     90  O   UNL     1       5.266  -2.940 -25.976  1.00  0.00    -0.744 OA
ENDBRANCH  86  87
ENDBRANCH  67  81
BRANCH  68  91
ATOM     91  C   UNL     1       3.492 -10.607 -13.136  1.00  0.00    -0.014 A 
ATOM     92  C   UNL     1       4.530 -11.117 -12.337  1.00  0.00     0.010 A 
ATOM     93  C   UNL     1       2.168 -11.002 -12.865  1.00  0.00     0.010 A 
ATOM     94  C   UNL     1       4.256 -12.031 -11.314  1.00  0.00     0.020 A 
ATOM     95  C   UNL     1       1.886 -11.891 -11.824  1.00  0.00     0.020 A 
ATOM     96  C   UNL     1       2.935 -12.415 -11.067  1.00  0.00     0.054 A 
BRANCH  96  97
ATOM     97  S   UNL     1       2.600 -13.595  -9.730  1.00  0.00     0.124 S 
ATOM     98  O   UNL     1       3.076 -14.848 -10.307  1.00  0.00    -0.237 OA
ATOM     99  O   UNL     1       3.398 -13.060  -8.630  1.00  0.00    -0.237 OA
ATOM    100  O   UNL     1       1.154 -13.499  -9.546  1.00  0.00    -0.744 OA
ENDBRANCH  96  97
ENDBRANCH  68  91
BRANCH  80 101
ATOM    101  C   UNL     1       6.776 -11.464 -19.229  1.00  0.00    -0.014 A 
ATOM    102  C   UNL     1       6.052 -12.567 -19.714  1.00  0.00     0.010 A 
ATOM    103  C   UNL     1       8.174 -11.433 -19.385  1.00  0.00     0.010 A 
ATOM    104  C   UNL     1       6.718 -13.633 -20.321  1.00  0.00     0.020 A 
ATOM    105  C   UNL     1       8.839 -12.482 -20.020  1.00  0.00     0.020 A 
ATOM    106  C   UNL     1       8.108 -13.582 -20.473  1.00  0.00     0.054 A 
BRANCH 106 107
ATOM    107  S   UNL     1       8.941 -14.954 -21.314  1.00  0.00     0.124 S 
ATOM    108  O   UNL     1       8.870 -16.012 -20.310  1.00  0.00    -0.237 OA
ATOM    109  O   UNL     1       8.112 -15.154 -22.499  1.00  0.00    -0.237 OA
ATOM    110  O   UNL     1      10.282 -14.436 -21.578  1.00  0.00    -0.744 OA
ENDBRANCH 106 107
ENDBRANCH  80 101
ENDBRANCH  54  55
ENDBRANCH  47  49
ENDBRANCH  46  47
ENDBRANCH  45  46
ENDBRANCH  44  45
ENDBRANCH  43  44
ENDBRANCH  42  43
ENDBRANCH  41  42
ENDBRANCH  40  41
ENDBRANCH   1  40
TORSDOF 26
