REMARK SMILES Cc1cc(C)c2c(=O)n(CCCC(=O)OCCOCCOCCOC(=O)c3ccc(-c4c5nc(c(-c6ccc(S(=O)(=O)[O-])cc6)c6ccc([nH]6)c(-c6ccc(S(=O)(=O)[O-])cc6)c6nc(c(-c7ccc(S(=O)(=O)[O-])cc7)c7ccc4[nH]7)C=C6)C=C5)cc3)sc2n1
REMARK SMILES IDX 19 1 18 2 17 3 16 4 15 5 13 6 14 7 12 8 11 9 10 10 9 11 1 12
REMARK SMILES IDX 2 13 3 14 89 15 4 16 88 17 5 18 6 19 87 20 7 21 8 22 20 23
REMARK SMILES IDX 21 24 22 25 23 26 24 27 25 28 26 29 27 30 28 31 86 32 29 33
REMARK SMILES IDX 85 34 30 35 31 36 32 37 79 38 33 39 84 40 78 41 80 42 34 43
REMARK SMILES IDX 83 44 77 45 76 46 35 48 65 49 46 50 64 51 47 52 50 53 63 54
REMARK SMILES IDX 81 55 48 56 49 57 62 59 82 60 51 61 36 62 37 63 45 64 38 65
REMARK SMILES IDX 44 66 39 67 40 68 41 69 42 70 43 71 66 72 67 73 75 74 68 75
REMARK SMILES IDX 74 76 69 77 70 78 71 79 72 80 73 81 52 82 53 83 61 84 54 85
REMARK SMILES IDX 60 86 55 87 56 88 57 89 58 90 59 91
REMARK H PARENT 80 47 50 58
REMARK Flexibility Score: inf
ROOT
ATOM      1  C   UNL     1       4.012   9.537  -1.910  1.00  0.00     0.188 C 
ENDROOT
BRANCH   1   2
ATOM      2  O   UNL     1       3.849   9.541  -3.310  1.00  0.00    -0.376 OA
BRANCH   2   3
ATOM      3  C   UNL     1       2.877   8.675  -3.873  1.00  0.00     0.202 C 
BRANCH   3   4
ATOM      4  C   UNL     1       2.685   7.252  -3.318  1.00  0.00     0.261 C 
BRANCH   4   5
ATOM      5  O   UNL     1       2.517   7.188  -1.889  1.00  0.00    -0.463 OA
BRANCH   5   6
ATOM      6  C   UNL     1       3.391   6.427  -1.191  1.00  0.00     0.305 C 
ATOM      7  O   UNL     1       4.283   5.758  -1.704  1.00  0.00    -0.252 OA
BRANCH   6   8
ATOM      8  C   UNL     1       3.258   6.532   0.321  1.00  0.00     0.124 C 
BRANCH   8   9
ATOM      9  C   UNL     1       2.024   7.097   1.042  1.00  0.00     0.035 C 
BRANCH   9  10
ATOM     10  C   UNL     1       0.628   6.949   0.429  1.00  0.00     0.139 C 
BRANCH  10  11
ATOM     11  N   UNL     1       0.197   5.575   0.301  1.00  0.00    -0.262 N 
ATOM     12  C   UNL     1       0.827  -0.434   0.204  1.00  0.00     0.067 C 
ATOM     13  C   UNL     1       0.267   0.926   0.470  1.00  0.00     0.039 A 
ATOM     14  C   UNL     1      -0.741   1.143   1.422  1.00  0.00     0.027 A 
ATOM     15  N   UNL     1       0.782   1.916  -0.287  1.00  0.00    -0.241 NA
ATOM     16  C   UNL     1      -1.185   2.448   1.692  1.00  0.00    -0.033 A 
ATOM     17  C   UNL     1       0.344   3.148   0.001  1.00  0.00     0.146 A 
ATOM     18  C   UNL     1      -2.293   2.720   2.659  1.00  0.00     0.045 C 
ATOM     19  C   UNL     1      -0.556   3.469   0.999  1.00  0.00     0.081 A 
ATOM     20  S   UNL     1       0.862   4.563  -0.900  1.00  0.00    -0.035 S 
ATOM     21  C   UNL     1      -0.626   4.931   1.211  1.00  0.00     0.270 A 
ATOM     22  O   UNL     1      -1.258   5.440   2.123  1.00  0.00    -0.268 OA
ENDBRANCH  10  11
ENDBRANCH   9  10
ENDBRANCH   8   9
ENDBRANCH   6   8
ENDBRANCH   5   6
ENDBRANCH   4   5
ENDBRANCH   3   4
ENDBRANCH   2   3
ENDBRANCH   1   2
BRANCH   1  23
ATOM     23  C   UNL     1       2.848   9.943  -0.995  1.00  0.00     0.188 C 
BRANCH  23  24
ATOM     24  O   UNL     1       1.515   9.509  -1.177  1.00  0.00    -0.376 OA
BRANCH  24  25
ATOM     25  C   UNL     1       0.498  10.118  -1.961  1.00  0.00     0.202 C 
BRANCH  25  26
ATOM     26  C   UNL     1       0.426  11.594  -2.348  1.00  0.00     0.261 C 
BRANCH  26  27
ATOM     27  O   UNL     1       1.555  12.346  -2.006  1.00  0.00    -0.460 OA
BRANCH  27  28
ATOM     28  C   UNL     1       1.612  12.699  -0.707  1.00  0.00     0.338 C 
ATOM     29  O   UNL     1       0.828  12.399   0.185  1.00  0.00    -0.246 OA
BRANCH  28  30
ATOM     30  C   UNL     1       2.851  13.459  -0.540  1.00  0.00     0.060 A 
ATOM     31  C   UNL     1       3.247  13.778   0.757  1.00  0.00     0.016 A 
ATOM     32  C   UNL     1       3.466  14.008  -1.677  1.00  0.00     0.016 A 
ATOM     33  C   UNL     1       4.013  14.903   0.917  1.00  0.00     0.010 A 
ATOM     34  C   UNL     1       4.215  15.134  -1.518  1.00  0.00     0.010 A 
ATOM     35  C   UNL     1       4.344  15.631  -0.229  1.00  0.00    -0.014 A 
BRANCH  35  36
ATOM     36  C   UNL     1       4.815  16.980  -0.078  1.00  0.00     0.031 A 
ATOM     37  C   UNL     1       6.239  17.028   0.276  1.00  0.00     0.074 A 
ATOM     38  C   UNL     1       4.012  18.030  -0.338  1.00  0.00     0.049 A 
ATOM     39  N   UNL     1       6.725  17.246   1.450  1.00  0.00    -0.248 NA
ATOM     40  C   UNL     1       7.218  16.532  -0.706  1.00  0.00     0.031 C 
ATOM     41  C   UNL     1       2.670  18.045  -0.930  1.00  0.00     0.029 A 
ATOM     42  N   UNL     1       4.288  19.348  -0.209  1.00  0.00    -0.354 N 
ATOM     43  C   UNL     1       8.098  17.182   1.284  1.00  0.00     0.074 A 
ATOM     44  C   UNL     1       8.323  16.494   0.038  1.00  0.00     0.031 C 
ATOM     45  C   UNL     1       2.379  19.303  -1.342  1.00  0.00     0.029 A 
ATOM     46  C   UNL     1       3.448  20.194  -0.920  1.00  0.00     0.049 A 
ATOM     47  H   UNL     1       5.029  19.682   0.347  1.00  0.00     0.167 HD
ATOM     48  C   UNL     1       8.920  17.986   2.008  1.00  0.00     0.031 A 
ATOM     49  C   UNL     1       3.679  21.507  -1.192  1.00  0.00     0.031 A 
ATOM     50  C   UNL     1       8.225  18.593   3.116  1.00  0.00     0.049 A 
ATOM     51  C   UNL     1       4.691  21.971  -0.201  1.00  0.00     0.074 A 
ATOM     52  C   UNL     1       7.551  18.105   4.217  1.00  0.00     0.029 A 
ATOM     53  N   UNL     1       7.795  19.891   2.943  1.00  0.00    -0.354 N 
ATOM     54  N   UNL     1       4.445  22.044   1.080  1.00  0.00    -0.248 NA
ATOM     55  C   UNL     1       6.099  21.841  -0.555  1.00  0.00     0.031 C 
ATOM     56  C   UNL     1       6.423  18.962   4.369  1.00  0.00     0.029 A 
ATOM     57  C   UNL     1       6.509  19.977   3.412  1.00  0.00     0.049 A 
ATOM     58  H   UNL     1       8.319  20.627   2.551  1.00  0.00     0.167 HD
ATOM     59  C   UNL     1       5.582  21.532   1.693  1.00  0.00     0.074 A 
ATOM     60  C   UNL     1       6.598  21.497   0.638  1.00  0.00     0.031 C 
ATOM     61  C   UNL     1       5.514  20.901   2.904  1.00  0.00     0.031 A 
BRANCH  48  62
ATOM     62  C   UNL     1      10.191  18.562   1.449  1.00  0.00    -0.014 A 
ATOM     63  C   UNL     1      11.017  19.310   2.306  1.00  0.00     0.010 A 
ATOM     64  C   UNL     1      10.461  18.632   0.065  1.00  0.00     0.010 A 
ATOM     65  C   UNL     1      12.021  20.139   1.795  1.00  0.00     0.020 A 
ATOM     66  C   UNL     1      11.488  19.418  -0.451  1.00  0.00     0.020 A 
ATOM     67  C   UNL     1      12.241  20.194   0.417  1.00  0.00     0.054 A 
BRANCH  67  68
ATOM     68  S   UNL     1      13.473  21.342  -0.235  1.00  0.00     0.124 S 
ATOM     69  O   UNL     1      12.906  22.633   0.141  1.00  0.00    -0.237 OA
ATOM     70  O   UNL     1      14.676  20.940   0.488  1.00  0.00    -0.237 OA
ATOM     71  O   UNL     1      13.484  21.054  -1.667  1.00  0.00    -0.744 OA
ENDBRANCH  67  68
ENDBRANCH  48  62
BRANCH  49  72
ATOM     72  C   UNL     1       3.385  22.241  -2.456  1.00  0.00    -0.014 A 
ATOM     73  C   UNL     1       3.537  23.639  -2.550  1.00  0.00     0.010 A 
ATOM     74  C   UNL     1       3.215  21.530  -3.663  1.00  0.00     0.010 A 
ATOM     75  C   UNL     1       3.576  24.288  -3.801  1.00  0.00     0.020 A 
ATOM     76  C   UNL     1       3.248  22.169  -4.911  1.00  0.00     0.020 A 
ATOM     77  C   UNL     1       3.452  23.544  -4.976  1.00  0.00     0.054 A 
BRANCH  77  78
ATOM     78  S   UNL     1       3.670  24.357  -6.590  1.00  0.00     0.124 S 
ATOM     79  O   UNL     1       2.506  25.235  -6.659  1.00  0.00    -0.237 OA
ATOM     80  O   UNL     1       4.959  25.025  -6.438  1.00  0.00    -0.237 OA
ATOM     81  O   UNL     1       3.662  23.245  -7.541  1.00  0.00    -0.744 OA
ENDBRANCH  77  78
ENDBRANCH  49  72
BRANCH  61  82
ATOM     82  C   UNL     1       4.229  20.986   3.699  1.00  0.00    -0.014 A 
ATOM     83  C   UNL     1       2.999  20.442   3.275  1.00  0.00     0.010 A 
ATOM     84  C   UNL     1       4.326  21.471   5.015  1.00  0.00     0.010 A 
ATOM     85  C   UNL     1       1.896  20.400   4.146  1.00  0.00     0.020 A 
ATOM     86  C   UNL     1       3.239  21.416   5.890  1.00  0.00     0.020 A 
ATOM     87  C   UNL     1       2.026  20.887   5.451  1.00  0.00     0.054 A 
BRANCH  87  88
ATOM     88  S   UNL     1       0.617  20.791   6.592  1.00  0.00     0.124 S 
ATOM     89  O   UNL     1      -0.347  21.704   5.985  1.00  0.00    -0.237 OA
ATOM     90  O   UNL     1       0.258  19.375   6.546  1.00  0.00    -0.237 OA
ATOM     91  O   UNL     1       1.171  21.239   7.869  1.00  0.00    -0.744 OA
ENDBRANCH  87  88
ENDBRANCH  61  82
ENDBRANCH  35  36
ENDBRANCH  28  30
ENDBRANCH  27  28
ENDBRANCH  26  27
ENDBRANCH  25  26
ENDBRANCH  24  25
ENDBRANCH  23  24
ENDBRANCH   1  23
TORSDOF 23
