REMARK SMILES CC(C)COc1cccc(C(=O)Nc2ccc(O)c(C(=O)OCCOCCOCCOC(=O)c3ccc(-c4c5nc(c(-c6ccc(S(=O)(=O)[O-])cc6)c6ccc([nH]6)c(-c6ccc(S(=O)(=O)[O-])cc6)c6nc(c(-c7ccc(S(=O)(=O)[O-])cc7)c7ccc4[nH]7)C=C6)C=C5)cc3)c2)c1
REMARK SMILES IDX 26 1 25 2 24 3 23 4 22 5 20 6 21 7 19 8 14 9 15 10 94 11
REMARK SMILES IDX 16 12 17 13 13 14 11 15 12 16 10 18 6 19 7 20 95 21 8 22
REMARK SMILES IDX 9 23 5 24 4 25 2 26 1 27 3 28 18 29 27 31 28 32 29 33 30 34
REMARK SMILES IDX 31 35 32 36 33 37 34 38 35 39 93 40 36 41 92 42 37 43 38 44
REMARK SMILES IDX 39 45 86 46 40 47 91 48 85 49 87 50 41 51 90 52 84 53 83 54
REMARK SMILES IDX 42 56 72 57 53 58 71 59 54 60 57 61 70 62 88 63 55 64 56 65
REMARK SMILES IDX 69 67 89 68 58 69 43 70 44 71 52 72 45 73 51 74 46 75 47 76
REMARK SMILES IDX 48 77 49 78 50 79 73 80 74 81 82 82 75 83 81 84 76 85 77 86
REMARK SMILES IDX 78 87 79 88 80 89 59 90 60 91 68 92 61 93 67 94 62 95 63 96
REMARK SMILES IDX 64 97 65 98 66 99
REMARK H PARENT 13 17 18 30 87 55 57 66
REMARK Flexibility Score: inf
ROOT
ATOM      1  C   UNL     1       1.083  -1.455  -5.506  1.00  0.00     0.188 C 
ENDROOT
BRANCH   1   2
ATOM      2  O   UNL     1       0.115  -0.962  -6.403  1.00  0.00    -0.376 OA
BRANCH   2   3
ATOM      3  C   UNL     1      -0.843   0.010  -6.017  1.00  0.00     0.202 C 
BRANCH   3   4
ATOM      4  C   UNL     1      -1.104   0.506  -4.586  1.00  0.00     0.261 C 
BRANCH   4   5
ATOM      5  O   UNL     1       0.037   0.672  -3.744  1.00  0.00    -0.460 OA
BRANCH   5   6
ATOM      6  C   UNL     1       0.177  -0.298  -2.809  1.00  0.00     0.342 C 
ATOM      7  O   UNL     1      -0.527  -1.289  -2.666  1.00  0.00    -0.246 OA
BRANCH   6   8
ATOM      8  C   UNL     1       1.436  -0.151  -2.054  1.00  0.00     0.103 A 
ATOM      9  C   UNL     1       2.760   1.184  -0.580  1.00  0.00     0.042 A 
ATOM     10  C   UNL     1       3.521   0.059  -0.232  1.00  0.00     0.030 A 
ATOM     11  C   UNL     1       1.844   1.107  -1.624  1.00  0.00     0.045 A 
ATOM     12  C   UNL     1       3.228  -1.185  -0.798  1.00  0.00     0.049 A 
ATOM     13  C   UNL     1       2.143  -1.297  -1.657  1.00  0.00     0.130 A 
BRANCH   9  14
ATOM     14  N   UNL     1       2.825   2.316   0.251  1.00  0.00    -0.322 N 
ATOM     15  C   UNL     1       1.845   3.243   0.591  1.00  0.00     0.255 C 
ATOM     16  O   UNL     1       2.189   4.276   1.169  1.00  0.00    -0.269 OA
ATOM     17  H   UNL     1       3.707   2.479   0.658  1.00  0.00     0.170 HD
BRANCH  15  18
ATOM     18  C   UNL     1       0.375   3.009   0.379  1.00  0.00     0.043 A 
ATOM     19  C   UNL     1      -1.516   1.506  -0.011  1.00  0.00     0.120 A 
ATOM     20  C   UNL     1      -2.349   2.606  -0.184  1.00  0.00     0.046 A 
ATOM     21  C   UNL     1      -0.183   1.727   0.317  1.00  0.00     0.060 A 
ATOM     22  C   UNL     1      -1.845   3.901  -0.008  1.00  0.00     0.005 A 
ATOM     23  C   UNL     1      -0.485   4.103   0.259  1.00  0.00     0.014 A 
BRANCH  19  24
ATOM     24  O   UNL     1      -1.969   0.283  -0.418  1.00  0.00    -0.493 OA
BRANCH  24  25
ATOM     25  C   UNL     1      -1.919  -0.834   0.494  1.00  0.00     0.232 C 
BRANCH  25  26
ATOM     26  C   UNL     1      -0.539  -1.505   0.655  1.00  0.00     0.020 C 
ATOM     27  C   UNL     1       0.121  -1.194   2.002  1.00  0.00     0.011 C 
ATOM     28  C   UNL     1      -0.585  -3.028   0.489  1.00  0.00     0.011 C 
ENDBRANCH  25  26
ENDBRANCH  24  25
ENDBRANCH  19  24
ENDBRANCH  15  18
ENDBRANCH   9  14
BRANCH  13  29
ATOM     29  O   UNL     1       1.790  -2.558  -2.053  1.00  0.00    -0.507 OA
ATOM     30  H   UNL     1       2.290  -3.297  -1.765  1.00  0.00     0.293 HD
ENDBRANCH  13  29
ENDBRANCH   6   8
ENDBRANCH   5   6
ENDBRANCH   4   5
ENDBRANCH   3   4
ENDBRANCH   2   3
ENDBRANCH   1   2
BRANCH   1  31
ATOM     31  C   UNL     1       2.293  -0.555  -5.183  1.00  0.00     0.188 C 
BRANCH  31  32
ATOM     32  O   UNL     1       2.395   0.737  -5.735  1.00  0.00    -0.376 OA
BRANCH  32  33
ATOM     33  C   UNL     1       2.372   0.828  -7.148  1.00  0.00     0.202 C 
BRANCH  33  34
ATOM     34  C   UNL     1       3.181  -0.157  -8.022  1.00  0.00     0.261 C 
BRANCH  34  35
ATOM     35  O   UNL     1       3.166  -1.548  -7.634  1.00  0.00    -0.460 OA
BRANCH  35  36
ATOM     36  C   UNL     1       4.334  -2.034  -7.118  1.00  0.00     0.338 C 
ATOM     37  O   UNL     1       5.386  -1.433  -7.024  1.00  0.00    -0.246 OA
BRANCH  36  38
ATOM     38  C   UNL     1       4.099  -3.343  -6.449  1.00  0.00     0.060 A 
ATOM     39  C   UNL     1       4.306  -3.445  -5.061  1.00  0.00     0.016 A 
ATOM     40  C   UNL     1       3.742  -4.473  -7.179  1.00  0.00     0.016 A 
ATOM     41  C   UNL     1       4.186  -4.677  -4.409  1.00  0.00     0.010 A 
ATOM     42  C   UNL     1       3.658  -5.715  -6.530  1.00  0.00     0.010 A 
ATOM     43  C   UNL     1       3.915  -5.832  -5.150  1.00  0.00    -0.014 A 
BRANCH  43  44
ATOM     44  C   UNL     1       4.105  -7.175  -4.537  1.00  0.00     0.031 A 
ATOM     45  C   UNL     1       5.404  -7.901  -4.790  1.00  0.00     0.074 A 
ATOM     46  C   UNL     1       3.164  -7.751  -3.765  1.00  0.00     0.049 A 
ATOM     47  N   UNL     1       5.771  -9.103  -4.428  1.00  0.00    -0.248 NA
ATOM     48  C   UNL     1       6.423  -7.167  -5.559  1.00  0.00     0.031 C 
ATOM     49  C   UNL     1       1.890  -7.146  -3.385  1.00  0.00     0.029 A 
ATOM     50  N   UNL     1       3.138  -8.992  -3.172  1.00  0.00    -0.354 N 
ATOM     51  C   UNL     1       7.055  -9.277  -4.936  1.00  0.00     0.074 A 
ATOM     52  C   UNL     1       7.391  -8.066  -5.654  1.00  0.00     0.031 C 
ATOM     53  C   UNL     1       1.197  -8.024  -2.637  1.00  0.00     0.029 A 
ATOM     54  C   UNL     1       1.961  -9.266  -2.514  1.00  0.00     0.049 A 
ATOM     55  H   UNL     1       3.890  -9.625  -3.214  1.00  0.00     0.167 HD
ATOM     56  C   UNL     1       7.882 -10.343  -4.817  1.00  0.00     0.031 A 
ATOM     57  C   UNL     1       1.538 -10.393  -1.904  1.00  0.00     0.031 A 
ATOM     58  C   UNL     1       7.545 -11.557  -4.121  1.00  0.00     0.049 A 
ATOM     59  C   UNL     1       2.444 -11.600  -1.856  1.00  0.00     0.074 A 
ATOM     60  C   UNL     1       8.323 -12.688  -3.940  1.00  0.00     0.029 A 
ATOM     61  N   UNL     1       6.331 -11.806  -3.499  1.00  0.00    -0.354 N 
ATOM     62  N   UNL     1       3.660 -11.743  -2.328  1.00  0.00    -0.248 NA
ATOM     63  C   UNL     1       1.920 -12.796  -1.178  1.00  0.00     0.031 C 
ATOM     64  C   UNL     1       7.556 -13.645  -3.267  1.00  0.00     0.029 A 
ATOM     65  C   UNL     1       6.328 -13.082  -2.959  1.00  0.00     0.049 A 
ATOM     66  H   UNL     1       5.582 -11.170  -3.449  1.00  0.00     0.167 HD
ATOM     67  C   UNL     1       4.058 -13.030  -1.972  1.00  0.00     0.074 A 
ATOM     68  C   UNL     1       2.960 -13.617  -1.233  1.00  0.00     0.031 C 
ATOM     69  C   UNL     1       5.230 -13.665  -2.228  1.00  0.00     0.031 A 
BRANCH  56  70
ATOM     70  C   UNL     1       9.226 -10.261  -5.497  1.00  0.00    -0.014 A 
ATOM     71  C   UNL     1      10.232  -9.397  -5.029  1.00  0.00     0.010 A 
ATOM     72  C   UNL     1       9.497 -11.091  -6.600  1.00  0.00     0.010 A 
ATOM     73  C   UNL     1      11.471  -9.337  -5.675  1.00  0.00     0.020 A 
ATOM     74  C   UNL     1      10.745 -11.057  -7.229  1.00  0.00     0.020 A 
ATOM     75  C   UNL     1      11.718 -10.168  -6.772  1.00  0.00     0.054 A 
BRANCH  75  76
ATOM     76  S   UNL     1      13.343 -10.086  -7.575  1.00  0.00     0.124 S 
ATOM     77  O   UNL     1      13.288  -8.783  -8.235  1.00  0.00    -0.237 OA
ATOM     78  O   UNL     1      14.263 -10.179  -6.445  1.00  0.00    -0.237 OA
ATOM     79  O   UNL     1      13.345 -11.238  -8.474  1.00  0.00    -0.744 OA
ENDBRANCH  75  76
ENDBRANCH  56  70
BRANCH  57  80
ATOM     80  C   UNL     1       0.177 -10.449  -1.297  1.00  0.00    -0.014 A 
ATOM     81  C   UNL     1       0.013 -10.554   0.096  1.00  0.00     0.010 A 
ATOM     82  C   UNL     1      -0.967 -10.417  -2.115  1.00  0.00     0.010 A 
ATOM     83  C   UNL     1      -1.266 -10.640   0.657  1.00  0.00     0.020 A 
ATOM     84  C   UNL     1      -2.248 -10.470  -1.557  1.00  0.00     0.020 A 
ATOM     85  C   UNL     1      -2.389 -10.591  -0.174  1.00  0.00     0.054 A 
BRANCH  85  86
ATOM     86  S   UNL     1      -4.038 -10.644   0.582  1.00  0.00     0.124 S 
ATOM     87  O   UNL     1      -4.123 -12.030   1.032  1.00  0.00    -0.237 OA
ATOM     88  O   UNL     1      -3.931  -9.640   1.637  1.00  0.00    -0.237 OA
ATOM     89  O   UNL     1      -4.930 -10.287  -0.519  1.00  0.00    -0.744 OA
ENDBRANCH  85  86
ENDBRANCH  57  80
BRANCH  69  90
ATOM     90  C   UNL     1       5.414 -15.053  -1.662  1.00  0.00    -0.014 A 
ATOM     91  C   UNL     1       4.681 -16.152  -2.145  1.00  0.00     0.010 A 
ATOM     92  C   UNL     1       6.367 -15.265  -0.648  1.00  0.00     0.010 A 
ATOM     93  C   UNL     1       4.860 -17.423  -1.589  1.00  0.00     0.020 A 
ATOM     94  C   UNL     1       6.574 -16.539  -0.114  1.00  0.00     0.020 A 
ATOM     95  C   UNL     1       5.804 -17.608  -0.574  1.00  0.00     0.054 A 
BRANCH  95  96
ATOM     96  S   UNL     1       6.027 -19.268   0.122  1.00  0.00     0.124 S 
ATOM     97  O   UNL     1       4.806 -19.437   0.905  1.00  0.00    -0.237 OA
ATOM     98  O   UNL     1       6.129 -20.105  -1.071  1.00  0.00    -0.237 OA
ATOM     99  O   UNL     1       7.257 -19.155   0.904  1.00  0.00    -0.744 OA
ENDBRANCH  95  96
ENDBRANCH  69  90
ENDBRANCH  43  44
ENDBRANCH  36  38
ENDBRANCH  35  36
ENDBRANCH  34  35
ENDBRANCH  33  34
ENDBRANCH  32  33
ENDBRANCH  31  32
ENDBRANCH   1  31
TORSDOF 26
