REMARK SMILES Cc1ccn(CC(=O)N2CCC3(CC2)NC(=O)C[C@@H]3C(=O)OCCOCCOCCOC(=O)c2ccc(-c3c4nc(c(-c5ccc(S(=O)(=O)[O-])cc5)c5ccc([nH]5)c(-c5ccc(S(=O)(=O)[O-])cc5)c5nc(c(-c6ccc(S(=O)(=O)[O-])cc6)c6ccc3[nH]6)C=C5)C=C4)cc2)n1
REMARK SMILES IDX 27 1 26 2 25 3 24 4 23 5 22 6 20 7 21 8 19 9 7 10 8 11 9 12
REMARK SMILES IDX 10 13 14 14 11 15 13 16 12 17 15 18 16 19 18 21 17 22 6 23
REMARK SMILES IDX 5 24 1 25 2 26 3 27 94 28 4 29 28 30 29 31 30 32 31 33 32 34
REMARK SMILES IDX 33 35 34 36 35 37 93 38 36 39 92 40 37 41 38 42 39 43 86 44
REMARK SMILES IDX 40 45 91 46 85 47 87 48 41 49 90 50 84 51 83 52 42 54 72 55
REMARK SMILES IDX 53 56 71 57 54 58 57 59 70 60 88 61 55 62 56 63 69 65 89 66
REMARK SMILES IDX 58 67 43 68 44 69 52 70 45 71 51 72 46 73 47 74 48 75 49 76
REMARK SMILES IDX 50 77 73 78 74 79 82 80 75 81 81 82 76 83 77 84 78 85 79 86
REMARK SMILES IDX 80 87 59 88 60 89 68 90 61 91 67 92 62 93 63 94 64 95 65 96
REMARK SMILES IDX 66 97
REMARK H PARENT 15 20 87 53 57 64
REMARK Flexibility Score: inf
ROOT
ATOM      1  C   UNL     1      -6.555  -1.125   1.959  1.00  0.00     0.188 C 
ENDROOT
BRANCH   1   2
ATOM      2  C   UNL     1      -6.009  -0.956   3.395  1.00  0.00     0.188 C 
BRANCH   2   3
ATOM      3  O   UNL     1      -6.952  -1.073   4.447  1.00  0.00    -0.376 OA
BRANCH   3   4
ATOM      4  C   UNL     1      -7.374   0.160   5.028  1.00  0.00     0.202 C 
BRANCH   4   5
ATOM      5  C   UNL     1      -8.294   0.969   4.111  1.00  0.00     0.261 C 
BRANCH   5   6
ATOM      6  O   UNL     1      -7.596   1.414   2.934  1.00  0.00    -0.463 OA
BRANCH   6   7
ATOM      7  C   UNL     1      -6.876   2.563   3.003  1.00  0.00     0.311 C 
ATOM      8  O   UNL     1      -6.936   3.356   3.927  1.00  0.00    -0.252 OA
BRANCH   7   9
ATOM      9  C   UNL     1      -5.988   2.658   1.768  1.00  0.00     0.134 C 
ATOM     10  C   UNL     1      -1.861   1.509   4.552  1.00  0.00     0.244 C 
ATOM     11  O   UNL     1      -2.234   1.244   5.699  1.00  0.00    -0.273 OA
ATOM     12  N   UNL     1      -2.734   2.102   3.637  1.00  0.00    -0.341 N 
ATOM     13  C   UNL     1      -3.833   2.885   4.183  1.00  0.00     0.122 C 
ATOM     14  C   UNL     1      -2.951   1.546   2.305  1.00  0.00     0.122 C 
ATOM     15  C   UNL     1      -4.234   3.991   3.211  1.00  0.00     0.051 C 
ATOM     16  C   UNL     1      -3.464   2.579   1.306  1.00  0.00     0.051 C 
ATOM     17  C   UNL     1      -4.647   3.435   1.841  1.00  0.00     0.057 C 
ATOM     18  N   UNL     1      -4.855   4.525   0.906  1.00  0.00    -0.350 N 
ATOM     19  C   UNL     1      -6.001   4.441   0.161  1.00  0.00     0.221 C 
ATOM     20  H   UNL     1      -4.218   5.270   0.813  1.00  0.00     0.164 HD
ATOM     21  C   UNL     1      -6.805   3.267   0.623  1.00  0.00     0.117 C 
ATOM     22  O   UNL     1      -6.301   5.204  -0.741  1.00  0.00    -0.275 OA
BRANCH  10  23
ATOM     23  C   UNL     1      -0.389   1.456   4.202  1.00  0.00     0.244 C 
BRANCH  23  24
ATOM     24  N   UNL     1      -0.020   0.473   3.210  1.00  0.00    -0.263 N 
ATOM     25  C   UNL     1       1.198  -0.178  -0.047  1.00  0.00     0.069 C 
ATOM     26  C   UNL     1       0.707  -0.235   1.350  1.00  0.00     0.059 A 
ATOM     27  C   UNL     1       0.484  -1.375   2.157  1.00  0.00     0.045 A 
ATOM     28  N   UNL     1       0.423   0.895   2.008  1.00  0.00    -0.178 NA
ATOM     29  C   UNL     1       0.025  -0.881   3.356  1.00  0.00     0.109 A 
ENDBRANCH  23  24
ENDBRANCH  10  23
ENDBRANCH   7   9
ENDBRANCH   6   7
ENDBRANCH   5   6
ENDBRANCH   4   5
ENDBRANCH   3   4
ENDBRANCH   2   3
ENDBRANCH   1   2
BRANCH   1  30
ATOM     30  O   UNL     1      -7.837  -1.664   1.667  1.00  0.00    -0.376 OA
BRANCH  30  31
ATOM     31  C   UNL     1      -8.471  -2.594   2.528  1.00  0.00     0.202 C 
BRANCH  31  32
ATOM     32  C   UNL     1      -7.867  -3.986   2.655  1.00  0.00     0.261 C 
BRANCH  32  33
ATOM     33  O   UNL     1      -6.468  -3.946   2.865  1.00  0.00    -0.460 OA
BRANCH  33  34
ATOM     34  C   UNL     1      -5.739  -3.983   1.726  1.00  0.00     0.338 C 
ATOM     35  O   UNL     1      -6.152  -4.019   0.583  1.00  0.00    -0.246 OA
BRANCH  34  36
ATOM     36  C   UNL     1      -4.313  -4.006   2.089  1.00  0.00     0.060 A 
ATOM     37  C   UNL     1      -3.415  -4.170   1.033  1.00  0.00     0.016 A 
ATOM     38  C   UNL     1      -3.934  -4.180   3.429  1.00  0.00     0.016 A 
ATOM     39  C   UNL     1      -2.240  -4.833   1.291  1.00  0.00     0.010 A 
ATOM     40  C   UNL     1      -2.768  -4.852   3.687  1.00  0.00     0.010 A 
ATOM     41  C   UNL     1      -2.024  -5.289   2.592  1.00  0.00    -0.014 A 
BRANCH  41  42
ATOM     42  C   UNL     1      -1.215  -6.479   2.737  1.00  0.00     0.031 A 
ATOM     43  C   UNL     1       0.199  -6.270   3.058  1.00  0.00     0.074 A 
ATOM     44  C   UNL     1      -1.798  -7.694   2.707  1.00  0.00     0.049 A 
ATOM     45  N   UNL     1       1.220  -6.534   2.315  1.00  0.00    -0.248 NA
ATOM     46  C   UNL     1       0.511  -5.577   4.314  1.00  0.00     0.031 C 
ATOM     47  C   UNL     1      -3.237  -7.990   2.746  1.00  0.00     0.029 A 
ATOM     48  N   UNL     1      -1.224  -8.923   2.798  1.00  0.00    -0.354 N 
ATOM     49  C   UNL     1       2.322  -6.238   3.103  1.00  0.00     0.074 A 
ATOM     50  C   UNL     1       1.834  -5.465   4.218  1.00  0.00     0.031 C 
ATOM     51  C   UNL     1      -3.406  -9.277   3.114  1.00  0.00     0.029 A 
ATOM     52  C   UNL     1      -2.101  -9.907   3.232  1.00  0.00     0.049 A 
ATOM     53  H   UNL     1      -0.281  -9.098   2.578  1.00  0.00     0.167 HD
ATOM     54  C   UNL     1       3.513  -6.875   2.943  1.00  0.00     0.031 A 
ATOM     55  C   UNL     1      -1.757 -11.093   3.792  1.00  0.00     0.031 A 
ATOM     56  C   UNL     1       3.587  -7.613   1.710  1.00  0.00     0.049 A 
ATOM     57  C   UNL     1      -0.348 -11.376   3.409  1.00  0.00     0.074 A 
ATOM     58  C   UNL     1       3.431  -7.292   0.376  1.00  0.00     0.029 A 
ATOM     59  N   UNL     1       3.504  -8.986   1.782  1.00  0.00    -0.354 N 
ATOM     60  N   UNL     1       0.041 -11.613   2.186  1.00  0.00    -0.248 NA
ATOM     61  C   UNL     1       0.715 -10.986   4.325  1.00  0.00     0.031 C 
ATOM     62  C   UNL     1       2.822  -8.435  -0.217  1.00  0.00     0.029 A 
ATOM     63  C   UNL     1       2.664  -9.401   0.779  1.00  0.00     0.049 A 
ATOM     64  H   UNL     1       3.962  -9.563   2.434  1.00  0.00     0.167 HD
ATOM     65  C   UNL     1       1.289 -11.011   2.077  1.00  0.00     0.074 A 
ATOM     66  C   UNL     1       1.699 -10.750   3.453  1.00  0.00     0.031 C 
ATOM     67  C   UNL     1       1.744 -10.518   0.885  1.00  0.00     0.031 A 
BRANCH  54  68
ATOM     68  C   UNL     1       4.446  -7.134   4.094  1.00  0.00    -0.014 A 
ATOM     69  C   UNL     1       5.747  -7.598   3.829  1.00  0.00     0.010 A 
ATOM     70  C   UNL     1       4.001  -7.183   5.433  1.00  0.00     0.010 A 
ATOM     71  C   UNL     1       6.540  -8.135   4.850  1.00  0.00     0.020 A 
ATOM     72  C   UNL     1       4.802  -7.662   6.465  1.00  0.00     0.020 A 
ATOM     73  C   UNL     1       6.053  -8.176   6.159  1.00  0.00     0.054 A 
BRANCH  73  74
ATOM     74  S   UNL     1       7.024  -8.986   7.449  1.00  0.00     0.124 S 
ATOM     75  O   UNL     1       6.862 -10.393   7.098  1.00  0.00    -0.237 OA
ATOM     76  O   UNL     1       8.356  -8.427   7.238  1.00  0.00    -0.237 OA
ATOM     77  O   UNL     1       6.366  -8.566   8.684  1.00  0.00    -0.744 OA
ENDBRANCH  73  74
ENDBRANCH  54  68
BRANCH  55  78
ATOM     78  C   UNL     1      -2.461 -11.749   4.928  1.00  0.00    -0.014 A 
ATOM     79  C   UNL     1      -2.125 -13.048   5.346  1.00  0.00     0.010 A 
ATOM     80  C   UNL     1      -3.327 -11.006   5.762  1.00  0.00     0.010 A 
ATOM     81  C   UNL     1      -2.609 -13.565   6.562  1.00  0.00     0.020 A 
ATOM     82  C   UNL     1      -3.832 -11.519   6.959  1.00  0.00     0.020 A 
ATOM     83  C   UNL     1      -3.454 -12.792   7.365  1.00  0.00     0.054 A 
BRANCH  83  84
ATOM     84  S   UNL     1      -3.970 -13.407   8.993  1.00  0.00     0.124 S 
ATOM     85  O   UNL     1      -4.880 -14.492   8.640  1.00  0.00    -0.237 OA
ATOM     86  O   UNL     1      -2.703 -13.812   9.595  1.00  0.00    -0.237 OA
ATOM     87  O   UNL     1      -4.604 -12.245   9.615  1.00  0.00    -0.744 OA
ENDBRANCH  83  84
ENDBRANCH  55  78
BRANCH  67  88
ATOM     88  C   UNL     1       1.038 -10.919  -0.393  1.00  0.00    -0.014 A 
ATOM     89  C   UNL     1      -0.327 -10.667  -0.628  1.00  0.00     0.010 A 
ATOM     90  C   UNL     1       1.821 -11.401  -1.459  1.00  0.00     0.010 A 
ATOM     91  C   UNL     1      -0.896 -10.906  -1.887  1.00  0.00     0.020 A 
ATOM     92  C   UNL     1       1.263 -11.623  -2.723  1.00  0.00     0.020 A 
ATOM     93  C   UNL     1      -0.095 -11.379  -2.930  1.00  0.00     0.054 A 
BRANCH  93  94
ATOM     94  S   UNL     1      -0.823 -11.598  -4.578  1.00  0.00     0.124 S 
ATOM     95  O   UNL     1      -1.663 -12.778  -4.399  1.00  0.00    -0.237 OA
ATOM     96  O   UNL     1      -1.539 -10.341  -4.788  1.00  0.00    -0.237 OA
ATOM     97  O   UNL     1       0.337 -11.790  -5.448  1.00  0.00    -0.744 OA
ENDBRANCH  93  94
ENDBRANCH  67  88
ENDBRANCH  41  42
ENDBRANCH  34  36
ENDBRANCH  33  34
ENDBRANCH  32  33
ENDBRANCH  31  32
ENDBRANCH  30  31
ENDBRANCH   1  30
TORSDOF 22
