REMARK SMILES Cc1ccc(C(N)=O)c(NCc2ccc(C(=O)OCCOCCOCCOC(=O)c3ccc(-c4c5nc(c(-c6ccc(S(=O)(=O)[O-])cc6)c6ccc([nH]6)c(-c6ccc(S(=O)(=O)[O-])cc6)c6nc(c(-c7ccc(S(=O)(=O)[O-])cc7)c7ccc4[nH]7)C=C6)C=C5)cc3)o2)n1
REMARK SMILES IDX 22 1 21 2 20 3 19 4 18 5 16 6 17 7 15 8 12 9 13 10 90 11
REMARK SMILES IDX 14 12 11 13 10 14 9 16 1 17 2 18 3 19 91 20 4 21 5 22 6 23
REMARK SMILES IDX 7 24 8 25 23 28 24 29 25 30 26 31 27 32 28 33 29 34 30 35
REMARK SMILES IDX 31 36 89 37 32 38 88 39 33 40 34 41 35 42 82 43 36 44 87 45
REMARK SMILES IDX 81 46 83 47 37 48 86 49 80 50 79 51 38 53 68 54 49 55 67 56
REMARK SMILES IDX 50 57 53 58 66 59 84 60 51 61 52 62 65 64 85 65 54 66 39 67
REMARK SMILES IDX 40 68 48 69 41 70 47 71 42 72 43 73 44 74 45 75 46 76 69 77
REMARK SMILES IDX 70 78 78 79 71 80 77 81 72 82 73 83 74 84 75 85 76 86 55 87
REMARK SMILES IDX 56 88 64 89 57 90 63 91 58 92 59 93 60 94 61 95 62 96
REMARK H PARENT 10 15 7 26 7 27 83 52 53 63
REMARK Flexibility Score: inf
ROOT
ATOM      1  C   UNL     1      -2.022   9.133  -2.376  1.00  0.00     0.188 C 
ENDROOT
BRANCH   1   2
ATOM      2  O   UNL     1      -1.448  10.260  -3.031  1.00  0.00    -0.376 OA
BRANCH   2   3
ATOM      3  C   UNL     1      -0.975  10.128  -4.365  1.00  0.00     0.202 C 
BRANCH   3   4
ATOM      4  C   UNL     1       0.166   9.136  -4.603  1.00  0.00     0.261 C 
BRANCH   4   5
ATOM      5  O   UNL     1      -0.226   7.777  -4.344  1.00  0.00    -0.457 OA
BRANCH   5   6
ATOM      6  C   UNL     1       0.550   7.105  -3.440  1.00  0.00     0.374 C 
ATOM      7  O   UNL     1       1.599   7.531  -2.974  1.00  0.00    -0.242 OA
BRANCH   6   8
ATOM      8  C   UNL     1      -0.107   5.882  -3.041  1.00  0.00     0.211 A 
ATOM      9  C   UNL     1      -0.672   4.345  -1.554  1.00  0.00     0.124 A 
ATOM     10  C   UNL     1      -1.336   4.023  -2.719  1.00  0.00     0.048 A 
ATOM     11  O   UNL     1       0.092   5.455  -1.756  1.00  0.00    -0.452 OA
ATOM     12  C   UNL     1      -0.989   5.020  -3.668  1.00  0.00     0.058 A 
BRANCH   9  13
ATOM     13  C   UNL     1      -0.645   3.790  -0.166  1.00  0.00     0.190 C 
BRANCH  13  14
ATOM     14  N   UNL     1      -1.529   2.651   0.070  1.00  0.00    -0.362 N 
ATOM     15  H   UNL     1      -2.476   2.793   0.297  1.00  0.00     0.162 HD
BRANCH  14  16
ATOM     16  C   UNL     1      -1.012   1.359  -0.030  1.00  0.00     0.139 A 
ATOM     17  C   UNL     1       2.394  -0.045  -0.118  1.00  0.00     0.067 C 
ATOM     18  C   UNL     1       0.897   0.002  -0.107  1.00  0.00     0.040 A 
ATOM     19  C   UNL     1       0.143  -1.158  -0.043  1.00  0.00     0.024 A 
ATOM     20  N   UNL     1       0.332   1.232  -0.120  1.00  0.00    -0.236 NA
ATOM     21  C   UNL     1      -1.240  -1.041  -0.000  1.00  0.00     0.019 A 
ATOM     22  C   UNL     1      -1.840   0.227   0.000  1.00  0.00     0.081 A 
BRANCH  22  23
ATOM     23  C   UNL     1      -3.329   0.263   0.027  1.00  0.00     0.252 C 
ATOM     24  N   UNL     1      -3.954   1.423  -0.331  1.00  0.00    -0.365 N 
ATOM     25  O   UNL     1      -3.989  -0.727   0.323  1.00  0.00    -0.269 OA
ATOM     26  H   UNL     1      -3.421   2.216  -0.568  1.00  0.00     0.159 HD
ATOM     27  H   UNL     1      -4.937   1.466  -0.351  1.00  0.00     0.159 HD
ENDBRANCH  22  23
ENDBRANCH  14  16
ENDBRANCH  13  14
ENDBRANCH   9  13
ENDBRANCH   6   8
ENDBRANCH   5   6
ENDBRANCH   4   5
ENDBRANCH   3   4
ENDBRANCH   2   3
ENDBRANCH   1   2
BRANCH   1  28
ATOM     28  C   UNL     1      -3.050   8.273  -3.135  1.00  0.00     0.188 C 
BRANCH  28  29
ATOM     29  O   UNL     1      -3.572   8.886  -4.305  1.00  0.00    -0.376 OA
BRANCH  29  30
ATOM     30  C   UNL     1      -4.954   9.211  -4.272  1.00  0.00     0.202 C 
BRANCH  30  31
ATOM     31  C   UNL     1      -5.277  10.460  -3.446  1.00  0.00     0.261 C 
BRANCH  31  32
ATOM     32  O   UNL     1      -4.948  10.367  -2.051  1.00  0.00    -0.460 OA
BRANCH  32  33
ATOM     33  C   UNL     1      -5.638   9.465  -1.318  1.00  0.00     0.338 C 
ATOM     34  O   UNL     1      -6.499   8.700  -1.713  1.00  0.00    -0.246 OA
BRANCH  33  35
ATOM     35  C   UNL     1      -5.053   9.444   0.037  1.00  0.00     0.060 A 
ATOM     36  C   UNL     1      -4.596   8.230   0.561  1.00  0.00     0.016 A 
ATOM     37  C   UNL     1      -4.957  10.621   0.785  1.00  0.00     0.016 A 
ATOM     38  C   UNL     1      -4.061   8.188   1.851  1.00  0.00     0.010 A 
ATOM     39  C   UNL     1      -4.435  10.575   2.079  1.00  0.00     0.010 A 
ATOM     40  C   UNL     1      -4.005   9.355   2.628  1.00  0.00    -0.014 A 
BRANCH  40  41
ATOM     41  C   UNL     1      -3.641   9.280   4.063  1.00  0.00     0.031 A 
ATOM     42  C   UNL     1      -4.742   9.163   5.082  1.00  0.00     0.074 A 
ATOM     43  C   UNL     1      -2.357   9.323   4.460  1.00  0.00     0.049 A 
ATOM     44  N   UNL     1      -4.660   9.105   6.386  1.00  0.00    -0.248 NA
ATOM     45  C   UNL     1      -6.117   9.100   4.559  1.00  0.00     0.031 C 
ATOM     46  C   UNL     1      -1.197   9.412   3.574  1.00  0.00     0.029 A 
ATOM     47  N   UNL     1      -1.816   9.306   5.722  1.00  0.00    -0.354 N 
ATOM     48  C   UNL     1      -5.969   8.998   6.840  1.00  0.00     0.074 A 
ATOM     49  C   UNL     1      -6.827   9.023   5.675  1.00  0.00     0.031 C 
ATOM     50  C   UNL     1      -0.080   9.452   4.322  1.00  0.00     0.029 A 
ATOM     51  C   UNL     1      -0.446   9.417   5.738  1.00  0.00     0.049 A 
ATOM     52  H   UNL     1      -2.359   9.222   6.539  1.00  0.00     0.167 HD
ATOM     53  C   UNL     1      -6.420   8.885   8.112  1.00  0.00     0.031 A 
ATOM     54  C   UNL     1       0.411   9.499   6.775  1.00  0.00     0.031 A 
ATOM     55  C   UNL     1      -5.575   8.892   9.275  1.00  0.00     0.049 A 
ATOM     56  C   UNL     1      -0.119   9.447   8.184  1.00  0.00     0.074 A 
ATOM     57  C   UNL     1      -5.941   8.775  10.605  1.00  0.00     0.029 A 
ATOM     58  N   UNL     1      -4.197   9.036   9.249  1.00  0.00    -0.354 N 
ATOM     59  N   UNL     1      -1.357   9.308   8.595  1.00  0.00    -0.248 NA
ATOM     60  C   UNL     1       0.867   9.556   9.271  1.00  0.00     0.031 C 
ATOM     61  C   UNL     1      -4.786   8.894  11.386  1.00  0.00     0.029 A 
ATOM     62  C   UNL     1      -3.698   9.035  10.540  1.00  0.00     0.049 A 
ATOM     63  H   UNL     1      -3.654   9.125   8.433  1.00  0.00     0.167 HD
ATOM     64  C   UNL     1      -1.296   9.289   9.986  1.00  0.00     0.074 A 
ATOM     65  C   UNL     1       0.101   9.421  10.345  1.00  0.00     0.031 C 
ATOM     66  C   UNL     1      -2.305   9.168  10.883  1.00  0.00     0.031 A 
BRANCH  53  67
ATOM     67  C   UNL     1      -7.907   8.777   8.305  1.00  0.00    -0.014 A 
ATOM     68  C   UNL     1      -8.592   7.590   7.992  1.00  0.00     0.010 A 
ATOM     69  C   UNL     1      -8.625   9.870   8.821  1.00  0.00     0.010 A 
ATOM     70  C   UNL     1      -9.977   7.511   8.153  1.00  0.00     0.020 A 
ATOM     71  C   UNL     1     -10.008   9.788   9.004  1.00  0.00     0.020 A 
ATOM     72  C   UNL     1     -10.678   8.614   8.651  1.00  0.00     0.054 A 
BRANCH  72  73
ATOM     73  S   UNL     1     -12.475   8.486   8.857  1.00  0.00     0.124 S 
ATOM     74  O   UNL     1     -12.943   8.601   7.478  1.00  0.00    -0.237 OA
ATOM     75  O   UNL     1     -12.637   7.168   9.466  1.00  0.00    -0.237 OA
ATOM     76  O   UNL     1     -12.806   9.614   9.724  1.00  0.00    -0.744 OA
ENDBRANCH  72  73
ENDBRANCH  53  67
BRANCH  54  77
ATOM     77  C   UNL     1       1.870   9.657   6.524  1.00  0.00    -0.014 A 
ATOM     78  C   UNL     1       2.760   8.599   6.779  1.00  0.00     0.010 A 
ATOM     79  C   UNL     1       2.376  10.875   6.035  1.00  0.00     0.010 A 
ATOM     80  C   UNL     1       4.132   8.762   6.565  1.00  0.00     0.020 A 
ATOM     81  C   UNL     1       3.745  11.033   5.798  1.00  0.00     0.020 A 
ATOM     82  C   UNL     1       4.616   9.979   6.076  1.00  0.00     0.054 A 
BRANCH  82  83
ATOM     83  S   UNL     1       6.395  10.154   5.761  1.00  0.00     0.124 S 
ATOM     84  O   UNL     1       6.925  10.331   7.109  1.00  0.00    -0.237 OA
ATOM     85  O   UNL     1       6.729   8.890   5.111  1.00  0.00    -0.237 OA
ATOM     86  O   UNL     1       6.473  11.330   4.897  1.00  0.00    -0.744 OA
ENDBRANCH  82  83
ENDBRANCH  54  77
BRANCH  66  87
ATOM     87  C   UNL     1      -1.940   9.139  12.344  1.00  0.00    -0.014 A 
ATOM     88  C   UNL     1      -1.563  10.311  13.023  1.00  0.00     0.010 A 
ATOM     89  C   UNL     1      -2.037   7.932  13.059  1.00  0.00     0.010 A 
ATOM     90  C   UNL     1      -1.266  10.271  14.388  1.00  0.00     0.020 A 
ATOM     91  C   UNL     1      -1.762   7.892  14.429  1.00  0.00     0.020 A 
ATOM     92  C   UNL     1      -1.366   9.061  15.082  1.00  0.00     0.054 A 
BRANCH  92  93
ATOM     93  S   UNL     1      -1.024   9.040  16.865  1.00  0.00     0.124 S 
ATOM     94  O   UNL     1       0.435   9.082  16.894  1.00  0.00    -0.237 OA
ATOM     95  O   UNL     1      -1.698  10.247  17.337  1.00  0.00    -0.237 OA
ATOM     96  O   UNL     1      -1.622   7.785  17.316  1.00  0.00    -0.744 OA
ENDBRANCH  92  93
ENDBRANCH  66  87
ENDBRANCH  40  41
ENDBRANCH  33  35
ENDBRANCH  32  33
ENDBRANCH  31  32
ENDBRANCH  30  31
ENDBRANCH  29  30
ENDBRANCH  28  29
ENDBRANCH   1  28
TORSDOF 24
