REMARK SMILES O=C(OCCOCCOCCOC(=O)[C@H]1C[C@](O)(c2ccccc2Cl)[C@@H](c2ccccc2Cl)O1)c1ccc(-c2c3nc(c(-c4ccc(S(=O)(=O)[O-])cc4)c4ccc([nH]4)c(-c4ccc(S(=O)(=O)[O-])cc4)c4nc(c(-c5ccc(S(=O)(=O)[O-])cc5)c5ccc2[nH]5)C=C4)C=C3)cc1
REMARK SMILES IDX 7 1 6 2 5 3 4 4 3 5 2 6 1 7 35 8 36 9 94 10 37 11 93 12
REMARK SMILES IDX 38 13 39 14 40 15 87 16 41 17 92 18 86 19 88 20 42 21 91 22
REMARK SMILES IDX 85 23 84 24 43 26 73 27 54 28 72 29 55 30 58 31 71 32 89 33
REMARK SMILES IDX 56 34 57 35 70 37 90 38 59 39 44 40 45 41 53 42 46 43 52 44
REMARK SMILES IDX 47 45 48 46 49 47 50 48 51 49 74 50 75 51 83 52 76 53 82 54
REMARK SMILES IDX 77 55 78 56 79 57 80 58 81 59 60 60 61 61 69 62 62 63 68 64
REMARK SMILES IDX 63 65 64 66 65 67 66 68 67 69 8 70 9 71 10 72 11 73 12 74
REMARK SMILES IDX 13 75 14 76 15 77 16 78 34 79 17 80 26 81 19 82 20 83 24 84
REMARK SMILES IDX 21 85 23 86 25 87 22 88 18 89 27 91 28 92 32 93 29 94 31 95
REMARK SMILES IDX 33 96 30 97
REMARK H PARENT 88 25 58 36 18 90
REMARK Flexibility Score: inf
ROOT
ATOM      1  C   UNL     1      -0.560   3.420   2.167  1.00  0.00     0.188 C 
ENDROOT
BRANCH   1   2
ATOM      2  O   UNL     1       0.090   2.150   2.263  1.00  0.00    -0.376 OA
BRANCH   2   3
ATOM      3  C   UNL     1       0.030   1.552   3.556  1.00  0.00     0.202 C 
BRANCH   3   4
ATOM      4  C   UNL     1       0.897   2.193   4.660  1.00  0.00     0.261 C 
BRANCH   4   5
ATOM      5  O   UNL     1       1.157   3.590   4.457  1.00  0.00    -0.460 OA
BRANCH   5   6
ATOM      6  C   UNL     1       2.398   4.135   4.339  1.00  0.00     0.338 C 
ATOM      7  O   UNL     1       2.648   5.176   4.921  1.00  0.00    -0.246 OA
BRANCH   6   8
ATOM      8  C   UNL     1       3.429   3.527   3.427  1.00  0.00     0.060 A 
ATOM      9  C   UNL     1       3.234   2.389   2.648  1.00  0.00     0.016 A 
ATOM     10  C   UNL     1       4.689   4.147   3.365  1.00  0.00     0.016 A 
ATOM     11  C   UNL     1       4.286   1.787   1.965  1.00  0.00     0.010 A 
ATOM     12  C   UNL     1       5.739   3.591   2.622  1.00  0.00     0.010 A 
ATOM     13  C   UNL     1       5.559   2.353   1.997  1.00  0.00    -0.014 A 
BRANCH  13  14
ATOM     14  C   UNL     1       6.704   1.491   1.620  1.00  0.00     0.031 A 
ATOM     15  C   UNL     1       7.516   0.882   2.736  1.00  0.00     0.074 A 
ATOM     16  C   UNL     1       6.890   1.118   0.340  1.00  0.00     0.049 A 
ATOM     17  N   UNL     1       8.488   0.011   2.678  1.00  0.00    -0.248 NA
ATOM     18  C   UNL     1       7.170   1.296   4.109  1.00  0.00     0.031 C 
ATOM     19  C   UNL     1       6.085   1.569  -0.797  1.00  0.00     0.029 A 
ATOM     20  N   UNL     1       7.783   0.236  -0.212  1.00  0.00    -0.354 N 
ATOM     21  C   UNL     1       8.878  -0.207   3.996  1.00  0.00     0.074 A 
ATOM     22  C   UNL     1       8.058   0.635   4.832  1.00  0.00     0.031 C 
ATOM     23  C   UNL     1       6.494   0.928  -1.905  1.00  0.00     0.029 A 
ATOM     24  C   UNL     1       7.618   0.059  -1.566  1.00  0.00     0.049 A 
ATOM     25  H   UNL     1       8.477  -0.226   0.311  1.00  0.00     0.167 HD
ATOM     26  C   UNL     1       9.835  -1.037   4.471  1.00  0.00     0.031 A 
ATOM     27  C   UNL     1       8.303  -0.718  -2.428  1.00  0.00     0.031 A 
ATOM     28  C   UNL     1      10.652  -1.860   3.625  1.00  0.00     0.049 A 
ATOM     29  C   UNL     1       9.421  -1.573  -1.886  1.00  0.00     0.074 A 
ATOM     30  C   UNL     1      11.692  -2.699   3.978  1.00  0.00     0.029 A 
ATOM     31  N   UNL     1      10.514  -1.942   2.247  1.00  0.00    -0.354 N 
ATOM     32  N   UNL     1       9.805  -1.734  -0.640  1.00  0.00    -0.248 NA
ATOM     33  C   UNL     1      10.194  -2.351  -2.862  1.00  0.00     0.031 C 
ATOM     34  C   UNL     1      12.217  -3.250   2.804  1.00  0.00     0.029 A 
ATOM     35  C   UNL     1      11.462  -2.804   1.729  1.00  0.00     0.049 A 
ATOM     36  H   UNL     1       9.840  -1.458   1.716  1.00  0.00     0.167 HD
ATOM     37  C   UNL     1      10.849  -2.652  -0.680  1.00  0.00     0.074 A 
ATOM     38  C   UNL     1      11.023  -3.020  -2.072  1.00  0.00     0.031 C 
ATOM     39  C   UNL     1      11.599  -3.148   0.336  1.00  0.00     0.031 A 
BRANCH  26  40
ATOM     40  C   UNL     1      10.085  -1.019   5.956  1.00  0.00    -0.014 A 
ATOM     41  C   UNL     1       9.168  -1.573   6.868  1.00  0.00     0.010 A 
ATOM     42  C   UNL     1      11.249  -0.401   6.449  1.00  0.00     0.010 A 
ATOM     43  C   UNL     1       9.385  -1.462   8.246  1.00  0.00     0.020 A 
ATOM     44  C   UNL     1      11.483  -0.312   7.824  1.00  0.00     0.020 A 
ATOM     45  C   UNL     1      10.538  -0.824   8.714  1.00  0.00     0.054 A 
BRANCH  45  46
ATOM     46  S   UNL     1      10.791  -0.680  10.505  1.00  0.00     0.124 S 
ATOM     47  O   UNL     1       9.814   0.344  10.867  1.00  0.00    -0.237 OA
ATOM     48  O   UNL     1      10.492  -2.028  10.981  1.00  0.00    -0.237 OA
ATOM     49  O   UNL     1      12.190  -0.276  10.627  1.00  0.00    -0.744 OA
ENDBRANCH  45  46
ENDBRANCH  26  40
BRANCH  27  50
ATOM     50  C   UNL     1       7.972  -0.707  -3.883  1.00  0.00    -0.014 A 
ATOM     51  C   UNL     1       7.459  -1.849  -4.523  1.00  0.00     0.010 A 
ATOM     52  C   UNL     1       8.177   0.461  -4.643  1.00  0.00     0.010 A 
ATOM     53  C   UNL     1       7.173  -1.829  -5.894  1.00  0.00     0.020 A 
ATOM     54  C   UNL     1       7.865   0.495  -6.005  1.00  0.00     0.020 A 
ATOM     55  C   UNL     1       7.377  -0.655  -6.626  1.00  0.00     0.054 A 
BRANCH  55  56
ATOM     56  S   UNL     1       6.957  -0.634  -8.392  1.00  0.00     0.124 S 
ATOM     57  O   UNL     1       8.038  -1.425  -8.971  1.00  0.00    -0.237 OA
ATOM     58  O   UNL     1       5.636  -1.256  -8.410  1.00  0.00    -0.237 OA
ATOM     59  O   UNL     1       6.972   0.788  -8.729  1.00  0.00    -0.744 OA
ENDBRANCH  55  56
ENDBRANCH  27  50
BRANCH  39  60
ATOM     60  C   UNL     1      12.639  -4.174  -0.017  1.00  0.00    -0.014 A 
ATOM     61  C   UNL     1      13.826  -3.814  -0.679  1.00  0.00     0.010 A 
ATOM     62  C   UNL     1      12.446  -5.511   0.376  1.00  0.00     0.010 A 
ATOM     63  C   UNL     1      14.785  -4.784  -0.977  1.00  0.00     0.020 A 
ATOM     64  C   UNL     1      13.415  -6.477   0.106  1.00  0.00     0.020 A 
ATOM     65  C   UNL     1      14.572  -6.110  -0.585  1.00  0.00     0.054 A 
BRANCH  65  66
ATOM     66  S   UNL     1      15.846  -7.346  -0.953  1.00  0.00     0.124 S 
ATOM     67  O   UNL     1      15.647  -7.569  -2.382  1.00  0.00    -0.237 OA
ATOM     68  O   UNL     1      17.080  -6.654  -0.589  1.00  0.00    -0.237 OA
ATOM     69  O   UNL     1      15.493  -8.472  -0.090  1.00  0.00    -0.744 OA
ENDBRANCH  65  66
ENDBRANCH  39  60
ENDBRANCH  13  14
ENDBRANCH   6   8
ENDBRANCH   5   6
ENDBRANCH   4   5
ENDBRANCH   3   4
ENDBRANCH   2   3
ENDBRANCH   1   2
BRANCH   1  70
ATOM     70  C   UNL     1      -0.725   3.812   0.706  1.00  0.00     0.188 C 
BRANCH  70  71
ATOM     71  O   UNL     1      -1.769   3.127   0.017  1.00  0.00    -0.376 OA
BRANCH  71  72
ATOM     72  C   UNL     1      -1.375   1.879  -0.549  1.00  0.00     0.202 C 
BRANCH  72  73
ATOM     73  C   UNL     1      -0.622   1.990  -1.886  1.00  0.00     0.261 C 
BRANCH  73  74
ATOM     74  O   UNL     1       0.657   2.642  -1.754  1.00  0.00    -0.461 OA
BRANCH  74  75
ATOM     75  C   UNL     1       0.782   3.890  -2.308  1.00  0.00     0.335 C 
ATOM     76  O   UNL     1      -0.074   4.440  -2.988  1.00  0.00    -0.249 OA
BRANCH  75  77
ATOM     77  C   UNL     1       2.126   4.520  -1.895  1.00  0.00     0.232 C 
ATOM     78  C   UNL     1       2.525   5.718  -2.737  1.00  0.00     0.087 C 
ATOM     79  O   UNL     1       2.084   4.918  -0.530  1.00  0.00    -0.355 OA
ATOM     80  C   UNL     1       2.829   6.872  -1.770  1.00  0.00     0.124 C 
ATOM     81  C   UNL     1       2.652   6.235  -0.355  1.00  0.00     0.187 C 
BRANCH  80  82
ATOM     82  C   UNL     1       4.113   7.587  -2.227  1.00  0.00     0.005 A 
ATOM     83  C   UNL     1       3.989   8.371  -3.411  1.00  0.00     0.008 A 
ATOM     84  C   UNL     1       5.403   7.526  -1.670  1.00  0.00     0.047 A 
ATOM     85  C   UNL     1       5.045   9.105  -3.954  1.00  0.00     0.001 A 
ATOM     86  C   UNL     1       6.455   8.300  -2.199  1.00  0.00     0.021 A 
ATOM     87  Cl  UNL     1       5.898   6.466  -0.405  1.00  0.00    -0.084 Cl
ATOM     88  C   UNL     1       6.278   9.091  -3.329  1.00  0.00     0.002 A 
ENDBRANCH  80  82
BRANCH  80  89
ATOM     89  O   UNL     1       1.771   7.845  -1.979  1.00  0.00    -0.382 OA
ATOM     90  H   UNL     1       0.922   7.461  -1.710  1.00  0.00     0.212 HD
ENDBRANCH  80  89
BRANCH  81  91
ATOM     91  C   UNL     1       1.750   6.915   0.672  1.00  0.00     0.003 A 
ATOM     92  C   UNL     1       0.373   7.065   0.406  1.00  0.00     0.008 A 
ATOM     93  C   UNL     1       2.193   7.276   1.956  1.00  0.00     0.046 A 
ATOM     94  C   UNL     1      -0.531   7.460   1.397  1.00  0.00     0.000 A 
ATOM     95  C   UNL     1       1.280   7.619   2.963  1.00  0.00     0.021 A 
ATOM     96  Cl  UNL     1       3.865   7.372   2.365  1.00  0.00    -0.084 Cl
ATOM     97  C   UNL     1      -0.083   7.692   2.689  1.00  0.00     0.002 A 
ENDBRANCH  81  91
ENDBRANCH  75  77
ENDBRANCH  74  75
ENDBRANCH  73  74
ENDBRANCH  72  73
ENDBRANCH  71  72
ENDBRANCH  70  71
ENDBRANCH   1  70
TORSDOF 23
