REMARK SMILES O=C(Cn1cccc1C(=O)OCCOCCOCCOC(=O)c1ccc(-c2c3nc(c(-c4ccc(S(=O)(=O)[O-])cc4)c4ccc([nH]4)c(-c4ccc(S(=O)(=O)[O-])cc4)c4nc(c(-c5ccc(S(=O)(=O)[O-])cc5)c5ccc2[nH]5)C=C4)C=C3)cc1)Nc1ccc(CCO)cc1
REMARK SMILES IDX 14 1 13 2 12 3 11 4 9 5 10 6 8 7 4 8 5 9 6 10 7 11 3 12 2 13
REMARK SMILES IDX 1 14 83 15 84 17 85 18 92 19 86 20 91 21 87 22 88 23 89 24
REMARK SMILES IDX 90 25 15 27 16 28 17 29 18 30 19 31 20 32 21 33 22 34 23 35
REMARK SMILES IDX 24 36 82 37 25 38 81 39 26 40 27 41 28 42 75 43 29 44 80 45
REMARK SMILES IDX 74 46 76 47 30 48 79 49 73 50 72 51 31 53 61 54 42 55 60 56
REMARK SMILES IDX 43 57 46 58 59 59 77 60 44 61 45 62 58 64 78 65 47 66 32 67
REMARK SMILES IDX 33 68 41 69 34 70 40 71 35 72 36 73 37 74 38 75 39 76 62 77
REMARK SMILES IDX 63 78 71 79 64 80 70 81 65 82 66 83 67 84 68 85 69 86 48 87
REMARK SMILES IDX 49 88 57 89 50 90 56 91 51 92 52 93 53 94 54 95 55 96
REMARK H PARENT 83 16 90 26 76 52 46 63
REMARK Flexibility Score: inf
ROOT
ATOM      1  O   UNL     1       3.622  -6.072  -2.595  1.00  0.00    -0.376 OA
ENDROOT
BRANCH   1   2
ATOM      2  C   UNL     1       3.391  -6.263  -1.208  1.00  0.00     0.202 C 
BRANCH   2   3
ATOM      3  C   UNL     1       4.111  -5.368  -0.180  1.00  0.00     0.261 C 
BRANCH   3   4
ATOM      4  O   UNL     1       4.072  -3.957  -0.457  1.00  0.00    -0.459 OA
BRANCH   4   5
ATOM      5  C   UNL     1       5.255  -3.358  -0.763  1.00  0.00     0.355 C 
ATOM      6  O   UNL     1       6.356  -3.880  -0.643  1.00  0.00    -0.244 OA
BRANCH   5   7
ATOM      7  C   UNL     1       5.017  -2.082  -1.420  1.00  0.00     0.128 A 
ATOM      8  N   UNL     1       4.024  -1.137  -1.168  1.00  0.00    -0.333 N 
ATOM      9  C   UNL     1       4.020  -0.215  -2.189  1.00  0.00     0.087 A 
ATOM     10  C   UNL     1       5.095  -0.462  -3.010  1.00  0.00     0.020 A 
ATOM     11  C   UNL     1       5.730  -1.619  -2.520  1.00  0.00     0.035 A 
BRANCH   8  12
ATOM     12  C   UNL     1       3.105  -1.190  -0.025  1.00  0.00     0.222 C 
BRANCH  12  13
ATOM     13  C   UNL     1       2.211   0.010   0.251  1.00  0.00     0.244 C 
ATOM     14  O   UNL     1       1.033  -0.173   0.561  1.00  0.00    -0.273 OA
ATOM     15  N   UNL     1       2.823   1.253   0.202  1.00  0.00    -0.325 N 
ATOM     16  H   UNL     1       3.784   1.274  -0.011  1.00  0.00     0.169 HD
BRANCH  15  17
ATOM     17  C   UNL     1       2.185   2.492   0.433  1.00  0.00     0.041 A 
ATOM     18  C   UNL     1       2.719   3.621  -0.195  1.00  0.00     0.026 A 
ATOM     19  C   UNL     1       1.052   2.639   1.233  1.00  0.00     0.026 A 
ATOM     20  C   UNL     1       2.092   4.865  -0.072  1.00  0.00     0.006 A 
ATOM     21  C   UNL     1       0.453   3.894   1.398  1.00  0.00     0.006 A 
ATOM     22  C   UNL     1       0.960   5.020   0.737  1.00  0.00    -0.046 A 
BRANCH  22  23
ATOM     23  C   UNL     1       0.272   6.361   0.865  1.00  0.00     0.063 C 
BRANCH  23  24
ATOM     24  C   UNL     1       1.052   7.379   1.699  1.00  0.00     0.161 C 
BRANCH  24  25
ATOM     25  O   UNL     1       2.181   7.890   0.996  1.00  0.00    -0.396 OA
ATOM     26  H   UNL     1       2.788   7.163   0.788  1.00  0.00     0.210 HD
ENDBRANCH  24  25
ENDBRANCH  23  24
ENDBRANCH  22  23
ENDBRANCH  15  17
ENDBRANCH  12  13
ENDBRANCH   8  12
ENDBRANCH   5   7
ENDBRANCH   4   5
ENDBRANCH   3   4
ENDBRANCH   2   3
ENDBRANCH   1   2
BRANCH   1  27
ATOM     27  C   UNL     1       3.422  -4.793  -3.185  1.00  0.00     0.188 C 
BRANCH  27  28
ATOM     28  C   UNL     1       2.259  -3.882  -2.739  1.00  0.00     0.188 C 
BRANCH  28  29
ATOM     29  O   UNL     1       1.555  -4.319  -1.589  1.00  0.00    -0.376 OA
BRANCH  29  30
ATOM     30  C   UNL     1       0.193  -4.690  -1.764  1.00  0.00     0.202 C 
BRANCH  30  31
ATOM     31  C   UNL     1      -0.083  -5.900  -2.662  1.00  0.00     0.261 C 
BRANCH  31  32
ATOM     32  O   UNL     1       0.526  -5.865  -3.949  1.00  0.00    -0.460 OA
BRANCH  32  33
ATOM     33  C   UNL     1       0.058  -4.886  -4.745  1.00  0.00     0.338 C 
ATOM     34  O   UNL     1      -0.594  -3.907  -4.422  1.00  0.00    -0.246 OA
BRANCH  33  35
ATOM     35  C   UNL     1       0.354  -5.207  -6.131  1.00  0.00     0.060 A 
ATOM     36  C   UNL     1       0.526  -4.135  -7.009  1.00  0.00     0.016 A 
ATOM     37  C   UNL     1       0.042  -6.503  -6.555  1.00  0.00     0.016 A 
ATOM     38  C   UNL     1       0.193  -4.330  -8.329  1.00  0.00     0.010 A 
ATOM     39  C   UNL     1      -0.343  -6.681  -7.862  1.00  0.00     0.010 A 
ATOM     40  C   UNL     1      -0.316  -5.578  -8.720  1.00  0.00    -0.014 A 
BRANCH  40  41
ATOM     41  C   UNL     1      -0.764  -5.721 -10.105  1.00  0.00     0.031 A 
ATOM     42  C   UNL     1       0.412  -6.130 -10.992  1.00  0.00     0.074 A 
ATOM     43  C   UNL     1      -2.064  -5.354 -10.340  1.00  0.00     0.049 A 
ATOM     44  N   UNL     1       0.642  -5.817 -12.224  1.00  0.00    -0.248 NA
ATOM     45  C   UNL     1       1.556  -6.897 -10.415  1.00  0.00     0.031 C 
ATOM     46  C   UNL     1      -3.057  -4.992  -9.292  1.00  0.00     0.029 A 
ATOM     47  N   UNL     1      -2.820  -5.189 -11.479  1.00  0.00    -0.354 N 
ATOM     48  C   UNL     1       1.839  -6.450 -12.615  1.00  0.00     0.074 A 
ATOM     49  C   UNL     1       2.407  -7.024 -11.436  1.00  0.00     0.031 C 
ATOM     50  C   UNL     1      -4.220  -4.574  -9.843  1.00  0.00     0.029 A 
ATOM     51  C   UNL     1      -4.116  -4.634 -11.287  1.00  0.00     0.049 A 
ATOM     52  H   UNL     1      -2.485  -5.440 -12.370  1.00  0.00     0.167 HD
ATOM     53  C   UNL     1       2.231  -6.538 -13.916  1.00  0.00     0.031 A 
ATOM     54  C   UNL     1      -5.010  -4.202 -12.232  1.00  0.00     0.031 A 
ATOM     55  C   UNL     1       1.289  -5.872 -14.750  1.00  0.00     0.049 A 
ATOM     56  C   UNL     1      -4.390  -4.534 -13.524  1.00  0.00     0.074 A 
ATOM     57  C   UNL     1       1.032  -4.541 -14.953  1.00  0.00     0.029 A 
ATOM     58  N   UNL     1       0.208  -6.617 -15.162  1.00  0.00    -0.354 N 
ATOM     59  N   UNL     1      -4.271  -5.728 -14.016  1.00  0.00    -0.248 NA
ATOM     60  C   UNL     1      -3.773  -3.449 -14.301  1.00  0.00     0.031 C 
ATOM     61  C   UNL     1      -0.376  -4.495 -15.008  1.00  0.00     0.029 A 
ATOM     62  C   UNL     1      -0.889  -5.796 -15.076  1.00  0.00     0.049 A 
ATOM     63  H   UNL     1       0.220  -7.555 -15.461  1.00  0.00     0.167 HD
ATOM     64  C   UNL     1      -3.253  -5.569 -14.922  1.00  0.00     0.074 A 
ATOM     65  C   UNL     1      -3.237  -4.167 -15.284  1.00  0.00     0.031 C 
ATOM     66  C   UNL     1      -2.184  -6.406 -14.886  1.00  0.00     0.031 A 
BRANCH  53  67
ATOM     67  C   UNL     1       3.294  -7.348 -14.592  1.00  0.00    -0.014 A 
ATOM     68  C   UNL     1       3.676  -6.932 -15.892  1.00  0.00     0.010 A 
ATOM     69  C   UNL     1       3.665  -8.634 -14.179  1.00  0.00     0.010 A 
ATOM     70  C   UNL     1       4.274  -7.808 -16.795  1.00  0.00     0.020 A 
ATOM     71  C   UNL     1       4.302  -9.512 -15.074  1.00  0.00     0.020 A 
ATOM     72  C   UNL     1       4.552  -9.108 -16.389  1.00  0.00     0.054 A 
BRANCH  72  73
ATOM     73  S   UNL     1       5.165 -10.271 -17.637  1.00  0.00     0.124 S 
ATOM     74  O   UNL     1       3.996 -10.445 -18.496  1.00  0.00    -0.237 OA
ATOM     75  O   UNL     1       6.276  -9.534 -18.236  1.00  0.00    -0.237 OA
ATOM     76  O   UNL     1       5.552 -11.443 -16.856  1.00  0.00    -0.744 OA
ENDBRANCH  72  73
ENDBRANCH  53  67
BRANCH  54  77
ATOM     77  C   UNL     1      -6.294  -3.399 -12.321  1.00  0.00    -0.014 A 
ATOM     78  C   UNL     1      -7.069  -2.924 -11.257  1.00  0.00     0.010 A 
ATOM     79  C   UNL     1      -6.712  -2.969 -13.616  1.00  0.00     0.010 A 
ATOM     80  C   UNL     1      -8.085  -1.954 -11.469  1.00  0.00     0.020 A 
ATOM     81  C   UNL     1      -7.666  -1.974 -13.836  1.00  0.00     0.020 A 
ATOM     82  C   UNL     1      -8.334  -1.443 -12.750  1.00  0.00     0.054 A 
BRANCH  82  83
ATOM     83  S   UNL     1      -9.405   0.003 -13.004  1.00  0.00     0.124 S 
ATOM     84  O   UNL     1     -10.733  -0.596 -13.078  1.00  0.00    -0.237 OA
ATOM     85  O   UNL     1      -9.141   0.814 -11.817  1.00  0.00    -0.237 OA
ATOM     86  O   UNL     1      -8.909   0.578 -14.255  1.00  0.00    -0.744 OA
ENDBRANCH  82  83
ENDBRANCH  54  77
BRANCH  66  87
ATOM     87  C   UNL     1      -2.442  -7.775 -14.267  1.00  0.00    -0.014 A 
ATOM     88  C   UNL     1      -3.409  -8.620 -14.842  1.00  0.00     0.010 A 
ATOM     89  C   UNL     1      -1.821  -8.225 -13.084  1.00  0.00     0.010 A 
ATOM     90  C   UNL     1      -3.738  -9.859 -14.270  1.00  0.00     0.020 A 
ATOM     91  C   UNL     1      -2.145  -9.464 -12.498  1.00  0.00     0.020 A 
ATOM     92  C   UNL     1      -3.101 -10.279 -13.101  1.00  0.00     0.054 A 
BRANCH  92  93
ATOM     93  S   UNL     1      -3.543 -11.898 -12.401  1.00  0.00     0.124 S 
ATOM     94  O   UNL     1      -4.981 -11.772 -12.172  1.00  0.00    -0.237 OA
ATOM     95  O   UNL     1      -3.160 -12.817 -13.469  1.00  0.00    -0.237 OA
ATOM     96  O   UNL     1      -2.734 -11.989 -11.186  1.00  0.00    -0.744 OA
ENDBRANCH  92  93
ENDBRANCH  66  87
ENDBRANCH  40  41
ENDBRANCH  33  35
ENDBRANCH  32  33
ENDBRANCH  31  32
ENDBRANCH  30  31
ENDBRANCH  29  30
ENDBRANCH  28  29
ENDBRANCH  27  28
ENDBRANCH   1  27
TORSDOF 26
