REMARK SMILES COC(=O)c1ccccc1N(C)S(=O)(=O)c1c[nH]c(C(=O)OCCOCCOCCOC(=O)c2ccc(-c3c4nc(c(-c5ccc(S(=O)(=O)[O-])cc5)c5ccc([nH]5)c(-c5ccc(S(=O)(=O)[O-])cc5)c5nc(c(-c6ccc(S(=O)(=O)[O-])cc6)c6ccc3[nH]6)C=C5)C=C4)cc2)c1
REMARK SMILES IDX 26 1 25 2 24 3 23 4 22 5 20 6 21 7 19 8 16 9 17 10 94 11
REMARK SMILES IDX 18 12 13 14 14 15 15 16 11 17 12 18 10 19 5 20 6 21 7 22
REMARK SMILES IDX 9 23 8 24 3 25 4 26 2 27 1 28 27 29 28 30 29 31 30 32 31 33
REMARK SMILES IDX 32 34 33 35 34 36 35 37 93 38 36 39 92 40 37 41 38 42 39 43
REMARK SMILES IDX 86 44 40 45 91 46 85 47 87 48 41 49 90 50 84 51 83 52 42 54
REMARK SMILES IDX 72 55 53 56 71 57 54 58 57 59 70 60 88 61 55 62 56 63 69 65
REMARK SMILES IDX 89 66 58 67 43 68 44 69 52 70 45 71 51 72 46 73 47 74 48 75
REMARK SMILES IDX 49 76 50 77 73 78 74 79 82 80 75 81 81 82 76 83 77 84 78 85
REMARK SMILES IDX 79 86 80 87 59 88 60 89 68 90 61 91 67 92 62 93 63 94 64 95
REMARK SMILES IDX 65 96 66 97
REMARK H PARENT 18 13 87 53 57 64
REMARK Flexibility Score: inf
ROOT
ATOM      1  C   UNL     1      -5.416  -3.600   2.293  1.00  0.00     0.188 C 
ENDROOT
BRANCH   1   2
ATOM      2  O   UNL     1      -6.001  -4.844   1.927  1.00  0.00    -0.376 OA
BRANCH   2   3
ATOM      3  C   UNL     1      -5.297  -5.791   1.140  1.00  0.00     0.202 C 
BRANCH   3   4
ATOM      4  C   UNL     1      -4.782  -5.413  -0.262  1.00  0.00     0.261 C 
BRANCH   4   5
ATOM      5  O   UNL     1      -4.231  -4.101  -0.412  1.00  0.00    -0.459 OA
BRANCH   5   6
ATOM      6  C   UNL     1      -5.091  -3.137  -0.821  1.00  0.00     0.354 C 
ATOM      7  O   UNL     1      -6.256  -3.311  -1.166  1.00  0.00    -0.244 OA
BRANCH   6   8
ATOM      8  C   UNL     1      -4.489  -1.839  -0.644  1.00  0.00     0.126 A 
ATOM      9  C   UNL     1      -3.124  -0.036  -0.519  1.00  0.00     0.106 A 
ATOM     10  C   UNL     1      -4.366   0.337  -0.048  1.00  0.00     0.105 A 
ATOM     11  C   UNL     1      -3.177  -1.429  -0.794  1.00  0.00     0.057 A 
ATOM     12  N   UNL     1      -5.199  -0.743  -0.198  1.00  0.00    -0.354 N 
ATOM     13  H   UNL     1      -6.166  -0.737  -0.014  1.00  0.00     0.166 HD
BRANCH   9  14
ATOM     14  S   UNL     1      -1.712   0.938  -0.779  1.00  0.00     0.265 S 
ATOM     15  O   UNL     1      -0.990   0.140  -1.750  1.00  0.00    -0.201 OA
ATOM     16  O   UNL     1      -1.235   1.179   0.562  1.00  0.00    -0.201 OA
BRANCH  14  17
ATOM     17  N   UNL     1      -2.091   2.445  -1.542  1.00  0.00    -0.268 N 
ATOM     18  C   UNL     1      -3.324   2.301  -2.375  1.00  0.00     0.164 C 
BRANCH  17  19
ATOM     19  C   UNL     1      -0.948   3.230  -2.106  1.00  0.00     0.066 A 
ATOM     20  C   UNL     1       0.411   3.224  -1.694  1.00  0.00     0.084 A 
ATOM     21  C   UNL     1       1.374   4.072  -2.298  1.00  0.00     0.018 A 
ATOM     22  C   UNL     1       1.021   4.977  -3.288  1.00  0.00     0.001 A 
ATOM     23  C   UNL     1      -1.264   4.248  -3.042  1.00  0.00     0.028 A 
ATOM     24  C   UNL     1      -0.308   5.078  -3.647  1.00  0.00     0.002 A 
BRANCH  20  25
ATOM     25  C   UNL     1       1.009   2.468  -0.580  1.00  0.00     0.340 C 
ATOM     26  O   UNL     1       1.288   2.972   0.494  1.00  0.00    -0.246 OA
BRANCH  25  27
ATOM     27  O   UNL     1       1.349   1.238  -1.025  1.00  0.00    -0.465 OA
ATOM     28  C   UNL     1       1.767   0.312  -0.015  1.00  0.00     0.282 C 
ENDBRANCH  25  27
ENDBRANCH  20  25
ENDBRANCH  17  19
ENDBRANCH  14  17
ENDBRANCH   9  14
ENDBRANCH   6   8
ENDBRANCH   5   6
ENDBRANCH   4   5
ENDBRANCH   3   4
ENDBRANCH   2   3
ENDBRANCH   1   2
BRANCH   1  29
ATOM     29  C   UNL     1      -3.889  -3.416   2.433  1.00  0.00     0.188 C 
BRANCH  29  30
ATOM     30  O   UNL     1      -3.129  -4.574   2.149  1.00  0.00    -0.376 OA
BRANCH  30  31
ATOM     31  C   UNL     1      -2.512  -5.263   3.227  1.00  0.00     0.202 C 
BRANCH  31  32
ATOM     32  C   UNL     1      -3.384  -5.784   4.375  1.00  0.00     0.261 C 
BRANCH  32  33
ATOM     33  O   UNL     1      -4.401  -4.907   4.838  1.00  0.00    -0.460 OA
BRANCH  33  34
ATOM     34  C   UNL     1      -3.908  -3.841   5.494  1.00  0.00     0.338 C 
ATOM     35  O   UNL     1      -2.759  -3.432   5.495  1.00  0.00    -0.246 OA
BRANCH  34  36
ATOM     36  C   UNL     1      -4.939  -3.275   6.345  1.00  0.00     0.060 A 
ATOM     37  C   UNL     1      -4.852  -1.903   6.589  1.00  0.00     0.016 A 
ATOM     38  C   UNL     1      -5.545  -4.180   7.223  1.00  0.00     0.016 A 
ATOM     39  C   UNL     1      -5.182  -1.460   7.847  1.00  0.00     0.010 A 
ATOM     40  C   UNL     1      -5.814  -3.748   8.497  1.00  0.00     0.010 A 
ATOM     41  C   UNL     1      -5.586  -2.402   8.806  1.00  0.00    -0.014 A 
BRANCH  41  42
ATOM     42  C   UNL     1      -6.009  -1.892  10.107  1.00  0.00     0.031 A 
ATOM     43  C   UNL     1      -7.506  -1.509  10.004  1.00  0.00     0.074 A 
ATOM     44  C   UNL     1      -5.018  -1.806  11.057  1.00  0.00     0.049 A 
ATOM     45  N   UNL     1      -8.194  -0.688  10.724  1.00  0.00    -0.248 NA
ATOM     46  C   UNL     1      -8.364  -2.065   8.903  1.00  0.00     0.031 C 
ATOM     47  C   UNL     1      -3.623  -2.313  10.910  1.00  0.00     0.029 A 
ATOM     48  N   UNL     1      -4.954  -1.289  12.333  1.00  0.00    -0.354 N 
ATOM     49  C   UNL     1      -9.550  -0.799  10.339  1.00  0.00     0.074 A 
ATOM     50  C   UNL     1      -9.582  -1.578   9.147  1.00  0.00     0.031 C 
ATOM     51  C   UNL     1      -2.858  -1.986  11.982  1.00  0.00     0.029 A 
ATOM     52  C   UNL     1      -3.663  -1.267  12.950  1.00  0.00     0.049 A 
ATOM     53  H   UNL     1      -5.755  -0.951  12.796  1.00  0.00     0.167 HD
ATOM     54  C   UNL     1     -10.568  -0.350  11.126  1.00  0.00     0.031 A 
ATOM     55  C   UNL     1      -3.293  -0.671  14.134  1.00  0.00     0.031 A 
ATOM     56  C   UNL     1     -10.025   0.342  12.245  1.00  0.00     0.049 A 
ATOM     57  C   UNL     1      -4.573  -0.264  14.729  1.00  0.00     0.074 A 
ATOM     58  C   UNL     1      -9.369   1.543  12.326  1.00  0.00     0.029 A 
ATOM     59  N   UNL     1      -9.716  -0.433  13.339  1.00  0.00    -0.354 N 
ATOM     60  N   UNL     1      -5.437  -1.080  15.247  1.00  0.00    -0.248 NA
ATOM     61  C   UNL     1      -4.969   1.148  14.657  1.00  0.00     0.031 C 
ATOM     62  C   UNL     1      -8.275   1.230  13.156  1.00  0.00     0.029 A 
ATOM     63  C   UNL     1      -8.492  -0.003  13.785  1.00  0.00     0.049 A 
ATOM     64  H   UNL     1     -10.264  -1.154  13.725  1.00  0.00     0.167 HD
ATOM     65  C   UNL     1      -6.596  -0.356  15.163  1.00  0.00     0.074 A 
ATOM     66  C   UNL     1      -6.205   1.041  15.136  1.00  0.00     0.031 C 
ATOM     67  C   UNL     1      -7.691  -0.906  14.573  1.00  0.00     0.031 A 
BRANCH  54  68
ATOM     68  C   UNL     1     -12.034  -0.659  11.152  1.00  0.00    -0.014 A 
ATOM     69  C   UNL     1     -12.832   0.172  11.978  1.00  0.00     0.010 A 
ATOM     70  C   UNL     1     -12.577  -1.882  10.734  1.00  0.00     0.010 A 
ATOM     71  C   UNL     1     -14.047  -0.263  12.499  1.00  0.00     0.020 A 
ATOM     72  C   UNL     1     -13.825  -2.308  11.222  1.00  0.00     0.020 A 
ATOM     73  C   UNL     1     -14.523  -1.519  12.142  1.00  0.00     0.054 A 
BRANCH  73  74
ATOM     74  S   UNL     1     -16.025  -2.114  12.961  1.00  0.00     0.124 S 
ATOM     75  O   UNL     1     -15.572  -2.310  14.335  1.00  0.00    -0.237 OA
ATOM     76  O   UNL     1     -16.951  -1.001  12.762  1.00  0.00    -0.237 OA
ATOM     77  O   UNL     1     -16.359  -3.331  12.226  1.00  0.00    -0.744 OA
ENDBRANCH  73  74
ENDBRANCH  54  68
BRANCH  55  78
ATOM     78  C   UNL     1      -2.071  -0.243  14.941  1.00  0.00    -0.014 A 
ATOM     79  C   UNL     1      -0.723  -0.482  14.650  1.00  0.00     0.010 A 
ATOM     80  C   UNL     1      -2.296   0.627  16.055  1.00  0.00     0.010 A 
ATOM     81  C   UNL     1       0.310   0.242  15.317  1.00  0.00     0.020 A 
ATOM     82  C   UNL     1      -1.302   1.388  16.676  1.00  0.00     0.020 A 
ATOM     83  C   UNL     1       0.007   1.220  16.276  1.00  0.00     0.054 A 
BRANCH  83  84
ATOM     84  S   UNL     1       1.269   2.382  16.889  1.00  0.00     0.124 S 
ATOM     85  O   UNL     1       1.962   1.597  17.905  1.00  0.00    -0.237 OA
ATOM     86  O   UNL     1       2.040   2.682  15.685  1.00  0.00    -0.237 OA
ATOM     87  O   UNL     1       0.484   3.506  17.401  1.00  0.00    -0.744 OA
ENDBRANCH  83  84
ENDBRANCH  55  78
BRANCH  67  88
ATOM     88  C   UNL     1      -7.729  -2.434  14.513  1.00  0.00    -0.014 A 
ATOM     89  C   UNL     1      -7.623  -3.173  15.707  1.00  0.00     0.010 A 
ATOM     90  C   UNL     1      -7.777  -3.177  13.313  1.00  0.00     0.010 A 
ATOM     91  C   UNL     1      -7.562  -4.576  15.711  1.00  0.00     0.020 A 
ATOM     92  C   UNL     1      -7.711  -4.588  13.303  1.00  0.00     0.020 A 
ATOM     93  C   UNL     1      -7.609  -5.280  14.508  1.00  0.00     0.054 A 
BRANCH  93  94
ATOM     94  S   UNL     1      -7.540  -7.099  14.560  1.00  0.00     0.124 S 
ATOM     95  O   UNL     1      -6.274  -7.358  15.243  1.00  0.00    -0.237 OA
ATOM     96  O   UNL     1      -8.739  -7.438  15.322  1.00  0.00    -0.237 OA
ATOM     97  O   UNL     1      -7.569  -7.494  13.152  1.00  0.00    -0.744 OA
ENDBRANCH  93  94
ENDBRANCH  67  88
ENDBRANCH  41  42
ENDBRANCH  34  36
ENDBRANCH  33  34
ENDBRANCH  32  33
ENDBRANCH  31  32
ENDBRANCH  30  31
ENDBRANCH  29  30
ENDBRANCH   1  29
TORSDOF 25
