REMARK SMILES C[C@H]1SC[C@H](C(=O)OCCOCCOCCOC(=O)c2ccc(-c3c4nc(c(-c5ccc(S(=O)(=O)[O-])cc5)c5ccc([nH]5)c(-c5ccc(S(=O)(=O)[O-])cc5)c5nc(c(-c6ccc(S(=O)(=O)[O-])cc6)c6ccc3[nH]6)C=C5)C=C4)cc2)N1C(=O)[C@@H]1CSc2ccccc21
REMARK SMILES IDX 13 1 12 2 11 3 10 4 9 5 8 6 6 7 7 8 5 9 1 10 2 11 3 12 80 13
REMARK SMILES IDX 4 14 81 15 82 16 83 17 84 18 91 19 85 20 86 21 90 22 87 23
REMARK SMILES IDX 89 24 88 25 14 26 15 27 16 28 17 29 18 30 19 31 20 32 21 33
REMARK SMILES IDX 79 34 22 35 78 36 23 37 24 38 25 39 72 40 26 41 77 42 71 43
REMARK SMILES IDX 73 44 27 45 76 46 70 47 69 48 28 50 58 51 39 52 57 53 40 54
REMARK SMILES IDX 43 55 56 56 74 57 41 58 42 59 55 61 75 62 44 63 29 64 30 65
REMARK SMILES IDX 38 66 31 67 37 68 32 69 33 70 34 71 35 72 36 73 59 74 60 75
REMARK SMILES IDX 68 76 61 77 67 78 62 79 63 80 64 81 65 82 66 83 45 84 46 85
REMARK SMILES IDX 54 86 47 87 53 88 48 89 49 90 50 91 51 92 52 93
REMARK H PARENT 73 49 43 60
REMARK Flexibility Score: inf
ROOT
ATOM      1  C   UNL     1      -6.281  -5.709   2.521  1.00  0.00     0.188 C 
ENDROOT
BRANCH   1   2
ATOM      2  C   UNL     1      -7.431  -4.702   2.415  1.00  0.00     0.188 C 
BRANCH   2   3
ATOM      3  O   UNL     1      -8.058  -4.480   1.157  1.00  0.00    -0.376 OA
BRANCH   3   4
ATOM      4  C   UNL     1      -7.367  -4.731  -0.058  1.00  0.00     0.202 C 
BRANCH   4   5
ATOM      5  C   UNL     1      -6.138  -3.874  -0.393  1.00  0.00     0.261 C 
BRANCH   5   6
ATOM      6  O   UNL     1      -5.056  -3.931   0.554  1.00  0.00    -0.462 OA
BRANCH   6   7
ATOM      7  C   UNL     1      -4.925  -2.847   1.372  1.00  0.00     0.329 C 
ATOM      8  O   UNL     1      -5.688  -1.887   1.388  1.00  0.00    -0.250 OA
BRANCH   7   9
ATOM      9  C   UNL     1      -3.681  -2.934   2.283  1.00  0.00     0.206 C 
ATOM     10  C   UNL     1      -1.768  -1.512   4.261  1.00  0.00     0.043 C 
ATOM     11  C   UNL     1      -1.479  -2.330   3.005  1.00  0.00     0.141 C 
ATOM     12  S   UNL     1      -1.528  -4.103   3.395  1.00  0.00    -0.135 SA
ATOM     13  N   UNL     1      -2.479  -2.150   1.958  1.00  0.00    -0.316 N 
ATOM     14  C   UNL     1      -3.184  -4.327   2.691  1.00  0.00     0.109 C 
BRANCH  13  15
ATOM     15  C   UNL     1      -2.287  -1.680   0.666  1.00  0.00     0.232 C 
ATOM     16  O   UNL     1      -3.215  -1.664  -0.151  1.00  0.00    -0.274 OA
BRANCH  15  17
ATOM     17  C   UNL     1      -0.913  -1.289   0.127  1.00  0.00     0.120 C 
ATOM     18  C   UNL     1      -0.151  -2.581  -0.215  1.00  0.00     0.093 C 
ATOM     19  C   UNL     1      -0.077  -0.428   1.026  1.00  0.00    -0.021 A 
ATOM     20  S   UNL     1       1.516  -2.482   0.509  1.00  0.00    -0.125 SA
ATOM     21  C   UNL     1       1.160  -0.979   1.369  1.00  0.00     0.011 A 
ATOM     22  C   UNL     1      -0.511   0.762   1.605  1.00  0.00     0.006 A 
ATOM     23  C   UNL     1       1.905  -0.441   2.405  1.00  0.00     0.015 A 
ATOM     24  C   UNL     1       0.250   1.324   2.627  1.00  0.00     0.000 A 
ATOM     25  C   UNL     1       1.433   0.704   3.050  1.00  0.00     0.001 A 
ENDBRANCH  15  17
ENDBRANCH  13  15
ENDBRANCH   7   9
ENDBRANCH   6   7
ENDBRANCH   5   6
ENDBRANCH   4   5
ENDBRANCH   3   4
ENDBRANCH   2   3
ENDBRANCH   1   2
BRANCH   1  26
ATOM     26  O   UNL     1      -6.266  -6.697   1.519  1.00  0.00    -0.376 OA
BRANCH  26  27
ATOM     27  C   UNL     1      -6.480  -8.036   1.907  1.00  0.00     0.202 C 
BRANCH  27  28
ATOM     28  C   UNL     1      -7.777  -8.353   2.664  1.00  0.00     0.261 C 
BRANCH  28  29
ATOM     29  O   UNL     1      -8.129  -7.472   3.747  1.00  0.00    -0.460 OA
BRANCH  29  30
ATOM     30  C   UNL     1      -7.413  -7.554   4.893  1.00  0.00     0.338 C 
ATOM     31  O   UNL     1      -6.484  -8.312   5.116  1.00  0.00    -0.246 OA
BRANCH  30  32
ATOM     32  C   UNL     1      -7.792  -6.395   5.742  1.00  0.00     0.060 A 
ATOM     33  C   UNL     1      -6.805  -5.479   6.140  1.00  0.00     0.016 A 
ATOM     34  C   UNL     1      -9.123  -6.189   6.112  1.00  0.00     0.016 A 
ATOM     35  C   UNL     1      -7.146  -4.366   6.919  1.00  0.00     0.010 A 
ATOM     36  C   UNL     1      -9.457  -5.090   6.911  1.00  0.00     0.010 A 
ATOM     37  C   UNL     1      -8.470  -4.182   7.338  1.00  0.00    -0.014 A 
BRANCH  37  38
ATOM     38  C   UNL     1      -8.819  -3.158   8.359  1.00  0.00     0.031 A 
ATOM     39  C   UNL     1      -8.965  -3.598   9.791  1.00  0.00     0.074 A 
ATOM     40  C   UNL     1      -9.044  -1.871   8.030  1.00  0.00     0.049 A 
ATOM     41  N   UNL     1      -9.399  -2.928  10.827  1.00  0.00    -0.248 NA
ATOM     42  C   UNL     1      -8.574  -4.986  10.090  1.00  0.00     0.031 C 
ATOM     43  C   UNL     1      -8.888  -1.295   6.696  1.00  0.00     0.029 A 
ATOM     44  N   UNL     1      -9.478  -0.819   8.802  1.00  0.00    -0.354 N 
ATOM     45  C   UNL     1      -9.356  -3.817  11.896  1.00  0.00     0.074 A 
ATOM     46  C   UNL     1      -8.868  -5.077  11.379  1.00  0.00     0.031 C 
ATOM     47  C   UNL     1      -9.246   0.002   6.738  1.00  0.00     0.029 A 
ATOM     48  C   UNL     1      -9.700   0.335   8.088  1.00  0.00     0.049 A 
ATOM     49  H   UNL     1      -9.618  -0.886   9.774  1.00  0.00     0.167 HD
ATOM     50  C   UNL     1      -9.698  -3.607  13.189  1.00  0.00     0.031 A 
ATOM     51  C   UNL     1     -10.243   1.512   8.467  1.00  0.00     0.031 A 
ATOM     52  C   UNL     1     -10.200  -2.360  13.701  1.00  0.00     0.049 A 
ATOM     53  C   UNL     1     -10.700   1.696   9.894  1.00  0.00     0.074 A 
ATOM     54  C   UNL     1     -10.555  -2.047  15.002  1.00  0.00     0.029 A 
ATOM     55  N   UNL     1     -10.433  -1.226  12.940  1.00  0.00    -0.354 N 
ATOM     56  N   UNL     1     -10.632   0.855  10.899  1.00  0.00    -0.248 NA
ATOM     57  C   UNL     1     -11.308   2.991  10.238  1.00  0.00     0.031 C 
ATOM     58  C   UNL     1     -11.066  -0.746  15.014  1.00  0.00     0.029 A 
ATOM     59  C   UNL     1     -10.960  -0.222  13.736  1.00  0.00     0.049 A 
ATOM     60  H   UNL     1     -10.251  -1.145  11.976  1.00  0.00     0.167 HD
ATOM     61  C   UNL     1     -11.161   1.530  11.997  1.00  0.00     0.074 A 
ATOM     62  C   UNL     1     -11.530   2.852  11.538  1.00  0.00     0.031 C 
ATOM     63  C   UNL     1     -11.324   1.093  13.271  1.00  0.00     0.031 A 
BRANCH  50  64
ATOM     64  C   UNL     1      -9.584  -4.772  14.137  1.00  0.00    -0.014 A 
ATOM     65  C   UNL     1      -8.332  -5.270  14.540  1.00  0.00     0.010 A 
ATOM     66  C   UNL     1     -10.752  -5.351  14.667  1.00  0.00     0.010 A 
ATOM     67  C   UNL     1      -8.252  -6.349  15.425  1.00  0.00     0.020 A 
ATOM     68  C   UNL     1     -10.676  -6.409  15.575  1.00  0.00     0.020 A 
ATOM     69  C   UNL     1      -9.425  -6.912  15.937  1.00  0.00     0.054 A 
BRANCH  69  70
ATOM     70  S   UNL     1      -9.289  -8.294  17.103  1.00  0.00     0.124 S 
ATOM     71  O   UNL     1      -8.836  -9.377  16.234  1.00  0.00    -0.237 OA
ATOM     72  O   UNL     1      -8.302  -7.805  18.063  1.00  0.00    -0.237 OA
ATOM     73  O   UNL     1     -10.645  -8.442  17.627  1.00  0.00    -0.744 OA
ENDBRANCH  69  70
ENDBRANCH  50  64
BRANCH  51  74
ATOM     74  C   UNL     1     -10.427   2.607   7.471  1.00  0.00    -0.014 A 
ATOM     75  C   UNL     1      -9.692   3.802   7.572  1.00  0.00     0.010 A 
ATOM     76  C   UNL     1     -11.357   2.467   6.423  1.00  0.00     0.010 A 
ATOM     77  C   UNL     1      -9.894   4.840   6.656  1.00  0.00     0.020 A 
ATOM     78  C   UNL     1     -11.539   3.490   5.487  1.00  0.00     0.020 A 
ATOM     79  C   UNL     1     -10.813   4.675   5.617  1.00  0.00     0.054 A 
BRANCH  79  80
ATOM     80  S   UNL     1     -11.020   6.017   4.412  1.00  0.00     0.124 S 
ATOM     81  O   UNL     1     -11.721   7.027   5.199  1.00  0.00    -0.237 OA
ATOM     82  O   UNL     1      -9.639   6.336   4.058  1.00  0.00    -0.237 OA
ATOM     83  O   UNL     1     -11.804   5.401   3.344  1.00  0.00    -0.744 OA
ENDBRANCH  79  80
ENDBRANCH  51  74
BRANCH  63  84
ATOM     84  C   UNL     1     -11.891   2.060  14.282  1.00  0.00    -0.014 A 
ATOM     85  C   UNL     1     -13.244   2.442  14.254  1.00  0.00     0.010 A 
ATOM     86  C   UNL     1     -11.069   2.537  15.321  1.00  0.00     0.010 A 
ATOM     87  C   UNL     1     -13.756   3.304  15.229  1.00  0.00     0.020 A 
ATOM     88  C   UNL     1     -11.585   3.373  16.315  1.00  0.00     0.020 A 
ATOM     89  C   UNL     1     -12.924   3.762  16.255  1.00  0.00     0.054 A 
BRANCH  89  90
ATOM     90  S   UNL     1     -13.627   4.836  17.537  1.00  0.00     0.124 S 
ATOM     91  O   UNL     1     -13.823   6.088  16.811  1.00  0.00    -0.237 OA
ATOM     92  O   UNL     1     -14.848   4.129  17.913  1.00  0.00    -0.237 OA
ATOM     93  O   UNL     1     -12.592   4.871  18.568  1.00  0.00    -0.744 OA
ENDBRANCH  89  90
ENDBRANCH  63  84
ENDBRANCH  37  38
ENDBRANCH  30  32
ENDBRANCH  29  30
ENDBRANCH  28  29
ENDBRANCH  27  28
ENDBRANCH  26  27
ENDBRANCH   1  26
TORSDOF 22
