REMARK SMILES CN1C(=O)/C(=C\c2ccc(-c3ccccc3C(=O)OCCOCCOCCOC(=O)c3ccc(-c4c5nc(c(-c6ccc(S(=O)(=O)[O-])cc6)c6ccc([nH]6)c(-c6ccc(S(=O)(=O)[O-])cc6)c6nc(c(-c7ccc(S(=O)(=O)[O-])cc7)c7ccc4[nH]7)C=C6)C=C5)cc3)o2)C(=O)[NH+]=C1S
REMARK SMILES IDX 23 1 22 2 21 3 20 4 19 5 17 6 18 7 16 8 11 9 12 10 13 11
REMARK SMILES IDX 15 12 14 13 10 14 7 15 8 16 91 17 9 18 6 19 1 20 2 21 3 22
REMARK SMILES IDX 95 23 4 24 5 25 94 26 92 27 93 29 96 30 24 32 25 33 26 34
REMARK SMILES IDX 27 35 28 36 29 37 30 38 31 39 32 40 90 41 33 42 89 43 34 44
REMARK SMILES IDX 35 45 36 46 83 47 37 48 88 49 82 50 84 51 38 52 87 53 81 54
REMARK SMILES IDX 80 55 39 57 69 58 50 59 68 60 51 61 54 62 67 63 85 64 52 65
REMARK SMILES IDX 53 66 66 68 86 69 55 70 40 71 41 72 49 73 42 74 48 75 43 76
REMARK SMILES IDX 44 77 45 78 46 79 47 80 70 81 71 82 79 83 72 84 78 85 73 86
REMARK SMILES IDX 74 87 75 88 76 89 77 90 56 91 57 92 65 93 58 94 64 95 59 96
REMARK SMILES IDX 60 97 61 98 62 99 63 100
REMARK H PARENT 94 28 96 31 84 56 54 67
REMARK Flexibility Score: inf
ROOT
ATOM      1  C   UNL     1       1.504 -10.155  -0.277  1.00  0.00     0.188 C 
ENDROOT
BRANCH   1   2
ATOM      2  O   UNL     1       0.134 -10.431  -0.035  1.00  0.00    -0.376 OA
BRANCH   2   3
ATOM      3  C   UNL     1      -0.716  -9.387   0.420  1.00  0.00     0.202 C 
BRANCH   3   4
ATOM      4  C   UNL     1      -0.215  -8.373   1.452  1.00  0.00     0.261 C 
BRANCH   4   5
ATOM      5  O   UNL     1       1.046  -7.805   1.089  1.00  0.00    -0.460 OA
BRANCH   5   6
ATOM      6  C   UNL     1       1.981  -7.695   2.061  1.00  0.00     0.338 C 
ATOM      7  O   UNL     1       1.847  -7.993   3.235  1.00  0.00    -0.246 OA
BRANCH   6   8
ATOM      8  C   UNL     1       3.272  -7.268   1.467  1.00  0.00     0.071 A 
ATOM      9  C   UNL     1       3.400  -6.184   0.575  1.00  0.00     0.032 A 
ATOM     10  C   UNL     1       4.678  -5.899   0.058  1.00  0.00     0.013 A 
ATOM     11  C   UNL     1       5.787  -6.682   0.397  1.00  0.00     0.001 A 
ATOM     12  C   UNL     1       4.388  -8.056   1.797  1.00  0.00     0.016 A 
ATOM     13  C   UNL     1       5.639  -7.768   1.255  1.00  0.00     0.001 A 
BRANCH   9  14
ATOM     14  C   UNL     1       2.257  -5.381   0.154  1.00  0.00     0.135 A 
ATOM     15  C   UNL     1       1.078  -4.296  -1.375  1.00  0.00     0.128 A 
ATOM     16  C   UNL     1       0.297  -4.391  -0.231  1.00  0.00     0.051 A 
ATOM     17  O   UNL     1       2.259  -4.954  -1.145  1.00  0.00    -0.457 OA
ATOM     18  C   UNL     1       1.089  -4.984   0.768  1.00  0.00     0.051 A 
BRANCH  15  19
ATOM     19  C   UNL     1       0.782  -3.561  -2.551  1.00  0.00     0.071 C 
ATOM     20  C   UNL     1       0.953   0.475   0.056  1.00  0.00     0.301 C 
ATOM     21  N   UNL     1       0.694  -0.173  -1.227  1.00  0.00    -0.189 N 
ATOM     22  C   UNL     1       1.229  -1.437  -1.345  1.00  0.00     0.349 C 
ATOM     23  C   UNL     1       0.107   0.408  -2.318  1.00  0.00     0.318 C 
ATOM     24  O   UNL     1       2.071  -1.857  -0.556  1.00  0.00    -0.240 OA
ATOM     25  C   UNL     1       0.758  -2.213  -2.514  1.00  0.00     0.157 C 
ATOM     26  N   UNL     1      -0.124  -0.168  -3.445  1.00  0.00    -0.200 N 
ATOM     27  C   UNL     1       0.154  -1.489  -3.648  1.00  0.00     0.347 C 
ATOM     28  H   UNL     1      -0.513   0.358  -4.180  1.00  0.00     0.316 HD
ATOM     29  O   UNL     1      -0.133  -2.060  -4.695  1.00  0.00    -0.241 OA
BRANCH  23  30
ATOM     30  S   UNL     1      -0.358   2.089  -2.227  1.00  0.00    -0.055 SA
ATOM     31  H   UNL     1      -0.061   2.575  -0.992  1.00  0.00     0.116 HD
ENDBRANCH  23  30
ENDBRANCH  15  19
ENDBRANCH   9  14
ENDBRANCH   6   8
ENDBRANCH   5   6
ENDBRANCH   4   5
ENDBRANCH   3   4
ENDBRANCH   2   3
ENDBRANCH   1   2
BRANCH   1  32
ATOM     32  C   UNL     1       1.907  -9.126  -1.357  1.00  0.00     0.188 C 
BRANCH  32  33
ATOM     33  O   UNL     1       0.913  -8.338  -1.972  1.00  0.00    -0.376 OA
BRANCH  33  34
ATOM     34  C   UNL     1       0.019  -8.903  -2.913  1.00  0.00     0.202 C 
BRANCH  34  35
ATOM     35  C   UNL     1       0.232 -10.226  -3.670  1.00  0.00     0.261 C 
BRANCH  35  36
ATOM     36  O   UNL     1       1.034 -11.227  -3.043  1.00  0.00    -0.460 OA
BRANCH  36  37
ATOM     37  C   UNL     1       2.261 -11.411  -3.593  1.00  0.00     0.338 C 
ATOM     38  O   UNL     1       2.753 -10.804  -4.528  1.00  0.00    -0.246 OA
BRANCH  37  39
ATOM     39  C   UNL     1       3.010 -12.359  -2.750  1.00  0.00     0.060 A 
ATOM     40  C   UNL     1       4.167 -11.917  -2.090  1.00  0.00     0.016 A 
ATOM     41  C   UNL     1       2.573 -13.676  -2.625  1.00  0.00     0.016 A 
ATOM     42  C   UNL     1       4.908 -12.807  -1.312  1.00  0.00     0.010 A 
ATOM     43  C   UNL     1       3.329 -14.571  -1.871  1.00  0.00     0.010 A 
ATOM     44  C   UNL     1       4.514 -14.148  -1.239  1.00  0.00    -0.014 A 
BRANCH  44  45
ATOM     45  C   UNL     1       5.435 -15.179  -0.708  1.00  0.00     0.031 A 
ATOM     46  C   UNL     1       6.265 -15.947  -1.698  1.00  0.00     0.074 A 
ATOM     47  C   UNL     1       5.484 -15.477   0.601  1.00  0.00     0.049 A 
ATOM     48  N   UNL     1       6.996 -17.013  -1.518  1.00  0.00    -0.248 NA
ATOM     49  C   UNL     1       6.248 -15.448  -3.083  1.00  0.00     0.031 C 
ATOM     50  C   UNL     1       4.768 -14.770   1.659  1.00  0.00     0.029 A 
ATOM     51  N   UNL     1       6.150 -16.485   1.253  1.00  0.00    -0.354 N 
ATOM     52  C   UNL     1       7.502 -17.333  -2.772  1.00  0.00     0.074 A 
ATOM     53  C   UNL     1       6.981 -16.358  -3.704  1.00  0.00     0.031 C 
ATOM     54  C   UNL     1       5.006 -15.389   2.829  1.00  0.00     0.029 A 
ATOM     55  C   UNL     1       5.850 -16.560   2.591  1.00  0.00     0.049 A 
ATOM     56  H   UNL     1       6.781 -17.094   0.805  1.00  0.00     0.167 HD
ATOM     57  C   UNL     1       8.318 -18.356  -3.118  1.00  0.00     0.031 A 
ATOM     58  C   UNL     1       6.181 -17.493   3.508  1.00  0.00     0.031 A 
ATOM     59  C   UNL     1       8.804 -19.339  -2.189  1.00  0.00     0.049 A 
ATOM     60  C   UNL     1       7.032 -18.667   3.095  1.00  0.00     0.074 A 
ATOM     61  C   UNL     1       9.643 -20.411  -2.431  1.00  0.00     0.029 A 
ATOM     62  N   UNL     1       8.478 -19.379  -0.841  1.00  0.00    -0.354 N 
ATOM     63  N   UNL     1       7.518 -18.956   1.910  1.00  0.00    -0.248 NA
ATOM     64  C   UNL     1       7.383 -19.638   4.141  1.00  0.00     0.031 C 
ATOM     65  C   UNL     1       9.775 -21.134  -1.242  1.00  0.00     0.029 A 
ATOM     66  C   UNL     1       9.081 -20.470  -0.242  1.00  0.00     0.049 A 
ATOM     67  H   UNL     1       7.903 -18.726  -0.379  1.00  0.00     0.167 HD
ATOM     68  C   UNL     1       8.264 -20.120   2.077  1.00  0.00     0.074 A 
ATOM     69  C   UNL     1       8.160 -20.485   3.475  1.00  0.00     0.031 C 
ATOM     70  C   UNL     1       8.979 -20.814   1.156  1.00  0.00     0.031 A 
BRANCH  57  71
ATOM     71  C   UNL     1       8.673 -18.488  -4.576  1.00  0.00    -0.014 A 
ATOM     72  C   UNL     1       9.484 -17.539  -5.225  1.00  0.00     0.010 A 
ATOM     73  C   UNL     1       8.167 -19.574  -5.314  1.00  0.00     0.010 A 
ATOM     74  C   UNL     1       9.727 -17.638  -6.598  1.00  0.00     0.020 A 
ATOM     75  C   UNL     1       8.437 -19.695  -6.679  1.00  0.00     0.020 A 
ATOM     76  C   UNL     1       9.193 -18.711  -7.318  1.00  0.00     0.054 A 
BRANCH  76  77
ATOM     77  S   UNL     1       9.503 -18.803  -9.102  1.00  0.00     0.124 S 
ATOM     78  O   UNL     1       8.645 -17.736  -9.611  1.00  0.00    -0.237 OA
ATOM     79  O   UNL     1      10.939 -18.549  -9.191  1.00  0.00    -0.237 OA
ATOM     80  O   UNL     1       9.090 -20.158  -9.457  1.00  0.00    -0.744 OA
ENDBRANCH  76  77
ENDBRANCH  57  71
BRANCH  58  81
ATOM     81  C   UNL     1       5.681 -17.355   4.904  1.00  0.00    -0.014 A 
ATOM     82  C   UNL     1       6.557 -17.009   5.947  1.00  0.00     0.010 A 
ATOM     83  C   UNL     1       4.312 -17.520   5.187  1.00  0.00     0.010 A 
ATOM     84  C   UNL     1       6.072 -16.821   7.245  1.00  0.00     0.020 A 
ATOM     85  C   UNL     1       3.820 -17.308   6.478  1.00  0.00     0.020 A 
ATOM     86  C   UNL     1       4.704 -16.960   7.500  1.00  0.00     0.054 A 
BRANCH  86  87
ATOM     87  S   UNL     1       4.089 -16.616   9.172  1.00  0.00     0.124 S 
ATOM     88  O   UNL     1       4.598 -17.757   9.926  1.00  0.00    -0.237 OA
ATOM     89  O   UNL     1       4.710 -15.329   9.475  1.00  0.00    -0.237 OA
ATOM     90  O   UNL     1       2.638 -16.575   9.002  1.00  0.00    -0.744 OA
ENDBRANCH  86  87
ENDBRANCH  58  81
BRANCH  70  91
ATOM     91  C   UNL     1       9.771 -22.008   1.624  1.00  0.00    -0.014 A 
ATOM     92  C   UNL     1       9.150 -23.226   1.948  1.00  0.00     0.010 A 
ATOM     93  C   UNL     1      11.178 -21.935   1.620  1.00  0.00     0.010 A 
ATOM     94  C   UNL     1       9.923 -24.348   2.265  1.00  0.00     0.020 A 
ATOM     95  C   UNL     1      11.952 -23.060   1.910  1.00  0.00     0.020 A 
ATOM     96  C   UNL     1      11.319 -24.260   2.236  1.00  0.00     0.054 A 
BRANCH  96  97
ATOM     97  S   UNL     1      12.298 -25.753   2.562  1.00  0.00     0.124 S 
ATOM     98  O   UNL     1      12.110 -25.933   3.999  1.00  0.00    -0.237 OA
ATOM     99  O   UNL     1      11.652 -26.751   1.714  1.00  0.00    -0.237 OA
ATOM    100  O   UNL     1      13.650 -25.378   2.154  1.00  0.00    -0.744 OA
ENDBRANCH  96  97
ENDBRANCH  70  91
ENDBRANCH  44  45
ENDBRANCH  37  39
ENDBRANCH  36  37
ENDBRANCH  35  36
ENDBRANCH  34  35
ENDBRANCH  33  34
ENDBRANCH  32  33
ENDBRANCH   1  32
TORSDOF 23
