REMARK SMILES Cc1nc(-c2ccccc2Cl)nc2sc(C(=O)OCCOCCOCCOC(=O)c3ccc(-c4c5nc(c(-c6ccc(S(=O)(=O)[O-])cc6)c6ccc([nH]6)c(-c6ccc(S(=O)(=O)[O-])cc6)c6nc(c(-c7ccc(S(=O)(=O)[O-])cc7)c7ccc4[nH]7)C=C6)C=C5)cc3)c(N)c12
REMARK SMILES IDX 23 1 22 2 21 3 20 4 19 5 18 6 16 7 17 8 15 9 1 10 2 11 3 12
REMARK SMILES IDX 92 13 4 14 13 15 90 16 12 17 14 18 5 19 6 20 10 21 7 22 9 23
REMARK SMILES IDX 11 24 8 25 91 26 24 29 25 30 26 31 27 32 28 33 29 34 30 35
REMARK SMILES IDX 31 36 89 37 32 38 88 39 33 40 34 41 35 42 82 43 36 44 87 45
REMARK SMILES IDX 81 46 83 47 37 48 86 49 80 50 79 51 38 53 68 54 49 55 67 56
REMARK SMILES IDX 50 57 53 58 66 59 84 60 51 61 52 62 65 64 85 65 54 66 39 67
REMARK SMILES IDX 40 68 48 69 41 70 47 71 42 72 43 73 44 74 45 75 46 76 69 77
REMARK SMILES IDX 70 78 78 79 71 80 77 81 72 82 73 83 74 84 75 85 76 86 55 87
REMARK SMILES IDX 56 88 64 89 57 90 63 91 58 92 59 93 60 94 61 95 62 96
REMARK H PARENT 91 27 91 28 83 52 53 63
REMARK Flexibility Score: inf
ROOT
ATOM      1  C   UNL     1      -4.332  -0.286  -4.713  1.00  0.00     0.188 C 
ENDROOT
BRANCH   1   2
ATOM      2  C   UNL     1      -4.070   1.212  -4.981  1.00  0.00     0.188 C 
BRANCH   2   3
ATOM      3  O   UNL     1      -4.258   1.787  -6.271  1.00  0.00    -0.376 OA
BRANCH   3   4
ATOM      4  C   UNL     1      -4.030   1.029  -7.447  1.00  0.00     0.202 C 
BRANCH   4   5
ATOM      5  C   UNL     1      -2.646   0.407  -7.698  1.00  0.00     0.261 C 
BRANCH   5   6
ATOM      6  O   UNL     1      -2.073  -0.326  -6.607  1.00  0.00    -0.459 OA
BRANCH   6   7
ATOM      7  C   UNL     1      -1.122   0.314  -5.867  1.00  0.00     0.350 C 
ATOM      8  O   UNL     1      -0.716   1.450  -6.097  1.00  0.00    -0.245 OA
BRANCH   7   9
ATOM      9  C   UNL     1      -0.758  -0.470  -4.701  1.00  0.00     0.138 A 
ATOM     10  C   UNL     1       0.703  -0.028  -0.264  1.00  0.00     0.067 C 
ATOM     11  C   UNL     1       0.371  -1.169  -1.179  1.00  0.00     0.052 A 
ATOM     12  N   UNL     1       0.669  -2.400  -0.667  1.00  0.00    -0.233 NA
ATOM     13  C   UNL     1      -0.092  -1.085  -2.514  1.00  0.00     0.057 A 
ATOM     14  C   UNL     1       0.480  -3.501  -1.411  1.00  0.00     0.162 A 
ATOM     15  C   UNL     1      -0.198  -2.303  -3.173  1.00  0.00     0.130 A 
ATOM     16  C   UNL     1      -0.479  -0.022  -3.417  1.00  0.00     0.069 A 
ATOM     17  N   UNL     1       0.064  -3.519  -2.678  1.00  0.00    -0.217 NA
ATOM     18  S   UNL     1      -0.665  -2.170  -4.799  1.00  0.00    -0.106 S 
BRANCH  14  19
ATOM     19  C   UNL     1       0.934  -4.790  -0.881  1.00  0.00     0.038 A 
ATOM     20  C   UNL     1       1.844  -5.549  -1.652  1.00  0.00     0.013 A 
ATOM     21  C   UNL     1       0.491  -5.342   0.331  1.00  0.00     0.052 A 
ATOM     22  C   UNL     1       2.286  -6.807  -1.242  1.00  0.00     0.001 A 
ATOM     23  C   UNL     1       0.935  -6.609   0.742  1.00  0.00     0.021 A 
ATOM     24  Cl  UNL     1      -0.656  -4.546   1.352  1.00  0.00    -0.084 Cl
ATOM     25  C   UNL     1       1.828  -7.339  -0.043  1.00  0.00     0.002 A 
ENDBRANCH  14  19
BRANCH  16  26
ATOM     26  N   UNL     1      -0.596   1.283  -3.082  1.00  0.00    -0.397 N 
ATOM     27  H   UNL     1      -0.866   1.943  -3.760  1.00  0.00     0.156 HD
ATOM     28  H   UNL     1      -0.411   1.572  -2.159  1.00  0.00     0.156 HD
ENDBRANCH  16  26
ENDBRANCH   7   9
ENDBRANCH   6   7
ENDBRANCH   5   6
ENDBRANCH   4   5
ENDBRANCH   3   4
ENDBRANCH   2   3
ENDBRANCH   1   2
BRANCH   1  29
ATOM     29  O   UNL     1      -4.740  -1.023  -5.851  1.00  0.00    -0.376 OA
BRANCH  29  30
ATOM     30  C   UNL     1      -6.075  -1.503  -5.888  1.00  0.00     0.202 C 
BRANCH  30  31
ATOM     31  C   UNL     1      -7.218  -0.491  -5.813  1.00  0.00     0.261 C 
BRANCH  31  32
ATOM     32  O   UNL     1      -7.048   0.573  -4.888  1.00  0.00    -0.460 OA
BRANCH  32  33
ATOM     33  C   UNL     1      -7.221   0.236  -3.594  1.00  0.00     0.338 C 
ATOM     34  O   UNL     1      -7.204  -0.882  -3.113  1.00  0.00    -0.246 OA
BRANCH  33  35
ATOM     35  C   UNL     1      -7.538   1.453  -2.851  1.00  0.00     0.060 A 
ATOM     36  C   UNL     1      -7.244   1.500  -1.487  1.00  0.00     0.016 A 
ATOM     37  C   UNL     1      -8.383   2.382  -3.473  1.00  0.00     0.016 A 
ATOM     38  C   UNL     1      -7.951   2.387  -0.702  1.00  0.00     0.010 A 
ATOM     39  C   UNL     1      -9.110   3.237  -2.685  1.00  0.00     0.010 A 
ATOM     40  C   UNL     1      -8.940   3.171  -1.304  1.00  0.00    -0.014 A 
BRANCH  40  41
ATOM     41  C   UNL     1      -9.795   3.979  -0.463  1.00  0.00     0.031 A 
ATOM     42  C   UNL     1      -9.175   5.255  -0.054  1.00  0.00     0.074 A 
ATOM     43  C   UNL     1     -11.073   3.636  -0.217  1.00  0.00     0.049 A 
ATOM     44  N   UNL     1      -8.771   5.592   1.124  1.00  0.00    -0.248 NA
ATOM     45  C   UNL     1      -8.785   6.196  -1.118  1.00  0.00     0.031 C 
ATOM     46  C   UNL     1     -11.845   2.549  -0.828  1.00  0.00     0.029 A 
ATOM     47  N   UNL     1     -11.997   4.274   0.548  1.00  0.00    -0.354 N 
ATOM     48  C   UNL     1      -8.285   6.886   0.989  1.00  0.00     0.074 A 
ATOM     49  C   UNL     1      -8.104   7.104  -0.422  1.00  0.00     0.031 C 
ATOM     50  C   UNL     1     -13.162   2.754  -0.592  1.00  0.00     0.029 A 
ATOM     51  C   UNL     1     -13.311   3.905   0.284  1.00  0.00     0.049 A 
ATOM     52  H   UNL     1     -11.756   4.940   1.231  1.00  0.00     0.167 HD
ATOM     53  C   UNL     1      -8.346   7.778   2.014  1.00  0.00     0.031 A 
ATOM     54  C   UNL     1     -14.430   4.557   0.695  1.00  0.00     0.031 A 
ATOM     55  C   UNL     1      -8.620   7.126   3.268  1.00  0.00     0.049 A 
ATOM     56  C   UNL     1     -14.033   5.423   1.835  1.00  0.00     0.074 A 
ATOM     57  C   UNL     1      -7.975   6.170   4.026  1.00  0.00     0.029 A 
ATOM     58  N   UNL     1      -9.921   7.163   3.712  1.00  0.00    -0.354 N 
ATOM     59  N   UNL     1     -13.632   4.958   2.986  1.00  0.00    -0.248 NA
ATOM     60  C   UNL     1     -13.641   6.796   1.551  1.00  0.00     0.031 C 
ATOM     61  C   UNL     1      -9.016   5.376   4.584  1.00  0.00     0.029 A 
ATOM     62  C   UNL     1     -10.242   5.922   4.196  1.00  0.00     0.049 A 
ATOM     63  H   UNL     1     -10.518   7.945   3.687  1.00  0.00     0.167 HD
ATOM     64  C   UNL     1     -12.595   5.799   3.369  1.00  0.00     0.074 A 
ATOM     65  C   UNL     1     -12.717   6.968   2.501  1.00  0.00     0.031 C 
ATOM     66  C   UNL     1     -11.572   5.346   4.153  1.00  0.00     0.031 A 
BRANCH  53  67
ATOM     67  C   UNL     1      -8.587   9.254   1.809  1.00  0.00    -0.014 A 
ATOM     68  C   UNL     1      -8.614  10.097   2.937  1.00  0.00     0.010 A 
ATOM     69  C   UNL     1      -9.053   9.800   0.594  1.00  0.00     0.010 A 
ATOM     70  C   UNL     1      -9.145  11.391   2.864  1.00  0.00     0.020 A 
ATOM     71  C   UNL     1      -9.539  11.103   0.499  1.00  0.00     0.020 A 
ATOM     72  C   UNL     1      -9.614  11.880   1.644  1.00  0.00     0.054 A 
BRANCH  72  73
ATOM     73  S   UNL     1     -10.386  13.512   1.578  1.00  0.00     0.124 S 
ATOM     74  O   UNL     1     -11.576  13.315   2.400  1.00  0.00    -0.237 OA
ATOM     75  O   UNL     1      -9.350  14.365   2.153  1.00  0.00    -0.237 OA
ATOM     76  O   UNL     1     -10.635  13.716   0.153  1.00  0.00    -0.744 OA
ENDBRANCH  72  73
ENDBRANCH  53  67
BRANCH  54  77
ATOM     77  C   UNL     1     -15.715   4.727  -0.036  1.00  0.00    -0.014 A 
ATOM     78  C   UNL     1     -16.848   5.275   0.597  1.00  0.00     0.010 A 
ATOM     79  C   UNL     1     -15.754   4.604  -1.441  1.00  0.00     0.010 A 
ATOM     80  C   UNL     1     -17.948   5.737  -0.151  1.00  0.00     0.020 A 
ATOM     81  C   UNL     1     -16.849   5.052  -2.192  1.00  0.00     0.020 A 
ATOM     82  C   UNL     1     -17.931   5.641  -1.544  1.00  0.00     0.054 A 
BRANCH  82  83
ATOM     83  S   UNL     1     -19.274   6.392  -2.514  1.00  0.00     0.124 S 
ATOM     84  O   UNL     1     -20.417   5.551  -2.169  1.00  0.00    -0.237 OA
ATOM     85  O   UNL     1     -19.313   7.757  -1.996  1.00  0.00    -0.237 OA
ATOM     86  O   UNL     1     -18.811   6.271  -3.896  1.00  0.00    -0.744 OA
ENDBRANCH  82  83
ENDBRANCH  54  77
BRANCH  66  87
ATOM     87  C   UNL     1     -11.735   4.019   4.859  1.00  0.00    -0.014 A 
ATOM     88  C   UNL     1     -11.862   2.784   4.192  1.00  0.00     0.010 A 
ATOM     89  C   UNL     1     -11.559   4.012   6.255  1.00  0.00     0.010 A 
ATOM     90  C   UNL     1     -11.815   1.577   4.909  1.00  0.00     0.020 A 
ATOM     91  C   UNL     1     -11.492   2.816   6.970  1.00  0.00     0.020 A 
ATOM     92  C   UNL     1     -11.623   1.602   6.294  1.00  0.00     0.054 A 
BRANCH  92  93
ATOM     93  S   UNL     1     -11.481   0.040   7.208  1.00  0.00     0.124 S 
ATOM     94  O   UNL     1     -12.828  -0.514   7.103  1.00  0.00    -0.237 OA
ATOM     95  O   UNL     1     -10.445  -0.677   6.467  1.00  0.00    -0.237 OA
ATOM     96  O   UNL     1     -11.088   0.457   8.554  1.00  0.00    -0.744 OA
ENDBRANCH  92  93
ENDBRANCH  66  87
ENDBRANCH  40  41
ENDBRANCH  33  35
ENDBRANCH  32  33
ENDBRANCH  31  32
ENDBRANCH  30  31
ENDBRANCH  29  30
ENDBRANCH   1  29
TORSDOF 22
