REMARK SMILES CC1(C)Cc2c(-c3ccccc3)c(-c3ccc(Cl)cc3)c(CC(=O)OCCOCCOCCOC(=O)c3ccc(-c4c5nc(c(-c6ccc(S(=O)(=O)[O-])cc6)c6ccc([nH]6)c(-c6ccc(S(=O)(=O)[O-])cc6)c6nc(c(-c7ccc(S(=O)(=O)[O-])cc7)c7ccc4[nH]7)C=C6)C=C5)cc3)n2C1
REMARK SMILES IDX 30 1 29 2 28 3 27 4 26 5 25 6 23 7 24 8 22 9 21 10 1 11 2 12
REMARK SMILES IDX 3 13 4 14 98 15 5 16 97 17 6 18 13 19 7 20 8 21 12 22 9 23
REMARK SMILES IDX 11 24 10 25 14 26 15 27 20 28 16 29 19 30 17 31 18 32 31 33
REMARK SMILES IDX 32 34 33 35 34 36 35 37 36 38 37 39 38 40 96 41 39 42 95 43
REMARK SMILES IDX 40 44 41 45 42 46 89 47 43 48 94 49 88 50 90 51 44 52 93 53
REMARK SMILES IDX 87 54 86 55 45 57 75 58 56 59 74 60 57 61 60 62 73 63 91 64
REMARK SMILES IDX 58 65 59 66 72 68 92 69 61 70 46 71 47 72 55 73 48 74 54 75
REMARK SMILES IDX 49 76 50 77 51 78 52 79 53 80 76 81 77 82 85 83 78 84 84 85
REMARK SMILES IDX 79 86 80 87 81 88 82 89 83 90 62 91 63 92 71 93 64 94 70 95
REMARK SMILES IDX 65 96 66 97 67 98 68 99 69 100
REMARK H PARENT 90 56 60 67
REMARK Flexibility Score: inf
ROOT
ATOM      1  C   UNL     1      -0.050  -2.615   6.818  1.00  0.00     0.188 C 
ENDROOT
BRANCH   1   2
ATOM      2  C   UNL     1       0.741  -2.239   8.110  1.00  0.00     0.188 C 
BRANCH   2   3
ATOM      3  O   UNL     1      -0.007  -1.764   9.199  1.00  0.00    -0.376 OA
BRANCH   3   4
ATOM      4  C   UNL     1      -0.912  -0.756   8.800  1.00  0.00     0.202 C 
BRANCH   4   5
ATOM      5  C   UNL     1      -0.415   0.291   7.715  1.00  0.00     0.261 C 
BRANCH   5   6
ATOM      6  O   UNL     1       0.289  -0.188   6.474  1.00  0.00    -0.463 OA
BRANCH   6   7
ATOM      7  C   UNL     1       1.624   0.011   6.230  1.00  0.00     0.311 C 
ATOM      8  O   UNL     1       2.196   0.977   6.744  1.00  0.00    -0.252 OA
BRANCH   7   9
ATOM      9  C   UNL     1       2.522  -1.124   5.491  1.00  0.00     0.177 C 
BRANCH   9  10
ATOM     10  C   UNL     1       2.076  -2.238   4.461  1.00  0.00     0.037 A 
ATOM     11  C   UNL     1       1.130  -0.048   0.057  1.00  0.00     0.013 C 
ATOM     12  C   UNL     1       0.640  -0.778   1.313  1.00  0.00    -0.012 C 
ATOM     13  C   UNL     1      -0.827  -0.398   1.573  1.00  0.00     0.013 C 
ATOM     14  C   UNL     1       0.756  -2.309   1.096  1.00  0.00     0.063 C 
ATOM     15  C   UNL     1       1.520  -0.480   2.575  1.00  0.00     0.129 C 
ATOM     16  C   UNL     1       1.290  -2.782   2.386  1.00  0.00     0.027 A 
ATOM     17  N   UNL     1       1.684  -1.789   3.212  1.00  0.00    -0.346 N 
ATOM     18  C   UNL     1       1.437  -3.978   3.009  1.00  0.00     0.011 A 
ATOM     19  C   UNL     1       2.068  -3.716   4.338  1.00  0.00     0.011 A 
BRANCH  18  20
ATOM     20  C   UNL     1       0.846  -5.154   2.369  1.00  0.00    -0.016 A 
ATOM     21  C   UNL     1       1.571  -5.940   1.470  1.00  0.00     0.009 A 
ATOM     22  C   UNL     1      -0.449  -5.561   2.735  1.00  0.00     0.009 A 
ATOM     23  C   UNL     1       1.076  -7.195   1.092  1.00  0.00     0.001 A 
ATOM     24  C   UNL     1      -0.906  -6.843   2.423  1.00  0.00     0.001 A 
ATOM     25  C   UNL     1      -0.131  -7.668   1.616  1.00  0.00     0.000 A 
ENDBRANCH  18  20
BRANCH  19  26
ATOM     26  C   UNL     1       2.291  -4.924   5.385  1.00  0.00    -0.016 A 
ATOM     27  C   UNL     1       1.567  -6.523   4.858  1.00  0.00     0.010 A 
ATOM     28  C   UNL     1       2.249  -4.542   7.141  1.00  0.00     0.010 A 
ATOM     29  C   UNL     1       0.638  -7.588   6.024  1.00  0.00     0.021 A 
ATOM     30  C   UNL     1       1.332  -5.569   8.356  1.00  0.00     0.021 A 
ATOM     31  C   UNL     1       0.492  -7.117   7.773  1.00  0.00     0.041 A 
ATOM     32  Cl  UNL     1      -0.545  -8.001   8.830  1.00  0.00    -0.084 Cl
ENDBRANCH  19  26
ENDBRANCH   9  10
ENDBRANCH   7   9
ENDBRANCH   6   7
ENDBRANCH   5   6
ENDBRANCH   4   5
ENDBRANCH   3   4
ENDBRANCH   2   3
ENDBRANCH   1   2
BRANCH   1  33
ATOM     33  O   UNL     1      -1.439  -2.451   6.858  1.00  0.00    -0.376 OA
BRANCH  33  34
ATOM     34  C   UNL     1      -2.268  -3.572   6.676  1.00  0.00     0.202 C 
BRANCH  34  35
ATOM     35  C   UNL     1      -1.830  -4.979   7.067  1.00  0.00     0.261 C 
BRANCH  35  36
ATOM     36  O   UNL     1      -0.459  -5.131   7.463  1.00  0.00    -0.460 OA
BRANCH  36  37
ATOM     37  C   UNL     1       0.589  -5.603   6.436  1.00  0.00     0.338 C 
ATOM     38  O   UNL     1      -0.058  -5.317   5.397  1.00  0.00    -0.246 OA
BRANCH  37  39
ATOM     39  C   UNL     1       2.408  -6.650   6.860  1.00  0.00     0.060 A 
ATOM     40  C   UNL     1       3.318  -7.449   6.042  1.00  0.00     0.016 A 
ATOM     41  C   UNL     1       2.958  -7.127   8.110  1.00  0.00     0.016 A 
ATOM     42  C   UNL     1       3.368  -8.853   6.212  1.00  0.00     0.010 A 
ATOM     43  C   UNL     1       2.698  -8.452   8.369  1.00  0.00     0.010 A 
ATOM     44  C   UNL     1       2.707  -9.343   7.318  1.00  0.00    -0.014 A 
BRANCH  44  45
ATOM     45  C   UNL     1       2.443 -10.725   7.700  1.00  0.00     0.031 A 
ATOM     46  C   UNL     1       3.639 -11.141   8.501  1.00  0.00     0.074 A 
ATOM     47  C   UNL     1       1.268 -11.404   7.592  1.00  0.00     0.049 A 
ATOM     48  N   UNL     1       4.774 -11.472   7.957  1.00  0.00    -0.248 NA
ATOM     49  C   UNL     1       3.805 -10.660   9.905  1.00  0.00     0.031 C 
ATOM     50  C   UNL     1      -0.042 -11.045   7.036  1.00  0.00     0.029 A 
ATOM     51  N   UNL     1       1.008 -12.673   8.032  1.00  0.00    -0.354 N 
ATOM     52  C   UNL     1       5.635 -11.574   9.035  1.00  0.00     0.074 A 
ATOM     53  C   UNL     1       5.139 -10.640   9.996  1.00  0.00     0.031 C 
ATOM     54  C   UNL     1      -0.992 -11.956   7.386  1.00  0.00     0.029 A 
ATOM     55  C   UNL     1      -0.346 -13.062   8.057  1.00  0.00     0.049 A 
ATOM     56  H   UNL     1       1.728 -13.282   8.315  1.00  0.00     0.167 HD
ATOM     57  C   UNL     1       6.268 -12.754   9.292  1.00  0.00     0.031 A 
ATOM     58  C   UNL     1      -0.842 -14.239   8.556  1.00  0.00     0.031 A 
ATOM     59  C   UNL     1       6.164 -13.630   8.146  1.00  0.00     0.049 A 
ATOM     60  C   UNL     1       0.320 -15.173   8.598  1.00  0.00     0.074 A 
ATOM     61  C   UNL     1       6.524 -13.511   6.818  1.00  0.00     0.029 A 
ATOM     62  N   UNL     1       5.154 -14.567   8.198  1.00  0.00    -0.354 N 
ATOM     63  N   UNL     1       0.927 -15.575   7.512  1.00  0.00    -0.248 NA
ATOM     64  C   UNL     1       1.136 -15.141   9.804  1.00  0.00     0.031 C 
ATOM     65  C   UNL     1       5.424 -14.045   6.088  1.00  0.00     0.029 A 
ATOM     66  C   UNL     1       4.516 -14.615   6.984  1.00  0.00     0.049 A 
ATOM     67  H   UNL     1       4.926 -15.115   8.983  1.00  0.00     0.167 HD
ATOM     68  C   UNL     1       2.280 -15.411   7.785  1.00  0.00     0.074 A 
ATOM     69  C   UNL     1       2.346 -15.163   9.231  1.00  0.00     0.031 C 
ATOM     70  C   UNL     1       3.173 -15.131   6.787  1.00  0.00     0.031 A 
BRANCH  57  71
ATOM     71  C   UNL     1       6.497 -13.284  10.691  1.00  0.00    -0.014 A 
ATOM     72  C   UNL     1       7.215 -14.483  10.821  1.00  0.00     0.010 A 
ATOM     73  C   UNL     1       5.856 -12.800  11.855  1.00  0.00     0.010 A 
ATOM     74  C   UNL     1       7.237 -15.187  12.030  1.00  0.00     0.020 A 
ATOM     75  C   UNL     1       5.895 -13.476  13.073  1.00  0.00     0.020 A 
ATOM     76  C   UNL     1       6.569 -14.681  13.146  1.00  0.00     0.054 A 
BRANCH  76  77
ATOM     77  S   UNL     1       6.566 -15.630  14.681  1.00  0.00     0.124 S 
ATOM     78  O   UNL     1       5.841 -16.834  14.289  1.00  0.00    -0.237 OA
ATOM     79  O   UNL     1       7.994 -15.800  14.933  1.00  0.00    -0.237 OA
ATOM     80  O   UNL     1       5.871 -14.756  15.623  1.00  0.00    -0.744 OA
ENDBRANCH  76  77
ENDBRANCH  57  71
BRANCH  58  81
ATOM     81  C   UNL     1      -2.080 -14.499   9.370  1.00  0.00    -0.014 A 
ATOM     82  C   UNL     1      -2.527 -15.807   9.684  1.00  0.00     0.010 A 
ATOM     83  C   UNL     1      -2.643 -13.447  10.116  1.00  0.00     0.010 A 
ATOM     84  C   UNL     1      -3.445 -16.049  10.738  1.00  0.00     0.020 A 
ATOM     85  C   UNL     1      -3.549 -13.679  11.168  1.00  0.00     0.020 A 
ATOM     86  C   UNL     1      -3.932 -14.979  11.493  1.00  0.00     0.054 A 
BRANCH  86  87
ATOM     87  S   UNL     1      -4.960 -15.285  12.972  1.00  0.00     0.124 S 
ATOM     88  O   UNL     1      -6.209 -15.775  12.395  1.00  0.00    -0.237 OA
ATOM     89  O   UNL     1      -4.178 -16.272  13.712  1.00  0.00    -0.237 OA
ATOM     90  O   UNL     1      -5.049 -13.971  13.607  1.00  0.00    -0.744 OA
ENDBRANCH  86  87
ENDBRANCH  58  81
BRANCH  70  91
ATOM     91  C   UNL     1       2.719 -15.246   5.341  1.00  0.00    -0.014 A 
ATOM     92  C   UNL     1       1.786 -14.402   4.696  1.00  0.00     0.010 A 
ATOM     93  C   UNL     1       3.441 -16.157   4.553  1.00  0.00     0.010 A 
ATOM     94  C   UNL     1       1.579 -14.493   3.303  1.00  0.00     0.020 A 
ATOM     95  C   UNL     1       3.256 -16.236   3.173  1.00  0.00     0.020 A 
ATOM     96  C   UNL     1       2.318 -15.415   2.552  1.00  0.00     0.054 A 
BRANCH  96  97
ATOM     97  S   UNL     1       2.084 -15.529   0.753  1.00  0.00     0.124 S 
ATOM     98  O   UNL     1       0.729 -16.061   0.643  1.00  0.00    -0.237 OA
ATOM     99  O   UNL     1       2.254 -14.146   0.314  1.00  0.00    -0.237 OA
ATOM    100  O   UNL     1       3.143 -16.441   0.322  1.00  0.00    -0.744 OA
ENDBRANCH  96  97
ENDBRANCH  70  91
ENDBRANCH  44  45
ENDBRANCH  37  39
ENDBRANCH  36  37
ENDBRANCH  35  36
ENDBRANCH  34  35
ENDBRANCH  33  34
ENDBRANCH   1  33
TORSDOF 23
