REMARK SMILES CC(C)(C)OC(=O)N[C@H](c1ccccc1)[C@@H](O)CC(=O)OCCOCCOCCOC(=O)c1ccc(-c2c3nc(c(-c4ccc(S(=O)(=O)[O-])cc4)c4ccc([nH]4)c(-c4ccc(S(=O)(=O)[O-])cc4)c4nc(c(-c5ccc(S(=O)(=O)[O-])cc5)c5ccc2[nH]5)C=C4)C=C3)cc1
REMARK SMILES IDX 25 1 24 2 23 3 22 4 21 5 19 6 20 7 18 8 16 9 9 10 8 11 6 12
REMARK SMILES IDX 7 13 5 15 2 16 1 17 3 18 4 19 10 20 11 21 15 22 12 23 14 24
REMARK SMILES IDX 13 25 17 26 26 28 27 29 28 30 29 31 30 32 31 33 32 34 33 35
REMARK SMILES IDX 34 36 92 37 35 38 91 39 36 40 37 41 38 42 85 43 39 44 90 45
REMARK SMILES IDX 84 46 86 47 40 48 89 49 83 50 82 51 41 53 71 54 52 55 70 56
REMARK SMILES IDX 53 57 56 58 69 59 87 60 54 61 55 62 68 64 88 65 57 66 42 67
REMARK SMILES IDX 43 68 51 69 44 70 50 71 45 72 46 73 47 74 48 75 49 76 72 77
REMARK SMILES IDX 73 78 81 79 74 80 80 81 75 82 76 83 77 84 78 85 79 86 58 87
REMARK SMILES IDX 59 88 67 89 60 90 66 91 61 92 62 93 63 94 64 95 65 96
REMARK H PARENT 8 14 17 27 86 52 56 63
REMARK Flexibility Score: inf
ROOT
ATOM      1  C   UNL     1       4.078   2.226  -8.717  1.00  0.00     0.188 C 
ENDROOT
BRANCH   1   2
ATOM      2  O   UNL     1       5.493   2.104  -8.796  1.00  0.00    -0.376 OA
BRANCH   2   3
ATOM      3  C   UNL     1       6.130   1.470  -7.683  1.00  0.00     0.202 C 
BRANCH   3   4
ATOM      4  C   UNL     1       5.840   2.117  -6.324  1.00  0.00     0.261 C 
BRANCH   4   5
ATOM      5  O   UNL     1       4.449   1.970  -5.949  1.00  0.00    -0.463 OA
BRANCH   5   6
ATOM      6  C   UNL     1       3.898   3.001  -5.272  1.00  0.00     0.308 C 
ATOM      7  O   UNL     1       4.518   4.006  -4.939  1.00  0.00    -0.252 OA
BRANCH   6   8
ATOM      8  C   UNL     1       2.409   2.886  -5.018  1.00  0.00     0.157 C 
BRANCH   8   9
ATOM      9  C   UNL     1       1.593   1.598  -5.216  1.00  0.00     0.152 C 
BRANCH   9  10
ATOM     10  C   UNL     1       2.061   0.364  -4.378  1.00  0.00     0.145 C 
BRANCH  10  11
ATOM     11  N   UNL     1       3.324  -0.128  -4.902  1.00  0.00    -0.312 N 
ATOM     12  C   UNL     1       4.411  -0.570  -4.233  1.00  0.00     0.408 C 
ATOM     13  O   UNL     1       5.388  -0.989  -4.847  1.00  0.00    -0.225 OA
ATOM     14  H   UNL     1       3.398  -0.141  -5.883  1.00  0.00     0.167 HD
BRANCH  12  15
ATOM     15  O   UNL     1       4.308  -0.450  -2.892  1.00  0.00    -0.444 OA
BRANCH  15  16
ATOM     16  C   UNL     1       5.466  -0.735  -2.070  1.00  0.00     0.106 C 
ATOM     17  C   UNL     1       4.994  -0.535  -0.623  1.00  0.00     0.056 C 
ATOM     18  C   UNL     1       6.591   0.269  -2.360  1.00  0.00     0.056 C 
ATOM     19  C   UNL     1       5.931  -2.188  -2.232  1.00  0.00     0.056 C 
ENDBRANCH  15  16
ENDBRANCH  12  15
ENDBRANCH  10  11
BRANCH  10  20
ATOM     20  C   UNL     1       1.038  -0.786  -4.370  1.00  0.00    -0.023 A 
ATOM     21  C   UNL     1      -0.065  -0.762  -3.500  1.00  0.00     0.006 A 
ATOM     22  C   UNL     1       1.175  -1.905  -5.209  1.00  0.00     0.006 A 
ATOM     23  C   UNL     1      -0.983  -1.820  -3.471  1.00  0.00     0.000 A 
ATOM     24  C   UNL     1       0.272  -2.969  -5.171  1.00  0.00     0.000 A 
ATOM     25  C   UNL     1      -0.809  -2.927  -4.300  1.00  0.00     0.000 A 
ENDBRANCH  10  20
ENDBRANCH   9  10
BRANCH   9  26
ATOM     26  O   UNL     1       0.246   1.980  -4.854  1.00  0.00    -0.390 OA
ATOM     27  H   UNL     1       0.231   2.278  -3.931  1.00  0.00     0.211 HD
ENDBRANCH   9  26
ENDBRANCH   8   9
ENDBRANCH   6   8
ENDBRANCH   5   6
ENDBRANCH   4   5
ENDBRANCH   3   4
ENDBRANCH   2   3
ENDBRANCH   1   2
BRANCH   1  28
ATOM     28  C   UNL     1       3.334   0.895  -8.785  1.00  0.00     0.188 C 
BRANCH  28  29
ATOM     29  O   UNL     1       3.732  -0.117  -7.880  1.00  0.00    -0.376 OA
BRANCH  29  30
ATOM     30  C   UNL     1       3.776  -1.475  -8.333  1.00  0.00     0.202 C 
BRANCH  30  31
ATOM     31  C   UNL     1       3.570  -1.954  -9.794  1.00  0.00     0.261 C 
BRANCH  31  32
ATOM     32  O   UNL     1       2.730  -1.200 -10.681  1.00  0.00    -0.460 OA
BRANCH  32  33
ATOM     33  C   UNL     1       1.452  -0.947 -10.314  1.00  0.00     0.338 C 
ATOM     34  O   UNL     1       0.855  -1.475  -9.394  1.00  0.00    -0.246 OA
BRANCH  33  35
ATOM     35  C   UNL     1       1.026   0.303 -11.021  1.00  0.00     0.060 A 
ATOM     36  C   UNL     1       0.310   1.263 -10.289  1.00  0.00     0.016 A 
ATOM     37  C   UNL     1       1.446   0.609 -12.321  1.00  0.00     0.016 A 
ATOM     38  C   UNL     1       0.034   2.522 -10.837  1.00  0.00     0.010 A 
ATOM     39  C   UNL     1       1.141   1.858 -12.881  1.00  0.00     0.010 A 
ATOM     40  C   UNL     1       0.427   2.822 -12.147  1.00  0.00    -0.014 A 
BRANCH  40  41
ATOM     41  C   UNL     1      -0.025   4.075 -12.812  1.00  0.00     0.031 A 
ATOM     42  C   UNL     1      -1.220   4.009 -13.725  1.00  0.00     0.074 A 
ATOM     43  C   UNL     1       0.614   5.248 -12.637  1.00  0.00     0.049 A 
ATOM     44  N   UNL     1      -1.726   4.933 -14.500  1.00  0.00    -0.248 NA
ATOM     45  C   UNL     1      -1.938   2.724 -13.770  1.00  0.00     0.031 C 
ATOM     46  C   UNL     1       1.749   5.473 -11.743  1.00  0.00     0.029 A 
ATOM     47  N   UNL     1       0.406   6.474 -13.227  1.00  0.00    -0.354 N 
ATOM     48  C   UNL     1      -2.807   4.338 -15.140  1.00  0.00     0.074 A 
ATOM     49  C   UNL     1      -2.876   2.970 -14.673  1.00  0.00     0.031 C 
ATOM     50  C   UNL     1       2.151   6.752 -11.862  1.00  0.00     0.029 A 
ATOM     51  C   UNL     1       1.336   7.425 -12.874  1.00  0.00     0.049 A 
ATOM     52  H   UNL     1      -0.340   6.654 -13.845  1.00  0.00     0.167 HD
ATOM     53  C   UNL     1      -3.663   4.878 -16.040  1.00  0.00     0.031 A 
ATOM     54  C   UNL     1       1.536   8.677 -13.339  1.00  0.00     0.031 A 
ATOM     55  C   UNL     1      -3.587   6.234 -16.517  1.00  0.00     0.049 A 
ATOM     56  C   UNL     1       0.630   9.226 -14.416  1.00  0.00     0.074 A 
ATOM     57  C   UNL     1      -4.430   6.877 -17.407  1.00  0.00     0.029 A 
ATOM     58  N   UNL     1      -2.608   7.148 -16.163  1.00  0.00    -0.354 N 
ATOM     59  N   UNL     1      -0.413   8.666 -14.981  1.00  0.00    -0.248 NA
ATOM     60  C   UNL     1       0.933  10.574 -14.924  1.00  0.00     0.031 C 
ATOM     61  C   UNL     1      -3.917   8.154 -17.650  1.00  0.00     0.029 A 
ATOM     62  C   UNL     1      -2.796   8.333 -16.855  1.00  0.00     0.049 A 
ATOM     63  H   UNL     1      -1.886   6.981 -15.514  1.00  0.00     0.167 HD
ATOM     64  C   UNL     1      -0.897   9.599 -15.896  1.00  0.00     0.074 A 
ATOM     65  C   UNL     1      -0.050  10.767 -15.792  1.00  0.00     0.031 C 
ATOM     66  C   UNL     1      -1.946   9.492 -16.750  1.00  0.00     0.031 A 
BRANCH  53  67
ATOM     67  C   UNL     1      -4.733   3.987 -16.613  1.00  0.00    -0.014 A 
ATOM     68  C   UNL     1      -5.827   3.562 -15.838  1.00  0.00     0.010 A 
ATOM     69  C   UNL     1      -4.671   3.619 -17.970  1.00  0.00     0.010 A 
ATOM     70  C   UNL     1      -6.823   2.761 -16.404  1.00  0.00     0.020 A 
ATOM     71  C   UNL     1      -5.680   2.844 -18.547  1.00  0.00     0.020 A 
ATOM     72  C   UNL     1      -6.744   2.409 -17.755  1.00  0.00     0.054 A 
BRANCH  72  73
ATOM     73  S   UNL     1      -8.072   1.400 -18.469  1.00  0.00     0.124 S 
ATOM     74  O   UNL     1      -7.847   0.108 -17.826  1.00  0.00    -0.237 OA
ATOM     75  O   UNL     1      -9.275   2.111 -18.044  1.00  0.00    -0.237 OA
ATOM     76  O   UNL     1      -7.804   1.436 -19.904  1.00  0.00    -0.744 OA
ENDBRANCH  72  73
ENDBRANCH  53  67
BRANCH  54  77
ATOM     77  C   UNL     1       2.684   9.490 -12.839  1.00  0.00    -0.014 A 
ATOM     78  C   UNL     1       2.470  10.667 -12.100  1.00  0.00     0.010 A 
ATOM     79  C   UNL     1       4.006   9.099 -13.125  1.00  0.00     0.010 A 
ATOM     80  C   UNL     1       3.553  11.444 -11.671  1.00  0.00     0.020 A 
ATOM     81  C   UNL     1       5.091   9.854 -12.671  1.00  0.00     0.020 A 
ATOM     82  C   UNL     1       4.857  11.029 -11.956  1.00  0.00     0.054 A 
BRANCH  82  83
ATOM     83  S   UNL     1       6.246  12.027 -11.348  1.00  0.00     0.124 S 
ATOM     84  O   UNL     1       6.167  13.210 -12.199  1.00  0.00    -0.237 OA
ATOM     85  O   UNL     1       5.895  12.232  -9.945  1.00  0.00    -0.237 OA
ATOM     86  O   UNL     1       7.409  11.171 -11.574  1.00  0.00    -0.744 OA
ENDBRANCH  82  83
ENDBRANCH  54  77
BRANCH  66  87
ATOM     87  C   UNL     1      -2.256  10.669 -17.641  1.00  0.00    -0.014 A 
ATOM     88  C   UNL     1      -1.425  10.997 -18.727  1.00  0.00     0.010 A 
ATOM     89  C   UNL     1      -3.442  11.403 -17.444  1.00  0.00     0.010 A 
ATOM     90  C   UNL     1      -1.765  12.044 -19.589  1.00  0.00     0.020 A 
ATOM     91  C   UNL     1      -3.800  12.431 -18.321  1.00  0.00     0.020 A 
ATOM     92  C   UNL     1      -2.954  12.750 -19.385  1.00  0.00     0.054 A 
BRANCH  92  93
ATOM     93  S   UNL     1      -3.405  14.055 -20.562  1.00  0.00     0.124 S 
ATOM     94  O   UNL     1      -2.421  15.091 -20.262  1.00  0.00    -0.237 OA
ATOM     95  O   UNL     1      -3.243  13.390 -21.853  1.00  0.00    -0.237 OA
ATOM     96  O   UNL     1      -4.784  14.384 -20.206  1.00  0.00    -0.744 OA
ENDBRANCH  92  93
ENDBRANCH  66  87
ENDBRANCH  40  41
ENDBRANCH  33  35
ENDBRANCH  32  33
ENDBRANCH  31  32
ENDBRANCH  30  31
ENDBRANCH  29  30
ENDBRANCH  28  29
ENDBRANCH   1  28
TORSDOF 27
