REMARK SMILES O=C(CCn1cc(/C=C\C(=O)c2ccc(F)cc2)c(-c2cccc(Cl)c2)n1)OCCOCCOCCOC(=O)c1ccc(-c2c3nc(c(-c4ccc(S(=O)(=O)[O-])cc4)c4ccc([nH]4)c(-c4ccc(S(=O)(=O)[O-])cc4)c4nc(c(-c5ccc(S(=O)(=O)[O-])cc5)c5ccc2[nH]5)C=C4)C=C3)cc1
REMARK SMILES IDX 32 1 31 2 30 3 29 4 28 5 2 6 1 7 3 8 4 9 5 10 6 11 27 12
REMARK SMILES IDX 7 13 19 14 8 15 9 16 10 17 11 18 12 19 13 20 18 21 14 22
REMARK SMILES IDX 17 23 15 24 16 25 20 26 21 27 26 28 22 29 24 30 23 31 25 32
REMARK SMILES IDX 33 33 34 34 35 35 36 36 37 37 38 38 39 39 40 40 41 41 99 42
REMARK SMILES IDX 42 43 98 44 43 45 44 46 45 47 92 48 46 49 97 50 91 51 93 52
REMARK SMILES IDX 47 53 96 54 90 55 89 56 48 58 78 59 59 60 77 61 60 62 63 63
REMARK SMILES IDX 76 64 94 65 61 66 62 67 75 69 95 70 64 71 49 72 50 73 58 74
REMARK SMILES IDX 51 75 57 76 52 77 53 78 54 79 55 80 56 81 79 82 80 83 88 84
REMARK SMILES IDX 81 85 87 86 82 87 83 88 84 89 85 90 86 91 65 92 66 93 74 94
REMARK SMILES IDX 67 95 73 96 68 97 69 98 70 99 71 100 72 101
REMARK H PARENT 93 57 63 68
REMARK Flexibility Score: inf
ROOT
ATOM      1  C   UNL     1       1.483  -1.839  -1.165  1.00  0.00     0.188 C 
ENDROOT
BRANCH   1   2
ATOM      2  O   UNL     1       2.840  -1.589  -1.420  1.00  0.00    -0.376 OA
BRANCH   2   3
ATOM      3  C   UNL     1       3.662  -1.132  -0.365  1.00  0.00     0.202 C 
BRANCH   3   4
ATOM      4  C   UNL     1       3.115  -0.281   0.803  1.00  0.00     0.261 C 
BRANCH   4   5
ATOM      5  O   UNL     1       1.962   0.535   0.581  1.00  0.00    -0.463 OA
BRANCH   5   6
ATOM      6  C   UNL     1       1.872   1.539  -0.305  1.00  0.00     0.307 C 
ATOM      7  O   UNL     1       0.891   2.282  -0.271  1.00  0.00    -0.252 OA
BRANCH   6   8
ATOM      8  C   UNL     1       2.910   1.699  -1.380  1.00  0.00     0.146 C 
BRANCH   8   9
ATOM      9  C   UNL     1       4.103   2.600  -1.074  1.00  0.00     0.156 C 
BRANCH   9  10
ATOM     10  N   UNL     1       5.086   2.192  -0.081  1.00  0.00    -0.271 N 
ATOM     11  C   UNL     1       5.667   2.986   0.869  1.00  0.00     0.117 A 
ATOM     12  N   UNL     1       5.609   0.955  -0.083  1.00  0.00    -0.172 NA
ATOM     13  C   UNL     1       6.488   2.165   1.623  1.00  0.00     0.021 A 
ATOM     14  C   UNL     1       6.309   0.851   1.059  1.00  0.00     0.100 A 
BRANCH  13  15
ATOM     15  C   UNL     1       7.281   2.648   2.720  1.00  0.00     0.016 C 
ATOM     16  C   UNL     1       8.188   2.074   3.540  1.00  0.00     0.053 C 
BRANCH  16  17
ATOM     17  C   UNL     1       8.785   0.692   3.748  1.00  0.00     0.185 C 
ATOM     18  O   UNL     1       9.643   0.541   4.610  1.00  0.00    -0.289 OA
BRANCH  17  19
ATOM     19  C   UNL     1       8.346  -0.440   2.816  1.00  0.00     0.022 A 
ATOM     20  C   UNL     1       8.798   0.211   1.171  1.00  0.00     0.015 A 
ATOM     21  C   UNL     1       7.074  -2.025   2.831  1.00  0.00     0.015 A 
ATOM     22  C   UNL     1       8.036  -0.507  -0.265  1.00  0.00     0.040 A 
ATOM     23  C   UNL     1       6.425  -2.633   1.296  1.00  0.00     0.040 A 
ATOM     24  C   UNL     1       6.898  -1.853  -0.172  1.00  0.00     0.123 A 
ATOM     25  F   UNL     1       6.422  -2.365  -1.317  1.00  0.00    -0.207 F 
ENDBRANCH  17  19
ENDBRANCH  16  17
ENDBRANCH  13  15
BRANCH  14  26
ATOM     26  C   UNL     1       6.791  -0.497   1.731  1.00  0.00     0.004 A 
ATOM     27  C   UNL     1       8.356  -1.782   1.491  1.00  0.00     0.010 A 
ATOM     28  C   UNL     1       6.244  -0.230   3.455  1.00  0.00     0.031 A 
ATOM     29  C   UNL     1       9.144  -2.488   2.938  1.00  0.00     0.002 A 
ATOM     30  C   UNL     1       7.141  -0.995   4.767  1.00  0.00     0.041 A 
ATOM     31  C   UNL     1       8.526  -2.063   4.510  1.00  0.00     0.020 A 
ATOM     32  Cl  UNL     1       6.557  -0.815   6.381  1.00  0.00    -0.084 Cl
ENDBRANCH  14  26
ENDBRANCH   9  10
ENDBRANCH   8   9
ENDBRANCH   6   8
ENDBRANCH   5   6
ENDBRANCH   4   5
ENDBRANCH   3   4
ENDBRANCH   2   3
ENDBRANCH   1   2
BRANCH   1  33
ATOM     33  C   UNL     1       1.135  -2.940  -0.162  1.00  0.00     0.188 C 
BRANCH  33  34
ATOM     34  O   UNL     1       1.791  -2.917   1.090  1.00  0.00    -0.376 OA
BRANCH  34  35
ATOM     35  C   UNL     1       2.946  -3.706   1.372  1.00  0.00     0.202 C 
BRANCH  35  36
ATOM     36  C   UNL     1       3.582  -4.726   0.422  1.00  0.00     0.261 C 
BRANCH  36  37
ATOM     37  O   UNL     1       3.660  -4.343  -0.942  1.00  0.00    -0.460 OA
BRANCH  37  38
ATOM     38  C   UNL     1       2.825  -5.088  -1.696  1.00  0.00     0.338 C 
ATOM     39  O   UNL     1       1.983  -5.872  -1.273  1.00  0.00    -0.246 OA
BRANCH  38  40
ATOM     40  C   UNL     1       3.085  -4.967  -3.132  1.00  0.00     0.060 A 
ATOM     41  C   UNL     1       2.053  -5.507  -3.893  1.00  0.00     0.016 A 
ATOM     42  C   UNL     1       4.415  -5.083  -3.533  1.00  0.00     0.016 A 
ATOM     43  C   UNL     1       2.376  -6.568  -4.716  1.00  0.00     0.010 A 
ATOM     44  C   UNL     1       4.721  -6.038  -4.484  1.00  0.00     0.010 A 
ATOM     45  C   UNL     1       3.728  -6.920  -4.914  1.00  0.00    -0.014 A 
BRANCH  45  46
ATOM     46  C   UNL     1       4.074  -7.927  -5.930  1.00  0.00     0.031 A 
ATOM     47  C   UNL     1       3.670  -7.308  -7.231  1.00  0.00     0.074 A 
ATOM     48  C   UNL     1       4.666  -9.148  -5.759  1.00  0.00     0.049 A 
ATOM     49  N   UNL     1       2.493  -7.440  -7.753  1.00  0.00    -0.248 NA
ATOM     50  C   UNL     1       4.393  -6.131  -7.767  1.00  0.00     0.031 C 
ATOM     51  C   UNL     1       5.174  -9.810  -4.547  1.00  0.00     0.029 A 
ATOM     52  N   UNL     1       4.956 -10.111  -6.713  1.00  0.00    -0.354 N 
ATOM     53  C   UNL     1       2.517  -6.672  -8.906  1.00  0.00     0.074 A 
ATOM     54  C   UNL     1       3.539  -5.689  -8.697  1.00  0.00     0.031 C 
ATOM     55  C   UNL     1       5.928 -10.901  -4.872  1.00  0.00     0.029 A 
ATOM     56  C   UNL     1       5.854 -11.138  -6.304  1.00  0.00     0.049 A 
ATOM     57  H   UNL     1       4.566 -10.087  -7.616  1.00  0.00     0.167 HD
ATOM     58  C   UNL     1       2.018  -7.212 -10.051  1.00  0.00     0.031 A 
ATOM     59  C   UNL     1       6.389 -12.158  -7.069  1.00  0.00     0.031 A 
ATOM     60  C   UNL     1       1.198  -8.359  -9.730  1.00  0.00     0.049 A 
ATOM     61  C   UNL     1       5.485 -12.319  -8.237  1.00  0.00     0.074 A 
ATOM     62  C   UNL     1       0.058  -8.576  -8.983  1.00  0.00     0.029 A 
ATOM     63  N   UNL     1       1.864  -9.557  -9.800  1.00  0.00    -0.354 N 
ATOM     64  N   UNL     1       4.264 -12.758  -8.103  1.00  0.00    -0.248 NA
ATOM     65  C   UNL     1       5.737 -11.431  -9.359  1.00  0.00     0.031 C 
ATOM     66  C   UNL     1       0.289  -9.808  -8.303  1.00  0.00     0.029 A 
ATOM     67  C   UNL     1       1.470 -10.375  -8.782  1.00  0.00     0.049 A 
ATOM     68  H   UNL     1       2.530  -9.792 -10.485  1.00  0.00     0.167 HD
ATOM     69  C   UNL     1       3.504 -11.817  -8.776  1.00  0.00     0.074 A 
ATOM     70  C   UNL     1       4.477 -11.022  -9.542  1.00  0.00     0.031 C 
ATOM     71  C   UNL     1       2.224 -11.542  -8.384  1.00  0.00     0.031 A 
BRANCH  58  72
ATOM     72  C   UNL     1       2.729  -7.107 -11.384  1.00  0.00    -0.014 A 
ATOM     73  C   UNL     1       2.172  -7.808 -12.473  1.00  0.00     0.010 A 
ATOM     74  C   UNL     1       4.038  -6.605 -11.555  1.00  0.00     0.010 A 
ATOM     75  C   UNL     1       2.893  -8.023 -13.652  1.00  0.00     0.020 A 
ATOM     76  C   UNL     1       4.755  -6.786 -12.742  1.00  0.00     0.020 A 
ATOM     77  C   UNL     1       4.177  -7.500 -13.783  1.00  0.00     0.054 A 
BRANCH  77  78
ATOM     78  S   UNL     1       5.066  -7.751 -15.338  1.00  0.00     0.124 S 
ATOM     79  O   UNL     1       5.220  -9.201 -15.374  1.00  0.00    -0.237 OA
ATOM     80  O   UNL     1       4.132  -7.188 -16.310  1.00  0.00    -0.237 OA
ATOM     81  O   UNL     1       6.299  -6.989 -15.155  1.00  0.00    -0.744 OA
ENDBRANCH  77  78
ENDBRANCH  58  72
BRANCH  59  82
ATOM     82  C   UNL     1       7.795 -12.718  -7.150  1.00  0.00    -0.014 A 
ATOM     83  C   UNL     1       8.166 -13.817  -7.981  1.00  0.00     0.010 A 
ATOM     84  C   UNL     1       8.852 -11.937  -6.659  1.00  0.00     0.010 A 
ATOM     85  C   UNL     1       9.521 -14.069  -8.343  1.00  0.00     0.020 A 
ATOM     86  C   UNL     1      10.192 -12.174  -7.021  1.00  0.00     0.020 A 
ATOM     87  C   UNL     1      10.527 -13.220  -7.879  1.00  0.00     0.054 A 
BRANCH  87  88
ATOM     88  S   UNL     1      12.250 -13.377  -8.479  1.00  0.00     0.124 S 
ATOM     89  O   UNL     1      12.691 -14.629  -7.870  1.00  0.00    -0.237 OA
ATOM     90  O   UNL     1      12.092 -13.404  -9.930  1.00  0.00    -0.237 OA
ATOM     91  O   UNL     1      12.904 -12.177  -7.956  1.00  0.00    -0.744 OA
ENDBRANCH  87  88
ENDBRANCH  59  82
BRANCH  71  92
ATOM     92  C   UNL     1       1.528 -12.483  -7.430  1.00  0.00    -0.014 A 
ATOM     93  C   UNL     1       1.869 -12.715  -6.080  1.00  0.00     0.010 A 
ATOM     94  C   UNL     1       0.348 -13.056  -7.930  1.00  0.00     0.010 A 
ATOM     95  C   UNL     1       1.058 -13.542  -5.277  1.00  0.00     0.020 A 
ATOM     96  C   UNL     1      -0.468 -13.852  -7.136  1.00  0.00     0.020 A 
ATOM     97  C   UNL     1      -0.100 -14.114  -5.820  1.00  0.00     0.054 A 
BRANCH  97  98
ATOM     98  S   UNL     1      -1.136 -15.220  -4.820  1.00  0.00     0.124 S 
ATOM     99  O   UNL     1      -0.255 -16.363  -4.599  1.00  0.00    -0.237 OA
ATOM    100  O   UNL     1      -1.431 -14.412  -3.640  1.00  0.00    -0.237 OA
ATOM    101  O   UNL     1      -2.289 -15.488  -5.680  1.00  0.00    -0.744 OA
ENDBRANCH  97  98
ENDBRANCH  71  92
ENDBRANCH  45  46
ENDBRANCH  38  40
ENDBRANCH  37  38
ENDBRANCH  36  37
ENDBRANCH  35  36
ENDBRANCH  34  35
ENDBRANCH  33  34
ENDBRANCH   1  33
TORSDOF 26
