REMARK SMILES CCOc1ccc(-c2nc(C(=O)OCCOCCOCCOC(=O)c3ccc(-c4c5nc(c(-c6ccc(S(=O)(=O)[O-])cc6)c6ccc([nH]6)c(-c6ccc(S(=O)(=O)[O-])cc6)c6nc(c(-c7ccc(S(=O)(=O)[O-])cc7)c7ccc4[nH]7)C=C6)C=C5)cc3)cc(=O)[nH]2)cc1
REMARK SMILES IDX 17 1 16 2 15 3 14 4 13 5 11 6 12 7 10 8 8 9 9 10 88 11 86 12
REMARK SMILES IDX 85 14 87 15 7 16 4 17 5 18 90 19 6 20 89 21 3 22 2 23 1 24
REMARK SMILES IDX 18 25 19 26 20 27 21 28 22 29 23 30 24 31 25 32 26 33 84 34
REMARK SMILES IDX 27 35 83 36 28 37 29 38 30 39 77 40 31 41 82 42 76 43 78 44
REMARK SMILES IDX 32 45 81 46 75 47 74 48 33 50 63 51 44 52 62 53 45 54 48 55
REMARK SMILES IDX 61 56 79 57 46 58 47 59 60 61 80 62 49 63 34 64 35 65 43 66
REMARK SMILES IDX 36 67 42 68 37 69 38 70 39 71 40 72 41 73 64 74 65 75 73 76
REMARK SMILES IDX 66 77 72 78 67 79 68 80 69 81 70 82 71 83 50 84 51 85 59 86
REMARK SMILES IDX 52 87 58 88 53 89 54 90 55 91 56 92 57 93
REMARK H PARENT 88 13 78 49 48 60
REMARK Flexibility Score: inf
ROOT
ATOM      1  C   UNL     1       9.154   4.109   0.554  1.00  0.00     0.188 C 
ENDROOT
BRANCH   1   2
ATOM      2  O   UNL     1       9.889   5.314   0.441  1.00  0.00    -0.376 OA
BRANCH   2   3
ATOM      3  C   UNL     1      10.867   5.646   1.414  1.00  0.00     0.202 C 
BRANCH   3   4
ATOM      4  C   UNL     1      10.628   5.409   2.910  1.00  0.00     0.261 C 
BRANCH   4   5
ATOM      5  O   UNL     1      10.167   4.089   3.222  1.00  0.00    -0.459 OA
BRANCH   5   6
ATOM      6  C   UNL     1       9.032   4.037   3.974  1.00  0.00     0.357 C 
ATOM      7  O   UNL     1       8.482   4.988   4.509  1.00  0.00    -0.244 OA
BRANCH   6   8
ATOM      8  C   UNL     1       8.466   2.651   3.956  1.00  0.00     0.156 A 
ATOM      9  C   UNL     1       6.656   1.305   3.626  1.00  0.00     0.141 A 
ATOM     10  N   UNL     1       7.148   2.498   3.583  1.00  0.00    -0.223 NA
ATOM     11  N   UNL     1       7.388   0.207   3.994  1.00  0.00    -0.306 N 
ATOM     12  C   UNL     1       8.708   0.295   4.325  1.00  0.00     0.251 A 
ATOM     13  H   UNL     1       6.948  -0.673   4.021  1.00  0.00     0.171 HD
ATOM     14  C   UNL     1       9.279   1.647   4.307  1.00  0.00     0.107 A 
ATOM     15  O   UNL     1       9.388  -0.679   4.624  1.00  0.00    -0.269 OA
BRANCH   9  16
ATOM     16  C   UNL     1       5.257   1.046   3.244  1.00  0.00     0.018 A 
ATOM     17  C   UNL     1       2.600   0.672   2.508  1.00  0.00     0.119 A 
ATOM     18  C   UNL     1       2.989   0.479   3.836  1.00  0.00     0.047 A 
ATOM     19  C   UNL     1       3.533   1.076   1.554  1.00  0.00     0.047 A 
ATOM     20  C   UNL     1       4.325   0.653   4.208  1.00  0.00     0.016 A 
ATOM     21  C   UNL     1       4.867   1.262   1.921  1.00  0.00     0.016 A 
BRANCH  17  22
ATOM     22  O   UNL     1       1.265   0.621   2.224  1.00  0.00    -0.494 OA
BRANCH  22  23
ATOM     23  C   UNL     1       0.887  -0.453   1.356  1.00  0.00     0.226 C 
ATOM     24  C   UNL     1       0.841  -0.024  -0.102  1.00  0.00     0.049 C 
ENDBRANCH  22  23
ENDBRANCH  17  22
ENDBRANCH   9  16
ENDBRANCH   6   8
ENDBRANCH   5   6
ENDBRANCH   4   5
ENDBRANCH   3   4
ENDBRANCH   2   3
ENDBRANCH   1   2
BRANCH   1  25
ATOM     25  C   UNL     1       9.889   2.752   0.556  1.00  0.00     0.188 C 
BRANCH  25  26
ATOM     26  O   UNL     1      11.299   2.703   0.554  1.00  0.00    -0.376 OA
BRANCH  26  27
ATOM     27  C   UNL     1      12.044   3.123  -0.577  1.00  0.00     0.202 C 
BRANCH  27  28
ATOM     28  C   UNL     1      11.534   3.127  -2.026  1.00  0.00     0.261 C 
BRANCH  28  29
ATOM     29  O   UNL     1      10.133   3.314  -2.228  1.00  0.00    -0.460 OA
BRANCH  29  30
ATOM     30  C   UNL     1       9.474   2.223  -2.683  1.00  0.00     0.338 C 
ATOM     31  O   UNL     1       9.940   1.109  -2.896  1.00  0.00    -0.246 OA
BRANCH  30  32
ATOM     32  C   UNL     1       8.034   2.510  -2.729  1.00  0.00     0.060 A 
ATOM     33  C   UNL     1       7.189   1.796  -1.871  1.00  0.00     0.016 A 
ATOM     34  C   UNL     1       7.516   3.430  -3.642  1.00  0.00     0.016 A 
ATOM     35  C   UNL     1       5.812   1.992  -1.937  1.00  0.00     0.010 A 
ATOM     36  C   UNL     1       6.133   3.611  -3.716  1.00  0.00     0.010 A 
ATOM     37  C   UNL     1       5.274   2.878  -2.878  1.00  0.00    -0.014 A 
BRANCH  37  38
ATOM     38  C   UNL     1       3.809   2.906  -3.091  1.00  0.00     0.031 A 
ATOM     39  C   UNL     1       3.228   2.061  -4.190  1.00  0.00     0.074 A 
ATOM     40  C   UNL     1       3.005   3.635  -2.296  1.00  0.00     0.049 A 
ATOM     41  N   UNL     1       1.987   1.963  -4.588  1.00  0.00    -0.248 NA
ATOM     42  C   UNL     1       4.170   1.205  -4.930  1.00  0.00     0.031 C 
ATOM     43  C   UNL     1       3.442   4.443  -1.158  1.00  0.00     0.029 A 
ATOM     44  N   UNL     1       1.645   3.815  -2.335  1.00  0.00    -0.354 N 
ATOM     45  C   UNL     1       1.997   1.034  -5.622  1.00  0.00     0.074 A 
ATOM     46  C   UNL     1       3.369   0.615  -5.806  1.00  0.00     0.031 C 
ATOM     47  C   UNL     1       2.370   5.054  -0.622  1.00  0.00     0.029 A 
ATOM     48  C   UNL     1       1.181   4.709  -1.399  1.00  0.00     0.049 A 
ATOM     49  H   UNL     1       1.057   3.350  -2.973  1.00  0.00     0.167 HD
ATOM     50  C   UNL     1       0.955   0.565  -6.348  1.00  0.00     0.031 A 
ATOM     51  C   UNL     1      -0.054   5.217  -1.216  1.00  0.00     0.031 A 
ATOM     52  C   UNL     1      -0.403   1.007  -6.189  1.00  0.00     0.049 A 
ATOM     53  C   UNL     1      -1.179   4.762  -2.112  1.00  0.00     0.074 A 
ATOM     54  C   UNL     1      -1.524   0.614  -6.899  1.00  0.00     0.029 A 
ATOM     55  N   UNL     1      -0.826   1.943  -5.258  1.00  0.00    -0.354 N 
ATOM     56  N   UNL     1      -1.156   3.882  -3.086  1.00  0.00    -0.248 NA
ATOM     57  C   UNL     1      -2.501   5.364  -1.880  1.00  0.00     0.031 C 
ATOM     58  C   UNL     1      -2.618   1.348  -6.429  1.00  0.00     0.029 A 
ATOM     59  C   UNL     1      -2.188   2.152  -5.385  1.00  0.00     0.049 A 
ATOM     60  H   UNL     1      -0.244   2.393  -4.604  1.00  0.00     0.167 HD
ATOM     61  C   UNL     1      -2.462   3.806  -3.561  1.00  0.00     0.074 A 
ATOM     62  C   UNL     1      -3.253   4.715  -2.758  1.00  0.00     0.031 C 
ATOM     63  C   UNL     1      -2.964   3.052  -4.570  1.00  0.00     0.031 A 
BRANCH  50  64
ATOM     64  C   UNL     1       1.254  -0.465  -7.402  1.00  0.00    -0.014 A 
ATOM     65  C   UNL     1       1.570  -1.788  -7.048  1.00  0.00     0.010 A 
ATOM     66  C   UNL     1       1.171  -0.119  -8.763  1.00  0.00     0.010 A 
ATOM     67  C   UNL     1       1.821  -2.743  -8.036  1.00  0.00     0.020 A 
ATOM     68  C   UNL     1       1.397  -1.077  -9.755  1.00  0.00     0.020 A 
ATOM     69  C   UNL     1       1.732  -2.381  -9.384  1.00  0.00     0.054 A 
BRANCH  69  70
ATOM     70  S   UNL     1       2.024  -3.652 -10.644  1.00  0.00     0.124 S 
ATOM     71  O   UNL     1       3.468  -3.852 -10.541  1.00  0.00    -0.237 OA
ATOM     72  O   UNL     1       1.202  -4.763 -10.172  1.00  0.00    -0.237 OA
ATOM     73  O   UNL     1       1.569  -3.025 -11.882  1.00  0.00    -0.744 OA
ENDBRANCH  69  70
ENDBRANCH  50  64
BRANCH  51  74
ATOM     74  C   UNL     1      -0.293   6.261  -0.179  1.00  0.00    -0.014 A 
ATOM     75  C   UNL     1      -1.104   6.000   0.940  1.00  0.00     0.010 A 
ATOM     76  C   UNL     1       0.256   7.547  -0.337  1.00  0.00     0.010 A 
ATOM     77  C   UNL     1      -1.392   7.015   1.859  1.00  0.00     0.020 A 
ATOM     78  C   UNL     1      -0.005   8.556   0.595  1.00  0.00     0.020 A 
ATOM     79  C   UNL     1      -0.845   8.289   1.676  1.00  0.00     0.054 A 
BRANCH  79  80
ATOM     80  S   UNL     1      -1.227   9.592   2.881  1.00  0.00     0.124 S 
ATOM     81  O   UNL     1      -2.602   9.933   2.531  1.00  0.00    -0.237 OA
ATOM     82  O   UNL     1      -1.051   8.906   4.158  1.00  0.00    -0.237 OA
ATOM     83  O   UNL     1      -0.233  10.624   2.594  1.00  0.00    -0.744 OA
ENDBRANCH  79  80
ENDBRANCH  51  74
BRANCH  63  84
ATOM     84  C   UNL     1      -4.445   3.132  -4.835  1.00  0.00    -0.014 A 
ATOM     85  C   UNL     1      -5.021   4.265  -5.436  1.00  0.00     0.010 A 
ATOM     86  C   UNL     1      -5.261   2.026  -4.535  1.00  0.00     0.010 A 
ATOM     87  C   UNL     1      -6.393   4.301  -5.704  1.00  0.00     0.020 A 
ATOM     88  C   UNL     1      -6.627   2.047  -4.827  1.00  0.00     0.020 A 
ATOM     89  C   UNL     1      -7.187   3.191  -5.397  1.00  0.00     0.054 A 
BRANCH  89  90
ATOM     90  S   UNL     1      -8.956   3.243  -5.797  1.00  0.00     0.124 S 
ATOM     91  O   UNL     1      -9.474   4.141  -4.769  1.00  0.00    -0.237 OA
ATOM     92  O   UNL     1      -8.962   3.774  -7.158  1.00  0.00    -0.237 OA
ATOM     93  O   UNL     1      -9.380   1.850  -5.678  1.00  0.00    -0.744 OA
ENDBRANCH  89  90
ENDBRANCH  63  84
ENDBRANCH  37  38
ENDBRANCH  30  32
ENDBRANCH  29  30
ENDBRANCH  28  29
ENDBRANCH  27  28
ENDBRANCH  26  27
ENDBRANCH  25  26
ENDBRANCH   1  25
TORSDOF 23
