REMARK SMILES CC1(C)[C@@](C)(C(=O)Nc2ccc(Cl)cc2Cl)CC[C@]1(C)C(=O)OCCOCCOCCOC(=O)c1ccc(-c2c3nc(c(-c4ccc(S(=O)(=O)[O-])cc4)c4ccc([nH]4)c(-c4ccc(S(=O)(=O)[O-])cc4)c4nc(c(-c5ccc(S(=O)(=O)[O-])cc5)c5ccc2[nH]5)C=C4)C=C3)cc1
REMARK SMILES IDX 28 1 27 2 26 3 25 4 24 5 23 6 21 7 22 8 19 9 1 10 2 11 3 12
REMARK SMILES IDX 4 13 5 14 17 15 18 16 20 17 6 18 7 19 8 20 9 22 10 23 15 24
REMARK SMILES IDX 11 25 14 26 16 27 12 28 13 29 29 30 30 31 31 32 32 33 33 34
REMARK SMILES IDX 34 35 35 36 36 37 94 38 37 39 93 40 38 41 39 42 40 43 87 44
REMARK SMILES IDX 41 45 92 46 86 47 88 48 42 49 91 50 85 51 84 52 43 54 73 55
REMARK SMILES IDX 54 56 72 57 55 58 58 59 71 60 89 61 56 62 57 63 70 65 90 66
REMARK SMILES IDX 59 67 44 68 45 69 53 70 46 71 52 72 47 73 48 74 49 75 50 76
REMARK SMILES IDX 51 77 74 78 75 79 83 80 76 81 82 82 77 83 78 84 79 85 80 86
REMARK SMILES IDX 81 87 60 88 61 89 69 90 62 91 68 92 63 93 64 94 65 95 66 96
REMARK SMILES IDX 67 97
REMARK H PARENT 8 21 88 53 58 64
REMARK Flexibility Score: inf
ROOT
ATOM      1  C   UNL     1      -1.996   1.067   3.851  1.00  0.00     0.188 C 
ENDROOT
BRANCH   1   2
ATOM      2  C   UNL     1      -1.613   1.497   5.255  1.00  0.00     0.188 C 
BRANCH   2   3
ATOM      3  O   UNL     1      -1.092   2.806   5.459  1.00  0.00    -0.376 OA
BRANCH   3   4
ATOM      4  C   UNL     1      -0.882   3.676   4.357  1.00  0.00     0.202 C 
BRANCH   4   5
ATOM      5  C   UNL     1       0.417   3.494   3.545  1.00  0.00     0.261 C 
BRANCH   5   6
ATOM      6  O   UNL     1       0.629   2.262   2.808  1.00  0.00    -0.463 OA
BRANCH   6   7
ATOM      7  C   UNL     1       1.373   1.314   3.440  1.00  0.00     0.312 C 
ATOM      8  O   UNL     1       1.750   1.436   4.603  1.00  0.00    -0.252 OA
BRANCH   7   9
ATOM      9  C   UNL     1       1.795   0.091   2.577  1.00  0.00     0.071 C 
ATOM     10  C   UNL     1       1.645   0.574   0.069  1.00  0.00     0.013 C 
ATOM     11  C   UNL     1       1.045  -0.302   1.205  1.00  0.00    -0.005 C 
ATOM     12  C   UNL     1      -0.477  -0.052   1.260  1.00  0.00     0.013 C 
ATOM     13  C   UNL     1       1.221  -1.907   1.048  1.00  0.00     0.053 C 
ATOM     14  C   UNL     1      -0.029  -2.816   0.830  1.00  0.00     0.022 C 
ATOM     15  C   UNL     1       1.690  -2.350   2.487  1.00  0.00     0.018 C 
ATOM     16  C   UNL     1       1.575  -1.162   3.430  1.00  0.00     0.020 C 
ATOM     17  C   UNL     1       3.330   0.288   2.422  1.00  0.00     0.024 C 
BRANCH  13  18
ATOM     18  C   UNL     1       2.241  -2.330  -0.043  1.00  0.00     0.230 C 
ATOM     19  O   UNL     1       3.418  -2.559   0.266  1.00  0.00    -0.274 OA
ATOM     20  N   UNL     1       1.939  -2.543  -1.366  1.00  0.00    -0.324 N 
ATOM     21  H   UNL     1       2.662  -3.039  -1.813  1.00  0.00     0.170 HD
BRANCH  20  22
ATOM     22  C   UNL     1       0.887  -2.255  -2.276  1.00  0.00     0.060 A 
ATOM     23  C   UNL     1      -0.085  -1.279  -2.077  1.00  0.00     0.029 A 
ATOM     24  C   UNL     1       0.840  -2.930  -3.510  1.00  0.00     0.066 A 
ATOM     25  C   UNL     1      -1.077  -0.981  -3.014  1.00  0.00     0.023 A 
ATOM     26  C   UNL     1      -0.157  -2.656  -4.461  1.00  0.00     0.043 A 
ATOM     27  Cl  UNL     1       2.006  -4.147  -3.901  1.00  0.00    -0.082 Cl
ATOM     28  C   UNL     1      -1.113  -1.678  -4.206  1.00  0.00     0.042 A 
ATOM     29  Cl  UNL     1      -2.326  -1.312  -5.365  1.00  0.00    -0.084 Cl
ENDBRANCH  20  22
ENDBRANCH  13  18
ENDBRANCH   7   9
ENDBRANCH   6   7
ENDBRANCH   5   6
ENDBRANCH   4   5
ENDBRANCH   3   4
ENDBRANCH   2   3
ENDBRANCH   1   2
BRANCH   1  30
ATOM     30  O   UNL     1      -2.755   2.035   3.149  1.00  0.00    -0.376 OA
BRANCH  30  31
ATOM     31  C   UNL     1      -3.742   1.561   2.248  1.00  0.00     0.202 C 
BRANCH  31  32
ATOM     32  C   UNL     1      -5.012   1.194   3.020  1.00  0.00     0.261 C 
BRANCH  32  33
ATOM     33  O   UNL     1      -4.848   0.067   3.900  1.00  0.00    -0.460 OA
BRANCH  33  34
ATOM     34  C   UNL     1      -4.519  -1.105   3.297  1.00  0.00     0.338 C 
ATOM     35  O   UNL     1      -4.462  -1.315   2.105  1.00  0.00    -0.246 OA
BRANCH  34  36
ATOM     36  C   UNL     1      -3.989  -2.026   4.330  1.00  0.00     0.060 A 
ATOM     37  C   UNL     1      -2.792  -2.699   4.055  1.00  0.00     0.016 A 
ATOM     38  C   UNL     1      -4.641  -2.222   5.547  1.00  0.00     0.016 A 
ATOM     39  C   UNL     1      -2.280  -3.627   4.960  1.00  0.00     0.010 A 
ATOM     40  C   UNL     1      -4.131  -3.156   6.454  1.00  0.00     0.010 A 
ATOM     41  C   UNL     1      -2.976  -3.899   6.144  1.00  0.00    -0.014 A 
BRANCH  41  42
ATOM     42  C   UNL     1      -2.615  -5.090   6.955  1.00  0.00     0.031 A 
ATOM     43  C   UNL     1      -3.488  -6.315   6.854  1.00  0.00     0.074 A 
ATOM     44  C   UNL     1      -1.522  -5.105   7.739  1.00  0.00     0.049 A 
ATOM     45  N   UNL     1      -3.407  -7.448   7.503  1.00  0.00    -0.248 NA
ATOM     46  C   UNL     1      -4.605  -6.250   5.896  1.00  0.00     0.031 C 
ATOM     47  C   UNL     1      -0.565  -4.009   7.884  1.00  0.00     0.029 A 
ATOM     48  N   UNL     1      -1.037  -6.087   8.567  1.00  0.00    -0.354 N 
ATOM     49  C   UNL     1      -4.472  -8.219   7.050  1.00  0.00     0.074 A 
ATOM     50  C   UNL     1      -5.200  -7.417   6.092  1.00  0.00     0.031 C 
ATOM     51  C   UNL     1       0.391  -4.379   8.755  1.00  0.00     0.029 A 
ATOM     52  C   UNL     1       0.092  -5.718   9.260  1.00  0.00     0.049 A 
ATOM     53  H   UNL     1      -1.458  -6.973   8.657  1.00  0.00     0.167 HD
ATOM     54  C   UNL     1      -4.813  -9.483   7.395  1.00  0.00     0.031 A 
ATOM     55  C   UNL     1       0.789  -6.373  10.210  1.00  0.00     0.031 A 
ATOM     56  C   UNL     1      -4.088 -10.282   8.347  1.00  0.00     0.049 A 
ATOM     57  C   UNL     1       0.354  -7.758  10.624  1.00  0.00     0.074 A 
ATOM     58  C   UNL     1      -4.345 -11.581   8.751  1.00  0.00     0.029 A 
ATOM     59  N   UNL     1      -2.967  -9.860   9.047  1.00  0.00    -0.354 N 
ATOM     60  N   UNL     1      -0.651  -8.477  10.181  1.00  0.00    -0.248 NA
ATOM     61  C   UNL     1       1.158  -8.424  11.659  1.00  0.00     0.031 C 
ATOM     62  C   UNL     1      -3.420 -11.921   9.743  1.00  0.00     0.029 A 
ATOM     63  C   UNL     1      -2.537 -10.864   9.899  1.00  0.00     0.049 A 
ATOM     64  H   UNL     1      -2.541  -8.978   8.952  1.00  0.00     0.167 HD
ATOM     65  C   UNL     1      -0.574  -9.693  10.855  1.00  0.00     0.074 A 
ATOM     66  C   UNL     1       0.582  -9.616  11.724  1.00  0.00     0.031 C 
ATOM     67  C   UNL     1      -1.383 -10.778  10.759  1.00  0.00     0.031 A 
BRANCH  54  68
ATOM     68  C   UNL     1      -6.053 -10.069   6.770  1.00  0.00    -0.014 A 
ATOM     69  C   UNL     1      -6.099 -10.413   5.407  1.00  0.00     0.010 A 
ATOM     70  C   UNL     1      -7.178 -10.321   7.577  1.00  0.00     0.010 A 
ATOM     71  C   UNL     1      -7.259 -10.966   4.857  1.00  0.00     0.020 A 
ATOM     72  C   UNL     1      -8.328 -10.904   7.038  1.00  0.00     0.020 A 
ATOM     73  C   UNL     1      -8.366 -11.210   5.677  1.00  0.00     0.054 A 
BRANCH  73  74
ATOM     74  S   UNL     1      -9.844 -11.961   4.943  1.00  0.00     0.124 S 
ATOM     75  O   UNL     1     -10.357 -10.872   4.116  1.00  0.00    -0.237 OA
ATOM     76  O   UNL     1      -9.293 -13.099   4.211  1.00  0.00    -0.237 OA
ATOM     77  O   UNL     1     -10.669 -12.307   6.098  1.00  0.00    -0.744 OA
ENDBRANCH  73  74
ENDBRANCH  54  68
BRANCH  55  78
ATOM     78  C   UNL     1       1.962  -5.723  10.861  1.00  0.00    -0.014 A 
ATOM     79  C   UNL     1       3.264  -6.223  10.674  1.00  0.00     0.010 A 
ATOM     80  C   UNL     1       1.777  -4.603  11.693  1.00  0.00     0.010 A 
ATOM     81  C   UNL     1       4.351  -5.632  11.326  1.00  0.00     0.020 A 
ATOM     82  C   UNL     1       2.865  -3.989  12.319  1.00  0.00     0.020 A 
ATOM     83  C   UNL     1       4.145  -4.517  12.143  1.00  0.00     0.054 A 
BRANCH  83  84
ATOM     84  S   UNL     1       5.575  -3.744  12.948  1.00  0.00     0.124 S 
ATOM     85  O   UNL     1       5.924  -4.732  13.963  1.00  0.00    -0.237 OA
ATOM     86  O   UNL     1       6.522  -3.609  11.843  1.00  0.00    -0.237 OA
ATOM     87  O   UNL     1       5.041  -2.483  13.459  1.00  0.00    -0.744 OA
ENDBRANCH  83  84
ENDBRANCH  55  78
BRANCH  67  88
ATOM     88  C   UNL     1      -1.014 -11.999  11.566  1.00  0.00    -0.014 A 
ATOM     89  C   UNL     1      -1.105 -12.017  12.969  1.00  0.00     0.010 A 
ATOM     90  C   UNL     1      -0.596 -13.164  10.896  1.00  0.00     0.010 A 
ATOM     91  C   UNL     1      -0.732 -13.157  13.688  1.00  0.00     0.020 A 
ATOM     92  C   UNL     1      -0.256 -14.317  11.608  1.00  0.00     0.020 A 
ATOM     93  C   UNL     1      -0.305 -14.298  13.002  1.00  0.00     0.054 A 
BRANCH  93  94
ATOM     94  S   UNL     1       0.166 -15.768  13.956  1.00  0.00     0.124 S 
ATOM     95  O   UNL     1       1.441 -15.356  14.538  1.00  0.00    -0.237 OA
ATOM     96  O   UNL     1      -0.940 -15.905  14.900  1.00  0.00    -0.237 OA
ATOM     97  O   UNL     1       0.253 -16.823  12.949  1.00  0.00    -0.744 OA
ENDBRANCH  93  94
ENDBRANCH  67  88
ENDBRANCH  41  42
ENDBRANCH  34  36
ENDBRANCH  33  34
ENDBRANCH  32  33
ENDBRANCH  31  32
ENDBRANCH  30  31
ENDBRANCH   1  30
TORSDOF 22
