REMARK SMILES CCOc1cnc(C(=O)c2[nH]c3cc(Cl)ccc3c2CC(=O)OCCOCCOCCOC(=O)c2ccc(-c3c4nc(c(-c5ccc(S(=O)(=O)[O-])cc5)c5ccc([nH]5)c(-c5ccc(S(=O)(=O)[O-])cc5)c5nc(c(-c6ccc(S(=O)(=O)[O-])cc6)c6ccc3[nH]6)C=C5)C=C4)cc2)cc1CC
REMARK SMILES IDX 27 1 26 2 25 3 24 4 23 5 21 6 22 7 20 8 19 9 10 10 11 11
REMARK SMILES IDX 12 12 18 14 13 15 17 16 14 17 16 18 15 19 8 20 9 21 7 22
REMARK SMILES IDX 4 23 5 24 96 25 6 26 95 27 3 28 2 29 1 30 97 31 98 32 28 33
REMARK SMILES IDX 29 34 30 35 31 36 32 37 33 38 34 39 35 40 36 41 94 42 37 43
REMARK SMILES IDX 93 44 38 45 39 46 40 47 87 48 41 49 92 50 86 51 88 52 42 53
REMARK SMILES IDX 91 54 85 55 84 56 43 58 73 59 54 60 72 61 55 62 58 63 71 64
REMARK SMILES IDX 89 65 56 66 57 67 70 69 90 70 59 71 44 72 45 73 53 74 46 75
REMARK SMILES IDX 52 76 47 77 48 78 49 79 50 80 51 81 74 82 75 83 83 84 76 85
REMARK SMILES IDX 82 86 77 87 78 88 79 89 80 90 81 91 60 92 61 93 69 94 62 95
REMARK SMILES IDX 68 96 63 97 64 98 65 99 66 100 67 101
REMARK H PARENT 11 13 88 57 58 68
REMARK Flexibility Score: inf
ROOT
ATOM      1  C   UNL     1       8.443   5.677  -1.551  1.00  0.00     0.188 C 
ENDROOT
BRANCH   1   2
ATOM      2  O   UNL     1       9.584   6.515  -1.688  1.00  0.00    -0.376 OA
BRANCH   2   3
ATOM      3  C   UNL     1      10.830   5.893  -1.963  1.00  0.00     0.202 C 
BRANCH   3   4
ATOM      4  C   UNL     1      11.336   4.920  -0.897  1.00  0.00     0.261 C 
BRANCH   4   5
ATOM      5  O   UNL     1      10.534   3.717  -0.808  1.00  0.00    -0.463 OA
BRANCH   5   6
ATOM      6  C   UNL     1      10.331   3.250   0.450  1.00  0.00     0.310 C 
ATOM      7  O   UNL     1      10.850   3.758   1.443  1.00  0.00    -0.252 OA
BRANCH   6   8
ATOM      8  C   UNL     1       9.428   2.041   0.599  1.00  0.00     0.161 C 
BRANCH   8   9
ATOM      9  C   UNL     1       8.884   1.306  -0.607  1.00  0.00     0.000 A 
ATOM     10  C   UNL     1       7.585   1.368  -1.128  1.00  0.00     0.093 A 
ATOM     11  N   UNL     1       7.556   0.556  -2.239  1.00  0.00    -0.351 N 
ATOM     12  C   UNL     1       8.628  -0.297  -2.221  1.00  0.00     0.048 A 
ATOM     13  H   UNL     1       6.867   0.584  -2.942  1.00  0.00     0.167 HD
ATOM     14  C   UNL     1       9.498   0.169  -1.237  1.00  0.00     0.004 A 
ATOM     15  C   UNL     1       8.867  -1.450  -2.978  1.00  0.00     0.047 A 
ATOM     16  C   UNL     1      10.681  -0.561  -0.995  1.00  0.00     0.012 A 
ATOM     17  C   UNL     1      10.017  -2.180  -2.676  1.00  0.00     0.043 A 
ATOM     18  C   UNL     1      10.915  -1.747  -1.704  1.00  0.00     0.021 A 
ATOM     19  Cl  UNL     1      10.309  -3.664  -3.502  1.00  0.00    -0.084 Cl
BRANCH  10  20
ATOM     20  C   UNL     1       6.451   2.142  -0.654  1.00  0.00     0.227 C 
ATOM     21  O   UNL     1       6.604   3.124   0.071  1.00  0.00    -0.285 OA
BRANCH  20  22
ATOM     22  C   UNL     1       5.054   1.734  -1.026  1.00  0.00     0.113 A 
ATOM     23  C   UNL     1       2.379   1.236  -1.335  1.00  0.00     0.140 A 
ATOM     24  C   UNL     1       2.930   2.485  -1.536  1.00  0.00     0.158 A 
ATOM     25  C   UNL     1       3.243   0.157  -1.150  1.00  0.00    -0.002 A 
ATOM     26  N   UNL     1       4.248   2.746  -1.408  1.00  0.00    -0.249 NA
ATOM     27  C   UNL     1       4.606   0.421  -0.930  1.00  0.00     0.040 A 
BRANCH  23  28
ATOM     28  O   UNL     1       1.025   1.069  -1.351  1.00  0.00    -0.492 OA
BRANCH  28  29
ATOM     29  C   UNL     1       0.462   1.332  -0.048  1.00  0.00     0.226 C 
ATOM     30  C   UNL     1       0.154   0.032   0.677  1.00  0.00     0.049 C 
ENDBRANCH  28  29
ENDBRANCH  23  28
BRANCH  25  31
ATOM     31  C   UNL     1       2.749  -1.262  -1.268  1.00  0.00     0.036 C 
ATOM     32  C   UNL     1       3.169  -1.850  -2.609  1.00  0.00     0.009 C 
ENDBRANCH  25  31
ENDBRANCH  20  22
ENDBRANCH  10  20
ENDBRANCH   8   9
ENDBRANCH   6   8
ENDBRANCH   5   6
ENDBRANCH   4   5
ENDBRANCH   3   4
ENDBRANCH   2   3
ENDBRANCH   1   2
BRANCH   1  33
ATOM     33  C   UNL     1       8.233   4.545  -2.578  1.00  0.00     0.188 C 
BRANCH  33  34
ATOM     34  O   UNL     1       8.751   4.700  -3.895  1.00  0.00    -0.376 OA
BRANCH  34  35
ATOM     35  C   UNL     1       8.405   5.893  -4.588  1.00  0.00     0.202 C 
BRANCH  35  36
ATOM     36  C   UNL     1       6.910   6.060  -4.837  1.00  0.00     0.261 C 
BRANCH  36  37
ATOM     37  O   UNL     1       6.221   6.383  -3.615  1.00  0.00    -0.460 OA
BRANCH  37  38
ATOM     38  C   UNL     1       4.957   5.904  -3.550  1.00  0.00     0.338 C 
ATOM     39  O   UNL     1       4.362   5.302  -4.428  1.00  0.00    -0.246 OA
BRANCH  38  40
ATOM     40  C   UNL     1       4.335   6.201  -2.245  1.00  0.00     0.060 A 
ATOM     41  C   UNL     1       4.780   5.558  -1.097  1.00  0.00     0.016 A 
ATOM     42  C   UNL     1       3.133   6.902  -2.217  1.00  0.00     0.016 A 
ATOM     43  C   UNL     1       3.944   5.456   0.017  1.00  0.00     0.010 A 
ATOM     44  C   UNL     1       2.347   6.891  -1.058  1.00  0.00     0.010 A 
ATOM     45  C   UNL     1       2.699   6.096   0.047  1.00  0.00    -0.014 A 
BRANCH  45  46
ATOM     46  C   UNL     1       1.733   5.866   1.166  1.00  0.00     0.031 A 
ATOM     47  C   UNL     1       0.329   5.368   0.879  1.00  0.00     0.074 A 
ATOM     48  C   UNL     1       2.101   6.071   2.448  1.00  0.00     0.049 A 
ATOM     49  N   UNL     1      -0.691   5.245   1.693  1.00  0.00    -0.248 NA
ATOM     50  C   UNL     1       0.033   4.936  -0.499  1.00  0.00     0.031 C 
ATOM     51  C   UNL     1       3.441   6.455   2.901  1.00  0.00     0.029 A 
ATOM     52  N   UNL     1       1.372   6.000   3.613  1.00  0.00    -0.354 N 
ATOM     53  C   UNL     1      -1.743   4.751   0.926  1.00  0.00     0.074 A 
ATOM     54  C   UNL     1      -1.247   4.599  -0.422  1.00  0.00     0.031 C 
ATOM     55  C   UNL     1       3.440   6.578   4.236  1.00  0.00     0.029 A 
ATOM     56  C   UNL     1       2.080   6.395   4.725  1.00  0.00     0.049 A 
ATOM     57  H   UNL     1       0.436   5.696   3.647  1.00  0.00     0.167 HD
ATOM     58  C   UNL     1      -3.013   4.462   1.302  1.00  0.00     0.031 A 
ATOM     59  C   UNL     1       1.679   6.664   5.984  1.00  0.00     0.031 A 
ATOM     60  C   UNL     1      -3.528   4.669   2.630  1.00  0.00     0.049 A 
ATOM     61  C   UNL     1       0.225   6.522   6.332  1.00  0.00     0.074 A 
ATOM     62  C   UNL     1      -4.814   4.458   3.097  1.00  0.00     0.029 A 
ATOM     63  N   UNL     1      -2.792   5.163   3.695  1.00  0.00    -0.354 N 
ATOM     64  N   UNL     1      -0.761   6.083   5.587  1.00  0.00    -0.248 NA
ATOM     65  C   UNL     1      -0.175   6.932   7.685  1.00  0.00     0.031 C 
ATOM     66  C   UNL     1      -4.873   4.898   4.423  1.00  0.00     0.029 A 
ATOM     67  C   UNL     1      -3.607   5.312   4.804  1.00  0.00     0.049 A 
ATOM     68  H   UNL     1      -1.831   5.378   3.667  1.00  0.00     0.167 HD
ATOM     69  C   UNL     1      -1.896   6.149   6.388  1.00  0.00     0.074 A 
ATOM     70  C   UNL     1      -1.471   6.652   7.678  1.00  0.00     0.031 C 
ATOM     71  C   UNL     1      -3.175   5.821   6.080  1.00  0.00     0.031 A 
BRANCH  58  72
ATOM     72  C   UNL     1      -3.966   3.963   0.246  1.00  0.00    -0.014 A 
ATOM     73  C   UNL     1      -3.913   2.640  -0.229  1.00  0.00     0.010 A 
ATOM     74  C   UNL     1      -4.972   4.822  -0.236  1.00  0.00     0.010 A 
ATOM     75  C   UNL     1      -4.835   2.194  -1.183  1.00  0.00     0.020 A 
ATOM     76  C   UNL     1      -5.907   4.374  -1.173  1.00  0.00     0.020 A 
ATOM     77  C   UNL     1      -5.825   3.065  -1.650  1.00  0.00     0.054 A 
BRANCH  77  78
ATOM     78  S   UNL     1      -7.026   2.451  -2.866  1.00  0.00     0.124 S 
ATOM     79  O   UNL     1      -6.199   2.315  -4.062  1.00  0.00    -0.237 OA
ATOM     80  O   UNL     1      -7.474   1.197  -2.267  1.00  0.00    -0.237 OA
ATOM     81  O   UNL     1      -8.033   3.507  -2.923  1.00  0.00    -0.744 OA
ENDBRANCH  77  78
ENDBRANCH  58  72
BRANCH  59  82
ATOM     82  C   UNL     1       2.656   7.208   6.971  1.00  0.00    -0.014 A 
ATOM     83  C   UNL     1       3.021   6.476   8.113  1.00  0.00     0.010 A 
ATOM     84  C   UNL     1       3.235   8.475   6.760  1.00  0.00     0.010 A 
ATOM     85  C   UNL     1       3.939   7.004   9.027  1.00  0.00     0.020 A 
ATOM     86  C   UNL     1       4.178   8.990   7.650  1.00  0.00     0.020 A 
ATOM     87  C   UNL     1       4.515   8.256   8.787  1.00  0.00     0.054 A 
BRANCH  87  88
ATOM     88  S   UNL     1       5.742   8.900   9.958  1.00  0.00     0.124 S 
ATOM     89  O   UNL     1       4.905   9.303  11.083  1.00  0.00    -0.237 OA
ATOM     90  O   UNL     1       6.599   7.739  10.189  1.00  0.00    -0.237 OA
ATOM     91  O   UNL     1       6.374   9.994   9.223  1.00  0.00    -0.744 OA
ENDBRANCH  87  88
ENDBRANCH  59  82
BRANCH  71  92
ATOM     92  C   UNL     1      -4.204   5.962   7.168  1.00  0.00    -0.014 A 
ATOM     93  C   UNL     1      -4.649   7.225   7.595  1.00  0.00     0.010 A 
ATOM     94  C   UNL     1      -4.764   4.806   7.742  1.00  0.00     0.010 A 
ATOM     95  C   UNL     1      -5.612   7.330   8.602  1.00  0.00     0.020 A 
ATOM     96  C   UNL     1      -5.748   4.907   8.728  1.00  0.00     0.020 A 
ATOM     97  C   UNL     1      -6.154   6.169   9.163  1.00  0.00     0.054 A 
BRANCH  97  98
ATOM     98  S   UNL     1      -7.430   6.330  10.442  1.00  0.00     0.124 S 
ATOM     99  O   UNL     1      -6.646   6.751  11.600  1.00  0.00    -0.237 OA
ATOM    100  O   UNL     1      -8.320   7.343   9.882  1.00  0.00    -0.237 OA
ATOM    101  O   UNL     1      -8.001   4.988  10.531  1.00  0.00    -0.744 OA
ENDBRANCH  97  98
ENDBRANCH  71  92
ENDBRANCH  45  46
ENDBRANCH  38  40
ENDBRANCH  37  38
ENDBRANCH  36  37
ENDBRANCH  35  36
ENDBRANCH  34  35
ENDBRANCH  33  34
ENDBRANCH   1  33
TORSDOF 26
