REMARK SMILES CC1=C(C)C[C@@H](C(=O)OCCOCCOCCOC(=O)c2ccc(-c3c4nc(c(-c5ccc(S(=O)(=O)[O-])cc5)c5ccc([nH]5)c(-c5ccc(S(=O)(=O)[O-])cc5)c5nc(c(-c6ccc(S(=O)(=O)[O-])cc6)c6ccc3[nH]6)C=C5)C=C4)cc2)[C@@H](C(=O)NCC[NH+]2CCOCC2)C1
REMARK SMILES IDX 13 1 12 2 11 3 10 4 9 5 7 6 8 7 6 8 1 9 2 10 3 11 93 12 4 13
REMARK SMILES IDX 5 14 81 15 82 16 83 17 84 18 85 20 86 21 87 22 88 23 92 24
REMARK SMILES IDX 89 26 91 27 90 28 14 29 15 30 16 31 17 32 18 33 19 34 20 35
REMARK SMILES IDX 21 36 22 37 80 38 23 39 79 40 24 41 25 42 26 43 73 44 27 45
REMARK SMILES IDX 78 46 72 47 74 48 28 49 77 50 71 51 70 52 29 54 59 55 40 56
REMARK SMILES IDX 58 57 41 58 44 59 57 60 75 61 42 62 43 63 56 65 76 66 45 67
REMARK SMILES IDX 30 68 31 69 39 70 32 71 38 72 33 73 34 74 35 75 36 76 37 77
REMARK SMILES IDX 60 78 61 79 69 80 62 81 68 82 63 83 64 84 65 85 66 86 67 87
REMARK SMILES IDX 46 88 47 89 55 90 48 91 54 92 49 93 50 94 51 95 52 96 53 97
REMARK H PARENT 84 19 87 25 74 53 44 64
REMARK Flexibility Score: inf
ROOT
ATOM      1  C   UNL     1      -3.003  -4.936  -3.405  1.00  0.00     0.188 C 
ENDROOT
BRANCH   1   2
ATOM      2  O   UNL     1      -3.549  -5.685  -2.322  1.00  0.00    -0.376 OA
BRANCH   2   3
ATOM      3  C   UNL     1      -3.701  -4.928  -1.123  1.00  0.00     0.202 C 
BRANCH   3   4
ATOM      4  C   UNL     1      -2.433  -4.887  -0.258  1.00  0.00     0.261 C 
BRANCH   4   5
ATOM      5  O   UNL     1      -1.452  -3.929  -0.724  1.00  0.00    -0.463 OA
BRANCH   5   6
ATOM      6  C   UNL     1      -0.434  -4.432  -1.463  1.00  0.00     0.310 C 
ATOM      7  O   UNL     1      -0.310  -5.620  -1.739  1.00  0.00    -0.252 OA
BRANCH   6   8
ATOM      8  C   UNL     1       0.643  -3.419  -1.820  1.00  0.00     0.116 C 
ATOM      9  C   UNL     1       1.454   0.367   0.377  1.00  0.00     0.039 C 
ATOM     10  C   UNL     1       1.358  -0.933  -0.374  1.00  0.00    -0.074 C 
ATOM     11  C   UNL     1       1.670  -2.131   0.161  1.00  0.00    -0.073 C 
ATOM     12  C   UNL     1       0.935  -0.811  -1.817  1.00  0.00     0.045 C 
ATOM     13  C   UNL     1       2.153  -2.344   1.571  1.00  0.00     0.039 C 
ATOM     14  C   UNL     1       1.661  -3.383  -0.677  1.00  0.00     0.046 C 
ATOM     15  C   UNL     1       0.291  -2.056  -2.446  1.00  0.00     0.097 C 
BRANCH  15  16
ATOM     16  C   UNL     1      -1.154  -1.841  -2.885  1.00  0.00     0.224 C 
ATOM     17  O   UNL     1      -1.468  -2.109  -4.051  1.00  0.00    -0.275 OA
ATOM     18  N   UNL     1      -2.142  -1.382  -2.080  1.00  0.00    -0.350 N 
ATOM     19  H   UNL     1      -3.005  -1.253  -2.535  1.00  0.00     0.163 HD
BRANCH  18  20
ATOM     20  C   UNL     1      -2.159  -1.048  -0.669  1.00  0.00     0.177 C 
BRANCH  20  21
ATOM     21  C   UNL     1      -2.609   0.399  -0.371  1.00  0.00     0.283 C 
BRANCH  21  22
ATOM     22  N   UNL     1      -4.032   0.752  -0.295  1.00  0.00    -0.330 N 
ATOM     23  C   UNL     1      -4.957  -0.256   0.235  1.00  0.00     0.291 C 
ATOM     24  C   UNL     1      -4.601   1.426  -1.470  1.00  0.00     0.291 C 
ATOM     25  H   UNL     1      -3.959   1.455   0.440  1.00  0.00     0.348 HD
ATOM     26  C   UNL     1      -5.589  -1.152  -0.842  1.00  0.00     0.221 C 
ATOM     27  C   UNL     1      -5.265   0.494  -2.493  1.00  0.00     0.221 C 
ATOM     28  O   UNL     1      -6.220  -0.373  -1.865  1.00  0.00    -0.370 OA
ENDBRANCH  21  22
ENDBRANCH  20  21
ENDBRANCH  18  20
ENDBRANCH  15  16
ENDBRANCH   6   8
ENDBRANCH   5   6
ENDBRANCH   4   5
ENDBRANCH   3   4
ENDBRANCH   2   3
ENDBRANCH   1   2
BRANCH   1  29
ATOM     29  C   UNL     1      -4.070  -4.282  -4.272  1.00  0.00     0.188 C 
BRANCH  29  30
ATOM     30  O   UNL     1      -4.877  -3.350  -3.542  1.00  0.00    -0.376 OA
BRANCH  30  31
ATOM     31  C   UNL     1      -6.169  -3.153  -4.133  1.00  0.00     0.202 C 
BRANCH  31  32
ATOM     32  C   UNL     1      -6.171  -2.194  -5.329  1.00  0.00     0.261 C 
BRANCH  32  33
ATOM     33  O   UNL     1      -5.445  -2.774  -6.424  1.00  0.00    -0.460 OA
BRANCH  33  34
ATOM     34  C   UNL     1      -4.344  -2.089  -6.840  1.00  0.00     0.338 C 
ATOM     35  O   UNL     1      -4.038  -0.954  -6.547  1.00  0.00    -0.246 OA
BRANCH  34  36
ATOM     36  C   UNL     1      -3.462  -3.044  -7.563  1.00  0.00     0.060 A 
ATOM     37  C   UNL     1      -2.080  -2.976  -7.335  1.00  0.00     0.016 A 
ATOM     38  C   UNL     1      -3.988  -4.050  -8.379  1.00  0.00     0.016 A 
ATOM     39  C   UNL     1      -1.222  -3.905  -7.929  1.00  0.00     0.010 A 
ATOM     40  C   UNL     1      -3.129  -4.970  -8.981  1.00  0.00     0.010 A 
ATOM     41  C   UNL     1      -1.741  -4.894  -8.773  1.00  0.00    -0.014 A 
BRANCH  41  42
ATOM     42  C   UNL     1      -0.854  -5.757  -9.588  1.00  0.00     0.031 A 
ATOM     43  C   UNL     1      -0.608  -5.361 -11.017  1.00  0.00     0.074 A 
ATOM     44  C   UNL     1      -0.333  -6.897  -9.098  1.00  0.00     0.049 A 
ATOM     45  N   UNL     1      -0.047  -6.042 -11.981  1.00  0.00    -0.248 NA
ATOM     46  C   UNL     1      -1.068  -4.018 -11.410  1.00  0.00     0.031 C 
ATOM     47  C   UNL     1      -0.457  -7.367  -7.719  1.00  0.00     0.029 A 
ATOM     48  N   UNL     1       0.384  -7.887  -9.728  1.00  0.00    -0.354 N 
ATOM     49  C   UNL     1      -0.098  -5.216 -13.098  1.00  0.00     0.074 A 
ATOM     50  C   UNL     1      -0.760  -3.994 -12.698  1.00  0.00     0.031 C 
ATOM     51  C   UNL     1       0.135  -8.571  -7.614  1.00  0.00     0.029 A 
ATOM     52  C   UNL     1       0.638  -8.976  -8.926  1.00  0.00     0.049 A 
ATOM     53  H   UNL     1       0.687  -7.822 -10.662  1.00  0.00     0.167 HD
ATOM     54  C   UNL     1       0.366  -5.455 -14.346  1.00  0.00     0.031 A 
ATOM     55  C   UNL     1       1.169 -10.178  -9.231  1.00  0.00     0.031 A 
ATOM     56  C   UNL     1       1.002  -6.679 -14.746  1.00  0.00     0.049 A 
ATOM     57  C   UNL     1       1.587 -10.462 -10.654  1.00  0.00     0.074 A 
ATOM     58  C   UNL     1       1.500  -7.024 -15.990  1.00  0.00     0.029 A 
ATOM     59  N   UNL     1       1.222  -7.763 -13.911  1.00  0.00    -0.354 N 
ATOM     60  N   UNL     1       1.538  -9.673 -11.702  1.00  0.00    -0.248 NA
ATOM     61  C   UNL     1       2.119 -11.804 -10.937  1.00  0.00     0.031 C 
ATOM     62  C   UNL     1       1.979  -8.336 -15.918  1.00  0.00     0.029 A 
ATOM     63  C   UNL     1       1.825  -8.788 -14.617  1.00  0.00     0.049 A 
ATOM     64  H   UNL     1       0.984  -7.798 -12.956  1.00  0.00     0.167 HD
ATOM     65  C   UNL     1       2.045 -10.419 -12.762  1.00  0.00     0.074 A 
ATOM     66  C   UNL     1       2.414 -11.713 -12.228  1.00  0.00     0.031 C 
ATOM     67  C   UNL     1       2.187 -10.068 -14.065  1.00  0.00     0.031 A 
BRANCH  54  68
ATOM     68  C   UNL     1       0.175  -4.374 -15.372  1.00  0.00    -0.014 A 
ATOM     69  C   UNL     1       0.948  -3.201 -15.336  1.00  0.00     0.010 A 
ATOM     70  C   UNL     1      -0.766  -4.547 -16.403  1.00  0.00     0.010 A 
ATOM     71  C   UNL     1       0.764  -2.205 -16.297  1.00  0.00     0.020 A 
ATOM     72  C   UNL     1      -0.937  -3.563 -17.380  1.00  0.00     0.020 A 
ATOM     73  C   UNL     1      -0.179  -2.391 -17.313  1.00  0.00     0.054 A 
BRANCH  73  74
ATOM     74  S   UNL     1      -0.375  -1.094 -18.565  1.00  0.00     0.124 S 
ATOM     75  O   UNL     1      -1.069  -0.052 -17.813  1.00  0.00    -0.237 OA
ATOM     76  O   UNL     1       1.006  -0.790 -18.930  1.00  0.00    -0.237 OA
ATOM     77  O   UNL     1      -1.166  -1.738 -19.611  1.00  0.00    -0.744 OA
ENDBRANCH  73  74
ENDBRANCH  54  68
BRANCH  55  78
ATOM     78  C   UNL     1       1.277 -11.239  -8.190  1.00  0.00    -0.014 A 
ATOM     79  C   UNL     1       2.533 -11.667  -7.725  1.00  0.00     0.010 A 
ATOM     80  C   UNL     1       0.117 -11.856  -7.685  1.00  0.00     0.010 A 
ATOM     81  C   UNL     1       2.628 -12.708  -6.794  1.00  0.00     0.020 A 
ATOM     82  C   UNL     1       0.207 -12.878  -6.735  1.00  0.00     0.020 A 
ATOM     83  C   UNL     1       1.464 -13.309  -6.308  1.00  0.00     0.054 A 
BRANCH  83  84
ATOM     84  S   UNL     1       1.607 -14.642  -5.083  1.00  0.00     0.124 S 
ATOM     85  O   UNL     1       2.035 -15.767  -5.909  1.00  0.00    -0.237 OA
ATOM     86  O   UNL     1       2.610 -14.118  -4.159  1.00  0.00    -0.237 OA
ATOM     87  O   UNL     1       0.258 -14.746  -4.532  1.00  0.00    -0.744 OA
ENDBRANCH  83  84
ENDBRANCH  55  78
BRANCH  67  88
ATOM     88  C   UNL     1       2.780 -11.084 -15.004  1.00  0.00    -0.014 A 
ATOM     89  C   UNL     1       2.021 -12.177 -15.457  1.00  0.00     0.010 A 
ATOM     90  C   UNL     1       4.078 -10.891 -15.510  1.00  0.00     0.010 A 
ATOM     91  C   UNL     1       2.556 -13.067 -16.393  1.00  0.00     0.020 A 
ATOM     92  C   UNL     1       4.607 -11.765 -16.463  1.00  0.00     0.020 A 
ATOM     93  C   UNL     1       3.844 -12.853 -16.893  1.00  0.00     0.054 A 
BRANCH  93  94
ATOM     94  S   UNL     1       4.486 -13.980 -18.162  1.00  0.00     0.124 S 
ATOM     95  O   UNL     1       4.785 -15.178 -17.383  1.00  0.00    -0.237 OA
ATOM     96  O   UNL     1       3.362 -14.096 -19.088  1.00  0.00    -0.237 OA
ATOM     97  O   UNL     1       5.652 -13.276 -18.693  1.00  0.00    -0.744 OA
ENDBRANCH  93  94
ENDBRANCH  67  88
ENDBRANCH  41  42
ENDBRANCH  34  36
ENDBRANCH  33  34
ENDBRANCH  32  33
ENDBRANCH  31  32
ENDBRANCH  30  31
ENDBRANCH  29  30
ENDBRANCH   1  29
TORSDOF 24
