REMARK SMILES Nc1ccc(C(=O)NC[C@@H]2CC[C@@H](C(=O)OCCOCCOCCOC(=O)c3ccc(-c4c5nc(c(-c6ccc(S(=O)(=O)[O-])cc6)c6ccc([nH]6)c(-c6ccc(S(=O)(=O)[O-])cc6)c6nc(c(-c7ccc(S(=O)(=O)[O-])cc7)c7ccc4[nH]7)C=C6)C=C5)cc3)O2)cc1Cl
REMARK SMILES IDX 20 1 19 2 18 3 17 4 16 5 14 6 15 7 13 8 10 9 11 10 88 11
REMARK SMILES IDX 12 12 9 13 8 14 6 15 7 16 5 18 2 19 3 20 90 21 4 22 89 23
REMARK SMILES IDX 91 24 1 25 21 28 22 29 23 30 24 31 25 32 26 33 27 34 28 35
REMARK SMILES IDX 29 36 87 37 30 38 86 39 31 40 32 41 33 42 80 43 34 44 85 45
REMARK SMILES IDX 79 46 81 47 35 48 84 49 78 50 77 51 36 53 66 54 47 55 65 56
REMARK SMILES IDX 48 57 51 58 64 59 82 60 49 61 50 62 63 64 83 65 52 66 37 67
REMARK SMILES IDX 38 68 46 69 39 70 45 71 40 72 41 73 42 74 43 75 44 76 67 77
REMARK SMILES IDX 68 78 76 79 69 80 75 81 70 82 71 83 72 84 73 85 74 86 53 87
REMARK SMILES IDX 54 88 62 89 55 90 61 91 56 92 57 93 58 94 59 95 60 96
REMARK H PARENT 8 17 1 26 1 27 81 52 51 63
REMARK Flexibility Score: inf
ROOT
ATOM      1  C   UNL     1       5.884  -1.446  -5.962  1.00  0.00     0.188 C 
ENDROOT
BRANCH   1   2
ATOM      2  O   UNL     1       6.825  -2.386  -6.459  1.00  0.00    -0.376 OA
BRANCH   2   3
ATOM      3  C   UNL     1       7.409  -3.338  -5.575  1.00  0.00     0.202 C 
BRANCH   3   4
ATOM      4  C   UNL     1       7.851  -2.933  -4.159  1.00  0.00     0.261 C 
BRANCH   4   5
ATOM      5  O   UNL     1       6.839  -2.221  -3.437  1.00  0.00    -0.461 OA
BRANCH   5   6
ATOM      6  C   UNL     1       7.235  -1.081  -2.801  1.00  0.00     0.335 C 
ATOM      7  O   UNL     1       8.394  -0.716  -2.664  1.00  0.00    -0.249 OA
BRANCH   6   8
ATOM      8  C   UNL     1       6.011  -0.272  -2.363  1.00  0.00     0.228 C 
ATOM      9  C   UNL     1       5.932   1.448  -0.792  1.00  0.00     0.138 C 
ATOM     10  C   UNL     1       5.381   2.001  -2.098  1.00  0.00     0.037 C 
ATOM     11  O   UNL     1       6.006   0.023  -0.963  1.00  0.00    -0.361 OA
ATOM     12  C   UNL     1       5.952   1.054  -3.119  1.00  0.00     0.047 C 
BRANCH   9  13
ATOM     13  C   UNL     1       5.134   1.765   0.486  1.00  0.00     0.148 C 
BRANCH  13  14
ATOM     14  N   UNL     1       4.025   2.683   0.291  1.00  0.00    -0.349 N 
ATOM     15  C   UNL     1       2.679   2.557   0.094  1.00  0.00     0.251 C 
ATOM     16  O   UNL     1       2.059   3.616  -0.036  1.00  0.00    -0.269 OA
ATOM     17  H   UNL     1       4.314   3.624   0.303  1.00  0.00     0.163 HD
BRANCH  15  18
ATOM     18  C   UNL     1       1.909   1.278   0.041  1.00  0.00     0.041 A 
ATOM     19  C   UNL     1       0.206  -1.006  -0.041  1.00  0.00     0.050 A 
ATOM     20  C   UNL     1       1.597  -1.134  -0.099  1.00  0.00     0.028 A 
ATOM     21  C   UNL     1      -0.326   0.285   0.074  1.00  0.00     0.064 A 
ATOM     22  C   UNL     1       2.439  -0.007  -0.084  1.00  0.00     0.016 A 
ATOM     23  C   UNL     1       0.508   1.406   0.104  1.00  0.00     0.036 A 
ATOM     24  Cl  UNL     1      -2.037   0.529   0.167  1.00  0.00    -0.082 Cl
BRANCH  19  25
ATOM     25  N   UNL     1      -0.593  -2.143   0.032  1.00  0.00    -0.398 N 
ATOM     26  H   UNL     1      -0.188  -3.037  -0.053  1.00  0.00     0.156 HD
ATOM     27  H   UNL     1      -1.564  -2.055   0.168  1.00  0.00     0.156 HD
ENDBRANCH  19  25
ENDBRANCH  15  18
ENDBRANCH  13  14
ENDBRANCH   9  13
ENDBRANCH   6   8
ENDBRANCH   5   6
ENDBRANCH   4   5
ENDBRANCH   3   4
ENDBRANCH   2   3
ENDBRANCH   1   2
BRANCH   1  28
ATOM     28  C   UNL     1       4.590  -1.951  -5.291  1.00  0.00     0.188 C 
BRANCH  28  29
ATOM     29  O   UNL     1       4.563  -3.311  -4.940  1.00  0.00    -0.376 OA
BRANCH  29  30
ATOM     30  C   UNL     1       4.076  -4.263  -5.874  1.00  0.00     0.202 C 
BRANCH  30  31
ATOM     31  C   UNL     1       3.741  -3.995  -7.360  1.00  0.00     0.261 C 
BRANCH  31  32
ATOM     32  O   UNL     1       3.904  -2.674  -7.886  1.00  0.00    -0.460 OA
BRANCH  32  33
ATOM     33  C   UNL     1       2.780  -1.927  -8.005  1.00  0.00     0.338 C 
ATOM     34  O   UNL     1       1.645  -2.249  -7.674  1.00  0.00    -0.246 OA
BRANCH  33  35
ATOM     35  C   UNL     1       3.161  -0.562  -8.416  1.00  0.00     0.060 A 
ATOM     36  C   UNL     1       3.063   0.484  -7.487  1.00  0.00     0.016 A 
ATOM     37  C   UNL     1       3.606  -0.312  -9.714  1.00  0.00     0.016 A 
ATOM     38  C   UNL     1       3.422   1.783  -7.851  1.00  0.00     0.010 A 
ATOM     39  C   UNL     1       3.938   0.996 -10.085  1.00  0.00     0.010 A 
ATOM     40  C   UNL     1       3.839   2.053  -9.161  1.00  0.00    -0.014 A 
BRANCH  40  41
ATOM     41  C   UNL     1       4.067   3.451  -9.608  1.00  0.00     0.031 A 
ATOM     42  C   UNL     1       2.986   4.154 -10.384  1.00  0.00     0.074 A 
ATOM     43  C   UNL     1       5.231   4.078  -9.351  1.00  0.00     0.049 A 
ATOM     44  N   UNL     1       3.013   5.327 -10.959  1.00  0.00    -0.248 NA
ATOM     45  C   UNL     1       1.708   3.438 -10.534  1.00  0.00     0.031 C 
ATOM     46  C   UNL     1       6.341   3.523  -8.575  1.00  0.00     0.029 A 
ATOM     47  N   UNL     1       5.681   5.319  -9.736  1.00  0.00    -0.354 N 
ATOM     48  C   UNL     1       1.770   5.482 -11.561  1.00  0.00     0.074 A 
ATOM     49  C   UNL     1       1.012   4.281 -11.285  1.00  0.00     0.031 C 
ATOM     50  C   UNL     1       7.353   4.410  -8.566  1.00  0.00     0.029 A 
ATOM     51  C   UNL     1       6.981   5.574  -9.367  1.00  0.00     0.049 A 
ATOM     52  H   UNL     1       5.124   5.963 -10.230  1.00  0.00     0.167 HD
ATOM     53  C   UNL     1       1.306   6.528 -12.284  1.00  0.00     0.031 A 
ATOM     54  C   UNL     1       7.793   6.607  -9.675  1.00  0.00     0.031 A 
ATOM     55  C   UNL     1       2.061   7.723 -12.556  1.00  0.00     0.049 A 
ATOM     56  C   UNL     1       7.270   7.725 -10.546  1.00  0.00     0.074 A 
ATOM     57  C   UNL     1       1.652   8.857 -13.237  1.00  0.00     0.029 A 
ATOM     58  N   UNL     1       3.377   7.936 -12.179  1.00  0.00    -0.354 N 
ATOM     59  N   UNL     1       6.071   7.885 -11.055  1.00  0.00    -0.248 NA
ATOM     60  C   UNL     1       8.212   8.803 -10.884  1.00  0.00     0.031 C 
ATOM     61  C   UNL     1       2.744   9.723 -13.339  1.00  0.00     0.029 A 
ATOM     62  C   UNL     1       3.811   9.161 -12.657  1.00  0.00     0.049 A 
ATOM     63  H   UNL     1       3.922   7.310 -11.651  1.00  0.00     0.167 HD
ATOM     64  C   UNL     1       6.111   9.091 -11.749  1.00  0.00     0.074 A 
ATOM     65  C   UNL     1       7.441   9.632 -11.575  1.00  0.00     0.031 C 
ATOM     66  C   UNL     1       5.135   9.695 -12.472  1.00  0.00     0.031 A 
BRANCH  53  67
ATOM     67  C   UNL     1      -0.072   6.428 -12.880  1.00  0.00    -0.014 A 
ATOM     68  C   UNL     1      -1.225   6.551 -12.086  1.00  0.00     0.010 A 
ATOM     69  C   UNL     1      -0.209   6.322 -14.277  1.00  0.00     0.010 A 
ATOM     70  C   UNL     1      -2.491   6.566 -12.680  1.00  0.00     0.020 A 
ATOM     71  C   UNL     1      -1.470   6.362 -14.876  1.00  0.00     0.020 A 
ATOM     72  C   UNL     1      -2.604   6.481 -14.072  1.00  0.00     0.054 A 
BRANCH  72  73
ATOM     73  S   UNL     1      -4.254   6.588 -14.819  1.00  0.00     0.124 S 
ATOM     74  O   UNL     1      -4.849   5.315 -14.419  1.00  0.00    -0.237 OA
ATOM     75  O   UNL     1      -4.817   7.773 -14.178  1.00  0.00    -0.237 OA
ATOM     76  O   UNL     1      -3.982   6.725 -16.247  1.00  0.00    -0.744 OA
ENDBRANCH  72  73
ENDBRANCH  53  67
BRANCH  54  77
ATOM     77  C   UNL     1       9.213   6.619  -9.219  1.00  0.00    -0.014 A 
ATOM     78  C   UNL     1       9.682   7.607  -8.335  1.00  0.00     0.010 A 
ATOM     79  C   UNL     1      10.124   5.671  -9.723  1.00  0.00     0.010 A 
ATOM     80  C   UNL     1      11.038   7.675  -8.000  1.00  0.00     0.020 A 
ATOM     81  C   UNL     1      11.474   5.713  -9.362  1.00  0.00     0.020 A 
ATOM     82  C   UNL     1      11.927   6.729  -8.520  1.00  0.00     0.054 A 
BRANCH  82  83
ATOM     83  S   UNL     1      13.681   6.834  -8.070  1.00  0.00     0.124 S 
ATOM     84  O   UNL     1      14.121   7.995  -8.836  1.00  0.00    -0.237 OA
ATOM     85  O   UNL     1      13.625   7.013  -6.622  1.00  0.00    -0.237 OA
ATOM     86  O   UNL     1      14.224   5.550  -8.511  1.00  0.00    -0.744 OA
ENDBRANCH  82  83
ENDBRANCH  54  77
BRANCH  66  87
ATOM     87  C   UNL     1       5.451  11.026 -13.105  1.00  0.00    -0.014 A 
ATOM     88  C   UNL     1       6.326  11.123 -14.202  1.00  0.00     0.010 A 
ATOM     89  C   UNL     1       4.811  12.189 -12.637  1.00  0.00     0.010 A 
ATOM     90  C   UNL     1       6.577  12.362 -14.799  1.00  0.00     0.020 A 
ATOM     91  C   UNL     1       5.034  13.424 -13.252  1.00  0.00     0.020 A 
ATOM     92  C   UNL     1       5.927  13.504 -14.322  1.00  0.00     0.054 A 
BRANCH  92  93
ATOM     93  S   UNL     1       6.234  15.090 -15.148  1.00  0.00     0.124 S 
ATOM     94  O   UNL     1       7.599  15.393 -14.729  1.00  0.00    -0.237 OA
ATOM     95  O   UNL     1       6.069  14.753 -16.559  1.00  0.00    -0.237 OA
ATOM     96  O   UNL     1       5.205  15.972 -14.600  1.00  0.00    -0.744 OA
ENDBRANCH  92  93
ENDBRANCH  66  87
ENDBRANCH  40  41
ENDBRANCH  33  35
ENDBRANCH  32  33
ENDBRANCH  31  32
ENDBRANCH  30  31
ENDBRANCH  29  30
ENDBRANCH  28  29
ENDBRANCH   1  28
TORSDOF 24
