REMARK SMILES C[C@@H](Oc1ccc2c(c1)OCO2)C(=O)N1CCn2nc(C(=O)OCCOCCOCCOC(=O)c3ccc(-c4c5nc(c(-c6ccc(S(=O)(=O)[O-])cc6)c6ccc([nH]6)c(-c6ccc(S(=O)(=O)[O-])cc6)c6nc(c(-c7ccc(S(=O)(=O)[O-])cc7)c7ccc4[nH]7)C=C6)C=C5)cc3)cc2C1
REMARK SMILES IDX 27 1 26 2 25 3 24 4 23 5 21 6 22 7 20 8 15 9 16 10 97 11
REMARK SMILES IDX 17 12 96 13 18 14 95 15 19 16 13 17 14 18 2 19 1 20 3 21
REMARK SMILES IDX 4 22 5 23 9 24 6 25 8 26 7 27 10 28 12 29 11 30 28 31 29 32
REMARK SMILES IDX 30 33 31 34 32 35 33 36 34 37 35 38 36 39 94 40 37 41 93 42
REMARK SMILES IDX 38 43 39 44 40 45 87 46 41 47 92 48 86 49 88 50 42 51 91 52
REMARK SMILES IDX 85 53 84 54 43 56 73 57 54 58 72 59 55 60 58 61 71 62 89 63
REMARK SMILES IDX 56 64 57 65 70 67 90 68 59 69 44 70 45 71 53 72 46 73 52 74
REMARK SMILES IDX 47 75 48 76 49 77 50 78 51 79 74 80 75 81 83 82 76 83 82 84
REMARK SMILES IDX 77 85 78 86 79 87 80 88 81 89 60 90 61 91 69 92 62 93 68 94
REMARK SMILES IDX 63 95 64 96 65 97 66 98 67 99
REMARK H PARENT 88 55 58 66
REMARK Flexibility Score: inf
ROOT
ATOM      1  C   UNL     1      -5.262  -3.015   6.539  1.00  0.00     0.188 C 
ENDROOT
BRANCH   1   2
ATOM      2  O   UNL     1      -6.464  -3.176   7.279  1.00  0.00    -0.376 OA
BRANCH   2   3
ATOM      3  C   UNL     1      -7.651  -3.619   6.637  1.00  0.00     0.202 C 
BRANCH   3   4
ATOM      4  C   UNL     1      -8.132  -3.016   5.299  1.00  0.00     0.261 C 
BRANCH   4   5
ATOM      5  O   UNL     1      -7.136  -2.831   4.282  1.00  0.00    -0.458 OA
BRANCH   5   6
ATOM      6  C   UNL     1      -6.739  -1.542   4.054  1.00  0.00     0.358 C 
ATOM      7  O   UNL     1      -7.298  -0.561   4.527  1.00  0.00    -0.244 OA
BRANCH   6   8
ATOM      8  C   UNL     1      -5.489  -1.472   3.273  1.00  0.00     0.170 A 
ATOM      9  N   UNL     1      -1.685  -1.320   0.659  1.00  0.00    -0.332 N 
ATOM     10  C   UNL     1      -1.255  -0.520   1.810  1.00  0.00     0.143 C 
ATOM     11  C   UNL     1      -2.909  -2.121   0.702  1.00  0.00     0.175 C 
ATOM     12  C   UNL     1      -2.251  -0.220   2.921  1.00  0.00     0.166 C 
ATOM     13  C   UNL     1      -3.821  -1.792   1.815  1.00  0.00     0.059 A 
ATOM     14  N   UNL     1      -3.519  -0.867   2.756  1.00  0.00    -0.265 N 
ATOM     15  C   UNL     1      -5.061  -2.281   2.181  1.00  0.00     0.063 A 
ATOM     16  N   UNL     1      -4.521  -0.593   3.601  1.00  0.00    -0.165 NA
BRANCH   9  17
ATOM     17  C   UNL     1      -0.876  -1.542  -0.465  1.00  0.00     0.263 C 
ATOM     18  O   UNL     1      -1.353  -2.034  -1.496  1.00  0.00    -0.271 OA
BRANCH  17  19
ATOM     19  C   UNL     1       0.641  -1.234  -0.420  1.00  0.00     0.259 C 
ATOM     20  C   UNL     1       0.952   0.257  -0.338  1.00  0.00     0.064 C 
BRANCH  19  21
ATOM     21  O   UNL     1       1.186  -1.974   0.682  1.00  0.00    -0.481 OA
BRANCH  21  22
ATOM     22  C   UNL     1       2.512  -2.284   0.547  1.00  0.00     0.124 A 
ATOM     23  C   UNL     1       3.478  -1.348   0.955  1.00  0.00     0.050 A 
ATOM     24  C   UNL     1       2.879  -3.580   0.178  1.00  0.00     0.097 A 
ATOM     25  C   UNL     1       4.832  -1.684   0.961  1.00  0.00     0.054 A 
ATOM     26  C   UNL     1       4.224  -3.890   0.213  1.00  0.00     0.169 A 
ATOM     27  C   UNL     1       5.173  -2.966   0.593  1.00  0.00     0.166 A 
ATOM     28  O   UNL     1       4.776  -5.100  -0.077  1.00  0.00    -0.453 OA
ATOM     29  O   UNL     1       6.433  -3.477   0.585  1.00  0.00    -0.454 OA
ATOM     30  C   UNL     1       6.163  -4.853   0.245  1.00  0.00     0.468 C 
ENDBRANCH  21  22
ENDBRANCH  19  21
ENDBRANCH  17  19
ENDBRANCH   9  17
ENDBRANCH   6   8
ENDBRANCH   5   6
ENDBRANCH   4   5
ENDBRANCH   3   4
ENDBRANCH   2   3
ENDBRANCH   1   2
BRANCH   1  31
ATOM     31  C   UNL     1      -4.793  -4.098   5.537  1.00  0.00     0.188 C 
BRANCH  31  32
ATOM     32  O   UNL     1      -5.800  -4.991   5.104  1.00  0.00    -0.376 OA
BRANCH  32  33
ATOM     33  C   UNL     1      -5.870  -6.332   5.567  1.00  0.00     0.202 C 
BRANCH  33  34
ATOM     34  C   UNL     1      -5.535  -6.762   6.996  1.00  0.00     0.261 C 
BRANCH  34  35
ATOM     35  O   UNL     1      -4.899  -5.783   7.785  1.00  0.00    -0.460 OA
BRANCH  35  36
ATOM     36  C   UNL     1      -3.553  -5.796   7.687  1.00  0.00     0.338 C 
ATOM     37  O   UNL     1      -2.885  -6.418   6.883  1.00  0.00    -0.246 OA
BRANCH  36  38
ATOM     38  C   UNL     1      -3.005  -4.983   8.778  1.00  0.00     0.060 A 
ATOM     39  C   UNL     1      -1.614  -4.897   8.801  1.00  0.00     0.016 A 
ATOM     40  C   UNL     1      -3.800  -4.798   9.918  1.00  0.00     0.016 A 
ATOM     41  C   UNL     1      -1.006  -5.004  10.023  1.00  0.00     0.010 A 
ATOM     42  C   UNL     1      -3.193  -4.932  11.135  1.00  0.00     0.010 A 
ATOM     43  C   UNL     1      -1.820  -5.160  11.149  1.00  0.00    -0.014 A 
BRANCH  43  44
ATOM     44  C   UNL     1      -1.186  -5.567  12.374  1.00  0.00     0.031 A 
ATOM     45  C   UNL     1      -0.512  -4.451  13.048  1.00  0.00     0.074 A 
ATOM     46  C   UNL     1      -1.290  -6.817  12.857  1.00  0.00     0.049 A 
ATOM     47  N   UNL     1       0.755  -4.216  13.099  1.00  0.00    -0.248 NA
ATOM     48  C   UNL     1      -1.364  -3.349  13.522  1.00  0.00     0.031 C 
ATOM     49  C   UNL     1      -2.163  -7.904  12.402  1.00  0.00     0.029 A 
ATOM     50  N   UNL     1      -0.700  -7.338  13.960  1.00  0.00    -0.354 N 
ATOM     51  C   UNL     1       0.865  -3.044  13.831  1.00  0.00     0.074 A 
ATOM     52  C   UNL     1      -0.443  -2.441  13.837  1.00  0.00     0.031 C 
ATOM     53  C   UNL     1      -2.220  -8.854  13.364  1.00  0.00     0.029 A 
ATOM     54  C   UNL     1      -1.289  -8.505  14.425  1.00  0.00     0.049 A 
ATOM     55  H   UNL     1       0.081  -6.925  14.394  1.00  0.00     0.167 HD
ATOM     56  C   UNL     1       1.926  -2.822  14.651  1.00  0.00     0.031 A 
ATOM     57  C   UNL     1      -1.077  -9.068  15.641  1.00  0.00     0.031 A 
ATOM     58  C   UNL     1       3.021  -3.716  14.373  1.00  0.00     0.049 A 
ATOM     59  C   UNL     1       0.209  -8.528  16.154  1.00  0.00     0.074 A 
ATOM     60  C   UNL     1       3.820  -3.966  13.276  1.00  0.00     0.029 A 
ATOM     61  N   UNL     1       3.156  -4.804  15.204  1.00  0.00    -0.354 N 
ATOM     62  N   UNL     1       1.363  -8.775  15.599  1.00  0.00    -0.248 NA
ATOM     63  C   UNL     1       0.176  -7.349  17.009  1.00  0.00     0.031 C 
ATOM     64  C   UNL     1       4.058  -5.371  13.298  1.00  0.00     0.029 A 
ATOM     65  C   UNL     1       3.433  -5.902  14.429  1.00  0.00     0.049 A 
ATOM     66  H   UNL     1       3.069  -4.797  16.185  1.00  0.00     0.167 HD
ATOM     67  C   UNL     1       2.065  -7.580  15.678  1.00  0.00     0.074 A 
ATOM     68  C   UNL     1       1.332  -6.778  16.655  1.00  0.00     0.031 C 
ATOM     69  C   UNL     1       3.005  -7.252  14.742  1.00  0.00     0.031 A 
BRANCH  56  70
ATOM     70  C   UNL     1       1.773  -2.115  15.972  1.00  0.00    -0.014 A 
ATOM     71  C   UNL     1       2.923  -1.807  16.717  1.00  0.00     0.010 A 
ATOM     72  C   UNL     1       0.528  -1.988  16.628  1.00  0.00     0.010 A 
ATOM     73  C   UNL     1       2.830  -1.443  18.067  1.00  0.00     0.020 A 
ATOM     74  C   UNL     1       0.419  -1.578  17.953  1.00  0.00     0.020 A 
ATOM     75  C   UNL     1       1.577  -1.342  18.676  1.00  0.00     0.054 A 
BRANCH  75  76
ATOM     76  S   UNL     1       1.470  -0.981  20.442  1.00  0.00     0.124 S 
ATOM     77  O   UNL     1       2.054  -2.183  21.027  1.00  0.00    -0.237 OA
ATOM     78  O   UNL     1       2.269   0.236  20.556  1.00  0.00    -0.237 OA
ATOM     79  O   UNL     1       0.037  -0.804  20.669  1.00  0.00    -0.744 OA
ENDBRANCH  75  76
ENDBRANCH  56  70
BRANCH  57  80
ATOM     80  C   UNL     1      -2.082  -9.723  16.516  1.00  0.00    -0.014 A 
ATOM     81  C   UNL     1      -1.687 -10.460  17.648  1.00  0.00     0.010 A 
ATOM     82  C   UNL     1      -3.446  -9.386  16.397  1.00  0.00     0.010 A 
ATOM     83  C   UNL     1      -2.612 -10.792  18.653  1.00  0.00     0.020 A 
ATOM     84  C   UNL     1      -4.375  -9.720  17.390  1.00  0.00     0.020 A 
ATOM     85  C   UNL     1      -3.948 -10.401  18.527  1.00  0.00     0.054 A 
BRANCH  85  86
ATOM     86  S   UNL     1      -5.098 -10.677  19.907  1.00  0.00     0.124 S 
ATOM     87  O   UNL     1      -5.270 -12.126  19.884  1.00  0.00    -0.237 OA
ATOM     88  O   UNL     1      -4.357 -10.146  21.049  1.00  0.00    -0.237 OA
ATOM     89  O   UNL     1      -6.281  -9.906  19.529  1.00  0.00    -0.744 OA
ENDBRANCH  85  86
ENDBRANCH  57  80
BRANCH  69  90
ATOM     90  C   UNL     1       3.465  -8.339  13.794  1.00  0.00    -0.014 A 
ATOM     91  C   UNL     1       2.622  -8.959  12.849  1.00  0.00     0.010 A 
ATOM     92  C   UNL     1       4.838  -8.638  13.761  1.00  0.00     0.010 A 
ATOM     93  C   UNL     1       3.138  -9.869  11.913  1.00  0.00     0.020 A 
ATOM     94  C   UNL     1       5.361  -9.530  12.821  1.00  0.00     0.020 A 
ATOM     95  C   UNL     1       4.508 -10.148  11.905  1.00  0.00     0.054 A 
BRANCH  95  96
ATOM     96  S   UNL     1       5.182 -11.283  10.659  1.00  0.00     0.124 S 
ATOM     97  O   UNL     1       4.642 -12.573  11.076  1.00  0.00    -0.237 OA
ATOM     98  O   UNL     1       4.644 -10.751   9.408  1.00  0.00    -0.237 OA
ATOM     99  O   UNL     1       6.630 -11.143  10.807  1.00  0.00    -0.744 OA
ENDBRANCH  95  96
ENDBRANCH  69  90
ENDBRANCH  43  44
ENDBRANCH  36  38
ENDBRANCH  35  36
ENDBRANCH  34  35
ENDBRANCH  33  34
ENDBRANCH  32  33
ENDBRANCH  31  32
ENDBRANCH   1  31
TORSDOF 24
