REMARK SMILES COc1cc(/C=C/C(=O)OCCOCCOCCOC(=O)c2ccc(-c3c4nc(c(-c5ccc(S(=O)(=O)[O-])cc5)c5ccc([nH]5)c(-c5ccc(S(=O)(=O)[O-])cc5)c5nc(c(-c6ccc(S(=O)(=O)[O-])cc6)c6ccc3[nH]6)C=C5)C=C4)cc2)cc(OC)c1O
REMARK SMILES IDX 15 1 14 2 13 3 12 4 11 5 10 6 8 7 9 8 7 9 6 10 5 11 3 12
REMARK SMILES IDX 4 13 86 14 83 15 82 16 2 17 1 18 87 19 84 21 85 22 16 23
REMARK SMILES IDX 17 24 18 25 19 26 20 27 21 28 22 29 23 30 81 31 24 32 80 33
REMARK SMILES IDX 25 34 26 35 27 36 74 37 28 38 79 39 73 40 75 41 29 42 78 43
REMARK SMILES IDX 72 44 71 45 30 47 60 48 41 49 59 50 42 51 45 52 58 53 76 54
REMARK SMILES IDX 43 55 44 56 57 58 77 59 46 60 31 61 32 62 40 63 33 64 39 65
REMARK SMILES IDX 34 66 35 67 36 68 37 69 38 70 61 71 62 72 70 73 63 74 69 75
REMARK SMILES IDX 64 76 65 77 66 78 67 79 68 80 47 81 48 82 56 83 49 84 55 85
REMARK SMILES IDX 50 86 51 87 52 88 53 89 54 90
REMARK H PARENT 87 20 75 46 45 57
REMARK Flexibility Score: inf
ROOT
ATOM      1  C   UNL     1      -3.381   7.179   0.179  1.00  0.00     0.188 C 
ENDROOT
BRANCH   1   2
ATOM      2  C   UNL     1      -2.267   8.183  -0.177  1.00  0.00     0.188 C 
BRANCH   2   3
ATOM      3  O   UNL     1      -2.597   9.444  -0.733  1.00  0.00    -0.376 OA
BRANCH   3   4
ATOM      4  C   UNL     1      -3.398   9.515  -1.901  1.00  0.00     0.202 C 
BRANCH   4   5
ATOM      5  C   UNL     1      -3.167   8.585  -3.101  1.00  0.00     0.261 C 
BRANCH   5   6
ATOM      6  O   UNL     1      -2.954   7.201  -2.784  1.00  0.00    -0.460 OA
BRANCH   6   7
ATOM      7  C   UNL     1      -1.767   6.694  -3.200  1.00  0.00     0.330 C 
ATOM      8  O   UNL     1      -0.910   7.292  -3.834  1.00  0.00    -0.247 OA
BRANCH   7   9
ATOM      9  C   UNL     1      -1.529   5.315  -2.726  1.00  0.00     0.094 C 
ATOM     10  C   UNL     1      -2.467   4.436  -2.341  1.00  0.00     0.016 C 
BRANCH  10  11
ATOM     11  C   UNL     1      -2.144   3.064  -1.907  1.00  0.00    -0.018 A 
ATOM     12  C   UNL     1      -0.746   1.449  -0.730  1.00  0.00     0.165 A 
ATOM     13  C   UNL     1      -1.014   2.763  -1.136  1.00  0.00     0.058 A 
ATOM     14  C   UNL     1      -1.640   0.420  -1.059  1.00  0.00     0.200 A 
ATOM     15  C   UNL     1      -2.772   0.696  -1.837  1.00  0.00     0.165 A 
ATOM     16  C   UNL     1      -3.019   2.021  -2.234  1.00  0.00     0.058 A 
BRANCH  12  17
ATOM     17  O   UNL     1       0.355   1.305   0.076  1.00  0.00    -0.493 OA
ATOM     18  C   UNL     1       1.214   0.202  -0.215  1.00  0.00     0.278 C 
ENDBRANCH  12  17
BRANCH  14  19
ATOM     19  O   UNL     1      -1.450  -0.830  -0.535  1.00  0.00    -0.502 OA
ATOM     20  H   UNL     1      -0.691  -1.010  -0.015  1.00  0.00     0.293 HD
ENDBRANCH  14  19
BRANCH  15  21
ATOM     21  O   UNL     1      -3.755  -0.171  -2.237  1.00  0.00    -0.493 OA
ATOM     22  C   UNL     1      -3.494  -1.564  -2.138  1.00  0.00     0.278 C 
ENDBRANCH  15  21
ENDBRANCH  10  11
ENDBRANCH   7   9
ENDBRANCH   6   7
ENDBRANCH   5   6
ENDBRANCH   4   5
ENDBRANCH   3   4
ENDBRANCH   2   3
ENDBRANCH   1   2
BRANCH   1  23
ATOM     23  O   UNL     1      -4.698   7.490  -0.209  1.00  0.00    -0.376 OA
BRANCH  23  24
ATOM     24  C   UNL     1      -5.506   8.362   0.563  1.00  0.00     0.202 C 
BRANCH  24  25
ATOM     25  C   UNL     1      -5.129   9.033   1.897  1.00  0.00     0.261 C 
BRANCH  25  26
ATOM     26  O   UNL     1      -3.773   8.969   2.333  1.00  0.00    -0.460 OA
BRANCH  26  27
ATOM     27  C   UNL     1      -3.528   8.098   3.336  1.00  0.00     0.338 C 
ATOM     28  O   UNL     1      -4.324   7.321   3.857  1.00  0.00    -0.246 OA
BRANCH  27  29
ATOM     29  C   UNL     1      -2.087   8.096   3.619  1.00  0.00     0.060 A 
ATOM     30  C   UNL     1      -1.348   6.941   3.337  1.00  0.00     0.016 A 
ATOM     31  C   UNL     1      -1.477   9.215   4.189  1.00  0.00     0.016 A 
ATOM     32  C   UNL     1       0.010   6.894   3.644  1.00  0.00     0.010 A 
ATOM     33  C   UNL     1      -0.120   9.159   4.514  1.00  0.00     0.010 A 
ATOM     34  C   UNL     1       0.622   7.990   4.268  1.00  0.00    -0.014 A 
BRANCH  34  35
ATOM     35  C   UNL     1       1.995   7.859   4.808  1.00  0.00     0.031 A 
ATOM     36  C   UNL     1       2.168   7.543   6.268  1.00  0.00     0.074 A 
ATOM     37  C   UNL     1       3.070   8.014   4.015  1.00  0.00     0.049 A 
ATOM     38  N   UNL     1       3.268   7.424   6.965  1.00  0.00    -0.248 NA
ATOM     39  C   UNL     1       0.934   7.336   7.044  1.00  0.00     0.031 C 
ATOM     40  C   UNL     1       3.031   8.283   2.579  1.00  0.00     0.029 A 
ATOM     41  N   UNL     1       4.408   7.976   4.316  1.00  0.00    -0.354 N 
ATOM     42  C   UNL     1       2.861   7.138   8.262  1.00  0.00     0.074 A 
ATOM     43  C   UNL     1       1.414   7.127   8.261  1.00  0.00     0.031 C 
ATOM     44  C   UNL     1       4.292   8.397   2.124  1.00  0.00     0.029 A 
ATOM     45  C   UNL     1       5.222   8.244   3.242  1.00  0.00     0.049 A 
ATOM     46  H   UNL     1       4.753   7.776   5.217  1.00  0.00     0.167 HD
ATOM     47  C   UNL     1       3.623   6.904   9.357  1.00  0.00     0.031 A 
ATOM     48  C   UNL     1       6.562   8.374   3.174  1.00  0.00     0.031 A 
ATOM     49  C   UNL     1       5.061   6.940   9.361  1.00  0.00     0.049 A 
ATOM     50  C   UNL     1       7.387   8.185   4.420  1.00  0.00     0.074 A 
ATOM     51  C   UNL     1       5.925   6.702  10.415  1.00  0.00     0.029 A 
ATOM     52  N   UNL     1       5.847   7.247   8.260  1.00  0.00    -0.354 N 
ATOM     53  N   UNL     1       6.992   7.883   5.635  1.00  0.00    -0.248 NA
ATOM     54  C   UNL     1       8.842   8.347   4.285  1.00  0.00     0.031 C 
ATOM     55  C   UNL     1       7.231   6.924   9.966  1.00  0.00     0.029 A 
ATOM     56  C   UNL     1       7.185   7.235   8.617  1.00  0.00     0.049 A 
ATOM     57  H   UNL     1       5.504   7.445   7.359  1.00  0.00     0.167 HD
ATOM     58  C   UNL     1       8.150   7.792   6.401  1.00  0.00     0.074 A 
ATOM     59  C   UNL     1       9.261   8.059   5.510  1.00  0.00     0.031 C 
ATOM     60  C   UNL     1       8.282   7.508   7.721  1.00  0.00     0.031 A 
BRANCH  47  61
ATOM     61  C   UNL     1       2.904   6.633  10.652  1.00  0.00    -0.014 A 
ATOM     62  C   UNL     1       2.203   5.431  10.862  1.00  0.00     0.010 A 
ATOM     63  C   UNL     1       2.944   7.591  11.681  1.00  0.00     0.010 A 
ATOM     64  C   UNL     1       1.514   5.214  12.059  1.00  0.00     0.020 A 
ATOM     65  C   UNL     1       2.281   7.365  12.891  1.00  0.00     0.020 A 
ATOM     66  C   UNL     1       1.553   6.186  13.064  1.00  0.00     0.054 A 
BRANCH  66  67
ATOM     67  S   UNL     1       0.655   5.877  14.609  1.00  0.00     0.124 S 
ATOM     68  O   UNL     1      -0.734   6.048  14.188  1.00  0.00    -0.237 OA
ATOM     69  O   UNL     1       1.047   4.509  14.939  1.00  0.00    -0.237 OA
ATOM     70  O   UNL     1       1.161   6.904  15.516  1.00  0.00    -0.744 OA
ENDBRANCH  66  67
ENDBRANCH  47  61
BRANCH  48  71
ATOM     71  C   UNL     1       7.206   8.716   1.876  1.00  0.00    -0.014 A 
ATOM     72  C   UNL     1       7.987   7.770   1.190  1.00  0.00     0.010 A 
ATOM     73  C   UNL     1       7.030   9.995   1.313  1.00  0.00     0.010 A 
ATOM     74  C   UNL     1       8.587   8.098  -0.030  1.00  0.00     0.020 A 
ATOM     75  C   UNL     1       7.606  10.317   0.081  1.00  0.00     0.020 A 
ATOM     76  C   UNL     1       8.388   9.368  -0.579  1.00  0.00     0.054 A 
BRANCH  76  77
ATOM     77  S   UNL     1       9.124   9.747  -2.194  1.00  0.00     0.124 S 
ATOM     78  O   UNL     1      10.539   9.875  -1.860  1.00  0.00    -0.237 OA
ATOM     79  O   UNL     1       8.764   8.575  -2.987  1.00  0.00    -0.237 OA
ATOM     80  O   UNL     1       8.459  10.987  -2.590  1.00  0.00    -0.744 OA
ENDBRANCH  76  77
ENDBRANCH  48  71
BRANCH  60  81
ATOM     81  C   UNL     1       9.678   7.434   8.283  1.00  0.00    -0.014 A 
ATOM     82  C   UNL     1      10.453   8.591   8.477  1.00  0.00     0.010 A 
ATOM     83  C   UNL     1      10.197   6.188   8.682  1.00  0.00     0.010 A 
ATOM     84  C   UNL     1      11.733   8.500   9.031  1.00  0.00     0.020 A 
ATOM     85  C   UNL     1      11.465   6.096   9.263  1.00  0.00     0.020 A 
ATOM     86  C   UNL     1      12.231   7.252   9.421  1.00  0.00     0.054 A 
BRANCH  86  87
ATOM     87  S   UNL     1      13.876   7.165  10.181  1.00  0.00     0.124 S 
ATOM     88  O   UNL     1      14.752   7.382   9.033  1.00  0.00    -0.237 OA
ATOM     89  O   UNL     1      13.837   8.252  11.156  1.00  0.00    -0.237 OA
ATOM     90  O   UNL     1      13.923   5.822  10.755  1.00  0.00    -0.744 OA
ENDBRANCH  86  87
ENDBRANCH  60  81
ENDBRANCH  34  35
ENDBRANCH  27  29
ENDBRANCH  26  27
ENDBRANCH  25  26
ENDBRANCH  24  25
ENDBRANCH  23  24
ENDBRANCH   1  23
TORSDOF 24
