REMARK SMILES CC(C)[C@H](NC(=O)[C@H]1CC(=O)N(c2ccc(F)cc2)C1)C(=O)N1CCC[C@@H]1C(=O)OCCOCCOCCOC(=O)c1ccc(-c2c3nc(c(-c4ccc(S(=O)(=O)[O-])cc4)c4ccc([nH]4)c(-c4ccc(S(=O)(=O)[O-])cc4)c4nc(c(-c5ccc(S(=O)(=O)[O-])cc5)c5ccc2[nH]5)C=C4)C=C3)cc1
REMARK SMILES IDX 34 1 33 2 32 3 31 4 30 5 28 6 29 7 27 8 23 9 24 10 25 11
REMARK SMILES IDX 26 12 21 13 22 14 4 15 2 16 1 17 3 18 5 19 6 20 7 22 8 23
REMARK SMILES IDX 9 24 20 25 10 26 12 27 11 28 13 29 14 30 19 31 15 32 18 33
REMARK SMILES IDX 16 34 17 35 35 36 36 37 37 38 38 39 39 40 40 41 41 42 42 43
REMARK SMILES IDX 43 44 101 45 44 46 100 47 45 48 46 49 47 50 94 51 48 52
REMARK SMILES IDX 99 53 93 54 95 55 49 56 98 57 92 58 91 59 50 61 80 62 61 63
REMARK SMILES IDX 79 64 62 65 65 66 78 67 96 68 63 69 64 70 77 72 97 73 66 74
REMARK SMILES IDX 51 75 52 76 60 77 53 78 59 79 54 80 55 81 56 82 57 83 58 84
REMARK SMILES IDX 81 85 82 86 90 87 83 88 89 89 84 90 85 91 86 92 87 93 88 94
REMARK SMILES IDX 67 95 68 96 76 97 69 98 75 99 70 100 71 101 72 102 73 103
REMARK SMILES IDX 74 104
REMARK H PARENT 5 21 95 60 65 71
REMARK Flexibility Score: inf
ROOT
ATOM      1  C   UNL     1      -2.896  -7.073  -2.941  1.00  0.00     0.188 C 
ENDROOT
BRANCH   1   2
ATOM      2  O   UNL     1      -2.637  -7.480  -1.605  1.00  0.00    -0.376 OA
BRANCH   2   3
ATOM      3  C   UNL     1      -2.166  -6.495  -0.693  1.00  0.00     0.202 C 
BRANCH   3   4
ATOM      4  C   UNL     1      -1.106  -5.493  -1.165  1.00  0.00     0.261 C 
BRANCH   4   5
ATOM      5  O   UNL     1      -1.483  -4.634  -2.275  1.00  0.00    -0.462 OA
BRANCH   5   6
ATOM      6  C   UNL     1      -0.631  -4.576  -3.342  1.00  0.00     0.328 C 
ATOM      7  O   UNL     1       0.361  -5.290  -3.434  1.00  0.00    -0.250 OA
BRANCH   6   8
ATOM      8  C   UNL     1      -0.924  -3.416  -4.343  1.00  0.00     0.195 C 
ATOM      9  N   UNL     1      -0.185  -2.178  -4.058  1.00  0.00    -0.327 N 
ATOM     10  C   UNL     1      -0.851  -1.082  -4.721  1.00  0.00     0.120 C 
ATOM     11  C   UNL     1      -2.305  -1.379  -4.467  1.00  0.00     0.024 C 
ATOM     12  C   UNL     1      -2.376  -2.909  -4.477  1.00  0.00     0.039 C 
BRANCH   9  13
ATOM     13  C   UNL     1       1.179  -2.167  -3.883  1.00  0.00     0.246 C 
ATOM     14  O   UNL     1       1.930  -2.932  -4.482  1.00  0.00    -0.272 OA
BRANCH  13  15
ATOM     15  C   UNL     1       1.708  -1.190  -2.796  1.00  0.00     0.174 C 
BRANCH  15  16
ATOM     16  C   UNL     1       1.093  -1.431  -1.393  1.00  0.00     0.015 C 
ATOM     17  C   UNL     1       0.442  -2.754  -1.077  1.00  0.00     0.010 C 
ATOM     18  C   UNL     1       2.147  -1.192  -0.308  1.00  0.00     0.010 C 
ENDBRANCH  15  16
BRANCH  15  19
ATOM     19  N   UNL     1       1.792   0.226  -3.285  1.00  0.00    -0.344 N 
ATOM     20  C   UNL     1       1.556   1.467  -2.749  1.00  0.00     0.226 C 
ATOM     21  H   UNL     1       2.089   0.277  -4.222  1.00  0.00     0.164 HD
ATOM     22  O   UNL     1       2.020   2.456  -3.317  1.00  0.00    -0.275 OA
BRANCH  20  23
ATOM     23  C   UNL     1       0.603   1.625  -1.596  1.00  0.00     0.107 C 
ATOM     24  C   UNL     1       0.724   2.694  -0.538  1.00  0.00     0.116 C 
ATOM     25  C   UNL     1      -0.790   1.846  -2.145  1.00  0.00     0.139 C 
ATOM     26  C   UNL     1      -0.685   2.638   0.041  1.00  0.00     0.227 C 
ATOM     27  N   UNL     1      -1.553   2.241  -0.993  1.00  0.00    -0.312 N 
ATOM     28  O   UNL     1      -0.953   2.896   1.204  1.00  0.00    -0.274 OA
BRANCH  27  29
ATOM     29  C   UNL     1      -2.963   2.384  -1.034  1.00  0.00     0.044 A 
ATOM     30  C   UNL     1      -3.633   3.155  -0.077  1.00  0.00     0.029 A 
ATOM     31  C   UNL     1      -3.718   1.849  -2.095  1.00  0.00     0.029 A 
ATOM     32  C   UNL     1      -4.991   3.457  -0.220  1.00  0.00     0.041 A 
ATOM     33  C   UNL     1      -5.081   2.130  -2.228  1.00  0.00     0.041 A 
ATOM     34  C   UNL     1      -5.699   2.953  -1.300  1.00  0.00     0.123 A 
ATOM     35  F   UNL     1      -6.988   3.278  -1.457  1.00  0.00    -0.207 F 
ENDBRANCH  27  29
ENDBRANCH  20  23
ENDBRANCH  15  19
ENDBRANCH  13  15
ENDBRANCH   9  13
ENDBRANCH   6   8
ENDBRANCH   5   6
ENDBRANCH   4   5
ENDBRANCH   3   4
ENDBRANCH   2   3
ENDBRANCH   1   2
BRANCH   1  36
ATOM     36  C   UNL     1      -3.782  -5.836  -3.150  1.00  0.00     0.188 C 
BRANCH  36  37
ATOM     37  O   UNL     1      -4.192  -5.178  -1.970  1.00  0.00    -0.376 OA
BRANCH  37  38
ATOM     38  C   UNL     1      -5.543  -5.362  -1.563  1.00  0.00     0.202 C 
BRANCH  38  39
ATOM     39  C   UNL     1      -6.156  -6.777  -1.551  1.00  0.00     0.261 C 
BRANCH  39  40
ATOM     40  O   UNL     1      -5.928  -7.601  -2.710  1.00  0.00    -0.460 OA
BRANCH  40  41
ATOM     41  C   UNL     1      -6.521  -7.235  -3.875  1.00  0.00     0.338 C 
ATOM     42  O   UNL     1      -7.299  -6.316  -4.030  1.00  0.00    -0.246 OA
BRANCH  41  43
ATOM     43  C   UNL     1      -5.803  -7.942  -4.975  1.00  0.00     0.060 A 
ATOM     44  C   UNL     1      -5.234  -7.177  -6.007  1.00  0.00     0.016 A 
ATOM     45  C   UNL     1      -5.611  -9.326  -4.949  1.00  0.00     0.016 A 
ATOM     46  C   UNL     1      -4.503  -7.792  -7.025  1.00  0.00     0.010 A 
ATOM     47  C   UNL     1      -4.910  -9.947  -5.990  1.00  0.00     0.010 A 
ATOM     48  C   UNL     1      -4.385  -9.187  -7.052  1.00  0.00    -0.014 A 
BRANCH  48  49
ATOM     49  C   UNL     1      -3.967  -9.855  -8.312  1.00  0.00     0.031 A 
ATOM     50  C   UNL     1      -5.057 -10.286  -9.259  1.00  0.00     0.074 A 
ATOM     51  C   UNL     1      -2.675 -10.038  -8.642  1.00  0.00     0.049 A 
ATOM     52  N   UNL     1      -4.966 -10.911 -10.404  1.00  0.00    -0.248 NA
ATOM     53  C   UNL     1      -6.439  -9.964  -8.859  1.00  0.00     0.031 C 
ATOM     54  C   UNL     1      -1.523  -9.618  -7.846  1.00  0.00     0.029 A 
ATOM     55  N   UNL     1      -2.118 -10.636  -9.748  1.00  0.00    -0.354 N 
ATOM     56  C   UNL     1      -6.272 -11.055 -10.857  1.00  0.00     0.074 A 
ATOM     57  C   UNL     1      -7.140 -10.485  -9.853  1.00  0.00     0.031 C 
ATOM     58  C   UNL     1      -0.395  -9.986  -8.484  1.00  0.00     0.029 A 
ATOM     59  C   UNL     1      -0.744 -10.693  -9.716  1.00  0.00     0.049 A 
ATOM     60  H   UNL     1      -2.654 -10.992 -10.493  1.00  0.00     0.167 HD
ATOM     61  C   UNL     1      -6.714 -11.604 -12.012  1.00  0.00     0.031 A 
ATOM     62  C   UNL     1       0.127 -11.269 -10.572  1.00  0.00     0.031 A 
ATOM     63  C   UNL     1      -5.857 -12.190 -13.005  1.00  0.00     0.049 A 
ATOM     64  C   UNL     1      -0.397 -11.960 -11.810  1.00  0.00     0.074 A 
ATOM     65  C   UNL     1      -6.213 -12.782 -14.204  1.00  0.00     0.029 A 
ATOM     66  N   UNL     1      -4.476 -12.260 -12.915  1.00  0.00    -0.354 N 
ATOM     67  N   UNL     1      -1.635 -12.075 -12.231  1.00  0.00    -0.248 NA
ATOM     68  C   UNL     1       0.596 -12.591 -12.693  1.00  0.00     0.031 C 
ATOM     69  C   UNL     1      -5.049 -13.259 -14.815  1.00  0.00     0.029 A 
ATOM     70  C   UNL     1      -3.965 -12.904 -14.028  1.00  0.00     0.049 A 
ATOM     71  H   UNL     1      -3.939 -11.905 -12.171  1.00  0.00     0.167 HD
ATOM     72  C   UNL     1      -1.563 -12.760 -13.442  1.00  0.00     0.074 A 
ATOM     73  C   UNL     1      -0.161 -13.019 -13.694  1.00  0.00     0.031 C 
ATOM     74  C   UNL     1      -2.566 -13.142 -14.272  1.00  0.00     0.031 A 
BRANCH  61  75
ATOM     75  C   UNL     1      -8.199 -11.617 -12.253  1.00  0.00    -0.014 A 
ATOM     76  C   UNL     1      -8.892 -10.433 -12.562  1.00  0.00     0.010 A 
ATOM     77  C   UNL     1      -8.900 -12.836 -12.222  1.00  0.00     0.010 A 
ATOM     78  C   UNL     1     -10.265 -10.466 -12.817  1.00  0.00     0.020 A 
ATOM     79  C   UNL     1     -10.268 -12.876 -12.504  1.00  0.00     0.020 A 
ATOM     80  C   UNL     1     -10.943 -11.688 -12.790  1.00  0.00     0.054 A 
BRANCH  80  81
ATOM     81  S   UNL     1     -12.714 -11.705 -13.178  1.00  0.00     0.124 S 
ATOM     82  O   UNL     1     -13.287 -11.062 -11.998  1.00  0.00    -0.237 OA
ATOM     83  O   UNL     1     -12.778 -10.924 -14.411  1.00  0.00    -0.237 OA
ATOM     84  O   UNL     1     -13.025 -13.125 -13.326  1.00  0.00    -0.744 OA
ENDBRANCH  80  81
ENDBRANCH  61  75
BRANCH  62  85
ATOM     85  C   UNL     1       1.591 -11.263 -10.281  1.00  0.00    -0.014 A 
ATOM     86  C   UNL     1       2.493 -10.572 -11.111  1.00  0.00     0.010 A 
ATOM     87  C   UNL     1       2.097 -12.002  -9.196  1.00  0.00     0.010 A 
ATOM     88  C   UNL     1       3.871 -10.649 -10.883  1.00  0.00     0.020 A 
ATOM     89  C   UNL     1       3.472 -12.056  -8.945  1.00  0.00     0.020 A 
ATOM     90  C   UNL     1       4.352 -11.395  -9.802  1.00  0.00     0.054 A 
BRANCH  90  91
ATOM     91  S   UNL     1       6.143 -11.475  -9.518  1.00  0.00     0.124 S 
ATOM     92  O   UNL     1       6.582 -12.354 -10.597  1.00  0.00    -0.237 OA
ATOM     93  O   UNL     1       6.545 -10.076  -9.638  1.00  0.00    -0.237 OA
ATOM     94  O   UNL     1       6.251 -12.034  -8.172  1.00  0.00    -0.744 OA
ENDBRANCH  90  91
ENDBRANCH  62  85
BRANCH  74  95
ATOM     95  C   UNL     1      -2.191 -13.834 -15.558  1.00  0.00    -0.014 A 
ATOM     96  C   UNL     1      -1.702 -15.151 -15.567  1.00  0.00     0.010 A 
ATOM     97  C   UNL     1      -2.400 -13.173 -16.783  1.00  0.00     0.010 A 
ATOM     98  C   UNL     1      -1.397 -15.784 -16.776  1.00  0.00     0.020 A 
ATOM     99  C   UNL     1      -2.125 -13.812 -17.995  1.00  0.00     0.020 A 
ATOM    100  C   UNL     1      -1.611 -15.110 -17.983  1.00  0.00     0.054 A 
BRANCH 100 101
ATOM    101  S   UNL     1      -1.250 -15.969 -19.539  1.00  0.00     0.124 S 
ATOM    102  O   UNL     1       0.210 -15.980 -19.549  1.00  0.00    -0.237 OA
ATOM    103  O   UNL     1      -1.888 -17.268 -19.343  1.00  0.00    -0.237 OA
ATOM    104  O   UNL     1      -1.873 -15.123 -20.555  1.00  0.00    -0.744 OA
ENDBRANCH 100 101
ENDBRANCH  74  95
ENDBRANCH  48  49
ENDBRANCH  41  43
ENDBRANCH  40  41
ENDBRANCH  39  40
ENDBRANCH  38  39
ENDBRANCH  37  38
ENDBRANCH  36  37
ENDBRANCH   1  36
TORSDOF 26
