REMARK SMILES [NH3+][C@@]1(C(=O)OCCOCCOCCOC(=O)c2ccc(-c3c4nc(c(-c5ccc(S(=O)(=O)[O-])cc5)c5ccc([nH]5)c(-c5ccc(S(=O)(=O)[O-])cc5)c5nc(c(-c6ccc(S(=O)(=O)[O-])cc6)c6ccc3[nH]6)C=C5)C=C4)cc2)CC[C@@H]([N@H+]2CC[C@H]([NH+]3CCOCC3)C2)C1
REMARK SMILES IDX 10 1 9 2 8 3 7 4 6 5 5 6 3 7 4 8 2 9 77 10 91 11 78 12 79 13
REMARK SMILES IDX 1 14 80 18 81 19 90 20 82 22 83 23 84 24 85 25 89 26 86 28
REMARK SMILES IDX 88 29 87 30 11 31 12 32 13 33 14 34 15 35 16 36 17 37 18 38
REMARK SMILES IDX 76 39 19 40 75 41 20 42 21 43 22 44 69 45 23 46 74 47 68 48
REMARK SMILES IDX 70 49 24 50 73 51 67 52 66 53 25 55 55 56 36 57 54 58 37 59
REMARK SMILES IDX 40 60 53 61 71 62 38 63 39 64 52 66 72 67 41 68 26 69 27 70
REMARK SMILES IDX 35 71 28 72 34 73 29 74 30 75 31 76 32 77 33 78 56 79 57 80
REMARK SMILES IDX 65 81 58 82 64 83 59 84 60 85 61 86 62 87 63 88 42 89 43 90
REMARK SMILES IDX 51 91 44 92 50 93 45 94 46 95 47 96 48 97 49 98
REMARK H PARENT 1 15 1 16 1 17 80 21 84 27 70 54 40 65
REMARK Flexibility Score: inf
ROOT
ATOM      1  C   UNL     1      -2.009   0.052   1.897  1.00  0.00     0.188 C 
ENDROOT
BRANCH   1   2
ATOM      2  C   UNL     1      -2.401   0.827   0.634  1.00  0.00     0.188 C 
BRANCH   2   3
ATOM      3  O   UNL     1      -3.738   0.708   0.173  1.00  0.00    -0.376 OA
BRANCH   3   4
ATOM      4  C   UNL     1      -4.259  -0.602  -0.047  1.00  0.00     0.202 C 
BRANCH   4   5
ATOM      5  C   UNL     1      -3.418  -1.618  -0.841  1.00  0.00     0.261 C 
BRANCH   5   6
ATOM      6  O   UNL     1      -2.123  -1.911  -0.272  1.00  0.00    -0.459 OA
BRANCH   6   7
ATOM      7  C   UNL     1      -1.053  -1.702  -1.087  1.00  0.00     0.368 C 
ATOM      8  O   UNL     1      -1.156  -1.356  -2.260  1.00  0.00    -0.245 OA
BRANCH   7   9
ATOM      9  C   UNL     1       0.330  -1.904  -0.383  1.00  0.00     0.198 C 
ATOM     10  C   UNL     1       1.042  -3.029  -1.150  1.00  0.00     0.087 C 
ATOM     11  C   UNL     1       0.327  -2.374   1.095  1.00  0.00     0.145 C 
ATOM     12  C   UNL     1       0.774  -4.271  -0.310  1.00  0.00     0.072 C 
ATOM     13  C   UNL     1       0.889  -3.804   1.145  1.00  0.00     0.191 C 
BRANCH   9  14
ATOM     14  N   UNL     1       1.087  -0.637  -0.520  1.00  0.00    -0.343 N 
ATOM     15  H   UNL     1       1.081  -0.341  -1.496  1.00  0.00     0.345 HD
ATOM     16  H   UNL     1       2.050  -0.781  -0.215  1.00  0.00     0.345 HD
ATOM     17  H   UNL     1       0.652   0.084   0.057  1.00  0.00     0.345 HD
ENDBRANCH   9  14
BRANCH  13  18
ATOM     18  N   UNL     1       2.238  -3.968   1.700  1.00  0.00    -0.327 N 
ATOM     19  C   UNL     1       3.308  -3.174   1.110  1.00  0.00     0.269 C 
ATOM     20  C   UNL     1       2.336  -3.748   3.152  1.00  0.00     0.328 C 
ATOM     21  H   UNL     1       2.382  -4.947   1.452  1.00  0.00     0.348 HD
ATOM     22  C   UNL     1       4.476  -3.436   2.035  1.00  0.00     0.132 C 
ATOM     23  C   UNL     1       3.857  -3.583   3.427  1.00  0.00     0.245 C 
BRANCH  23  24
ATOM     24  N   UNL     1       4.497  -4.517   4.371  1.00  0.00    -0.324 N 
ATOM     25  C   UNL     1       5.956  -4.330   4.516  1.00  0.00     0.291 C 
ATOM     26  C   UNL     1       4.214  -5.951   4.190  1.00  0.00     0.291 C 
ATOM     27  H   UNL     1       4.029  -4.241   5.234  1.00  0.00     0.348 HD
ATOM     28  C   UNL     1       6.835  -5.109   3.513  1.00  0.00     0.221 C 
ATOM     29  C   UNL     1       5.078  -6.657   3.139  1.00  0.00     0.221 C 
ATOM     30  O   UNL     1       6.473  -6.492   3.418  1.00  0.00    -0.370 OA
ENDBRANCH  23  24
ENDBRANCH  13  18
ENDBRANCH   7   9
ENDBRANCH   6   7
ENDBRANCH   5   6
ENDBRANCH   4   5
ENDBRANCH   3   4
ENDBRANCH   2   3
ENDBRANCH   1   2
BRANCH   1  31
ATOM     31  O   UNL     1      -2.910  -0.968   2.268  1.00  0.00    -0.376 OA
BRANCH  31  32
ATOM     32  C   UNL     1      -3.373  -1.020   3.611  1.00  0.00     0.202 C 
BRANCH  32  33
ATOM     33  C   UNL     1      -4.048   0.233   4.211  1.00  0.00     0.261 C 
BRANCH  33  34
ATOM     34  O   UNL     1      -3.304   1.465   4.162  1.00  0.00    -0.460 OA
BRANCH  34  35
ATOM     35  C   UNL     1      -2.123   1.511   4.827  1.00  0.00     0.338 C 
ATOM     36  O   UNL     1      -1.675   0.649   5.567  1.00  0.00    -0.246 OA
BRANCH  35  37
ATOM     37  C   UNL     1      -1.328   2.632   4.253  1.00  0.00     0.060 A 
ATOM     38  C   UNL     1      -0.035   2.361   3.772  1.00  0.00     0.016 A 
ATOM     39  C   UNL     1      -1.873   3.909   4.103  1.00  0.00     0.016 A 
ATOM     40  C   UNL     1       0.726   3.373   3.178  1.00  0.00     0.010 A 
ATOM     41  C   UNL     1      -1.101   4.926   3.532  1.00  0.00     0.010 A 
ATOM     42  C   UNL     1       0.215   4.675   3.097  1.00  0.00    -0.014 A 
BRANCH  42  43
ATOM     43  C   UNL     1       1.115   5.816   2.784  1.00  0.00     0.031 A 
ATOM     44  C   UNL     1       1.679   6.602   3.939  1.00  0.00     0.074 A 
ATOM     45  C   UNL     1       1.433   6.162   1.522  1.00  0.00     0.049 A 
ATOM     46  N   UNL     1       2.415   7.682   3.931  1.00  0.00    -0.248 NA
ATOM     47  C   UNL     1       1.363   6.097   5.286  1.00  0.00     0.031 C 
ATOM     48  C   UNL     1       1.006   5.460   0.314  1.00  0.00     0.029 A 
ATOM     49  N   UNL     1       2.187   7.211   1.053  1.00  0.00    -0.354 N 
ATOM     50  C   UNL     1       2.634   7.997   5.268  1.00  0.00     0.074 A 
ATOM     51  C   UNL     1       1.933   7.009   6.057  1.00  0.00     0.031 C 
ATOM     52  C   UNL     1       1.493   6.108  -0.760  1.00  0.00     0.029 A 
ATOM     53  C   UNL     1       2.231   7.292  -0.319  1.00  0.00     0.049 A 
ATOM     54  H   UNL     1       2.652   7.846   1.645  1.00  0.00     0.167 HD
ATOM     55  C   UNL     1       3.355   9.014   5.795  1.00  0.00     0.031 A 
ATOM     56  C   UNL     1       2.778   8.226  -1.125  1.00  0.00     0.031 A 
ATOM     57  C   UNL     1       4.035  10.012   5.013  1.00  0.00     0.049 A 
ATOM     58  C   UNL     1       3.502   9.404  -0.517  1.00  0.00     0.074 A 
ATOM     59  C   UNL     1       4.799  11.077   5.457  1.00  0.00     0.029 A 
ATOM     60  N   UNL     1       4.023  10.077   3.628  1.00  0.00    -0.354 N 
ATOM     61  N   UNL     1       3.719   9.678   0.748  1.00  0.00    -0.248 NA
ATOM     62  C   UNL     1       4.061  10.395  -1.449  1.00  0.00     0.031 C 
ATOM     63  C   UNL     1       5.193  11.825   4.343  1.00  0.00     0.029 A 
ATOM     64  C   UNL     1       4.739  11.182   3.201  1.00  0.00     0.049 A 
ATOM     65  H   UNL     1       3.571   9.433   3.036  1.00  0.00     0.167 HD
ATOM     66  C   UNL     1       4.466  10.854   0.761  1.00  0.00     0.074 A 
ATOM     67  C   UNL     1       4.673  11.232  -0.621  1.00  0.00     0.031 C 
ATOM     68  C   UNL     1       4.941  11.553   1.822  1.00  0.00     0.031 A 
BRANCH  55  69
ATOM     69  C   UNL     1       3.401   9.123   7.297  1.00  0.00    -0.014 A 
ATOM     70  C   UNL     1       4.089   8.178   8.081  1.00  0.00     0.010 A 
ATOM     71  C   UNL     1       2.756  10.199   7.934  1.00  0.00     0.010 A 
ATOM     72  C   UNL     1       4.090   8.281   9.474  1.00  0.00     0.020 A 
ATOM     73  C   UNL     1       2.783  10.325   9.325  1.00  0.00     0.020 A 
ATOM     74  C   UNL     1       3.434   9.353  10.088  1.00  0.00     0.054 A 
BRANCH  74  75
ATOM     75  S   UNL     1       3.460   9.466  11.897  1.00  0.00     0.124 S 
ATOM     76  O   UNL     1       2.577   8.366  12.279  1.00  0.00    -0.237 OA
ATOM     77  O   UNL     1       4.873   9.273  12.209  1.00  0.00    -0.237 OA
ATOM     78  O   UNL     1       2.940  10.803  12.170  1.00  0.00    -0.744 OA
ENDBRANCH  74  75
ENDBRANCH  55  69
BRANCH  56  79
ATOM     79  C   UNL     1       2.644   8.104  -2.606  1.00  0.00    -0.014 A 
ATOM     80  C   UNL     1       3.768   7.845  -3.411  1.00  0.00     0.010 A 
ATOM     81  C   UNL     1       1.387   8.251  -3.220  1.00  0.00     0.010 A 
ATOM     82  C   UNL     1       3.637   7.743  -4.800  1.00  0.00     0.020 A 
ATOM     83  C   UNL     1       1.247   8.120  -4.605  1.00  0.00     0.020 A 
ATOM     84  C   UNL     1       2.376   7.874  -5.388  1.00  0.00     0.054 A 
BRANCH  84  85
ATOM     85  S   UNL     1       2.224   7.673  -7.185  1.00  0.00     0.124 S 
ATOM     86  O   UNL     1       2.865   8.885  -7.683  1.00  0.00    -0.237 OA
ATOM     87  O   UNL     1       2.951   6.428  -7.423  1.00  0.00    -0.237 OA
ATOM     88  O   UNL     1       0.780   7.594  -7.400  1.00  0.00    -0.744 OA
ENDBRANCH  84  85
ENDBRANCH  56  79
BRANCH  68  89
ATOM     89  C   UNL     1       5.775  12.780   1.543  1.00  0.00    -0.014 A 
ATOM     90  C   UNL     1       5.206  13.957   1.027  1.00  0.00     0.010 A 
ATOM     91  C   UNL     1       7.145  12.771   1.869  1.00  0.00     0.010 A 
ATOM     92  C   UNL     1       5.996  15.091   0.813  1.00  0.00     0.020 A 
ATOM     93  C   UNL     1       7.932  13.912   1.687  1.00  0.00     0.020 A 
ATOM     94  C   UNL     1       7.354  15.062   1.147  1.00  0.00     0.054 A 
BRANCH  94  95
ATOM     95  S   UNL     1       8.347  16.561   0.902  1.00  0.00     0.124 S 
ATOM     96  O   UNL     1       8.454  16.621  -0.553  1.00  0.00    -0.237 OA
ATOM     97  O   UNL     1       7.519  17.596   1.516  1.00  0.00    -0.237 OA
ATOM     98  O   UNL     1       9.594  16.270   1.606  1.00  0.00    -0.744 OA
ENDBRANCH  94  95
ENDBRANCH  68  89
ENDBRANCH  42  43
ENDBRANCH  35  37
ENDBRANCH  34  35
ENDBRANCH  33  34
ENDBRANCH  32  33
ENDBRANCH  31  32
ENDBRANCH   1  31
TORSDOF 23
