REMARK SMILES CC[NH2+][C@]1(C(=O)OCCOCCOCCOC(=O)c2ccc(-c3c4nc(c(-c5ccc(S(=O)(=O)[O-])cc5)c5ccc([nH]5)c(-c5ccc(S(=O)(=O)[O-])cc5)c5nc(c(-c6ccc(S(=O)(=O)[O-])cc6)c6ccc3[nH]6)C=C5)C=C4)cc2)CCC[C@H]1CC[N@H+]1CCC[C@@H](CC)C1
REMARK SMILES IDX 11 1 10 2 9 3 8 4 7 5 5 6 6 7 4 8 79 9 82 10 80 11 81 12
REMARK SMILES IDX 3 13 2 16 1 17 83 18 84 19 85 20 86 21 92 22 87 24 89 25
REMARK SMILES IDX 88 26 90 27 91 28 12 29 13 30 14 31 15 32 16 33 17 34 18 35
REMARK SMILES IDX 19 36 20 37 78 38 21 39 77 40 22 41 23 42 24 43 71 44 25 45
REMARK SMILES IDX 76 46 70 47 72 48 26 49 75 50 69 51 68 52 27 54 57 55 38 56
REMARK SMILES IDX 56 57 39 58 42 59 55 60 73 61 40 62 41 63 54 65 74 66 43 67
REMARK SMILES IDX 28 68 29 69 37 70 30 71 36 72 31 73 32 74 33 75 34 76 35 77
REMARK SMILES IDX 58 78 59 79 67 80 60 81 66 82 61 83 62 84 63 85 64 86 65 87
REMARK SMILES IDX 44 88 45 89 53 90 46 91 52 92 47 93 48 94 49 95 50 96 51 97
REMARK H PARENT 3 14 3 15 85 23 72 53 42 64
REMARK Flexibility Score: inf
ROOT
ATOM      1  C   UNL     1      -0.466  -0.083  -0.178  1.00  0.00     0.188 C 
ENDROOT
BRANCH   1   2
ATOM      2  O   UNL     1       0.567   0.566   0.551  1.00  0.00    -0.376 OA
BRANCH   2   3
ATOM      3  C   UNL     1       1.787  -0.141   0.679  1.00  0.00     0.202 C 
BRANCH   3   4
ATOM      4  C   UNL     1       2.550  -0.331  -0.645  1.00  0.00     0.261 C 
BRANCH   4   5
ATOM      5  O   UNL     1       1.949  -1.207  -1.629  1.00  0.00    -0.459 OA
BRANCH   5   6
ATOM      6  C   UNL     1       1.712  -2.474  -1.197  1.00  0.00     0.368 C 
ATOM      7  O   UNL     1       1.908  -2.781  -0.036  1.00  0.00    -0.245 OA
BRANCH   6   8
ATOM      8  C   UNL     1       1.147  -3.411  -2.290  1.00  0.00     0.197 C 
ATOM      9  C   UNL     1       2.033  -3.247  -3.539  1.00  0.00     0.081 C 
ATOM     10  C   UNL     1       1.300  -4.931  -1.924  1.00  0.00     0.068 C 
ATOM     11  C   UNL     1       1.961  -4.554  -4.304  1.00  0.00     0.008 C 
ATOM     12  C   UNL     1       1.590  -5.624  -3.288  1.00  0.00     0.011 C 
BRANCH   8  13
ATOM     13  N   UNL     1      -0.297  -3.054  -2.516  1.00  0.00    -0.332 N 
ATOM     14  H   UNL     1      -0.828  -3.413  -1.723  1.00  0.00     0.347 HD
ATOM     15  H   UNL     1      -0.299  -2.039  -2.621  1.00  0.00     0.347 HD
BRANCH  13  16
ATOM     16  C   UNL     1      -0.940  -3.553  -3.735  1.00  0.00     0.257 C 
ATOM     17  C   UNL     1      -2.421  -3.201  -3.765  1.00  0.00     0.071 C 
ENDBRANCH  13  16
ENDBRANCH   8  13
BRANCH  10  18
ATOM     18  C   UNL     1       2.402  -5.397  -0.916  1.00  0.00     0.072 C 
BRANCH  18  19
ATOM     19  C   UNL     1       2.228  -5.346   0.635  1.00  0.00     0.262 C 
BRANCH  19  20
ATOM     20  N   UNL     1       0.955  -5.674   1.280  1.00  0.00    -0.335 N 
ATOM     21  C   UNL     1      -0.019  -4.581   1.255  1.00  0.00     0.262 C 
ATOM     22  C   UNL     1       0.424  -6.959   0.837  1.00  0.00     0.265 C 
ATOM     23  H   UNL     1       1.165  -5.790   2.271  1.00  0.00     0.348 HD
ATOM     24  C   UNL     1      -1.296  -4.924   2.013  1.00  0.00     0.062 C 
ATOM     25  C   UNL     1      -0.860  -7.360   1.571  1.00  0.00     0.044 C 
ATOM     26  C   UNL     1      -1.892  -6.232   1.517  1.00  0.00     0.015 C 
BRANCH  25  27
ATOM     27  C   UNL     1      -1.441  -8.688   1.042  1.00  0.00     0.006 C 
ATOM     28  C   UNL     1      -1.529  -8.802  -0.476  1.00  0.00     0.004 C 
ENDBRANCH  25  27
ENDBRANCH  19  20
ENDBRANCH  18  19
ENDBRANCH  10  18
ENDBRANCH   6   8
ENDBRANCH   5   6
ENDBRANCH   4   5
ENDBRANCH   3   4
ENDBRANCH   2   3
ENDBRANCH   1   2
BRANCH   1  29
ATOM     29  C   UNL     1      -0.618   0.486  -1.600  1.00  0.00     0.188 C 
BRANCH  29  30
ATOM     30  O   UNL     1      -0.334   1.864  -1.816  1.00  0.00    -0.376 OA
BRANCH  30  31
ATOM     31  C   UNL     1      -0.696   2.800  -0.810  1.00  0.00     0.202 C 
BRANCH  31  32
ATOM     32  C   UNL     1      -2.194   3.024  -0.595  1.00  0.00     0.261 C 
BRANCH  32  33
ATOM     33  O   UNL     1      -2.883   1.878  -0.056  1.00  0.00    -0.460 OA
BRANCH  33  34
ATOM     34  C   UNL     1      -3.739   1.272  -0.913  1.00  0.00     0.338 C 
ATOM     35  O   UNL     1      -3.969   1.603  -2.066  1.00  0.00    -0.246 OA
BRANCH  34  36
ATOM     36  C   UNL     1      -4.296   0.024  -0.347  1.00  0.00     0.060 A 
ATOM     37  C   UNL     1      -4.194  -1.131  -1.132  1.00  0.00     0.016 A 
ATOM     38  C   UNL     1      -5.069   0.011   0.814  1.00  0.00     0.016 A 
ATOM     39  C   UNL     1      -4.939  -2.268  -0.822  1.00  0.00     0.010 A 
ATOM     40  C   UNL     1      -5.828  -1.131   1.121  1.00  0.00     0.010 A 
ATOM     41  C   UNL     1      -5.818  -2.251   0.266  1.00  0.00    -0.014 A 
BRANCH  41  42
ATOM     42  C   UNL     1      -6.890  -3.282   0.340  1.00  0.00     0.031 A 
ATOM     43  C   UNL     1      -8.263  -2.935  -0.173  1.00  0.00     0.074 A 
ATOM     44  C   UNL     1      -6.659  -4.532   0.778  1.00  0.00     0.049 A 
ATOM     45  N   UNL     1      -9.349  -3.666  -0.198  1.00  0.00    -0.248 NA
ATOM     46  C   UNL     1      -8.431  -1.585  -0.733  1.00  0.00     0.031 C 
ATOM     47  C   UNL     1      -5.372  -5.037   1.241  1.00  0.00     0.029 A 
ATOM     48  N   UNL     1      -7.511  -5.606   0.905  1.00  0.00    -0.354 N 
ATOM     49  C   UNL     1     -10.333  -2.859  -0.754  1.00  0.00     0.074 A 
ATOM     50  C   UNL     1      -9.720  -1.577  -1.032  1.00  0.00     0.031 C 
ATOM     51  C   UNL     1      -5.524  -6.319   1.615  1.00  0.00     0.029 A 
ATOM     52  C   UNL     1      -6.916  -6.718   1.448  1.00  0.00     0.049 A 
ATOM     53  H   UNL     1      -8.456  -5.579   0.632  1.00  0.00     0.167 HD
ATOM     54  C   UNL     1     -11.631  -3.151  -1.014  1.00  0.00     0.031 A 
ATOM     55  C   UNL     1      -7.418  -7.919   1.797  1.00  0.00     0.031 A 
ATOM     56  C   UNL     1     -12.255  -4.415  -0.732  1.00  0.00     0.049 A 
ATOM     57  C   UNL     1      -8.870  -8.213   1.552  1.00  0.00     0.074 A 
ATOM     58  C   UNL     1     -13.567  -4.797  -0.958  1.00  0.00     0.029 A 
ATOM     59  N   UNL     1     -11.618  -5.503  -0.154  1.00  0.00    -0.354 N 
ATOM     60  N   UNL     1      -9.788  -7.436   1.029  1.00  0.00    -0.248 NA
ATOM     61  C   UNL     1      -9.352  -9.548   1.932  1.00  0.00     0.031 C 
ATOM     62  C   UNL     1     -13.734  -6.100  -0.474  1.00  0.00     0.029 A 
ATOM     63  C   UNL     1     -12.514  -6.549   0.002  1.00  0.00     0.049 A 
ATOM     64  H   UNL     1     -10.669  -5.528   0.106  1.00  0.00     0.167 HD
ATOM     65  C   UNL     1     -10.953  -8.193   1.001  1.00  0.00     0.074 A 
ATOM     66  C   UNL     1     -10.620  -9.495   1.544  1.00  0.00     0.031 C 
ATOM     67  C   UNL     1     -12.185  -7.838   0.558  1.00  0.00     0.031 A 
BRANCH  54  68
ATOM     68  C   UNL     1     -12.469  -2.038  -1.582  1.00  0.00    -0.014 A 
ATOM     69  C   UNL     1     -12.293  -1.588  -2.904  1.00  0.00     0.010 A 
ATOM     70  C   UNL     1     -13.420  -1.405  -0.763  1.00  0.00     0.010 A 
ATOM     71  C   UNL     1     -13.007  -0.482  -3.373  1.00  0.00     0.020 A 
ATOM     72  C   UNL     1     -14.156  -0.317  -1.237  1.00  0.00     0.020 A 
ATOM     73  C   UNL     1     -13.922   0.156  -2.530  1.00  0.00     0.054 A 
BRANCH  73  74
ATOM     74  S   UNL     1     -14.810   1.613  -3.144  1.00  0.00     0.124 S 
ATOM     75  O   UNL     1     -13.782   2.648  -3.057  1.00  0.00    -0.237 OA
ATOM     76  O   UNL     1     -15.186   1.216  -4.499  1.00  0.00    -0.237 OA
ATOM     77  O   UNL     1     -15.923   1.759  -2.210  1.00  0.00    -0.744 OA
ENDBRANCH  73  74
ENDBRANCH  54  68
BRANCH  55  78
ATOM     78  C   UNL     1      -6.528  -8.926   2.440  1.00  0.00    -0.014 A 
ATOM     79  C   UNL     1      -6.098 -10.066   1.739  1.00  0.00     0.010 A 
ATOM     80  C   UNL     1      -6.065  -8.717   3.753  1.00  0.00     0.010 A 
ATOM     81  C   UNL     1      -5.216 -10.973   2.336  1.00  0.00     0.020 A 
ATOM     82  C   UNL     1      -5.165  -9.607   4.344  1.00  0.00     0.020 A 
ATOM     83  C   UNL     1      -4.748 -10.733   3.632  1.00  0.00     0.054 A 
BRANCH  83  84
ATOM     84  S   UNL     1      -3.533 -11.873   4.351  1.00  0.00     0.124 S 
ATOM     85  O   UNL     1      -4.358 -13.032   4.677  1.00  0.00    -0.237 OA
ATOM     86  O   UNL     1      -2.587 -12.059   3.252  1.00  0.00    -0.237 OA
ATOM     87  O   UNL     1      -3.007 -11.135   5.497  1.00  0.00    -0.744 OA
ENDBRANCH  83  84
ENDBRANCH  55  78
BRANCH  67  88
ATOM     88  C   UNL     1     -13.267  -8.883   0.619  1.00  0.00    -0.014 A 
ATOM     89  C   UNL     1     -13.839  -9.274   1.842  1.00  0.00     0.010 A 
ATOM     90  C   UNL     1     -13.740  -9.460  -0.574  1.00  0.00     0.010 A 
ATOM     91  C   UNL     1     -14.838 -10.252   1.875  1.00  0.00     0.020 A 
ATOM     92  C   UNL     1     -14.755 -10.420  -0.547  1.00  0.00     0.020 A 
ATOM     93  C   UNL     1     -15.285 -10.823   0.680  1.00  0.00     0.054 A 
BRANCH  93  94
ATOM     94  S   UNL     1     -16.598 -12.075   0.742  1.00  0.00     0.124 S 
ATOM     95  O   UNL     1     -15.870 -13.254   1.203  1.00  0.00    -0.237 OA
ATOM     96  O   UNL     1     -17.543 -11.505   1.700  1.00  0.00    -0.237 OA
ATOM     97  O   UNL     1     -17.080 -12.139  -0.636  1.00  0.00    -0.744 OA
ENDBRANCH  93  94
ENDBRANCH  67  88
ENDBRANCH  41  42
ENDBRANCH  34  36
ENDBRANCH  33  34
ENDBRANCH  32  33
ENDBRANCH  31  32
ENDBRANCH  30  31
ENDBRANCH  29  30
ENDBRANCH   1  29
TORSDOF 26
