REMARK SMILES O=C(OCCOCCOCCOC(=O)[C@H]1CC[C@H]2CCCC[C@@H]2[N@H+]1[C@@H]1CCCSC1)c1ccc(-c2c3nc(c(-c4ccc(S(=O)(=O)[O-])cc4)c4ccc([nH]4)c(-c4ccc(S(=O)(=O)[O-])cc4)c4nc(c(-c5ccc(S(=O)(=O)[O-])cc5)c5ccc2[nH]5)C=C4)C=C3)cc1
REMARK SMILES IDX 7 1 6 2 5 3 4 4 3 5 2 6 1 7 31 8 32 9 90 10 33 11 89 12
REMARK SMILES IDX 34 13 35 14 36 15 83 16 37 17 88 18 82 19 84 20 38 21 87 22
REMARK SMILES IDX 81 23 80 24 39 26 69 27 50 28 68 29 51 30 54 31 67 32 85 33
REMARK SMILES IDX 52 34 53 35 66 37 86 38 55 39 40 40 41 41 49 42 42 43 48 44
REMARK SMILES IDX 43 45 44 46 45 47 46 48 47 49 70 50 71 51 79 52 72 53 78 54
REMARK SMILES IDX 73 55 74 56 75 57 76 58 77 59 56 60 57 61 65 62 58 63 64 64
REMARK SMILES IDX 59 65 60 66 61 67 62 68 63 69 8 70 9 71 10 72 11 73 12 74
REMARK SMILES IDX 13 75 14 76 15 77 16 78 24 79 17 80 23 81 18 83 22 84 19 85
REMARK SMILES IDX 21 86 20 87 25 88 26 89 30 90 27 91 29 92 28 93
REMARK H PARENT 84 25 54 36 24 82
REMARK Flexibility Score: inf
ROOT
ATOM      1  C   UNL     1       2.481   1.806  -0.437  1.00  0.00     0.188 C 
ENDROOT
BRANCH   1   2
ATOM      2  O   UNL     1       3.817   1.583   0.026  1.00  0.00    -0.376 OA
BRANCH   2   3
ATOM      3  C   UNL     1       4.699   1.114  -1.003  1.00  0.00     0.202 C 
BRANCH   3   4
ATOM      4  C   UNL     1       4.460  -0.333  -1.480  1.00  0.00     0.261 C 
BRANCH   4   5
ATOM      5  O   UNL     1       3.115  -0.805  -1.276  1.00  0.00    -0.460 OA
BRANCH   5   6
ATOM      6  C   UNL     1       2.568  -1.399  -0.185  1.00  0.00     0.338 C 
ATOM      7  O   UNL     1       1.378  -1.718  -0.233  1.00  0.00    -0.246 OA
BRANCH   6   8
ATOM      8  C   UNL     1       3.321  -1.695   1.073  1.00  0.00     0.060 A 
ATOM      9  C   UNL     1       4.529  -1.105   1.436  1.00  0.00     0.016 A 
ATOM     10  C   UNL     1       2.753  -2.617   1.972  1.00  0.00     0.016 A 
ATOM     11  C   UNL     1       5.228  -1.505   2.563  1.00  0.00     0.010 A 
ATOM     12  C   UNL     1       3.417  -2.974   3.153  1.00  0.00     0.010 A 
ATOM     13  C   UNL     1       4.685  -2.449   3.426  1.00  0.00    -0.014 A 
BRANCH  13  14
ATOM     14  C   UNL     1       5.540  -2.942   4.526  1.00  0.00     0.031 A 
ATOM     15  C   UNL     1       6.147  -4.294   4.399  1.00  0.00     0.074 A 
ATOM     16  C   UNL     1       5.902  -2.132   5.537  1.00  0.00     0.049 A 
ATOM     17  N   UNL     1       6.997  -4.872   5.199  1.00  0.00    -0.248 NA
ATOM     18  C   UNL     1       5.814  -5.069   3.192  1.00  0.00     0.031 C 
ATOM     19  C   UNL     1       5.518  -0.735   5.623  1.00  0.00     0.029 A 
ATOM     20  N   UNL     1       6.660  -2.320   6.661  1.00  0.00    -0.354 N 
ATOM     21  C   UNL     1       7.331  -6.061   4.578  1.00  0.00     0.074 A 
ATOM     22  C   UNL     1       6.552  -6.154   3.364  1.00  0.00     0.031 C 
ATOM     23  C   UNL     1       5.930  -0.220   6.787  1.00  0.00     0.029 A 
ATOM     24  C   UNL     1       6.685  -1.224   7.494  1.00  0.00     0.049 A 
ATOM     25  H   UNL     1       7.141  -3.157   6.855  1.00  0.00     0.167 HD
ATOM     26  C   UNL     1       8.238  -6.974   4.984  1.00  0.00     0.031 A 
ATOM     27  C   UNL     1       7.265  -1.008   8.687  1.00  0.00     0.031 A 
ATOM     28  C   UNL     1       8.962  -6.870   6.220  1.00  0.00     0.049 A 
ATOM     29  C   UNL     1       8.146  -2.098   9.189  1.00  0.00     0.074 A 
ATOM     30  C   UNL     1       9.825  -7.785   6.792  1.00  0.00     0.029 A 
ATOM     31  N   UNL     1       8.898  -5.782   7.084  1.00  0.00    -0.354 N 
ATOM     32  N   UNL     1       8.414  -3.243   8.608  1.00  0.00    -0.248 NA
ATOM     33  C   UNL     1       8.835  -1.869  10.459  1.00  0.00     0.031 C 
ATOM     34  C   UNL     1      10.237  -7.274   8.028  1.00  0.00     0.029 A 
ATOM     35  C   UNL     1       9.685  -6.013   8.198  1.00  0.00     0.049 A 
ATOM     36  H   UNL     1       8.370  -4.966   6.926  1.00  0.00     0.167 HD
ATOM     37  C   UNL     1       9.320  -3.875   9.435  1.00  0.00     0.074 A 
ATOM     38  C   UNL     1       9.578  -2.965  10.539  1.00  0.00     0.031 C 
ATOM     39  C   UNL     1       9.884  -5.098   9.295  1.00  0.00     0.031 A 
BRANCH  26  40
ATOM     40  C   UNL     1       8.419  -8.169   4.098  1.00  0.00    -0.014 A 
ATOM     41  C   UNL     1       9.075  -8.062   2.857  1.00  0.00     0.010 A 
ATOM     42  C   UNL     1       7.881  -9.406   4.489  1.00  0.00     0.010 A 
ATOM     43  C   UNL     1       9.162  -9.168   2.008  1.00  0.00     0.020 A 
ATOM     44  C   UNL     1       7.988 -10.520   3.654  1.00  0.00     0.020 A 
ATOM     45  C   UNL     1       8.616 -10.390   2.414  1.00  0.00     0.054 A 
BRANCH  45  46
ATOM     46  S   UNL     1       8.762 -11.813   1.301  1.00  0.00     0.124 S 
ATOM     47  O   UNL     1       7.832 -11.457   0.232  1.00  0.00    -0.237 OA
ATOM     48  O   UNL     1      10.173 -11.794   0.941  1.00  0.00    -0.237 OA
ATOM     49  O   UNL     1       8.347 -12.945   2.134  1.00  0.00    -0.744 OA
ENDBRANCH  45  46
ENDBRANCH  26  40
BRANCH  27  50
ATOM     50  C   UNL     1       7.039   0.264   9.434  1.00  0.00    -0.014 A 
ATOM     51  C   UNL     1       8.070   1.195   9.647  1.00  0.00     0.010 A 
ATOM     52  C   UNL     1       5.750   0.562   9.923  1.00  0.00     0.010 A 
ATOM     53  C   UNL     1       7.830   2.372  10.370  1.00  0.00     0.020 A 
ATOM     54  C   UNL     1       5.500   1.747  10.621  1.00  0.00     0.020 A 
ATOM     55  C   UNL     1       6.548   2.634  10.861  1.00  0.00     0.054 A 
BRANCH  55  56
ATOM     56  S   UNL     1       6.257   4.152  11.815  1.00  0.00     0.124 S 
ATOM     57  O   UNL     1       6.898   3.835  13.087  1.00  0.00    -0.237 OA
ATOM     58  O   UNL     1       6.922   5.167  11.004  1.00  0.00    -0.237 OA
ATOM     59  O   UNL     1       4.799   4.251  11.854  1.00  0.00    -0.744 OA
ENDBRANCH  55  56
ENDBRANCH  27  50
BRANCH  39  60
ATOM     60  C   UNL     1      10.825  -5.502  10.385  1.00  0.00    -0.014 A 
ATOM     61  C   UNL     1      10.346  -5.803  11.672  1.00  0.00     0.010 A 
ATOM     62  C   UNL     1      12.202  -5.576  10.115  1.00  0.00     0.010 A 
ATOM     63  C   UNL     1      11.239  -6.125  12.690  1.00  0.00     0.020 A 
ATOM     64  C   UNL     1      13.094  -5.933  11.123  1.00  0.00     0.020 A 
ATOM     65  C   UNL     1      12.608  -6.186  12.408  1.00  0.00     0.054 A 
BRANCH  65  66
ATOM     66  S   UNL     1      13.745  -6.633  13.743  1.00  0.00     0.124 S 
ATOM     67  O   UNL     1      13.765  -5.412  14.543  1.00  0.00    -0.237 OA
ATOM     68  O   UNL     1      13.081  -7.779  14.357  1.00  0.00    -0.237 OA
ATOM     69  O   UNL     1      14.991  -6.942  13.044  1.00  0.00    -0.744 OA
ENDBRANCH  65  66
ENDBRANCH  39  60
ENDBRANCH  13  14
ENDBRANCH   6   8
ENDBRANCH   5   6
ENDBRANCH   4   5
ENDBRANCH   3   4
ENDBRANCH   2   3
ENDBRANCH   1   2
BRANCH   1  70
ATOM     70  C   UNL     1       1.868   3.137  -0.009  1.00  0.00     0.188 C 
BRANCH  70  71
ATOM     71  O   UNL     1       2.529   4.326  -0.424  1.00  0.00    -0.376 OA
BRANCH  71  72
ATOM     72  C   UNL     1       3.895   4.483  -0.064  1.00  0.00     0.202 C 
BRANCH  72  73
ATOM     73  C   UNL     1       4.261   4.592   1.421  1.00  0.00     0.261 C 
BRANCH  73  74
ATOM     74  O   UNL     1       3.691   3.601   2.287  1.00  0.00    -0.459 OA
BRANCH  74  75
ATOM     75  C   UNL     1       2.644   4.043   3.046  1.00  0.00     0.365 C 
ATOM     76  O   UNL     1       2.056   5.106   2.857  1.00  0.00    -0.245 OA
BRANCH  75  77
ATOM     77  C   UNL     1       2.353   3.129   4.245  1.00  0.00     0.295 C 
ATOM     78  C   UNL     1       2.433   1.611   3.982  1.00  0.00     0.078 C 
ATOM     79  N   UNL     1       3.067   3.610   5.451  1.00  0.00    -0.317 N 
ATOM     80  C   UNL     1       2.371   0.782   5.271  1.00  0.00     0.016 C 
ATOM     81  C   UNL     1       2.706   2.859   6.670  1.00  0.00     0.188 C 
ATOM     82  H   UNL     1       2.697   4.547   5.609  1.00  0.00     0.349 HD
ATOM     83  C   UNL     1       1.843   1.588   6.442  1.00  0.00     0.048 C 
ATOM     84  C   UNL     1       1.891   3.748   7.625  1.00  0.00     0.065 C 
ATOM     85  C   UNL     1       1.827   0.792   7.755  1.00  0.00     0.010 C 
ATOM     86  C   UNL     1       1.659   3.041   8.967  1.00  0.00     0.006 C 
ATOM     87  C   UNL     1       1.130   1.607   8.844  1.00  0.00     0.001 C 
BRANCH  79  88
ATOM     88  C   UNL     1       4.519   3.944   5.280  1.00  0.00     0.195 C 
ATOM     89  C   UNL     1       5.379   2.719   4.926  1.00  0.00     0.067 C 
ATOM     90  C   UNL     1       5.095   4.740   6.478  1.00  0.00     0.134 C 
ATOM     91  C   UNL     1       6.887   2.919   4.791  1.00  0.00     0.017 C 
ATOM     92  S   UNL     1       6.822   5.253   6.184  1.00  0.00    -0.156 SA
ATOM     93  C   UNL     1       7.531   3.601   5.984  1.00  0.00     0.070 C 
ENDBRANCH  79  88
ENDBRANCH  75  77
ENDBRANCH  74  75
ENDBRANCH  73  74
ENDBRANCH  72  73
ENDBRANCH  71  72
ENDBRANCH  70  71
ENDBRANCH   1  70
TORSDOF 21
