REMARK SMILES C[C@@H](CCO)Sc1cc(C(=O)OCCOCCOCCOC(=O)c2ccc(-c3c4nc(c(-c5ccc(S(=O)(=O)[O-])cc5)c5ccc([nH]5)c(-c5ccc(S(=O)(=O)[O-])cc5)c5nc(c(-c6ccc(S(=O)(=O)[O-])cc6)c6ccc3[nH]6)C=C5)C=C4)cc2)c2ccccc2n1
REMARK SMILES IDX 16 1 15 2 14 3 13 4 12 5 10 6 11 7 9 8 7 9 8 10 90 11 89 12
REMARK SMILES IDX 84 13 88 14 85 15 87 16 86 17 6 18 2 19 1 20 3 21 4 22 5 23
REMARK SMILES IDX 17 25 18 26 19 27 20 28 21 29 22 30 23 31 24 32 25 33 83 34
REMARK SMILES IDX 26 35 82 36 27 37 28 38 29 39 76 40 30 41 81 42 75 43 77 44
REMARK SMILES IDX 31 45 80 46 74 47 73 48 32 50 62 51 43 52 61 53 44 54 47 55
REMARK SMILES IDX 60 56 78 57 45 58 46 59 59 61 79 62 48 63 33 64 34 65 42 66
REMARK SMILES IDX 35 67 41 68 36 69 37 70 38 71 39 72 40 73 63 74 64 75 72 76
REMARK SMILES IDX 65 77 71 78 66 79 67 80 68 81 69 82 70 83 49 84 50 85 58 86
REMARK SMILES IDX 51 87 57 88 52 89 53 90 54 91 55 92 56 93
REMARK H PARENT 5 24 77 49 47 60
REMARK Flexibility Score: inf
ROOT
ATOM      1  C   UNL     1      -5.037   3.327  -4.404  1.00  0.00     0.188 C 
ENDROOT
BRANCH   1   2
ATOM      2  O   UNL     1      -5.191   4.106  -5.577  1.00  0.00    -0.376 OA
BRANCH   2   3
ATOM      3  C   UNL     1      -4.698   3.630  -6.821  1.00  0.00     0.202 C 
BRANCH   3   4
ATOM      4  C   UNL     1      -3.360   2.888  -6.937  1.00  0.00     0.261 C 
BRANCH   4   5
ATOM      5  O   UNL     1      -3.185   1.801  -6.015  1.00  0.00    -0.460 OA
BRANCH   5   6
ATOM      6  C   UNL     1      -2.174   1.971  -5.129  1.00  0.00     0.338 C 
ATOM      7  O   UNL     1      -1.423   2.934  -5.090  1.00  0.00    -0.246 OA
BRANCH   6   8
ATOM      8  C   UNL     1      -2.209   0.964  -4.040  1.00  0.00     0.072 A 
ATOM      9  C   UNL     1      -1.835   0.663  -1.708  1.00  0.00     0.098 A 
ATOM     10  C   UNL     1      -2.072   1.510  -2.762  1.00  0.00     0.052 A 
ATOM     11  N   UNL     1      -1.857  -0.676  -1.835  1.00  0.00    -0.241 NA
ATOM     12  C   UNL     1      -2.082  -1.207  -3.047  1.00  0.00     0.072 A 
ATOM     13  C   UNL     1      -2.282  -0.435  -4.213  1.00  0.00     0.015 A 
ATOM     14  C   UNL     1      -2.098  -2.591  -3.143  1.00  0.00     0.029 A 
ATOM     15  C   UNL     1      -2.533  -1.108  -5.436  1.00  0.00     0.011 A 
ATOM     16  C   UNL     1      -2.340  -3.245  -4.351  1.00  0.00     0.002 A 
ATOM     17  C   UNL     1      -2.573  -2.501  -5.498  1.00  0.00     0.001 A 
BRANCH   9  18
ATOM     18  S   UNL     1      -1.517   1.349  -0.106  1.00  0.00    -0.103 SA
BRANCH  18  19
ATOM     19  C   UNL     1       0.318   1.205   0.035  1.00  0.00     0.052 C 
ATOM     20  C   UNL     1       0.814  -0.234  -0.060  1.00  0.00     0.020 C 
BRANCH  19  21
ATOM     21  C   UNL     1       1.146   2.228  -0.777  1.00  0.00     0.043 C 
BRANCH  21  22
ATOM     22  C   UNL     1       1.579   1.856  -2.192  1.00  0.00     0.157 C 
BRANCH  22  23
ATOM     23  O   UNL     1       0.576   2.115  -3.147  1.00  0.00    -0.396 OA
ATOM     24  H   UNL     1      -0.209   1.581  -2.944  1.00  0.00     0.210 HD
ENDBRANCH  22  23
ENDBRANCH  21  22
ENDBRANCH  19  21
ENDBRANCH  18  19
ENDBRANCH   9  18
ENDBRANCH   6   8
ENDBRANCH   5   6
ENDBRANCH   4   5
ENDBRANCH   3   4
ENDBRANCH   2   3
ENDBRANCH   1   2
BRANCH   1  25
ATOM     25  C   UNL     1      -5.597   1.890  -4.359  1.00  0.00     0.188 C 
BRANCH  25  26
ATOM     26  O   UNL     1      -6.108   1.356  -5.555  1.00  0.00    -0.376 OA
BRANCH  26  27
ATOM     27  C   UNL     1      -7.414   1.694  -5.988  1.00  0.00     0.202 C 
BRANCH  27  28
ATOM     28  C   UNL     1      -8.425   2.590  -5.240  1.00  0.00     0.261 C 
BRANCH  28  29
ATOM     29  O   UNL     1      -7.983   3.325  -4.097  1.00  0.00    -0.460 OA
BRANCH  29  30
ATOM     30  C   UNL     1      -8.332   2.803  -2.897  1.00  0.00     0.338 C 
ATOM     31  O   UNL     1      -8.959   1.768  -2.701  1.00  0.00    -0.246 OA
BRANCH  30  32
ATOM     32  C   UNL     1      -7.671   3.563  -1.820  1.00  0.00     0.060 A 
ATOM     33  C   UNL     1      -6.723   2.908  -1.023  1.00  0.00     0.016 A 
ATOM     34  C   UNL     1      -8.020   4.890  -1.560  1.00  0.00     0.016 A 
ATOM     35  C   UNL     1      -6.157   3.562   0.070  1.00  0.00     0.010 A 
ATOM     36  C   UNL     1      -7.467   5.537  -0.450  1.00  0.00     0.010 A 
ATOM     37  C   UNL     1      -6.568   4.861   0.396  1.00  0.00    -0.014 A 
BRANCH  37  38
ATOM     38  C   UNL     1      -6.221   5.417   1.729  1.00  0.00     0.031 A 
ATOM     39  C   UNL     1      -7.247   5.330   2.830  1.00  0.00     0.074 A 
ATOM     40  C   UNL     1      -5.009   5.943   1.979  1.00  0.00     0.049 A 
ATOM     41  N   UNL     1      -7.169   5.734   4.072  1.00  0.00    -0.248 NA
ATOM     42  C   UNL     1      -8.534   4.705   2.482  1.00  0.00     0.031 C 
ATOM     43  C   UNL     1      -3.914   6.044   1.016  1.00  0.00     0.029 A 
ATOM     44  N   UNL     1      -4.498   6.490   3.130  1.00  0.00    -0.354 N 
ATOM     45  C   UNL     1      -8.394   5.418   4.650  1.00  0.00     0.074 A 
ATOM     46  C   UNL     1      -9.210   4.824   3.614  1.00  0.00     0.031 C 
ATOM     47  C   UNL     1      -2.859   6.623   1.617  1.00  0.00     0.029 A 
ATOM     48  C   UNL     1      -3.213   6.957   2.997  1.00  0.00     0.049 A 
ATOM     49  H   UNL     1      -5.006   6.543   3.972  1.00  0.00     0.167 HD
ATOM     50  C   UNL     1      -8.803   5.598   5.929  1.00  0.00     0.031 A 
ATOM     51  C   UNL     1      -2.418   7.593   3.881  1.00  0.00     0.031 A 
ATOM     52  C   UNL     1      -7.998   6.203   6.957  1.00  0.00     0.049 A 
ATOM     53  C   UNL     1      -2.919   7.843   5.282  1.00  0.00     0.074 A 
ATOM     54  C   UNL     1      -8.318   6.416   8.286  1.00  0.00     0.029 A 
ATOM     55  N   UNL     1      -6.716   6.698   6.770  1.00  0.00    -0.354 N 
ATOM     56  N   UNL     1      -4.070   7.516   5.820  1.00  0.00    -0.248 NA
ATOM     57  C   UNL     1      -2.003   8.536   6.199  1.00  0.00     0.031 C 
ATOM     58  C   UNL     1      -7.255   7.098   8.888  1.00  0.00     0.029 A 
ATOM     59  C   UNL     1      -6.242   7.243   7.952  1.00  0.00     0.049 A 
ATOM     60  H   UNL     1      -6.216   6.667   5.923  1.00  0.00     0.167 HD
ATOM     61  C   UNL     1      -4.003   7.933   7.147  1.00  0.00     0.074 A 
ATOM     62  C   UNL     1      -2.692   8.520   7.332  1.00  0.00     0.031 C 
ATOM     63  C   UNL     1      -4.938   7.834   8.125  1.00  0.00     0.031 A 
BRANCH  50  64
ATOM     64  C   UNL     1     -10.206   5.168   6.276  1.00  0.00    -0.014 A 
ATOM     65  C   UNL     1     -10.566   3.808   6.323  1.00  0.00     0.010 A 
ATOM     66  C   UNL     1     -11.172   6.141   6.590  1.00  0.00     0.010 A 
ATOM     67  C   UNL     1     -11.875   3.433   6.638  1.00  0.00     0.020 A 
ATOM     68  C   UNL     1     -12.474   5.769   6.935  1.00  0.00     0.020 A 
ATOM     69  C   UNL     1     -12.822   4.417   6.940  1.00  0.00     0.054 A 
BRANCH  69  70
ATOM     70  S   UNL     1     -14.508   3.901   7.366  1.00  0.00     0.124 S 
ATOM     71  O   UNL     1     -15.019   3.445   6.075  1.00  0.00    -0.237 OA
ATOM     72  O   UNL     1     -14.281   2.853   8.357  1.00  0.00    -0.237 OA
ATOM     73  O   UNL     1     -15.124   5.120   7.883  1.00  0.00    -0.744 OA
ENDBRANCH  69  70
ENDBRANCH  50  64
BRANCH  51  74
ATOM     74  C   UNL     1      -1.060   8.048   3.469  1.00  0.00    -0.014 A 
ATOM     75  C   UNL     1       0.095   7.456   4.011  1.00  0.00     0.010 A 
ATOM     76  C   UNL     1      -0.917   9.089   2.534  1.00  0.00     0.010 A 
ATOM     77  C   UNL     1       1.365   7.907   3.638  1.00  0.00     0.020 A 
ATOM     78  C   UNL     1       0.351   9.522   2.134  1.00  0.00     0.020 A 
ATOM     79  C   UNL     1       1.484   8.934   2.697  1.00  0.00     0.054 A 
BRANCH  79  80
ATOM     80  S   UNL     1       3.143   9.461   2.184  1.00  0.00     0.124 S 
ATOM     81  O   UNL     1       3.622  10.163   3.370  1.00  0.00    -0.237 OA
ATOM     82  O   UNL     1       3.799   8.188   1.892  1.00  0.00    -0.237 OA
ATOM     83  O   UNL     1       2.889  10.303   1.017  1.00  0.00    -0.744 OA
ENDBRANCH  79  80
ENDBRANCH  51  74
BRANCH  63  84
ATOM     84  C   UNL     1      -4.564   8.334   9.498  1.00  0.00    -0.014 A 
ATOM     85  C   UNL     1      -4.385   9.704   9.761  1.00  0.00     0.010 A 
ATOM     86  C   UNL     1      -4.415   7.413  10.553  1.00  0.00     0.010 A 
ATOM     87  C   UNL     1      -4.010  10.137  11.037  1.00  0.00     0.020 A 
ATOM     88  C   UNL     1      -4.075   7.845  11.837  1.00  0.00     0.020 A 
ATOM     89  C   UNL     1      -3.852   9.204  12.066  1.00  0.00     0.054 A 
BRANCH  89  90
ATOM     90  S   UNL     1      -3.371   9.791  13.713  1.00  0.00     0.124 S 
ATOM     91  O   UNL     1      -1.966  10.137  13.514  1.00  0.00    -0.237 OA
ATOM     92  O   UNL     1      -4.272  10.921  13.927  1.00  0.00    -0.237 OA
ATOM     93  O   UNL     1      -3.612   8.637  14.577  1.00  0.00    -0.744 OA
ENDBRANCH  89  90
ENDBRANCH  63  84
ENDBRANCH  37  38
ENDBRANCH  30  32
ENDBRANCH  29  30
ENDBRANCH  28  29
ENDBRANCH  27  28
ENDBRANCH  26  27
ENDBRANCH  25  26
ENDBRANCH   1  25
TORSDOF 25
