REMARK SMILES O=C(OCCOCCOCCOC(=O)c1ccc(-c2c3nc(c(-c4ccc(S(=O)(=O)[O-])cc4)c4ccc([nH]4)c(-c4ccc(S(=O)(=O)[O-])cc4)c4nc(c(-c5ccc(S(=O)(=O)[O-])cc5)c5ccc2[nH]5)C=C4)C=C3)cc1)C1=Cc2c(ccc(Cl)c2Oc2ccccc2)O[C@H]1C(F)(F)F
REMARK SMILES IDX 8 1 7 2 6 3 5 4 4 5 3 6 2 7 1 8 75 9 76 10 92 11 77 12 91 13
REMARK SMILES IDX 78 14 83 15 79 16 81 17 80 18 82 19 93 20 94 21 95 22 96 23
REMARK SMILES IDX 84 24 85 25 86 26 90 27 87 28 89 29 88 30 9 31 10 32 11 33
REMARK SMILES IDX 12 34 13 35 14 36 15 37 16 38 74 39 17 40 73 41 18 42 19 43
REMARK SMILES IDX 20 44 67 45 21 46 72 47 66 48 68 49 22 50 71 51 65 52 64 53
REMARK SMILES IDX 23 55 53 56 34 57 52 58 35 59 38 60 51 61 69 62 36 63 37 64
REMARK SMILES IDX 50 66 70 67 39 68 24 69 25 70 33 71 26 72 32 73 27 74 28 75
REMARK SMILES IDX 29 76 30 77 31 78 54 79 55 80 63 81 56 82 62 83 57 84 58 85
REMARK SMILES IDX 59 86 60 87 61 88 40 89 41 90 49 91 42 92 48 93 43 94 44 95
REMARK SMILES IDX 45 96 46 97 47 98
REMARK H PARENT 68 54 38 65
REMARK Flexibility Score: inf
ROOT
ATOM      1  C   UNL     1       3.532  -0.051  -3.938  1.00  0.00     0.188 C 
ENDROOT
BRANCH   1   2
ATOM      2  C   UNL     1       3.608   1.335  -3.311  1.00  0.00     0.188 C 
BRANCH   2   3
ATOM      3  O   UNL     1       2.588   1.649  -2.367  1.00  0.00    -0.376 OA
BRANCH   3   4
ATOM      4  C   UNL     1       3.115   1.533  -1.066  1.00  0.00     0.202 C 
BRANCH   4   5
ATOM      5  C   UNL     1       2.121   1.950   0.045  1.00  0.00     0.261 C 
BRANCH   5   6
ATOM      6  O   UNL     1       2.698   2.931   0.963  1.00  0.00    -0.460 OA
BRANCH   6   7
ATOM      7  C   UNL     1       3.030   2.572   2.239  1.00  0.00     0.338 C 
ATOM      8  O   UNL     1       2.627   3.163   3.236  1.00  0.00    -0.246 OA
BRANCH   7   9
ATOM      9  C   UNL     1       4.063   1.523   2.378  1.00  0.00     0.088 C 
ATOM     10  C   UNL     1       3.941   0.593   1.438  1.00  0.00     0.031 C 
ATOM     11  C   UNL     1       5.474   1.873   2.789  1.00  0.00     0.316 C 
ATOM     12  C   UNL     1       4.661  -0.633   1.389  1.00  0.00     0.062 A 
ATOM     13  O   UNL     1       6.440   0.796   2.395  1.00  0.00    -0.475 OA
ATOM     14  C   UNL     1       6.000  -0.403   1.832  1.00  0.00     0.131 A 
ATOM     15  C   UNL     1       4.207  -1.760   0.650  1.00  0.00     0.156 A 
ATOM     16  C   UNL     1       6.958  -1.351   1.530  1.00  0.00     0.049 A 
ATOM     17  C   UNL     1       5.237  -2.673   0.359  1.00  0.00     0.084 A 
ATOM     18  C   UNL     1       6.575  -2.474   0.787  1.00  0.00     0.028 A 
ATOM     19  Cl  UNL     1       4.941  -4.067  -0.630  1.00  0.00    -0.080 Cl
BRANCH  11  20
ATOM     20  C   UNL     1       5.900   3.255   2.198  1.00  0.00     0.430 C 
ATOM     21  F   UNL     1       5.747   3.278   0.849  1.00  0.00    -0.167 F 
ATOM     22  F   UNL     1       5.163   4.270   2.699  1.00  0.00    -0.167 F 
ATOM     23  F   UNL     1       7.194   3.551   2.455  1.00  0.00    -0.167 F 
ENDBRANCH  11  20
BRANCH  15  24
ATOM     24  O   UNL     1       2.973  -2.119   0.072  1.00  0.00    -0.455 OA
BRANCH  24  25
ATOM     25  C   UNL     1       1.767  -1.444   0.012  1.00  0.00     0.127 A 
ATOM     26  C   UNL     1       0.791  -1.506   0.997  1.00  0.00     0.047 A 
ATOM     27  C   UNL     1       1.300  -0.959  -1.219  1.00  0.00     0.047 A 
ATOM     28  C   UNL     1      -0.449  -0.828   0.841  1.00  0.00     0.004 A 
ATOM     29  C   UNL     1       0.133  -0.182  -1.366  1.00  0.00     0.004 A 
ATOM     30  C   UNL     1      -0.730  -0.072  -0.297  1.00  0.00     0.000 A 
ENDBRANCH  24  25
ENDBRANCH  15  24
ENDBRANCH   7   9
ENDBRANCH   6   7
ENDBRANCH   5   6
ENDBRANCH   4   5
ENDBRANCH   3   4
ENDBRANCH   2   3
ENDBRANCH   1   2
BRANCH   1  31
ATOM     31  O   UNL     1       4.763  -0.675  -4.263  1.00  0.00    -0.376 OA
BRANCH  31  32
ATOM     32  C   UNL     1       5.701   0.047  -5.047  1.00  0.00     0.202 C 
BRANCH  32  33
ATOM     33  C   UNL     1       5.164   0.772  -6.292  1.00  0.00     0.261 C 
BRANCH  33  34
ATOM     34  O   UNL     1       4.637   2.083  -5.962  1.00  0.00    -0.460 OA
BRANCH  34  35
ATOM     35  C   UNL     1       3.360   2.373  -6.356  1.00  0.00     0.338 C 
ATOM     36  O   UNL     1       2.649   1.658  -7.042  1.00  0.00    -0.246 OA
BRANCH  35  37
ATOM     37  C   UNL     1       2.845   3.557  -5.580  1.00  0.00     0.060 A 
ATOM     38  C   UNL     1       1.531   3.501  -5.072  1.00  0.00     0.016 A 
ATOM     39  C   UNL     1       3.685   4.601  -5.176  1.00  0.00     0.016 A 
ATOM     40  C   UNL     1       1.044   4.508  -4.223  1.00  0.00     0.010 A 
ATOM     41  C   UNL     1       3.184   5.631  -4.364  1.00  0.00     0.010 A 
ATOM     42  C   UNL     1       1.846   5.619  -3.926  1.00  0.00    -0.014 A 
BRANCH  42  43
ATOM     43  C   UNL     1       1.212   6.914  -3.540  1.00  0.00     0.031 A 
ATOM     44  C   UNL     1       0.637   7.732  -4.674  1.00  0.00     0.074 A 
ATOM     45  C   UNL     1       1.184   7.410  -2.287  1.00  0.00     0.049 A 
ATOM     46  N   UNL     1       0.117   8.932  -4.663  1.00  0.00    -0.248 NA
ATOM     47  C   UNL     1       0.663   7.105  -6.008  1.00  0.00     0.031 C 
ATOM     48  C   UNL     1       1.654   6.732  -1.082  1.00  0.00     0.029 A 
ATOM     49  N   UNL     1       0.744   8.634  -1.832  1.00  0.00    -0.354 N 
ATOM     50  C   UNL     1      -0.243   9.195  -5.980  1.00  0.00     0.074 A 
ATOM     51  C   UNL     1       0.133   8.046  -6.768  1.00  0.00     0.031 C 
ATOM     52  C   UNL     1       1.499   7.559  -0.028  1.00  0.00     0.029 A 
ATOM     53  C   UNL     1       0.951   8.838  -0.486  1.00  0.00     0.049 A 
ATOM     54  H   UNL     1       0.321   9.303  -2.417  1.00  0.00     0.167 HD
ATOM     55  C   UNL     1      -0.826  10.296  -6.506  1.00  0.00     0.031 A 
ATOM     56  C   UNL     1       0.745   9.934   0.279  1.00  0.00     0.031 A 
ATOM     57  C   UNL     1      -1.143  11.477  -5.756  1.00  0.00     0.049 A 
ATOM     58  C   UNL     1       0.189  11.197  -0.349  1.00  0.00     0.074 A 
ATOM     59  C   UNL     1      -1.721  12.649  -6.209  1.00  0.00     0.029 A 
ATOM     60  N   UNL     1      -0.887  11.646  -4.406  1.00  0.00    -0.354 N 
ATOM     61  N   UNL     1      -0.182  11.415  -1.589  1.00  0.00    -0.248 NA
ATOM     62  C   UNL     1       0.023  12.365   0.534  1.00  0.00     0.031 C 
ATOM     63  C   UNL     1      -1.757  13.553  -5.144  1.00  0.00     0.029 A 
ATOM     64  C   UNL     1      -1.270  12.916  -4.013  1.00  0.00     0.049 A 
ATOM     65  H   UNL     1      -0.493  10.965  -3.815  1.00  0.00     0.167 HD
ATOM     66  C   UNL     1      -0.656  12.726  -1.623  1.00  0.00     0.074 A 
ATOM     67  C   UNL     1      -0.534  13.251  -0.281  1.00  0.00     0.031 C 
ATOM     68  C   UNL     1      -1.154  13.430  -2.672  1.00  0.00     0.031 A 
BRANCH  55  69
ATOM     69  C   UNL     1      -1.101  10.281  -7.984  1.00  0.00    -0.014 A 
ATOM     70  C   UNL     1      -2.109   9.463  -8.526  1.00  0.00     0.010 A 
ATOM     71  C   UNL     1      -0.341  11.096  -8.841  1.00  0.00     0.010 A 
ATOM     72  C   UNL     1      -2.326   9.432  -9.904  1.00  0.00     0.020 A 
ATOM     73  C   UNL     1      -0.576  11.091 -10.217  1.00  0.00     0.020 A 
ATOM     74  C   UNL     1      -1.556  10.246 -10.742  1.00  0.00     0.054 A 
BRANCH  74  75
ATOM     75  S   UNL     1      -1.874  10.200 -12.526  1.00  0.00     0.124 S 
ATOM     76  O   UNL     1      -1.339   8.892 -12.893  1.00  0.00    -0.237 OA
ATOM     77  O   UNL     1      -3.328  10.326 -12.594  1.00  0.00    -0.237 OA
ATOM     78  O   UNL     1      -1.127  11.345 -13.041  1.00  0.00    -0.744 OA
ENDBRANCH  74  75
ENDBRANCH  55  69
BRANCH  56  79
ATOM     79  C   UNL     1       1.087   9.922   1.734  1.00  0.00    -0.014 A 
ATOM     80  C   UNL     1       0.080  10.021   2.712  1.00  0.00     0.010 A 
ATOM     81  C   UNL     1       2.430   9.860   2.151  1.00  0.00     0.010 A 
ATOM     82  C   UNL     1       0.408  10.079   4.072  1.00  0.00     0.020 A 
ATOM     83  C   UNL     1       2.760   9.888   3.511  1.00  0.00     0.020 A 
ATOM     84  C   UNL     1       1.747  10.010   4.463  1.00  0.00     0.054 A 
BRANCH  84  85
ATOM     85  S   UNL     1       2.147  10.047   6.235  1.00  0.00     0.124 S 
ATOM     86  O   UNL     1       1.880  11.441   6.579  1.00  0.00    -0.237 OA
ATOM     87  O   UNL     1       1.214   9.071   6.792  1.00  0.00    -0.237 OA
ATOM     88  O   UNL     1       3.553   9.652   6.279  1.00  0.00    -0.744 OA
ENDBRANCH  84  85
ENDBRANCH  56  79
BRANCH  68  89
ATOM     89  C   UNL     1      -1.658  14.830  -2.420  1.00  0.00    -0.014 A 
ATOM     90  C   UNL     1      -0.779  15.896  -2.160  1.00  0.00     0.010 A 
ATOM     91  C   UNL     1      -3.036  15.096  -2.536  1.00  0.00     0.010 A 
ATOM     92  C   UNL     1      -1.272  17.195  -1.993  1.00  0.00     0.020 A 
ATOM     93  C   UNL     1      -3.530  16.396  -2.399  1.00  0.00     0.020 A 
ATOM     94  C   UNL     1      -2.644  17.437  -2.116  1.00  0.00     0.054 A 
BRANCH  94  95
ATOM     95  S   UNL     1      -3.252  19.139  -1.947  1.00  0.00     0.124 S 
ATOM     96  O   UNL     1      -3.111  19.372  -0.512  1.00  0.00    -0.237 OA
ATOM     97  O   UNL     1      -2.336  19.893  -2.799  1.00  0.00    -0.237 OA
ATOM     98  O   UNL     1      -4.628  19.067  -2.433  1.00  0.00    -0.744 OA
ENDBRANCH  94  95
ENDBRANCH  68  89
ENDBRANCH  42  43
ENDBRANCH  35  37
ENDBRANCH  34  35
ENDBRANCH  33  34
ENDBRANCH  32  33
ENDBRANCH  31  32
ENDBRANCH   1  31
TORSDOF 23
