REMARK SMILES O=C(OCCOCCOCCOC(=O)c1ccccc1Nc1nc(Cl)nc(Nc2ccc(N3CCOCC3=O)cc2)n1)c1ccc(-c2c3nc(c(-c4ccc(S(=O)(=O)[O-])cc4)c4ccc([nH]4)c(-c4ccc(S(=O)(=O)[O-])cc4)c4nc(c(-c5ccc(S(=O)(=O)[O-])cc5)c5ccc2[nH]5)C=C4)C=C3)cc1
REMARK SMILES IDX 8 1 7 2 6 3 5 4 4 5 3 6 2 7 1 8 43 9 44 10 102 11 45 12
REMARK SMILES IDX 101 13 46 14 47 15 48 16 95 17 49 18 100 19 94 20 96 21
REMARK SMILES IDX 50 22 99 23 93 24 92 25 51 27 81 28 62 29 80 30 63 31 66 32
REMARK SMILES IDX 79 33 97 34 64 35 65 36 78 38 98 39 67 40 52 41 53 42 61 43
REMARK SMILES IDX 54 44 60 45 55 46 56 47 57 48 58 49 59 50 82 51 83 52 91 53
REMARK SMILES IDX 84 54 90 55 85 56 86 57 87 58 88 59 89 60 68 61 69 62 77 63
REMARK SMILES IDX 70 64 76 65 71 66 72 67 73 68 74 69 75 70 9 71 10 72 11 73
REMARK SMILES IDX 12 74 13 75 14 76 15 77 16 78 20 79 17 80 19 81 18 82 21 83
REMARK SMILES IDX 22 85 23 86 42 87 24 88 27 89 25 90 26 91 28 92 29 94 30 95
REMARK SMILES IDX 41 96 31 97 40 98 32 99 33 100 34 101 38 102 35 103 37 104
REMARK SMILES IDX 39 105 36 106
REMARK H PARENT 96 26 66 37 21 84 28 93
REMARK Flexibility Score: inf
ROOT
ATOM      1  C   UNL     1       1.956  -2.580  -1.915  1.00  0.00     0.188 C 
ENDROOT
BRANCH   1   2
ATOM      2  C   UNL     1       2.516  -2.024  -0.604  1.00  0.00     0.188 C 
BRANCH   2   3
ATOM      3  O   UNL     1       3.746  -1.322  -0.822  1.00  0.00    -0.376 OA
BRANCH   3   4
ATOM      4  C   UNL     1       4.678  -1.446   0.257  1.00  0.00     0.202 C 
BRANCH   4   5
ATOM      5  C   UNL     1       4.503  -0.399   1.364  1.00  0.00     0.261 C 
BRANCH   5   6
ATOM      6  O   UNL     1       3.120  -0.079   1.580  1.00  0.00    -0.460 OA
BRANCH   6   7
ATOM      7  C   UNL     1       2.407   0.930   1.017  1.00  0.00     0.338 C 
ATOM      8  O   UNL     1       1.206   1.012   1.270  1.00  0.00    -0.246 OA
BRANCH   7   9
ATOM      9  C   UNL     1       3.016   1.993   0.161  1.00  0.00     0.060 A 
ATOM     10  C   UNL     1       4.101   1.817  -0.702  1.00  0.00     0.016 A 
ATOM     11  C   UNL     1       2.409   3.259   0.205  1.00  0.00     0.016 A 
ATOM     12  C   UNL     1       4.671   2.897  -1.375  1.00  0.00     0.010 A 
ATOM     13  C   UNL     1       2.933   4.333  -0.519  1.00  0.00     0.010 A 
ATOM     14  C   UNL     1       4.107   4.168  -1.265  1.00  0.00    -0.014 A 
BRANCH  14  15
ATOM     15  C   UNL     1       4.827   5.341  -1.808  1.00  0.00     0.031 A 
ATOM     16  C   UNL     1       5.499   6.271  -0.842  1.00  0.00     0.074 A 
ATOM     17  C   UNL     1       4.928   5.537  -3.135  1.00  0.00     0.049 A 
ATOM     18  N   UNL     1       6.119   7.397  -1.074  1.00  0.00    -0.248 NA
ATOM     19  C   UNL     1       5.481   5.872   0.576  1.00  0.00     0.031 C 
ATOM     20  C   UNL     1       4.417   4.625  -4.154  1.00  0.00     0.029 A 
ATOM     21  N   UNL     1       5.499   6.554  -3.856  1.00  0.00    -0.354 N 
ATOM     22  C   UNL     1       6.541   7.852   0.169  1.00  0.00     0.074 A 
ATOM     23  C   UNL     1       6.096   6.891   1.153  1.00  0.00     0.031 C 
ATOM     24  C   UNL     1       4.684   5.128  -5.369  1.00  0.00     0.029 A 
ATOM     25  C   UNL     1       5.336   6.420  -5.216  1.00  0.00     0.049 A 
ATOM     26  H   UNL     1       5.979   7.307  -3.442  1.00  0.00     0.167 HD
ATOM     27  C   UNL     1       7.236   8.976   0.459  1.00  0.00     0.031 A 
ATOM     28  C   UNL     1       5.650   7.258  -6.224  1.00  0.00     0.031 A 
ATOM     29  C   UNL     1       7.656   9.923  -0.535  1.00  0.00     0.049 A 
ATOM     30  C   UNL     1       6.351   8.542  -5.871  1.00  0.00     0.074 A 
ATOM     31  C   UNL     1       8.319  11.123  -0.362  1.00  0.00     0.029 A 
ATOM     32  N   UNL     1       7.446   9.770  -1.899  1.00  0.00    -0.354 N 
ATOM     33  N   UNL     1       6.720   8.974  -4.686  1.00  0.00    -0.248 NA
ATOM     34  C   UNL     1       6.689   9.445  -6.977  1.00  0.00     0.031 C 
ATOM     35  C   UNL     1       8.476  11.714  -1.622  1.00  0.00     0.029 A 
ATOM     36  C   UNL     1       7.951  10.860  -2.581  1.00  0.00     0.049 A 
ATOM     37  H   UNL     1       7.002   8.997  -2.319  1.00  0.00     0.167 HD
ATOM     38  C   UNL     1       7.361  10.186  -4.908  1.00  0.00     0.074 A 
ATOM     39  C   UNL     1       7.337  10.412  -6.340  1.00  0.00     0.031 C 
ATOM     40  C   UNL     1       7.918  11.037  -4.012  1.00  0.00     0.031 A 
BRANCH  27  41
ATOM     41  C   UNL     1       7.500   9.250   1.913  1.00  0.00    -0.014 A 
ATOM     42  C   UNL     1       8.439   8.498   2.643  1.00  0.00     0.010 A 
ATOM     43  C   UNL     1       6.745  10.234   2.576  1.00  0.00     0.010 A 
ATOM     44  C   UNL     1       8.571   8.682   4.023  1.00  0.00     0.020 A 
ATOM     45  C   UNL     1       6.892  10.438   3.951  1.00  0.00     0.020 A 
ATOM     46  C   UNL     1       7.784   9.640   4.670  1.00  0.00     0.054 A 
BRANCH  46  47
ATOM     47  S   UNL     1       7.935   9.829   6.468  1.00  0.00     0.124 S 
ATOM     48  O   UNL     1       7.194   8.667   6.954  1.00  0.00    -0.237 OA
ATOM     49  O   UNL     1       9.379   9.783   6.679  1.00  0.00    -0.237 OA
ATOM     50  O   UNL     1       7.310  11.122   6.734  1.00  0.00    -0.744 OA
ENDBRANCH  46  47
ENDBRANCH  27  41
BRANCH  28  51
ATOM     51  C   UNL     1       5.276   6.924  -7.631  1.00  0.00    -0.014 A 
ATOM     52  C   UNL     1       6.256   6.673  -8.606  1.00  0.00     0.010 A 
ATOM     53  C   UNL     1       3.920   6.834  -8.003  1.00  0.00     0.010 A 
ATOM     54  C   UNL     1       5.894   6.348  -9.921  1.00  0.00     0.020 A 
ATOM     55  C   UNL     1       3.553   6.489  -9.309  1.00  0.00     0.020 A 
ATOM     56  C   UNL     1       4.543   6.263 -10.266  1.00  0.00     0.054 A 
BRANCH  56  57
ATOM     57  S   UNL     1       4.064   5.794 -11.954  1.00  0.00     0.124 S 
ATOM     58  O   UNL     1       3.917   7.089 -12.611  1.00  0.00    -0.237 OA
ATOM     59  O   UNL     1       5.192   4.994 -12.414  1.00  0.00    -0.237 OA
ATOM     60  O   UNL     1       2.822   5.049 -11.754  1.00  0.00    -0.744 OA
ENDBRANCH  56  57
ENDBRANCH  28  51
BRANCH  40  61
ATOM     61  C   UNL     1       8.579  12.268  -4.563  1.00  0.00    -0.014 A 
ATOM     62  C   UNL     1       7.814  13.360  -5.007  1.00  0.00     0.010 A 
ATOM     63  C   UNL     1       9.982  12.355  -4.565  1.00  0.00     0.010 A 
ATOM     64  C   UNL     1       8.447  14.517  -5.464  1.00  0.00     0.020 A 
ATOM     65  C   UNL     1      10.616  13.518  -5.001  1.00  0.00     0.020 A 
ATOM     66  C   UNL     1       9.844  14.589  -5.457  1.00  0.00     0.054 A 
BRANCH  66  67
ATOM     67  S   UNL     1      10.643  16.127  -5.991  1.00  0.00     0.124 S 
ATOM     68  O   UNL     1      10.541  16.031  -7.444  1.00  0.00    -0.237 OA
ATOM     69  O   UNL     1       9.812  17.155  -5.368  1.00  0.00    -0.237 OA
ATOM     70  O   UNL     1      11.996  16.018  -5.450  1.00  0.00    -0.744 OA
ENDBRANCH  66  67
ENDBRANCH  40  61
ENDBRANCH  14  15
ENDBRANCH   7   9
ENDBRANCH   6   7
ENDBRANCH   5   6
ENDBRANCH   4   5
ENDBRANCH   3   4
ENDBRANCH   2   3
ENDBRANCH   1   2
BRANCH   1  71
ATOM     71  O   UNL     1       2.686  -3.671  -2.477  1.00  0.00    -0.376 OA
BRANCH  71  72
ATOM     72  C   UNL     1       4.037  -3.418  -2.858  1.00  0.00     0.202 C 
BRANCH  72  73
ATOM     73  C   UNL     1       4.253  -2.570  -4.113  1.00  0.00     0.261 C 
BRANCH  73  74
ATOM     74  O   UNL     1       3.703  -1.241  -4.036  1.00  0.00    -0.460 OA
BRANCH  74  75
ATOM     75  C   UNL     1       2.658  -1.014  -4.854  1.00  0.00     0.340 C 
ATOM     76  O   UNL     1       2.066  -1.839  -5.560  1.00  0.00    -0.246 OA
BRANCH  75  77
ATOM     77  C   UNL     1       2.341   0.412  -4.927  1.00  0.00     0.083 A 
ATOM     78  C   UNL     1       1.360   0.949  -4.082  1.00  0.00     0.018 A 
ATOM     79  C   UNL     1       2.903   1.162  -5.977  1.00  0.00     0.055 A 
ATOM     80  C   UNL     1       0.924   2.256  -4.286  1.00  0.00     0.001 A 
ATOM     81  C   UNL     1       2.448   2.471  -6.158  1.00  0.00     0.027 A 
ATOM     82  C   UNL     1       1.458   3.011  -5.329  1.00  0.00     0.002 A 
BRANCH  79  83
ATOM     83  N   UNL     1       3.847   0.571  -6.828  1.00  0.00    -0.323 N 
ATOM     84  H   UNL     1       3.923  -0.407  -6.747  1.00  0.00     0.170 HD
BRANCH  83  85
ATOM     85  C   UNL     1       4.692   1.146  -7.768  1.00  0.00     0.233 A 
ATOM     86  N   UNL     1       5.530   2.111  -7.437  1.00  0.00    -0.182 NA
ATOM     87  N   UNL     1       4.619   0.587  -8.967  1.00  0.00    -0.176 NA
ATOM     88  C   UNL     1       6.333   2.458  -8.433  1.00  0.00     0.228 A 
ATOM     89  C   UNL     1       5.398   1.098  -9.909  1.00  0.00     0.233 A 
ATOM     90  Cl  UNL     1       7.621   3.505  -8.021  1.00  0.00    -0.041 Cl
ATOM     91  N   UNL     1       6.343   1.988  -9.669  1.00  0.00    -0.182 NA
BRANCH  89  92
ATOM     92  N   UNL     1       5.090   0.654 -11.193  1.00  0.00    -0.324 N 
ATOM     93  H   UNL     1       4.506  -0.136 -11.245  1.00  0.00     0.170 HD
BRANCH  92  94
ATOM     94  C   UNL     1       5.505   1.188 -12.415  1.00  0.00     0.041 A 
ATOM     95  C   UNL     1       4.537   1.572 -13.348  1.00  0.00     0.028 A 
ATOM     96  C   UNL     1       6.843   1.481 -12.677  1.00  0.00     0.028 A 
ATOM     97  C   UNL     1       4.896   2.292 -14.488  1.00  0.00     0.028 A 
ATOM     98  C   UNL     1       7.211   2.164 -13.838  1.00  0.00     0.028 A 
ATOM     99  C   UNL     1       6.234   2.618 -14.728  1.00  0.00     0.044 A 
BRANCH  99 100
ATOM    100  N   UNL     1       6.574   3.507 -15.787  1.00  0.00    -0.308 N 
ATOM    101  C   UNL     1       5.855   4.794 -15.796  1.00  0.00     0.154 C 
ATOM    102  C   UNL     1       7.765   3.374 -16.500  1.00  0.00     0.253 C 
ATOM    103  C   UNL     1       5.984   5.511 -17.132  1.00  0.00     0.183 C 
ATOM    104  C   UNL     1       8.054   4.499 -17.513  1.00  0.00     0.260 C 
ATOM    105  O   UNL     1       8.513   2.393 -16.461  1.00  0.00    -0.272 OA
ATOM    106  O   UNL     1       7.362   5.731 -17.433  1.00  0.00    -0.370 OA
ENDBRANCH  99 100
ENDBRANCH  92  94
ENDBRANCH  89  92
ENDBRANCH  83  85
ENDBRANCH  79  83
ENDBRANCH  75  77
ENDBRANCH  74  75
ENDBRANCH  73  74
ENDBRANCH  72  73
ENDBRANCH  71  72
ENDBRANCH   1  71
TORSDOF 25
