REMARK SMILES CCOc1ccc2nc(S[C@@H](C(=O)OCCOCCOCCOC(=O)c3ccc(-c4c5nc(c(-c6ccc(S(=O)(=O)[O-])cc6)c6ccc([nH]6)c(-c6ccc(S(=O)(=O)[O-])cc6)c6nc(c(-c7ccc(S(=O)(=O)[O-])cc7)c7ccc4[nH]7)C=C6)C=C5)cc3)c3ccccc3)[nH]c2c1
REMARK SMILES IDX 18 1 17 2 16 3 15 4 14 5 12 6 13 7 11 8 10 9 9 10 4 11 5 12
REMARK SMILES IDX 94 13 6 14 93 15 7 16 92 17 8 18 3 20 2 21 1 22 86 23 87 24
REMARK SMILES IDX 91 25 88 26 90 27 89 28 19 29 20 30 21 31 22 32 23 33 24 34
REMARK SMILES IDX 25 35 26 36 27 37 85 38 28 39 84 40 29 41 30 42 31 43 78 44
REMARK SMILES IDX 32 45 83 46 77 47 79 48 33 49 82 50 76 51 75 52 34 54 64 55
REMARK SMILES IDX 45 56 63 57 46 58 49 59 62 60 80 61 47 62 48 63 61 65 81 66
REMARK SMILES IDX 50 67 35 68 36 69 44 70 37 71 43 72 38 73 39 74 40 75 41 76
REMARK SMILES IDX 42 77 65 78 66 79 74 80 67 81 73 82 68 83 69 84 70 85 71 86
REMARK SMILES IDX 72 87 51 88 52 89 60 90 53 91 59 92 54 93 55 94 56 95 57 96
REMARK SMILES IDX 58 97
REMARK H PARENT 92 19 79 53 49 64
REMARK Flexibility Score: inf
ROOT
ATOM      1  C   UNL     1       4.238  -7.387   2.476  1.00  0.00     0.188 C 
ENDROOT
BRANCH   1   2
ATOM      2  O   UNL     1       4.346  -8.479   3.389  1.00  0.00    -0.376 OA
BRANCH   2   3
ATOM      3  C   UNL     1       5.596  -8.656   4.047  1.00  0.00     0.202 C 
BRANCH   3   4
ATOM      4  C   UNL     1       6.755  -9.011   3.113  1.00  0.00     0.261 C 
BRANCH   4   5
ATOM      5  O   UNL     1       7.028  -7.931   2.195  1.00  0.00    -0.462 OA
BRANCH   5   6
ATOM      6  C   UNL     1       7.893  -8.213   1.189  1.00  0.00     0.324 C 
ATOM      7  O   UNL     1       8.505  -9.275   1.116  1.00  0.00    -0.251 OA
BRANCH   6   8
ATOM      8  C   UNL     1       7.928  -7.142   0.082  1.00  0.00     0.194 C 
BRANCH   8   9
ATOM      9  S   UNL     1       8.276  -5.481   0.715  1.00  0.00    -0.068 SA
BRANCH   9  10
ATOM     10  C   UNL     1       7.014  -4.308   0.574  1.00  0.00     0.167 A 
ATOM     11  C   UNL     1       3.414  -1.597   0.051  1.00  0.00     0.121 A 
ATOM     12  C   UNL     1       4.103  -0.883   1.028  1.00  0.00     0.049 A 
ATOM     13  C   UNL     1       4.004  -2.692  -0.595  1.00  0.00     0.074 A 
ATOM     14  C   UNL     1       5.383  -1.292   1.438  1.00  0.00     0.034 A 
ATOM     15  C   UNL     1       5.218  -3.160  -0.076  1.00  0.00     0.070 A 
ATOM     16  C   UNL     1       5.908  -2.491   0.925  1.00  0.00     0.090 A 
ATOM     17  N   UNL     1       5.956  -4.306  -0.295  1.00  0.00    -0.333 N 
ATOM     18  N   UNL     1       7.029  -3.198   1.287  1.00  0.00    -0.223 NA
ATOM     19  H   UNL     1       5.756  -5.003  -0.961  1.00  0.00     0.169 HD
BRANCH  11  20
ATOM     20  O   UNL     1       2.052  -1.479  -0.047  1.00  0.00    -0.494 OA
BRANCH  20  21
ATOM     21  C   UNL     1       1.552  -0.401  -0.833  1.00  0.00     0.226 C 
ATOM     22  C   UNL     1       1.212   0.806   0.020  1.00  0.00     0.049 C 
ENDBRANCH  20  21
ENDBRANCH  11  20
ENDBRANCH   9  10
ENDBRANCH   8   9
BRANCH   8  23
ATOM     23  C   UNL     1       6.942  -7.351  -1.059  1.00  0.00    -0.023 A 
ATOM     24  C   UNL     1       7.019  -6.552  -2.215  1.00  0.00     0.005 A 
ATOM     25  C   UNL     1       6.056  -8.445  -1.087  1.00  0.00     0.005 A 
ATOM     26  C   UNL     1       6.187  -6.782  -3.313  1.00  0.00     0.000 A 
ATOM     27  C   UNL     1       5.256  -8.702  -2.204  1.00  0.00     0.000 A 
ATOM     28  C   UNL     1       5.309  -7.861  -3.310  1.00  0.00     0.000 A 
ENDBRANCH   8  23
ENDBRANCH   6   8
ENDBRANCH   5   6
ENDBRANCH   4   5
ENDBRANCH   3   4
ENDBRANCH   2   3
ENDBRANCH   1   2
BRANCH   1  29
ATOM     29  C   UNL     1       4.898  -6.052   2.869  1.00  0.00     0.188 C 
BRANCH  29  30
ATOM     30  O   UNL     1       4.731  -5.742   4.249  1.00  0.00    -0.376 OA
BRANCH  30  31
ATOM     31  C   UNL     1       4.058  -4.508   4.471  1.00  0.00     0.202 C 
BRANCH  31  32
ATOM     32  C   UNL     1       2.553  -4.698   4.317  1.00  0.00     0.261 C 
BRANCH  32  33
ATOM     33  O   UNL     1       2.235  -5.006   2.945  1.00  0.00    -0.460 OA
BRANCH  33  34
ATOM     34  C   UNL     1       1.499  -4.100   2.268  1.00  0.00     0.338 C 
ATOM     35  O   UNL     1       1.039  -3.067   2.720  1.00  0.00    -0.246 OA
BRANCH  34  36
ATOM     36  C   UNL     1       1.268  -4.580   0.879  1.00  0.00     0.060 A 
ATOM     37  C   UNL     1       2.240  -5.267   0.141  1.00  0.00     0.016 A 
ATOM     38  C   UNL     1       0.067  -4.233   0.263  1.00  0.00     0.016 A 
ATOM     39  C   UNL     1       2.054  -5.517  -1.225  1.00  0.00     0.010 A 
ATOM     40  C   UNL     1      -0.141  -4.532  -1.087  1.00  0.00     0.010 A 
ATOM     41  C   UNL     1       0.867  -5.134  -1.860  1.00  0.00    -0.014 A 
BRANCH  41  42
ATOM     42  C   UNL     1       0.670  -5.272  -3.330  1.00  0.00     0.031 A 
ATOM     43  C   UNL     1       0.365  -4.050  -4.158  1.00  0.00     0.074 A 
ATOM     44  C   UNL     1       0.726  -6.471  -3.939  1.00  0.00     0.049 A 
ATOM     45  N   UNL     1      -0.190  -3.956  -5.338  1.00  0.00    -0.248 NA
ATOM     46  C   UNL     1       0.735  -2.757  -3.566  1.00  0.00     0.031 C 
ATOM     47  C   UNL     1       1.116  -7.733  -3.313  1.00  0.00     0.029 A 
ATOM     48  N   UNL     1       0.417  -6.818  -5.232  1.00  0.00    -0.354 N 
ATOM     49  C   UNL     1      -0.310  -2.593  -5.593  1.00  0.00     0.074 A 
ATOM     50  C   UNL     1       0.256  -1.899  -4.457  1.00  0.00     0.031 C 
ATOM     51  C   UNL     1       1.014  -8.719  -4.218  1.00  0.00     0.029 A 
ATOM     52  C   UNL     1       0.453  -8.174  -5.450  1.00  0.00     0.049 A 
ATOM     53  H   UNL     1       0.192  -6.162  -5.931  1.00  0.00     0.167 HD
ATOM     54  C   UNL     1      -0.859  -1.981  -6.670  1.00  0.00     0.031 A 
ATOM     55  C   UNL     1       0.007  -8.910  -6.486  1.00  0.00     0.031 A 
ATOM     56  C   UNL     1      -1.373  -2.683  -7.817  1.00  0.00     0.049 A 
ATOM     57  C   UNL     1      -0.670  -8.231  -7.642  1.00  0.00     0.074 A 
ATOM     58  C   UNL     1      -1.957  -2.163  -8.959  1.00  0.00     0.029 A 
ATOM     59  N   UNL     1      -1.345  -4.060  -7.974  1.00  0.00    -0.354 N 
ATOM     60  N   UNL     1      -0.895  -6.952  -7.828  1.00  0.00    -0.248 NA
ATOM     61  C   UNL     1      -1.173  -9.097  -8.717  1.00  0.00     0.031 C 
ATOM     62  C   UNL     1      -2.314  -3.230  -9.792  1.00  0.00     0.029 A 
ATOM     63  C   UNL     1      -1.908  -4.409  -9.189  1.00  0.00     0.049 A 
ATOM     64  H   UNL     1      -0.977  -4.696  -7.319  1.00  0.00     0.167 HD
ATOM     65  C   UNL     1      -1.562  -6.860  -9.045  1.00  0.00     0.074 A 
ATOM     66  C   UNL     1      -1.686  -8.209  -9.558  1.00  0.00     0.031 C 
ATOM     67  C   UNL     1      -2.031  -5.757  -9.679  1.00  0.00     0.031 A 
BRANCH  54  68
ATOM     68  C   UNL     1      -0.993  -0.482  -6.640  1.00  0.00    -0.014 A 
ATOM     69  C   UNL     1       0.110   0.366  -6.838  1.00  0.00     0.010 A 
ATOM     70  C   UNL     1      -2.270   0.086  -6.468  1.00  0.00     0.010 A 
ATOM     71  C   UNL     1      -0.059   1.756  -6.836  1.00  0.00     0.020 A 
ATOM     72  C   UNL     1      -2.446   1.472  -6.488  1.00  0.00     0.020 A 
ATOM     73  C   UNL     1      -1.335   2.299  -6.657  1.00  0.00     0.054 A 
BRANCH  73  74
ATOM     74  S   UNL     1      -1.534   4.103  -6.689  1.00  0.00     0.124 S 
ATOM     75  O   UNL     1      -1.014   4.483  -5.378  1.00  0.00    -0.237 OA
ATOM     76  O   UNL     1      -0.711   4.498  -7.829  1.00  0.00    -0.237 OA
ATOM     77  O   UNL     1      -2.971   4.290  -6.868  1.00  0.00    -0.744 OA
ENDBRANCH  73  74
ENDBRANCH  54  68
BRANCH  55  78
ATOM     78  C   UNL     1       0.114 -10.392  -6.420  1.00  0.00    -0.014 A 
ATOM     79  C   UNL     1       1.046 -11.076  -7.217  1.00  0.00     0.010 A 
ATOM     80  C   UNL     1      -0.678 -11.116  -5.509  1.00  0.00     0.010 A 
ATOM     81  C   UNL     1       1.195 -12.460  -7.092  1.00  0.00     0.020 A 
ATOM     82  C   UNL     1      -0.511 -12.494  -5.362  1.00  0.00     0.020 A 
ATOM     83  C   UNL     1       0.423 -13.158  -6.158  1.00  0.00     0.054 A 
BRANCH  83  84
ATOM     84  S   UNL     1       0.713 -14.935  -5.930  1.00  0.00     0.124 S 
ATOM     85  O   UNL     1       0.006 -15.505  -7.072  1.00  0.00    -0.237 OA
ATOM     86  O   UNL     1       2.170 -15.027  -5.976  1.00  0.00    -0.237 OA
ATOM     87  O   UNL     1       0.122 -15.209  -4.622  1.00  0.00    -0.744 OA
ENDBRANCH  83  84
ENDBRANCH  55  78
BRANCH  67  88
ATOM     88  C   UNL     1      -2.696  -5.962 -11.012  1.00  0.00    -0.014 A 
ATOM     89  C   UNL     1      -4.002  -6.471 -11.099  1.00  0.00     0.010 A 
ATOM     90  C   UNL     1      -2.016  -5.599 -12.189  1.00  0.00     0.010 A 
ATOM     91  C   UNL     1      -4.608  -6.646 -12.347  1.00  0.00     0.020 A 
ATOM     92  C   UNL     1      -2.626  -5.753 -13.436  1.00  0.00     0.020 A 
ATOM     93  C   UNL     1      -3.913  -6.290 -13.508  1.00  0.00     0.054 A 
BRANCH  93  94
ATOM     94  S   UNL     1      -4.728  -6.499 -15.115  1.00  0.00     0.124 S 
ATOM     95  O   UNL     1      -4.619  -7.940 -15.324  1.00  0.00    -0.237 OA
ATOM     96  O   UNL     1      -6.077  -6.001 -14.860  1.00  0.00    -0.237 OA
ATOM     97  O   UNL     1      -3.926  -5.676 -16.017  1.00  0.00    -0.744 OA
ENDBRANCH  93  94
ENDBRANCH  67  88
ENDBRANCH  41  42
ENDBRANCH  34  36
ENDBRANCH  33  34
ENDBRANCH  32  33
ENDBRANCH  31  32
ENDBRANCH  30  31
ENDBRANCH  29  30
ENDBRANCH   1  29
TORSDOF 25
