REMARK SMILES O=C(OCCOCCOCCOC(=O)[C@]1(CCc2cccnc2)CCC[NH2+]C1)c1ccc(-c2c3nc(c(-c4ccc(S(=O)(=O)[O-])cc4)c4ccc([nH]4)c(-c4ccc(S(=O)(=O)[O-])cc4)c4nc(c(-c5ccc(S(=O)(=O)[O-])cc5)c5ccc2[nH]5)C=C4)C=C3)cc1
REMARK SMILES IDX 7 1 6 2 5 3 4 4 3 5 2 6 1 7 29 8 30 9 88 10 31 11 87 12
REMARK SMILES IDX 32 13 33 14 34 15 81 16 35 17 86 18 80 19 82 20 36 21 85 22
REMARK SMILES IDX 79 23 78 24 37 26 67 27 48 28 66 29 49 30 52 31 65 32 83 33
REMARK SMILES IDX 50 34 51 35 64 37 84 38 53 39 38 40 39 41 47 42 40 43 46 44
REMARK SMILES IDX 41 45 42 46 43 47 44 48 45 49 68 50 69 51 77 52 70 53 76 54
REMARK SMILES IDX 71 55 72 56 73 57 74 58 75 59 54 60 55 61 63 62 56 63 62 64
REMARK SMILES IDX 57 65 58 66 59 67 60 68 61 69 8 70 9 71 10 72 11 73 12 74
REMARK SMILES IDX 13 75 14 76 15 77 24 78 28 79 25 80 27 81 26 82 16 85 17 86
REMARK SMILES IDX 18 87 19 88 23 89 20 90 22 91 21 92
REMARK H PARENT 82 25 52 36 27 83 27 84
REMARK Flexibility Score: inf
ROOT
ATOM      1  C   UNL     1       3.517   0.799  -1.242  1.00  0.00     0.188 C 
ENDROOT
BRANCH   1   2
ATOM      2  O   UNL     1       4.874   0.484  -0.993  1.00  0.00    -0.376 OA
BRANCH   2   3
ATOM      3  C   UNL     1       5.267  -0.871  -1.130  1.00  0.00     0.202 C 
BRANCH   3   4
ATOM      4  C   UNL     1       4.767  -1.858  -0.059  1.00  0.00     0.261 C 
BRANCH   4   5
ATOM      5  O   UNL     1       3.384  -1.724   0.313  1.00  0.00    -0.460 OA
BRANCH   5   6
ATOM      6  C   UNL     1       2.850  -1.134   1.417  1.00  0.00     0.338 C 
ATOM      7  O   UNL     1       1.730  -1.492   1.780  1.00  0.00    -0.246 OA
BRANCH   6   8
ATOM      8  C   UNL     1       3.466   0.046   2.120  1.00  0.00     0.060 A 
ATOM      9  C   UNL     1       4.758   0.523   1.913  1.00  0.00     0.016 A 
ATOM     10  C   UNL     1       2.663   0.739   3.053  1.00  0.00     0.016 A 
ATOM     11  C   UNL     1       5.253   1.621   2.605  1.00  0.00     0.010 A 
ATOM     12  C   UNL     1       3.164   1.823   3.791  1.00  0.00     0.010 A 
ATOM     13  C   UNL     1       4.485   2.232   3.593  1.00  0.00    -0.014 A 
BRANCH  13  14
ATOM     14  C   UNL     1       5.239   3.044   4.570  1.00  0.00     0.031 A 
ATOM     15  C   UNL     1       5.840   2.306   5.731  1.00  0.00     0.074 A 
ATOM     16  C   UNL     1       5.583   4.312   4.288  1.00  0.00     0.049 A 
ATOM     17  N   UNL     1       6.723   2.713   6.599  1.00  0.00    -0.248 NA
ATOM     18  C   UNL     1       5.419   0.903   5.907  1.00  0.00     0.031 C 
ATOM     19  C   UNL     1       5.135   5.045   3.111  1.00  0.00     0.029 A 
ATOM     20  N   UNL     1       6.429   5.183   4.920  1.00  0.00    -0.354 N 
ATOM     21  C   UNL     1       6.958   1.622   7.426  1.00  0.00     0.074 A 
ATOM     22  C   UNL     1       6.129   0.536   6.960  1.00  0.00     0.031 C 
ATOM     23  C   UNL     1       5.745   6.241   3.072  1.00  0.00     0.029 A 
ATOM     24  C   UNL     1       6.598   6.372   4.248  1.00  0.00     0.049 A 
ATOM     25  H   UNL     1       6.875   4.978   5.774  1.00  0.00     0.167 HD
ATOM     26  C   UNL     1       7.784   1.544   8.492  1.00  0.00     0.031 A 
ATOM     27  C   UNL     1       7.357   7.443   4.555  1.00  0.00     0.031 A 
ATOM     28  C   UNL     1       8.556   2.659   8.962  1.00  0.00     0.049 A 
ATOM     29  C   UNL     1       8.189   7.366   5.808  1.00  0.00     0.074 A 
ATOM     30  C   UNL     1       9.357   2.744  10.084  1.00  0.00     0.029 A 
ATOM     31  N   UNL     1       8.607   3.897   8.332  1.00  0.00    -0.354 N 
ATOM     32  N   UNL     1       8.358   6.346   6.618  1.00  0.00    -0.248 NA
ATOM     33  C   UNL     1       8.922   8.576   6.195  1.00  0.00     0.031 C 
ATOM     34  C   UNL     1       9.841   4.054  10.167  1.00  0.00     0.029 A 
ATOM     35  C   UNL     1       9.404   4.762   9.056  1.00  0.00     0.049 A 
ATOM     36  H   UNL     1       8.143   4.123   7.494  1.00  0.00     0.167 HD
ATOM     37  C   UNL     1       9.232   6.785   7.604  1.00  0.00     0.074 A 
ATOM     38  C   UNL     1       9.572   8.156   7.272  1.00  0.00     0.031 C 
ATOM     39  C   UNL     1       9.709   6.123   8.689  1.00  0.00     0.031 A 
BRANCH  26  40
ATOM     40  C   UNL     1       7.779   0.254   9.262  1.00  0.00    -0.014 A 
ATOM     41  C   UNL     1       8.352  -0.923   8.746  1.00  0.00     0.010 A 
ATOM     42  C   UNL     1       7.133   0.210  10.511  1.00  0.00     0.010 A 
ATOM     43  C   UNL     1       8.240  -2.129   9.447  1.00  0.00     0.020 A 
ATOM     44  C   UNL     1       7.043  -0.986  11.226  1.00  0.00     0.020 A 
ATOM     45  C   UNL     1       7.580  -2.152  10.680  1.00  0.00     0.054 A 
BRANCH  45  46
ATOM     46  S   UNL     1       7.442  -3.728  11.568  1.00  0.00     0.124 S 
ATOM     47  O   UNL     1       6.464  -4.447  10.755  1.00  0.00    -0.237 OA
ATOM     48  O   UNL     1       8.806  -4.245  11.514  1.00  0.00    -0.237 OA
ATOM     49  O   UNL     1       6.979  -3.337  12.897  1.00  0.00    -0.744 OA
ENDBRANCH  45  46
ENDBRANCH  26  40
BRANCH  27  50
ATOM     50  C   UNL     1       7.333   8.668   3.702  1.00  0.00    -0.014 A 
ATOM     51  C   UNL     1       8.486   9.128   3.040  1.00  0.00     0.010 A 
ATOM     52  C   UNL     1       6.137   9.399   3.556  1.00  0.00     0.010 A 
ATOM     53  C   UNL     1       8.448  10.297   2.268  1.00  0.00     0.020 A 
ATOM     54  C   UNL     1       6.085  10.546   2.760  1.00  0.00     0.020 A 
ATOM     55  C   UNL     1       7.246  10.998   2.131  1.00  0.00     0.054 A 
BRANCH  55  56
ATOM     56  S   UNL     1       7.204  12.490   1.099  1.00  0.00     0.124 S 
ATOM     57  O   UNL     1       7.938  13.448   1.919  1.00  0.00    -0.237 OA
ATOM     58  O   UNL     1       7.879  12.049  -0.119  1.00  0.00    -0.237 OA
ATOM     59  O   UNL     1       5.776  12.759   0.947  1.00  0.00    -0.744 OA
ENDBRANCH  55  56
ENDBRANCH  27  50
BRANCH  39  60
ATOM     60  C   UNL     1      10.675   6.868   9.566  1.00  0.00    -0.014 A 
ATOM     61  C   UNL     1      10.250   7.921  10.393  1.00  0.00     0.010 A 
ATOM     62  C   UNL     1      12.022   6.464   9.594  1.00  0.00     0.010 A 
ATOM     63  C   UNL     1      11.169   8.589  11.204  1.00  0.00     0.020 A 
ATOM     64  C   UNL     1      12.936   7.107  10.428  1.00  0.00     0.020 A 
ATOM     65  C   UNL     1      12.507   8.179  11.214  1.00  0.00     0.054 A 
BRANCH  65  66
ATOM     66  S   UNL     1      13.675   9.041  12.297  1.00  0.00     0.124 S 
ATOM     67  O   UNL     1      13.864  10.305  11.590  1.00  0.00    -0.237 OA
ATOM     68  O   UNL     1      12.941   9.127  13.556  1.00  0.00    -0.237 OA
ATOM     69  O   UNL     1      14.840   8.160  12.320  1.00  0.00    -0.744 OA
ENDBRANCH  65  66
ENDBRANCH  39  60
ENDBRANCH  13  14
ENDBRANCH   6   8
ENDBRANCH   5   6
ENDBRANCH   4   5
ENDBRANCH   3   4
ENDBRANCH   2   3
ENDBRANCH   1   2
BRANCH   1  70
ATOM     70  C   UNL     1       2.977   0.767  -2.672  1.00  0.00     0.188 C 
BRANCH  70  71
ATOM     71  O   UNL     1       3.841   0.651  -3.786  1.00  0.00    -0.376 OA
BRANCH  71  72
ATOM     72  C   UNL     1       5.016   1.444  -3.807  1.00  0.00     0.202 C 
BRANCH  72  73
ATOM     73  C   UNL     1       4.907   2.958  -3.597  1.00  0.00     0.261 C 
BRANCH  73  74
ATOM     74  O   UNL     1       4.123   3.349  -2.459  1.00  0.00    -0.463 OA
BRANCH  74  75
ATOM     75  C   UNL     1       3.212   4.338  -2.666  1.00  0.00     0.317 C 
ATOM     76  O   UNL     1       2.931   4.777  -3.781  1.00  0.00    -0.251 OA
BRANCH  75  77
ATOM     77  C   UNL     1       2.579   4.877  -1.368  1.00  0.00     0.117 C 
ATOM     78  C   UNL     1       2.181   6.357  -1.602  1.00  0.00     0.030 C 
ATOM     79  C   UNL     1       3.633   4.869  -0.229  1.00  0.00     0.279 C 
ATOM     80  C   UNL     1       3.406   7.257  -1.812  1.00  0.00     0.063 C 
ATOM     81  N   UNL     1       4.802   5.698  -0.517  1.00  0.00    -0.345 N 
ATOM     82  C   UNL     1       4.431   7.101  -0.694  1.00  0.00     0.260 C 
ATOM     83  H   UNL     1       5.461   5.624   0.258  1.00  0.00     0.346 HD
ATOM     84  H   UNL     1       5.225   5.367  -1.385  1.00  0.00     0.346 HD
BRANCH  77  85
ATOM     85  C   UNL     1       1.353   4.039  -0.874  1.00  0.00     0.029 C 
BRANCH  85  86
ATOM     86  C   UNL     1       0.034   4.054  -1.675  1.00  0.00     0.038 C 
BRANCH  86  87
ATOM     87  C   UNL     1      -0.040   3.019  -2.762  1.00  0.00    -0.030 A 
ATOM     88  C   UNL     1       0.375   3.306  -4.061  1.00  0.00     0.007 A 
ATOM     89  C   UNL     1      -0.457   1.714  -2.504  1.00  0.00     0.114 A 
ATOM     90  C   UNL     1       0.472   2.288  -5.003  1.00  0.00     0.020 A 
ATOM     91  N   UNL     1      -0.413   0.710  -3.411  1.00  0.00    -0.264 NA
ATOM     92  C   UNL     1       0.079   1.015  -4.632  1.00  0.00     0.111 A 
ENDBRANCH  86  87
ENDBRANCH  85  86
ENDBRANCH  77  85
ENDBRANCH  75  77
ENDBRANCH  74  75
ENDBRANCH  73  74
ENDBRANCH  72  73
ENDBRANCH  71  72
ENDBRANCH  70  71
ENDBRANCH   1  70
TORSDOF 23
