REMARK SMILES COc1cc([C@@H]2CC(=O)Nc3c(C(=O)OCCOCCOCCOC(=O)c4ccc(-c5c6nc(c(-c7ccc(S(=O)(=O)[O-])cc7)c7ccc([nH]7)c(-c7ccc(S(=O)(=O)[O-])cc7)c7nc(c(-c8ccc(S(=O)(=O)[O-])cc8)c8ccc5[nH]8)C=C7)C=C6)cc4)cn(-c4ccc(F)cc4)c32)c(OC)c2c1OCO2
REMARK SMILES IDX 20 1 19 2 18 3 17 4 16 5 15 6 13 7 14 8 12 9 6 10 7 11 96 12
REMARK SMILES IDX 8 13 11 14 88 15 9 16 10 17 87 18 5 20 3 21 4 22 101 23
REMARK SMILES IDX 100 24 102 25 97 26 104 27 103 28 2 29 1 30 98 31 99 32
REMARK SMILES IDX 89 33 90 34 95 35 91 36 94 37 92 38 93 39 21 40 22 41 23 42
REMARK SMILES IDX 24 43 25 44 26 45 27 46 28 47 86 48 29 49 85 50 30 51 31 52
REMARK SMILES IDX 32 53 79 54 33 55 84 56 78 57 80 58 34 59 83 60 77 61 76 62
REMARK SMILES IDX 35 64 65 65 46 66 64 67 47 68 50 69 63 70 81 71 48 72 49 73
REMARK SMILES IDX 62 75 82 76 51 77 36 78 37 79 45 80 38 81 44 82 39 83 40 84
REMARK SMILES IDX 41 85 42 86 43 87 66 88 67 89 75 90 68 91 74 92 69 93 70 94
REMARK SMILES IDX 71 95 72 96 73 97 52 98 53 99 61 100 54 101 60 102 55 103
REMARK SMILES IDX 56 104 57 105 58 106 59 107
REMARK H PARENT 10 19 80 63 50 74
REMARK Flexibility Score: inf
ROOT
ATOM      1  C   UNL     1      -2.047  -7.870   7.781  1.00  0.00     0.188 C 
ENDROOT
BRANCH   1   2
ATOM      2  C   UNL     1      -1.978  -9.136   6.900  1.00  0.00     0.188 C 
BRANCH   2   3
ATOM      3  O   UNL     1      -1.194 -10.265   7.268  1.00  0.00    -0.376 OA
BRANCH   3   4
ATOM      4  C   UNL     1       0.028 -10.114   7.975  1.00  0.00     0.202 C 
BRANCH   4   5
ATOM      5  C   UNL     1       1.167  -9.291   7.349  1.00  0.00     0.261 C 
BRANCH   5   6
ATOM      6  O   UNL     1       0.804  -7.969   6.924  1.00  0.00    -0.460 OA
BRANCH   6   7
ATOM      7  C   UNL     1       0.589  -7.829   5.587  1.00  0.00     0.341 C 
ATOM      8  O   UNL     1       0.835  -8.689   4.748  1.00  0.00    -0.246 OA
BRANCH   7   9
ATOM      9  C   UNL     1      -0.059  -6.573   5.239  1.00  0.00     0.102 A 
ATOM     10  C   UNL     1      -0.488  -2.913   5.150  1.00  0.00     0.082 C 
ATOM     11  C   UNL     1      -0.291  -2.564   6.634  1.00  0.00     0.115 C 
ATOM     12  C   UNL     1      -0.607  -4.397   5.000  1.00  0.00     0.055 A 
ATOM     13  C   UNL     1       0.517  -3.570   7.450  1.00  0.00     0.225 C 
ATOM     14  C   UNL     1      -0.052  -5.306   5.872  1.00  0.00     0.078 A 
ATOM     15  N   UNL     1      -1.230  -5.100   3.997  1.00  0.00    -0.317 N 
ATOM     16  O   UNL     1       1.097  -3.230   8.484  1.00  0.00    -0.275 OA
ATOM     17  N   UNL     1       0.504  -4.889   7.060  1.00  0.00    -0.324 N 
ATOM     18  C   UNL     1      -0.882  -6.423   4.129  1.00  0.00     0.109 A 
ATOM     19  H   UNL     1       0.908  -5.562   7.654  1.00  0.00     0.170 HD
BRANCH  10  20
ATOM     20  C   UNL     1       0.607  -2.327   4.241  1.00  0.00     0.012 A 
ATOM     21  C   UNL     1       1.097  -0.843   2.339  1.00  0.00     0.165 A 
ATOM     22  C   UNL     1       0.228  -1.305   3.334  1.00  0.00     0.059 A 
ATOM     23  C   UNL     1       2.372  -1.375   2.304  1.00  0.00     0.211 A 
ATOM     24  C   UNL     1       2.782  -2.328   3.216  1.00  0.00     0.211 A 
ATOM     25  O   UNL     1       3.366  -1.048   1.429  1.00  0.00    -0.449 OA
ATOM     26  C   UNL     1       1.936  -2.816   4.202  1.00  0.00     0.168 A 
ATOM     27  O   UNL     1       4.077  -2.703   3.002  1.00  0.00    -0.449 OA
ATOM     28  C   UNL     1       4.445  -1.867   1.900  1.00  0.00     0.468 C 
BRANCH  21  29
ATOM     29  O   UNL     1       0.579   0.106   1.506  1.00  0.00    -0.493 OA
ATOM     30  C   UNL     1       1.051   0.061   0.164  1.00  0.00     0.278 C 
ENDBRANCH  21  29
BRANCH  26  31
ATOM     31  O   UNL     1       2.274  -3.729   5.150  1.00  0.00    -0.492 OA
ATOM     32  C   UNL     1       3.546  -4.354   5.125  1.00  0.00     0.278 C 
ENDBRANCH  26  31
ENDBRANCH  10  20
BRANCH  15  33
ATOM     33  C   UNL     1      -2.027  -4.597   2.954  1.00  0.00     0.046 A 
ATOM     34  C   UNL     1      -1.427  -3.863   1.929  1.00  0.00     0.029 A 
ATOM     35  C   UNL     1      -3.399  -4.876   2.940  1.00  0.00     0.029 A 
ATOM     36  C   UNL     1      -2.217  -3.356   0.900  1.00  0.00     0.041 A 
ATOM     37  C   UNL     1      -4.183  -4.360   1.907  1.00  0.00     0.041 A 
ATOM     38  C   UNL     1      -3.587  -3.602   0.902  1.00  0.00     0.123 A 
ATOM     39  F   UNL     1      -4.341  -3.105  -0.087  1.00  0.00    -0.207 F 
ENDBRANCH  15  33
ENDBRANCH   7   9
ENDBRANCH   6   7
ENDBRANCH   5   6
ENDBRANCH   4   5
ENDBRANCH   3   4
ENDBRANCH   2   3
ENDBRANCH   1   2
BRANCH   1  40
ATOM     40  O   UNL     1      -1.188  -7.886   8.907  1.00  0.00    -0.376 OA
BRANCH  40  41
ATOM     41  C   UNL     1      -1.807  -7.838  10.184  1.00  0.00     0.202 C 
BRANCH  41  42
ATOM     42  C   UNL     1      -2.696  -9.019  10.574  1.00  0.00     0.261 C 
BRANCH  42  43
ATOM     43  O   UNL     1      -3.590  -9.483   9.571  1.00  0.00    -0.460 OA
BRANCH  43  44
ATOM     44  C   UNL     1      -4.690  -8.727   9.379  1.00  0.00     0.338 C 
ATOM     45  O   UNL     1      -4.831  -7.554   9.679  1.00  0.00    -0.246 OA
BRANCH  44  46
ATOM     46  C   UNL     1      -5.746  -9.583   8.825  1.00  0.00     0.060 A 
ATOM     47  C   UNL     1      -6.867  -8.963   8.271  1.00  0.00     0.016 A 
ATOM     48  C   UNL     1      -5.710 -10.967   9.061  1.00  0.00     0.016 A 
ATOM     49  C   UNL     1      -8.012  -9.714   8.094  1.00  0.00     0.010 A 
ATOM     50  C   UNL     1      -6.857 -11.711   8.896  1.00  0.00     0.010 A 
ATOM     51  C   UNL     1      -8.015 -11.062   8.479  1.00  0.00    -0.014 A 
BRANCH  51  52
ATOM     52  C   UNL     1      -9.264 -11.789   8.370  1.00  0.00     0.031 A 
ATOM     53  C   UNL     1      -9.649 -12.108   6.986  1.00  0.00     0.074 A 
ATOM     54  C   UNL     1      -9.974 -12.212   9.433  1.00  0.00     0.049 A 
ATOM     55  N   UNL     1     -10.593 -11.570   6.289  1.00  0.00    -0.248 NA
ATOM     56  C   UNL     1      -8.787 -13.037   6.239  1.00  0.00     0.031 C 
ATOM     57  C   UNL     1      -9.534 -12.221  10.831  1.00  0.00     0.029 A 
ATOM     58  N   UNL     1     -11.196 -12.821   9.479  1.00  0.00    -0.354 N 
ATOM     59  C   UNL     1     -10.618 -12.299   5.109  1.00  0.00     0.074 A 
ATOM     60  C   UNL     1      -9.368 -13.013   5.039  1.00  0.00     0.031 C 
ATOM     61  C   UNL     1     -10.374 -12.994  11.552  1.00  0.00     0.029 A 
ATOM     62  C   UNL     1     -11.479 -13.412  10.703  1.00  0.00     0.049 A 
ATOM     63  H   UNL     1     -11.818 -12.839   8.716  1.00  0.00     0.167 HD
ATOM     64  C   UNL     1     -11.798 -12.556   4.484  1.00  0.00     0.031 A 
ATOM     65  C   UNL     1     -12.520 -14.225  10.999  1.00  0.00     0.031 A 
ATOM     66  C   UNL     1     -12.861 -11.704   4.951  1.00  0.00     0.049 A 
ATOM     67  C   UNL     1     -13.610 -13.967  10.032  1.00  0.00     0.074 A 
ATOM     68  C   UNL     1     -13.230 -10.384   4.824  1.00  0.00     0.029 A 
ATOM     69  N   UNL     1     -13.580 -12.229   5.992  1.00  0.00    -0.354 N 
ATOM     70  N   UNL     1     -14.272 -12.845   9.984  1.00  0.00    -0.248 NA
ATOM     71  C   UNL     1     -13.809 -14.856   8.893  1.00  0.00     0.031 C 
ATOM     72  C   UNL     1     -14.087 -10.097   5.929  1.00  0.00     0.029 A 
ATOM     73  C   UNL     1     -14.229 -11.250   6.698  1.00  0.00     0.049 A 
ATOM     74  H   UNL     1     -13.626 -13.189   6.205  1.00  0.00     0.167 HD
ATOM     75  C   UNL     1     -14.623 -12.707   8.656  1.00  0.00     0.074 A 
ATOM     76  C   UNL     1     -14.477 -14.034   8.079  1.00  0.00     0.031 C 
ATOM     77  C   UNL     1     -14.663 -11.479   8.064  1.00  0.00     0.031 A 
BRANCH  64  78
ATOM     78  C   UNL     1     -12.111 -13.909   3.880  1.00  0.00    -0.014 A 
ATOM     79  C   UNL     1     -13.330 -14.073   3.194  1.00  0.00     0.010 A 
ATOM     80  C   UNL     1     -11.413 -15.084   4.234  1.00  0.00     0.010 A 
ATOM     81  C   UNL     1     -13.845 -15.349   2.926  1.00  0.00     0.020 A 
ATOM     82  C   UNL     1     -11.895 -16.358   3.934  1.00  0.00     0.020 A 
ATOM     83  C   UNL     1     -13.127 -16.482   3.311  1.00  0.00     0.054 A 
BRANCH  83  84
ATOM     84  S   UNL     1     -13.845 -18.122   3.059  1.00  0.00     0.124 S 
ATOM     85  O   UNL     1     -14.954 -18.110   4.008  1.00  0.00    -0.237 OA
ATOM     86  O   UNL     1     -14.215 -18.083   1.647  1.00  0.00    -0.237 OA
ATOM     87  O   UNL     1     -12.746 -19.028   3.385  1.00  0.00    -0.744 OA
ENDBRANCH  83  84
ENDBRANCH  64  78
BRANCH  65  88
ATOM     88  C   UNL     1     -12.559 -15.350  11.963  1.00  0.00    -0.014 A 
ATOM     89  C   UNL     1     -13.782 -15.941  12.328  1.00  0.00     0.010 A 
ATOM     90  C   UNL     1     -11.371 -16.023  12.315  1.00  0.00     0.010 A 
ATOM     91  C   UNL     1     -13.817 -17.197  12.953  1.00  0.00     0.020 A 
ATOM     92  C   UNL     1     -11.398 -17.267  12.953  1.00  0.00     0.020 A 
ATOM     93  C   UNL     1     -12.623 -17.862  13.241  1.00  0.00     0.054 A 
BRANCH  93  94
ATOM     94  S   UNL     1     -12.680 -19.565  13.867  1.00  0.00     0.124 S 
ATOM     95  O   UNL     1     -13.165 -19.378  15.231  1.00  0.00    -0.237 OA
ATOM     96  O   UNL     1     -13.611 -20.211  12.947  1.00  0.00    -0.237 OA
ATOM     97  O   UNL     1     -11.293 -20.018  13.759  1.00  0.00    -0.744 OA
ENDBRANCH  93  94
ENDBRANCH  65  88
BRANCH  77  98
ATOM     98  C   UNL     1     -14.998 -10.292   8.927  1.00  0.00    -0.014 A 
ATOM     99  C   UNL     1     -14.238  -9.878  10.036  1.00  0.00     0.010 A 
ATOM    100  C   UNL     1     -16.135  -9.542   8.575  1.00  0.00     0.010 A 
ATOM    101  C   UNL     1     -14.630  -8.766  10.796  1.00  0.00     0.020 A 
ATOM    102  C   UNL     1     -16.520  -8.422   9.315  1.00  0.00     0.020 A 
ATOM    103  C   UNL     1     -15.773  -8.048  10.432  1.00  0.00     0.054 A 
BRANCH 103 104
ATOM    104  S   UNL     1     -16.268  -6.604  11.412  1.00  0.00     0.124 S 
ATOM    105  O   UNL     1     -16.706  -7.207  12.668  1.00  0.00    -0.237 OA
ATOM    106  O   UNL     1     -15.035  -5.824  11.485  1.00  0.00    -0.237 OA
ATOM    107  O   UNL     1     -17.332  -5.991  10.617  1.00  0.00    -0.744 OA
ENDBRANCH 103 104
ENDBRANCH  77  98
ENDBRANCH  51  52
ENDBRANCH  44  46
ENDBRANCH  43  44
ENDBRANCH  42  43
ENDBRANCH  41  42
ENDBRANCH  40  41
ENDBRANCH   1  40
TORSDOF 24
