REMARK SMILES C[C@H]1CCc2sc3ncn4nc(/C=C\C(=O)OCCOCCOCCOC(=O)c5ccc(-c6c7nc(c(-c8ccc(S(=O)(=O)[O-])cc8)c8ccc([nH]8)c(-c8ccc(S(=O)(=O)[O-])cc8)c8nc(c(-c9ccc(S(=O)(=O)[O-])cc9)c9ccc6[nH]9)C=C8)C=C7)cc5)nc4c3c2C1
REMARK SMILES IDX 22 1 21 2 20 3 19 4 18 5 17 6 15 7 16 8 14 9 13 10 12 11
REMARK SMILES IDX 1 12 2 13 3 14 93 15 4 16 92 17 5 18 91 19 6 20 7 21 90 22
REMARK SMILES IDX 8 23 10 24 89 25 9 26 11 27 23 28 24 29 25 30 26 31 27 32
REMARK SMILES IDX 28 33 29 34 30 35 88 36 31 37 87 38 32 39 33 40 34 41 81 42
REMARK SMILES IDX 35 43 86 44 80 45 82 46 36 47 85 48 79 49 78 50 37 52 67 53
REMARK SMILES IDX 48 54 66 55 49 56 52 57 65 58 83 59 50 60 51 61 64 63 84 64
REMARK SMILES IDX 53 65 38 66 39 67 47 68 40 69 46 70 41 71 42 72 43 73 44 74
REMARK SMILES IDX 45 75 68 76 69 77 77 78 70 79 76 80 71 81 72 82 73 83 74 84
REMARK SMILES IDX 75 85 54 86 55 87 63 88 56 89 62 90 57 91 58 92 59 93 60 94
REMARK SMILES IDX 61 95
REMARK H PARENT 82 51 52 62
REMARK Flexibility Score: inf
ROOT
ATOM      1  C   UNL     1      -4.317  -1.276   1.752  1.00  0.00     0.188 C 
ENDROOT
BRANCH   1   2
ATOM      2  C   UNL     1      -3.606  -2.590   1.327  1.00  0.00     0.188 C 
BRANCH   2   3
ATOM      3  O   UNL     1      -2.196  -2.710   1.397  1.00  0.00    -0.376 OA
BRANCH   3   4
ATOM      4  C   UNL     1      -1.399  -1.848   0.596  1.00  0.00     0.202 C 
BRANCH   4   5
ATOM      5  C   UNL     1      -1.826  -1.505  -0.840  1.00  0.00     0.261 C 
BRANCH   5   6
ATOM      6  O   UNL     1      -3.181  -1.062  -0.947  1.00  0.00    -0.460 OA
BRANCH   6   7
ATOM      7  C   UNL     1      -3.933  -1.587  -1.933  1.00  0.00     0.330 C 
ATOM      8  O   UNL     1      -3.568  -2.400  -2.770  1.00  0.00    -0.247 OA
BRANCH   7   9
ATOM      9  C   UNL     1      -5.360  -1.246  -1.769  1.00  0.00     0.097 C 
ATOM     10  C   UNL     1      -5.940  -0.069  -1.489  1.00  0.00     0.058 C 
BRANCH  10  11
ATOM     11  C   UNL     1      -5.378   1.225  -1.283  1.00  0.00     0.175 A 
ATOM     12  C   UNL     1       1.315   2.046  -1.884  1.00  0.00     0.008 C 
ATOM     13  C   UNL     1       0.741   1.917  -0.473  1.00  0.00    -0.009 C 
ATOM     14  C   UNL     1       1.282   2.995   0.492  1.00  0.00     0.009 C 
ATOM     15  C   UNL     1      -0.795   1.907  -0.523  1.00  0.00     0.041 C 
ATOM     16  C   UNL     1       0.756   4.417   0.206  1.00  0.00     0.047 C 
ATOM     17  C   UNL     1      -1.417   3.251  -0.421  1.00  0.00    -0.020 A 
ATOM     18  C   UNL     1      -0.715   4.386  -0.075  1.00  0.00     0.011 A 
ATOM     19  C   UNL     1      -2.782   3.553  -0.598  1.00  0.00     0.060 A 
ATOM     20  S   UNL     1      -1.703   5.782  -0.028  1.00  0.00    -0.120 S 
ATOM     21  C   UNL     1      -3.113   4.886  -0.420  1.00  0.00     0.129 A 
ATOM     22  C   UNL     1      -3.924   2.685  -0.915  1.00  0.00     0.168 A 
ATOM     23  N   UNL     1      -4.362   5.458  -0.519  1.00  0.00    -0.225 NA
ATOM     24  N   UNL     1      -5.151   3.262  -0.946  1.00  0.00    -0.201 N 
ATOM     25  N   UNL     1      -4.019   1.412  -1.192  1.00  0.00    -0.207 NA
ATOM     26  C   UNL     1      -5.352   4.631  -0.768  1.00  0.00     0.227 A 
ATOM     27  N   UNL     1      -6.112   2.352  -1.184  1.00  0.00    -0.145 NA
ENDBRANCH  10  11
ENDBRANCH   7   9
ENDBRANCH   6   7
ENDBRANCH   5   6
ENDBRANCH   4   5
ENDBRANCH   3   4
ENDBRANCH   2   3
ENDBRANCH   1   2
BRANCH   1  28
ATOM     28  O   UNL     1      -3.673  -0.035   1.559  1.00  0.00    -0.376 OA
BRANCH  28  29
ATOM     29  C   UNL     1      -2.878   0.646   2.520  1.00  0.00     0.202 C 
BRANCH  29  30
ATOM     30  C   UNL     1      -2.570   0.197   3.939  1.00  0.00     0.261 C 
BRANCH  30  31
ATOM     31  O   UNL     1      -2.482  -1.201   4.043  1.00  0.00    -0.460 OA
BRANCH  31  32
ATOM     32  C   UNL     1      -3.585  -1.736   4.586  1.00  0.00     0.338 C 
ATOM     33  O   UNL     1      -4.582  -1.135   4.994  1.00  0.00    -0.246 OA
BRANCH  32  34
ATOM     34  C   UNL     1      -3.459  -3.184   4.614  1.00  0.00     0.060 A 
ATOM     35  C   UNL     1      -4.609  -3.857   5.023  1.00  0.00     0.016 A 
ATOM     36  C   UNL     1      -2.170  -3.724   4.709  1.00  0.00     0.016 A 
ATOM     37  C   UNL     1      -4.429  -4.851   5.938  1.00  0.00     0.010 A 
ATOM     38  C   UNL     1      -1.992  -4.727   5.614  1.00  0.00     0.010 A 
ATOM     39  C   UNL     1      -3.115  -5.134   6.323  1.00  0.00    -0.014 A 
BRANCH  39  40
ATOM     40  C   UNL     1      -2.936  -5.798   7.582  1.00  0.00     0.031 A 
ATOM     41  C   UNL     1      -3.155  -7.242   7.477  1.00  0.00     0.074 A 
ATOM     42  C   UNL     1      -2.581  -5.131   8.694  1.00  0.00     0.049 A 
ATOM     43  N   UNL     1      -4.215  -7.886   7.821  1.00  0.00    -0.248 NA
ATOM     44  C   UNL     1      -2.193  -8.008   6.674  1.00  0.00     0.031 C 
ATOM     45  C   UNL     1      -2.087  -3.761   8.858  1.00  0.00     0.029 A 
ATOM     46  N   UNL     1      -2.504  -5.628   9.947  1.00  0.00    -0.354 N 
ATOM     47  C   UNL     1      -3.967  -9.198   7.460  1.00  0.00     0.074 A 
ATOM     48  C   UNL     1      -2.834  -9.170   6.567  1.00  0.00     0.031 C 
ATOM     49  C   UNL     1      -1.514  -3.646  10.083  1.00  0.00     0.029 A 
ATOM     50  C   UNL     1      -1.741  -4.878  10.824  1.00  0.00     0.049 A 
ATOM     51  H   UNL     1      -2.955  -6.460  10.215  1.00  0.00     0.167 HD
ATOM     52  C   UNL     1      -4.539 -10.237   8.123  1.00  0.00     0.031 A 
ATOM     53  C   UNL     1      -1.271  -5.321  12.019  1.00  0.00     0.031 A 
ATOM     54  C   UNL     1      -5.605  -9.803   8.988  1.00  0.00     0.049 A 
ATOM     55  C   UNL     1      -2.103  -6.501  12.398  1.00  0.00     0.074 A 
ATOM     56  C   UNL     1      -6.827  -9.193   8.779  1.00  0.00     0.029 A 
ATOM     57  N   UNL     1      -5.289  -9.582  10.310  1.00  0.00    -0.354 N 
ATOM     58  N   UNL     1      -3.373  -6.411  12.685  1.00  0.00    -0.248 NA
ATOM     59  C   UNL     1      -1.663  -7.821  11.962  1.00  0.00     0.031 C 
ATOM     60  C   UNL     1      -6.955  -8.249   9.840  1.00  0.00     0.029 A 
ATOM     61  C   UNL     1      -5.842  -8.378  10.675  1.00  0.00     0.049 A 
ATOM     62  H   UNL     1      -4.761 -10.178  10.890  1.00  0.00     0.167 HD
ATOM     63  C   UNL     1      -3.965  -7.510  12.075  1.00  0.00     0.074 A 
ATOM     64  C   UNL     1      -2.851  -8.388  11.715  1.00  0.00     0.031 C 
ATOM     65  C   UNL     1      -5.266  -7.477  11.654  1.00  0.00     0.031 A 
BRANCH  52  66
ATOM     66  C   UNL     1      -3.859 -11.564   8.269  1.00  0.00    -0.014 A 
ATOM     67  C   UNL     1      -4.582 -12.647   8.794  1.00  0.00     0.010 A 
ATOM     68  C   UNL     1      -2.461 -11.716   8.139  1.00  0.00     0.010 A 
ATOM     69  C   UNL     1      -3.926 -13.810   9.213  1.00  0.00     0.020 A 
ATOM     70  C   UNL     1      -1.804 -12.886   8.507  1.00  0.00     0.020 A 
ATOM     71  C   UNL     1      -2.539 -13.914   9.076  1.00  0.00     0.054 A 
BRANCH  71  72
ATOM     72  S   UNL     1      -1.690 -15.368   9.731  1.00  0.00     0.124 S 
ATOM     73  O   UNL     1      -1.956 -15.251  11.162  1.00  0.00    -0.237 OA
ATOM     74  O   UNL     1      -2.374 -16.459   9.044  1.00  0.00    -0.237 OA
ATOM     75  O   UNL     1      -0.299 -15.161   9.333  1.00  0.00    -0.744 OA
ENDBRANCH  71  72
ENDBRANCH  52  66
BRANCH  53  76
ATOM     76  C   UNL     1       0.067  -5.064  12.611  1.00  0.00    -0.014 A 
ATOM     77  C   UNL     1       0.341  -5.394  13.952  1.00  0.00     0.010 A 
ATOM     78  C   UNL     1       1.162  -4.765  11.774  1.00  0.00     0.010 A 
ATOM     79  C   UNL     1       1.665  -5.488  14.419  1.00  0.00     0.020 A 
ATOM     80  C   UNL     1       2.483  -4.854  12.233  1.00  0.00     0.020 A 
ATOM     81  C   UNL     1       2.729  -5.241  13.548  1.00  0.00     0.054 A 
BRANCH  81  82
ATOM     82  S   UNL     1       4.433  -5.548  14.105  1.00  0.00     0.124 S 
ATOM     83  O   UNL     1       4.625  -4.506  15.111  1.00  0.00    -0.237 OA
ATOM     84  O   UNL     1       4.357  -6.913  14.616  1.00  0.00    -0.237 OA
ATOM     85  O   UNL     1       5.228  -5.388  12.889  1.00  0.00    -0.744 OA
ENDBRANCH  81  82
ENDBRANCH  53  76
BRANCH  65  86
ATOM     86  C   UNL     1      -6.115  -6.291  12.064  1.00  0.00    -0.014 A 
ATOM     87  C   UNL     1      -5.832  -4.958  11.698  1.00  0.00     0.010 A 
ATOM     88  C   UNL     1      -7.320  -6.554  12.736  1.00  0.00     0.010 A 
ATOM     89  C   UNL     1      -6.710  -3.916  12.036  1.00  0.00     0.020 A 
ATOM     90  C   UNL     1      -8.207  -5.524  13.060  1.00  0.00     0.020 A 
ATOM     91  C   UNL     1      -7.892  -4.207  12.724  1.00  0.00     0.054 A 
BRANCH  91  92
ATOM     92  S   UNL     1      -9.025  -2.860  13.168  1.00  0.00     0.124 S 
ATOM     93  O   UNL     1      -8.242  -2.088  14.129  1.00  0.00    -0.237 OA
ATOM     94  O   UNL     1      -9.270  -2.206  11.885  1.00  0.00    -0.237 OA
ATOM     95  O   UNL     1     -10.184  -3.552  13.732  1.00  0.00    -0.744 OA
ENDBRANCH  91  92
ENDBRANCH  65  86
ENDBRANCH  39  40
ENDBRANCH  32  34
ENDBRANCH  31  32
ENDBRANCH  30  31
ENDBRANCH  29  30
ENDBRANCH  28  29
ENDBRANCH   1  28
TORSDOF 21
