REMARK SMILES Cc1c(NC(=O)c2cccc(-c3cc4ccccc4oc3=O)c2)cccc1C(=O)OCCOCCOCCOC(=O)c1ccc(-c2c3nc(c(-c4ccc(S(=O)(=O)[O-])cc4)c4ccc([nH]4)c(-c4ccc(S(=O)(=O)[O-])cc4)c4nc(c(-c5ccc(S(=O)(=O)[O-])cc5)c5ccc2[nH]5)C=C4)C=C3)cc1
REMARK SMILES IDX 34 1 33 2 32 3 31 4 30 5 28 6 29 7 27 8 1 9 2 10 3 11 24 12
REMARK SMILES IDX 26 13 25 14 4 15 5 16 6 18 7 19 8 20 23 21 9 22 11 23 10 24
REMARK SMILES IDX 12 25 13 26 21 27 14 28 20 29 22 30 15 31 19 32 16 33 18 34
REMARK SMILES IDX 17 35 35 36 36 37 37 38 38 39 39 40 40 41 41 42 42 43 43 44
REMARK SMILES IDX 101 45 44 46 100 47 45 48 46 49 47 50 94 51 48 52 99 53
REMARK SMILES IDX 93 54 95 55 49 56 98 57 92 58 91 59 50 61 80 62 61 63 79 64
REMARK SMILES IDX 62 65 65 66 78 67 96 68 63 69 64 70 77 72 97 73 66 74 51 75
REMARK SMILES IDX 52 76 60 77 53 78 59 79 54 80 55 81 56 82 57 83 58 84 81 85
REMARK SMILES IDX 82 86 90 87 83 88 89 89 84 90 85 91 86 92 87 93 88 94 67 95
REMARK SMILES IDX 68 96 76 97 69 98 75 99 70 100 71 101 72 102 73 103 74 104
REMARK H PARENT 4 17 95 60 65 71
REMARK Flexibility Score: inf
ROOT
ATOM      1  C   UNL     1       3.200   5.822  -1.924  1.00  0.00     0.188 C 
ENDROOT
BRANCH   1   2
ATOM      2  O   UNL     1       4.062   5.112  -1.004  1.00  0.00    -0.376 OA
BRANCH   2   3
ATOM      3  C   UNL     1       4.702   3.842  -1.261  1.00  0.00     0.202 C 
BRANCH   3   4
ATOM      4  C   UNL     1       4.449   2.353  -0.443  1.00  0.00     0.261 C 
BRANCH   4   5
ATOM      5  O   UNL     1       3.201   1.071  -0.520  1.00  0.00    -0.460 OA
BRANCH   5   6
ATOM      6  C   UNL     1       1.835   0.806  -0.067  1.00  0.00     0.338 C 
ATOM      7  O   UNL     1       0.953   1.649   0.093  1.00  0.00    -0.246 OA
BRANCH   6   8
ATOM      8  C   UNL     1       1.182  -0.447   0.466  1.00  0.00     0.065 A 
ATOM      9  C   UNL     1       2.839  -2.061  -0.442  1.00  0.00     0.047 C 
ATOM     10  C   UNL     1       1.486  -1.746   0.107  1.00  0.00    -0.013 A 
ATOM     11  C   UNL     1       0.491  -2.744   0.329  1.00  0.00     0.045 A 
ATOM     12  C   UNL     1      -0.724  -2.470   0.984  1.00  0.00     0.026 A 
ATOM     13  C   UNL     1      -0.019  -0.228   1.243  1.00  0.00     0.016 A 
ATOM     14  C   UNL     1      -0.966  -1.212   1.485  1.00  0.00     0.003 A 
BRANCH  11  15
ATOM     15  N   UNL     1       0.771  -4.060  -0.053  1.00  0.00    -0.322 N 
ATOM     16  C   UNL     1      -0.055  -5.120  -0.334  1.00  0.00     0.255 C 
ATOM     17  H   UNL     1       1.731  -4.263  -0.135  1.00  0.00     0.170 HD
ATOM     18  O   UNL     1       0.399  -6.257  -0.184  1.00  0.00    -0.269 OA
BRANCH  16  19
ATOM     19  C   UNL     1      -1.406  -4.980  -0.967  1.00  0.00     0.040 A 
ATOM     20  C   UNL     1      -2.277  -6.069  -0.830  1.00  0.00     0.014 A 
ATOM     21  C   UNL     1      -1.743  -3.955  -1.867  1.00  0.00     0.022 A 
ATOM     22  C   UNL     1      -3.448  -6.149  -1.583  1.00  0.00     0.001 A 
ATOM     23  C   UNL     1      -2.913  -4.042  -2.661  1.00  0.00    -0.010 A 
ATOM     24  C   UNL     1      -3.757  -5.147  -2.499  1.00  0.00     0.009 A 
BRANCH  23  25
ATOM     25  C   UNL     1      -3.252  -3.136  -3.795  1.00  0.00     0.068 A 
ATOM     26  C   UNL     1      -3.470  -1.811  -3.660  1.00  0.00     0.028 A 
ATOM     27  C   UNL     1      -2.498  -3.389  -5.067  1.00  0.00     0.344 A 
ATOM     28  C   UNL     1      -2.179  -1.123  -3.501  1.00  0.00     0.018 A 
ATOM     29  O   UNL     1      -1.300  -2.675  -5.160  1.00  0.00    -0.422 OA
ATOM     30  O   UNL     1      -2.861  -4.211  -5.899  1.00  0.00    -0.246 OA
ATOM     31  C   UNL     1      -2.000  -0.109  -2.581  1.00  0.00     0.012 A 
ATOM     32  C   UNL     1      -1.088  -1.641  -4.222  1.00  0.00     0.138 A 
ATOM     33  C   UNL     1      -0.703   0.306  -2.323  1.00  0.00     0.001 A 
ATOM     34  C   UNL     1       0.207  -1.239  -3.960  1.00  0.00     0.048 A 
ATOM     35  C   UNL     1       0.393  -0.283  -2.972  1.00  0.00     0.004 A 
ENDBRANCH  23  25
ENDBRANCH  16  19
ENDBRANCH  11  15
ENDBRANCH   6   8
ENDBRANCH   5   6
ENDBRANCH   4   5
ENDBRANCH   3   4
ENDBRANCH   2   3
ENDBRANCH   1   2
BRANCH   1  36
ATOM     36  C   UNL     1       3.368   5.859  -3.450  1.00  0.00     0.188 C 
BRANCH  36  37
ATOM     37  O   UNL     1       3.899   4.652  -3.952  1.00  0.00    -0.376 OA
BRANCH  37  38
ATOM     38  C   UNL     1       4.097   4.588  -5.353  1.00  0.00     0.202 C 
BRANCH  38  39
ATOM     39  C   UNL     1       2.813   4.436  -6.186  1.00  0.00     0.261 C 
BRANCH  39  40
ATOM     40  O   UNL     1       2.226   3.117  -6.125  1.00  0.00    -0.460 OA
BRANCH  40  41
ATOM     41  C   UNL     1       0.970   2.994  -5.552  1.00  0.00     0.338 C 
ATOM     42  O   UNL     1       0.012   2.619  -6.167  1.00  0.00    -0.246 OA
BRANCH  41  43
ATOM     43  C   UNL     1       1.073   3.058  -4.064  1.00  0.00     0.060 A 
ATOM     44  C   UNL     1       0.191   3.606  -3.135  1.00  0.00     0.016 A 
ATOM     45  C   UNL     1       2.178   2.472  -3.555  1.00  0.00     0.016 A 
ATOM     46  C   UNL     1       0.523   3.742  -1.723  1.00  0.00     0.010 A 
ATOM     47  C   UNL     1       2.479   2.662  -2.212  1.00  0.00     0.010 A 
ATOM     48  C   UNL     1       1.755   3.338  -1.170  1.00  0.00    -0.014 A 
BRANCH  48  49
ATOM     49  C   UNL     1       2.219   3.595   0.514  1.00  0.00     0.031 A 
ATOM     50  C   UNL     1       2.789   2.535   1.829  1.00  0.00     0.074 A 
ATOM     51  C   UNL     1       1.927   4.824   1.003  1.00  0.00     0.049 A 
ATOM     52  N   UNL     1       2.600   2.740   3.127  1.00  0.00    -0.248 NA
ATOM     53  C   UNL     1       3.522   1.180   1.802  1.00  0.00     0.031 C 
ATOM     54  C   UNL     1       2.416   5.435   2.233  1.00  0.00     0.029 A 
ATOM     55  N   UNL     1       0.970   5.731   0.535  1.00  0.00    -0.354 N 
ATOM     56  C   UNL     1       3.292   1.723   3.828  1.00  0.00     0.074 A 
ATOM     57  C   UNL     1       3.376   0.617   2.982  1.00  0.00     0.031 C 
ATOM     58  C   UNL     1       1.593   6.442   2.567  1.00  0.00     0.029 A 
ATOM     59  C   UNL     1       0.457   6.374   1.664  1.00  0.00     0.049 A 
ATOM     60  H   UNL     1       0.710   5.885  -0.402  1.00  0.00     0.167 HD
ATOM     61  C   UNL     1       4.089   1.916   4.920  1.00  0.00     0.031 A 
ATOM     62  C   UNL     1      -0.850   6.235   2.026  1.00  0.00     0.031 A 
ATOM     63  C   UNL     1       3.591   3.053   5.627  1.00  0.00     0.049 A 
ATOM     64  C   UNL     1      -1.007   5.766   3.454  1.00  0.00     0.074 A 
ATOM     65  C   UNL     1       3.942   4.383   5.681  1.00  0.00     0.029 A 
ATOM     66  N   UNL     1       2.280   2.952   6.056  1.00  0.00    -0.354 N 
ATOM     67  N   UNL     1      -0.049   5.213   4.151  1.00  0.00    -0.248 NA
ATOM     68  C   UNL     1      -2.236   5.913   4.226  1.00  0.00     0.031 C 
ATOM     69  C   UNL     1       2.732   5.105   5.922  1.00  0.00     0.029 A 
ATOM     70  C   UNL     1       1.697   4.197   6.094  1.00  0.00     0.049 A 
ATOM     71  H   UNL     1       1.830   2.111   6.299  1.00  0.00     0.167 HD
ATOM     72  C   UNL     1      -0.501   4.909   5.403  1.00  0.00     0.074 A 
ATOM     73  C   UNL     1      -1.871   5.388   5.410  1.00  0.00     0.031 C 
ATOM     74  C   UNL     1       0.262   4.263   6.332  1.00  0.00     0.031 A 
BRANCH  61  75
ATOM     75  C   UNL     1       5.373   1.112   5.246  1.00  0.00    -0.014 A 
ATOM     76  C   UNL     1       6.115   1.393   6.410  1.00  0.00     0.010 A 
ATOM     77  C   UNL     1       5.982   0.153   4.389  1.00  0.00     0.010 A 
ATOM     78  C   UNL     1       7.354   0.760   6.696  1.00  0.00     0.020 A 
ATOM     79  C   UNL     1       7.185  -0.520   4.679  1.00  0.00     0.020 A 
ATOM     80  C   UNL     1       7.880  -0.198   5.829  1.00  0.00     0.054 A 
BRANCH  80  81
ATOM     81  S   UNL     1       9.484  -0.985   6.170  1.00  0.00     0.124 S 
ATOM     82  O   UNL     1      10.414   0.135   6.042  1.00  0.00    -0.237 OA
ATOM     83  O   UNL     1       9.306  -1.509   7.520  1.00  0.00    -0.237 OA
ATOM     84  O   UNL     1       9.603  -2.002   5.125  1.00  0.00    -0.744 OA
ENDBRANCH  80  81
ENDBRANCH  61  75
BRANCH  62  85
ATOM     85  C   UNL     1      -1.801   6.051   0.880  1.00  0.00    -0.014 A 
ATOM     86  C   UNL     1      -1.873   7.102  -0.069  1.00  0.00     0.010 A 
ATOM     87  C   UNL     1      -2.342   4.805   0.513  1.00  0.00     0.010 A 
ATOM     88  C   UNL     1      -2.353   6.891  -1.367  1.00  0.00     0.020 A 
ATOM     89  C   UNL     1      -2.851   4.593  -0.791  1.00  0.00     0.020 A 
ATOM     90  C   UNL     1      -2.818   5.630  -1.732  1.00  0.00     0.054 A 
BRANCH  90  91
ATOM     91  S   UNL     1      -3.179   5.348  -3.499  1.00  0.00     0.124 S 
ATOM     92  O   UNL     1      -4.381   6.149  -3.708  1.00  0.00    -0.237 OA
ATOM     93  O   UNL     1      -1.972   5.864  -4.147  1.00  0.00    -0.237 OA
ATOM     94  O   UNL     1      -3.360   3.902  -3.582  1.00  0.00    -0.744 OA
ENDBRANCH  90  91
ENDBRANCH  62  85
BRANCH  74  95
ATOM     95  C   UNL     1      -0.296   3.566   7.551  1.00  0.00    -0.014 A 
ATOM     96  C   UNL     1      -1.622   3.115   7.638  1.00  0.00     0.010 A 
ATOM     97  C   UNL     1       0.585   3.180   8.590  1.00  0.00     0.010 A 
ATOM     98  C   UNL     1      -2.075   2.400   8.751  1.00  0.00     0.020 A 
ATOM     99  C   UNL     1       0.161   2.404   9.670  1.00  0.00     0.020 A 
ATOM    100  C   UNL     1      -1.181   2.057   9.764  1.00  0.00     0.054 A 
BRANCH 100 101
ATOM    101  S   UNL     1      -1.759   1.125  11.201  1.00  0.00     0.124 S 
ATOM    102  O   UNL     1      -2.025   2.196  12.159  1.00  0.00    -0.237 OA
ATOM    103  O   UNL     1      -2.942   0.430  10.697  1.00  0.00    -0.237 OA
ATOM    104  O   UNL     1      -0.625   0.262  11.519  1.00  0.00    -0.744 OA
ENDBRANCH 100 101
ENDBRANCH  74  95
ENDBRANCH  48  49
ENDBRANCH  41  43
ENDBRANCH  40  41
ENDBRANCH  39  40
ENDBRANCH  38  39
ENDBRANCH  37  38
ENDBRANCH  36  37
ENDBRANCH   1  36
TORSDOF 23
