REMARK SMILES CN(C)Nc1ncnc(Nc2ccc(C(=O)OCCOCCOCCOC(=O)c3ccc(-c4c5nc(c(-c6ccc(S(=O)(=O)[O-])cc6)c6ccc([nH]6)c(-c6ccc(S(=O)(=O)[O-])cc6)c6nc(c(-c7ccc(S(=O)(=O)[O-])cc7)c7ccc4[nH]7)C=C6)C=C5)cc3)cc2)c1[N+](=O)[O-]
REMARK SMILES IDX 21 1 20 2 19 3 18 4 17 5 15 6 16 7 14 8 11 9 12 10 90 11
REMARK SMILES IDX 13 12 89 13 10 14 9 16 5 17 6 18 91 19 7 20 8 21 4 22 2 24
REMARK SMILES IDX 1 25 3 26 92 27 93 28 94 29 22 30 23 31 24 32 25 33 26 34
REMARK SMILES IDX 27 35 28 36 29 37 30 38 88 39 31 40 87 41 32 42 33 43 34 44
REMARK SMILES IDX 81 45 35 46 86 47 80 48 82 49 36 50 85 51 79 52 78 53 37 55
REMARK SMILES IDX 67 56 48 57 66 58 49 59 52 60 65 61 83 62 50 63 51 64 64 66
REMARK SMILES IDX 84 67 53 68 38 69 39 70 47 71 40 72 46 73 41 74 42 75 43 76
REMARK SMILES IDX 44 77 45 78 68 79 69 80 77 81 70 82 76 83 71 84 72 85 73 86
REMARK SMILES IDX 74 87 75 88 54 89 55 90 63 91 56 92 62 93 57 94 58 95 59 96
REMARK SMILES IDX 60 97 61 98
REMARK H PARENT 10 15 4 23 82 54 52 65
REMARK Flexibility Score: inf
ROOT
ATOM      1  C   UNL     1       9.457   6.599   2.943  1.00  0.00     0.188 C 
ENDROOT
BRANCH   1   2
ATOM      2  O   UNL     1      10.013   7.875   3.163  1.00  0.00    -0.376 OA
BRANCH   2   3
ATOM      3  C   UNL     1       9.501   9.021   2.505  1.00  0.00     0.202 C 
BRANCH   3   4
ATOM      4  C   UNL     1       8.358   9.053   1.472  1.00  0.00     0.261 C 
BRANCH   4   5
ATOM      5  O   UNL     1       7.525   7.899   1.361  1.00  0.00    -0.460 OA
BRANCH   5   6
ATOM      6  C   UNL     1       7.717   7.160   0.239  1.00  0.00     0.338 C 
ATOM      7  O   UNL     1       8.491   7.397  -0.669  1.00  0.00    -0.246 OA
BRANCH   6   8
ATOM      8  C   UNL     1       6.968   5.893   0.352  1.00  0.00     0.060 A 
ATOM      9  C   UNL     1       5.591   3.456   0.358  1.00  0.00     0.040 A 
ATOM     10  C   UNL     1       6.961   3.487   0.078  1.00  0.00     0.027 A 
ATOM     11  C   UNL     1       4.943   4.649   0.720  1.00  0.00     0.027 A 
ATOM     12  C   UNL     1       7.643   4.703   0.055  1.00  0.00     0.018 A 
ATOM     13  C   UNL     1       5.627   5.867   0.733  1.00  0.00     0.018 A 
BRANCH   9  14
ATOM     14  N   UNL     1       4.861   2.287   0.058  1.00  0.00    -0.334 N 
ATOM     15  H   UNL     1       5.114   1.457   0.524  1.00  0.00     0.168 HD
BRANCH  14  16
ATOM     16  C   UNL     1       3.793   2.224  -0.861  1.00  0.00     0.215 A 
ATOM     17  C   UNL     1       1.910   1.191  -1.868  1.00  0.00     0.225 A 
ATOM     18  N   UNL     1       1.610   2.335  -2.522  1.00  0.00    -0.212 NA
ATOM     19  C   UNL     1       3.053   1.079  -1.099  1.00  0.00     0.354 A 
ATOM     20  C   UNL     1       2.413   3.375  -2.309  1.00  0.00     0.227 A 
ATOM     21  N   UNL     1       3.450   3.381  -1.475  1.00  0.00    -0.212 NA
BRANCH  17  22
ATOM     22  N   UNL     1       0.880   0.253  -1.978  1.00  0.00    -0.298 N 
ATOM     23  H   UNL     1       0.475   0.142  -2.868  1.00  0.00     0.184 HD
BRANCH  22  24
ATOM     24  N   UNL     1       0.360  -0.556  -0.931  1.00  0.00    -0.228 NA
ATOM     25  C   UNL     1       0.340   0.124   0.375  1.00  0.00     0.130 C 
ATOM     26  C   UNL     1      -1.039  -0.863  -1.292  1.00  0.00     0.130 C 
ENDBRANCH  22  24
ENDBRANCH  17  22
BRANCH  19  27
ATOM     27  N   UNL     1       3.545  -0.211  -0.702  1.00  0.00     0.070 N 
ATOM     28  O   UNL     1       3.963  -0.330   0.460  1.00  0.00    -0.258 OA
ATOM     29  O   UNL     1       3.620  -1.090  -1.571  1.00  0.00    -0.258 OA
ENDBRANCH  19  27
ENDBRANCH  14  16
ENDBRANCH   9  14
ENDBRANCH   6   8
ENDBRANCH   5   6
ENDBRANCH   4   5
ENDBRANCH   3   4
ENDBRANCH   2   3
ENDBRANCH   1   2
BRANCH   1  30
ATOM     30  C   UNL     1       8.163   6.263   3.711  1.00  0.00     0.188 C 
BRANCH  30  31
ATOM     31  O   UNL     1       7.492   7.269   4.443  1.00  0.00    -0.376 OA
BRANCH  31  32
ATOM     32  C   UNL     1       8.165   7.951   5.488  1.00  0.00     0.202 C 
BRANCH  32  33
ATOM     33  C   UNL     1       9.233   7.311   6.398  1.00  0.00     0.261 C 
BRANCH  33  34
ATOM     34  O   UNL     1      10.066   6.295   5.831  1.00  0.00    -0.460 OA
BRANCH  34  35
ATOM     35  C   UNL     1       9.820   5.032   6.256  1.00  0.00     0.338 C 
ATOM     36  O   UNL     1       8.961   4.673   7.051  1.00  0.00    -0.246 OA
BRANCH  35  37
ATOM     37  C   UNL     1      10.648   4.094   5.479  1.00  0.00     0.060 A 
ATOM     38  C   UNL     1      10.020   3.228   4.573  1.00  0.00     0.016 A 
ATOM     39  C   UNL     1      12.030   4.046   5.664  1.00  0.00     0.016 A 
ATOM     40  C   UNL     1      10.775   2.307   3.848  1.00  0.00     0.010 A 
ATOM     41  C   UNL     1      12.782   3.105   4.954  1.00  0.00     0.010 A 
ATOM     42  C   UNL     1      12.157   2.219   4.057  1.00  0.00    -0.014 A 
BRANCH  42  43
ATOM     43  C   UNL     1      12.934   1.119   3.436  1.00  0.00     0.031 A 
ATOM     44  C   UNL     1      13.278  -0.088   4.263  1.00  0.00     0.074 A 
ATOM     45  C   UNL     1      13.331   1.194   2.153  1.00  0.00     0.049 A 
ATOM     46  N   UNL     1      14.000  -1.131   3.946  1.00  0.00    -0.248 NA
ATOM     47  C   UNL     1      12.735  -0.120   5.630  1.00  0.00     0.031 C 
ATOM     48  C   UNL     1      13.027   2.291   1.236  1.00  0.00     0.029 A 
ATOM     49  N   UNL     1      14.091   0.329   1.405  1.00  0.00    -0.354 N 
ATOM     50  C   UNL     1      14.006  -1.942   5.075  1.00  0.00     0.074 A 
ATOM     51  C   UNL     1      13.242  -1.253   6.093  1.00  0.00     0.031 C 
ATOM     52  C   UNL     1      13.613   2.042   0.052  1.00  0.00     0.029 A 
ATOM     53  C   UNL     1      14.364   0.790   0.140  1.00  0.00     0.049 A 
ATOM     54  H   UNL     1      14.410  -0.539   1.743  1.00  0.00     0.167 HD
ATOM     55  C   UNL     1      14.591  -3.152   5.248  1.00  0.00     0.031 A 
ATOM     56  C   UNL     1      15.155   0.280  -0.826  1.00  0.00     0.031 A 
ATOM     57  C   UNL     1      15.379  -3.817   4.243  1.00  0.00     0.049 A 
ATOM     58  C   UNL     1      15.873  -1.022  -0.583  1.00  0.00     0.074 A 
ATOM     59  C   UNL     1      16.007  -5.048   4.317  1.00  0.00     0.029 A 
ATOM     60  N   UNL     1      15.661  -3.301   2.986  1.00  0.00    -0.354 N 
ATOM     61  N   UNL     1      15.846  -1.794   0.478  1.00  0.00    -0.248 NA
ATOM     62  C   UNL     1      16.724  -1.524  -1.670  1.00  0.00     0.031 C 
ATOM     63  C   UNL     1      16.724  -5.246   3.132  1.00  0.00     0.029 A 
ATOM     64  C   UNL     1      16.484  -4.172   2.290  1.00  0.00     0.049 A 
ATOM     65  H   UNL     1      15.326  -2.443   2.640  1.00  0.00     0.167 HD
ATOM     66  C   UNL     1      16.661  -2.881   0.179  1.00  0.00     0.074 A 
ATOM     67  C   UNL     1      17.149  -2.677  -1.170  1.00  0.00     0.031 C 
ATOM     68  C   UNL     1      16.977  -3.952   0.951  1.00  0.00     0.031 A 
BRANCH  55  69
ATOM     69  C   UNL     1      14.432  -3.809   6.595  1.00  0.00    -0.014 A 
ATOM     70  C   UNL     1      13.185  -4.294   7.030  1.00  0.00     0.010 A 
ATOM     71  C   UNL     1      15.551  -3.953   7.436  1.00  0.00     0.010 A 
ATOM     72  C   UNL     1      13.049  -4.861   8.300  1.00  0.00     0.020 A 
ATOM     73  C   UNL     1      15.425  -4.548   8.695  1.00  0.00     0.020 A 
ATOM     74  C   UNL     1      14.170  -4.978   9.127  1.00  0.00     0.054 A 
BRANCH  74  75
ATOM     75  S   UNL     1      13.963  -5.713  10.773  1.00  0.00     0.124 S 
ATOM     76  O   UNL     1      13.230  -4.665  11.480  1.00  0.00    -0.237 OA
ATOM     77  O   UNL     1      13.202  -6.927  10.488  1.00  0.00    -0.237 OA
ATOM     78  O   UNL     1      15.332  -5.931  11.231  1.00  0.00    -0.744 OA
ENDBRANCH  74  75
ENDBRANCH  55  69
BRANCH  56  79
ATOM     79  C   UNL     1      15.332   1.027  -2.102  1.00  0.00    -0.014 A 
ATOM     80  C   UNL     1      14.799   0.537  -3.305  1.00  0.00     0.010 A 
ATOM     81  C   UNL     1      16.023   2.254  -2.111  1.00  0.00     0.010 A 
ATOM     82  C   UNL     1      14.953   1.257  -4.494  1.00  0.00     0.020 A 
ATOM     83  C   UNL     1      16.154   2.992  -3.291  1.00  0.00     0.020 A 
ATOM     84  C   UNL     1      15.622   2.485  -4.477  1.00  0.00     0.054 A 
BRANCH  84  85
ATOM     85  S   UNL     1      15.742   3.437  -6.017  1.00  0.00     0.124 S 
ATOM     86  O   UNL     1      16.695   2.648  -6.790  1.00  0.00    -0.237 OA
ATOM     87  O   UNL     1      14.364   3.421  -6.503  1.00  0.00    -0.237 OA
ATOM     88  O   UNL     1      16.223   4.744  -5.576  1.00  0.00    -0.744 OA
ENDBRANCH  84  85
ENDBRANCH  56  79
BRANCH  68  89
ATOM     89  C   UNL     1      17.882  -5.001   0.354  1.00  0.00    -0.014 A 
ATOM     90  C   UNL     1      19.248  -4.748   0.137  1.00  0.00     0.010 A 
ATOM     91  C   UNL     1      17.370  -6.279   0.062  1.00  0.00     0.010 A 
ATOM     92  C   UNL     1      20.078  -5.743  -0.389  1.00  0.00     0.020 A 
ATOM     93  C   UNL     1      18.202  -7.286  -0.434  1.00  0.00     0.020 A 
ATOM     94  C   UNL     1      19.550  -7.008  -0.669  1.00  0.00     0.054 A 
BRANCH  94  95
ATOM     95  S   UNL     1      20.658  -8.294  -1.306  1.00  0.00     0.124 S 
ATOM     96  O   UNL     1      20.917  -7.828  -2.666  1.00  0.00    -0.237 OA
ATOM     97  O   UNL     1      21.794  -8.221  -0.390  1.00  0.00    -0.237 OA
ATOM     98  O   UNL     1      19.864  -9.517  -1.209  1.00  0.00    -0.744 OA
ENDBRANCH  94  95
ENDBRANCH  68  89
ENDBRANCH  42  43
ENDBRANCH  35  37
ENDBRANCH  34  35
ENDBRANCH  33  34
ENDBRANCH  32  33
ENDBRANCH  31  32
ENDBRANCH  30  31
ENDBRANCH   1  30
TORSDOF 25
