REMARK SMILES NS(=O)(=O)c1ccc(-n2nc(C(F)(F)F)cc2-c2ccc(CC(=O)OCCOCCOCCOC(=O)c3ccc(-c4c5nc(c(-c6ccc(S(=O)(=O)[O-])cc6)c6ccc([nH]6)c(-c6ccc(S(=O)(=O)[O-])cc6)c6nc(c(-c7ccc(S(=O)(=O)[O-])cc7)c7ccc4[nH]7)C=C6)C=C5)cc3)cc2)cc1
REMARK SMILES IDX 29 1 28 2 27 3 26 4 25 5 23 6 24 7 22 8 21 9 18 10 19 11
REMARK SMILES IDX 98 12 20 13 97 14 17 15 9 16 10 17 11 18 16 19 8 20 5 21
REMARK SMILES IDX 6 22 100 23 7 24 99 25 2 26 3 27 4 28 1 29 12 32 13 33 14 34
REMARK SMILES IDX 15 35 30 36 31 37 32 38 33 39 34 40 35 41 36 42 37 43 38 44
REMARK SMILES IDX 96 45 39 46 95 47 40 48 41 49 42 50 89 51 43 52 94 53 88 54
REMARK SMILES IDX 90 55 44 56 93 57 87 58 86 59 45 61 75 62 56 63 74 64 57 65
REMARK SMILES IDX 60 66 73 67 91 68 58 69 59 70 72 72 92 73 61 74 46 75 47 76
REMARK SMILES IDX 55 77 48 78 54 79 49 80 50 81 51 82 52 83 53 84 76 85 77 86
REMARK SMILES IDX 85 87 78 88 84 89 79 90 80 91 81 92 82 93 83 94 62 95 63 96
REMARK SMILES IDX 71 97 64 98 70 99 65 100 66 101 67 102 68 103 69 104
REMARK H PARENT 1 30 1 31 90 60 60 71
REMARK Flexibility Score: inf
ROOT
ATOM      1  C   UNL     1       6.992   1.933  -0.251  1.00  0.00     0.188 C 
ENDROOT
BRANCH   1   2
ATOM      2  O   UNL     1       7.814   0.876   0.240  1.00  0.00    -0.376 OA
BRANCH   2   3
ATOM      3  C   UNL     1       7.219  -0.069   1.109  1.00  0.00     0.202 C 
BRANCH   3   4
ATOM      4  C   UNL     1       7.505   0.230   2.586  1.00  0.00     0.261 C 
BRANCH   4   5
ATOM      5  O   UNL     1       7.295   1.608   2.976  1.00  0.00    -0.463 OA
BRANCH   5   6
ATOM      6  C   UNL     1       8.400   2.394   3.048  1.00  0.00     0.310 C 
ATOM      7  O   UNL     1       9.547   1.961   2.943  1.00  0.00    -0.252 OA
BRANCH   6   8
ATOM      8  C   UNL     1       8.162   3.864   3.361  1.00  0.00     0.158 C 
BRANCH   8   9
ATOM      9  C   UNL     1       6.807   4.531   3.183  1.00  0.00    -0.037 A 
ATOM     10  C   UNL     1       4.329   5.910   2.899  1.00  0.00     0.000 A 
ATOM     11  C   UNL     1       5.304   5.980   1.899  1.00  0.00     0.010 A 
ATOM     12  C   UNL     1       4.608   5.157   4.045  1.00  0.00     0.010 A 
ATOM     13  C   UNL     1       6.535   5.318   2.048  1.00  0.00     0.005 A 
ATOM     14  C   UNL     1       5.822   4.457   4.176  1.00  0.00     0.005 A 
BRANCH  10  15
ATOM     15  C   UNL     1       3.108   6.717   2.796  1.00  0.00     0.075 A 
ATOM     16  N   UNL     1       2.021   6.492   1.952  1.00  0.00    -0.233 N 
ATOM     17  N   UNL     1       1.206   7.582   1.890  1.00  0.00    -0.163 NA
ATOM     18  C   UNL     1       1.648   8.422   2.838  1.00  0.00     0.167 A 
ATOM     19  C   UNL     1       2.856   7.940   3.397  1.00  0.00     0.064 A 
BRANCH  16  20
ATOM     20  C   UNL     1       1.567   5.302   1.322  1.00  0.00     0.065 A 
ATOM     21  C   UNL     1       0.404   3.030   0.183  1.00  0.00     0.082 A 
ATOM     22  C   UNL     1       1.144   2.918   1.367  1.00  0.00     0.024 A 
ATOM     23  C   UNL     1       0.263   4.268  -0.449  1.00  0.00     0.024 A 
ATOM     24  C   UNL     1       1.749   4.052   1.924  1.00  0.00     0.030 A 
ATOM     25  C   UNL     1       0.815   5.407   0.140  1.00  0.00     0.030 A 
BRANCH  21  26
ATOM     26  S   UNL     1      -0.281   1.609  -0.617  1.00  0.00     0.238 S 
ATOM     27  O   UNL     1       0.110   1.619  -2.005  1.00  0.00    -0.207 OA
ATOM     28  O   UNL     1      -1.645   1.434  -0.174  1.00  0.00    -0.207 OA
BRANCH  26  29
ATOM     29  N   UNL     1       0.562   0.294   0.027  1.00  0.00    -0.225 NA
ATOM     30  H   UNL     1       0.216  -0.569  -0.393  1.00  0.00     0.137 HD
ATOM     31  H   UNL     1       0.421   0.261   1.036  1.00  0.00     0.137 HD
ENDBRANCH  26  29
ENDBRANCH  21  26
ENDBRANCH  16  20
BRANCH  18  32
ATOM     32  C   UNL     1       0.911   9.680   3.212  1.00  0.00     0.435 C 
ATOM     33  F   UNL     1       0.489  10.404   2.145  1.00  0.00    -0.164 F 
ATOM     34  F   UNL     1      -0.188   9.413   3.972  1.00  0.00    -0.164 F 
ATOM     35  F   UNL     1       1.687  10.513   3.963  1.00  0.00    -0.164 F 
ENDBRANCH  18  32
ENDBRANCH  10  15
ENDBRANCH   8   9
ENDBRANCH   6   8
ENDBRANCH   5   6
ENDBRANCH   4   5
ENDBRANCH   3   4
ENDBRANCH   2   3
ENDBRANCH   1   2
BRANCH   1  36
ATOM     36  C   UNL     1       5.812   2.443   0.593  1.00  0.00     0.188 C 
BRANCH  36  37
ATOM     37  O   UNL     1       4.734   1.597   0.964  1.00  0.00    -0.376 OA
BRANCH  37  38
ATOM     38  C   UNL     1       4.019   0.877  -0.026  1.00  0.00     0.202 C 
BRANCH  38  39
ATOM     39  C   UNL     1       3.385   1.667  -1.147  1.00  0.00     0.261 C 
BRANCH  39  40
ATOM     40  O   UNL     1       4.376   2.311  -1.917  1.00  0.00    -0.460 OA
BRANCH  40  41
ATOM     41  C   UNL     1       4.375   3.659  -1.844  1.00  0.00     0.338 C 
ATOM     42  O   UNL     1       3.792   4.372  -1.048  1.00  0.00    -0.246 OA
BRANCH  41  43
ATOM     43  C   UNL     1       5.123   4.150  -2.995  1.00  0.00     0.060 A 
ATOM     44  C   UNL     1       5.124   5.534  -3.171  1.00  0.00     0.016 A 
ATOM     45  C   UNL     1       5.421   3.244  -4.024  1.00  0.00     0.016 A 
ATOM     46  C   UNL     1       5.152   6.008  -4.458  1.00  0.00     0.010 A 
ATOM     47  C   UNL     1       5.393   3.712  -5.304  1.00  0.00     0.010 A 
ATOM     48  C   UNL     1       5.172   5.074  -5.495  1.00  0.00    -0.014 A 
BRANCH  48  49
ATOM     49  C   UNL     1       4.899   5.533  -6.830  1.00  0.00     0.031 A 
ATOM     50  C   UNL     1       6.090   5.973  -7.570  1.00  0.00     0.074 A 
ATOM     51  C   UNL     1       3.679   5.389  -7.371  1.00  0.00     0.049 A 
ATOM     52  N   UNL     1       6.353   7.162  -7.991  1.00  0.00    -0.248 NA
ATOM     53  C   UNL     1       7.188   5.007  -7.729  1.00  0.00     0.031 C 
ATOM     54  C   UNL     1       2.533   4.660  -6.818  1.00  0.00     0.029 A 
ATOM     55  N   UNL     1       3.263   5.740  -8.613  1.00  0.00    -0.354 N 
ATOM     56  C   UNL     1       7.571   7.053  -8.642  1.00  0.00     0.074 A 
ATOM     57  C   UNL     1       8.126   5.774  -8.277  1.00  0.00     0.031 C 
ATOM     58  C   UNL     1       1.652   4.420  -7.814  1.00  0.00     0.029 A 
ATOM     59  C   UNL     1       2.129   5.061  -9.030  1.00  0.00     0.049 A 
ATOM     60  H   UNL     1       3.722   6.413  -9.166  1.00  0.00     0.167 HD
ATOM     61  C   UNL     1       7.931   7.900  -9.639  1.00  0.00     0.031 A 
ATOM     62  C   UNL     1       1.694   4.947 -10.309  1.00  0.00     0.031 A 
ATOM     63  C   UNL     1       7.080   9.056  -9.710  1.00  0.00     0.049 A 
ATOM     64  C   UNL     1       2.352   6.018 -11.104  1.00  0.00     0.074 A 
ATOM     65  C   UNL     1       6.766  10.077  -8.836  1.00  0.00     0.029 A 
ATOM     66  N   UNL     1       6.097   9.055 -10.675  1.00  0.00    -0.354 N 
ATOM     67  N   UNL     1       2.099   7.288 -10.950  1.00  0.00    -0.248 NA
ATOM     68  C   UNL     1       3.609   5.724 -11.781  1.00  0.00     0.031 C 
ATOM     69  C   UNL     1       5.392  10.365  -9.073  1.00  0.00     0.029 A 
ATOM     70  C   UNL     1       4.944   9.530 -10.099  1.00  0.00     0.049 A 
ATOM     71  H   UNL     1       6.202   8.765 -11.610  1.00  0.00     0.167 HD
ATOM     72  C   UNL     1       3.324   7.925 -11.108  1.00  0.00     0.074 A 
ATOM     73  C   UNL     1       4.182   6.932 -11.747  1.00  0.00     0.031 C 
ATOM     74  C   UNL     1       3.607   9.087 -10.446  1.00  0.00     0.031 A 
BRANCH  61  75
ATOM     75  C   UNL     1       8.823   7.475 -10.767  1.00  0.00    -0.014 A 
ATOM     76  C   UNL     1       9.365   8.451 -11.619  1.00  0.00     0.010 A 
ATOM     77  C   UNL     1       8.945   6.124 -11.162  1.00  0.00     0.010 A 
ATOM     78  C   UNL     1       9.967   8.089 -12.830  1.00  0.00     0.020 A 
ATOM     79  C   UNL     1       9.589   5.750 -12.337  1.00  0.00     0.020 A 
ATOM     80  C   UNL     1      10.062   6.741 -13.184  1.00  0.00     0.054 A 
BRANCH  80  81
ATOM     81  S   UNL     1      10.734   6.288 -14.800  1.00  0.00     0.124 S 
ATOM     82  O   UNL     1       9.672   6.733 -15.697  1.00  0.00    -0.237 OA
ATOM     83  O   UNL     1      11.974   7.058 -14.850  1.00  0.00    -0.237 OA
ATOM     84  O   UNL     1      10.909   4.841 -14.703  1.00  0.00    -0.744 OA
ENDBRANCH  80  81
ENDBRANCH  61  75
BRANCH  62  85
ATOM     85  C   UNL     1       0.972   3.799 -10.911  1.00  0.00    -0.014 A 
ATOM     86  C   UNL     1       0.388   3.900 -12.185  1.00  0.00     0.010 A 
ATOM     87  C   UNL     1       1.051   2.515 -10.330  1.00  0.00     0.010 A 
ATOM     88  C   UNL     1      -0.054   2.755 -12.869  1.00  0.00     0.020 A 
ATOM     89  C   UNL     1       0.595   1.373 -10.994  1.00  0.00     0.020 A 
ATOM     90  C   UNL     1       0.067   1.496 -12.274  1.00  0.00     0.054 A 
BRANCH  90  91
ATOM     91  S   UNL     1      -0.347   0.007 -13.226  1.00  0.00     0.124 S 
ATOM     92  O   UNL     1      -1.802   0.079 -13.301  1.00  0.00    -0.237 OA
ATOM     93  O   UNL     1       0.365   0.228 -14.483  1.00  0.00    -0.237 OA
ATOM     94  O   UNL     1       0.180  -1.084 -12.407  1.00  0.00    -0.744 OA
ENDBRANCH  90  91
ENDBRANCH  62  85
BRANCH  74  95
ATOM     95  C   UNL     1       2.462   9.817  -9.775  1.00  0.00    -0.014 A 
ATOM     96  C   UNL     1       1.665   9.235  -8.769  1.00  0.00     0.010 A 
ATOM     97  C   UNL     1       2.280  11.182 -10.062  1.00  0.00     0.010 A 
ATOM     98  C   UNL     1       0.689   9.984  -8.098  1.00  0.00     0.020 A 
ATOM     99  C   UNL     1       1.324  11.942  -9.380  1.00  0.00     0.020 A 
ATOM    100  C   UNL     1       0.525  11.335  -8.409  1.00  0.00     0.054 A 
BRANCH 100 101
ATOM    101  S   UNL     1      -0.699  12.312  -7.492  1.00  0.00     0.124 S 
ATOM    102  O   UNL     1      -1.964  11.819  -8.030  1.00  0.00    -0.237 OA
ATOM    103  O   UNL     1      -0.424  11.958  -6.102  1.00  0.00    -0.237 OA
ATOM    104  O   UNL     1      -0.374  13.694  -7.844  1.00  0.00    -0.744 OA
ENDBRANCH 100 101
ENDBRANCH  74  95
ENDBRANCH  48  49
ENDBRANCH  41  43
ENDBRANCH  40  41
ENDBRANCH  39  40
ENDBRANCH  38  39
ENDBRANCH  37  38
ENDBRANCH  36  37
ENDBRANCH   1  36
TORSDOF 26
