REMARK SMILES O=C(OCCOCCOCCOC(=O)[C@H]1C[C@H](O)CN1S(=O)(=O)c1ccc2c(c1)OCCO2)c1ccc(-c2c3nc(c(-c4ccc(S(=O)(=O)[O-])cc4)c4ccc([nH]4)c(-c4ccc(S(=O)(=O)[O-])cc4)c4nc(c(-c5ccc(S(=O)(=O)[O-])cc5)c5ccc2[nH]5)C=C4)C=C3)cc1
REMARK SMILES IDX 7 1 6 2 5 3 4 4 3 5 2 6 1 7 34 8 35 9 93 10 36 11 92 12
REMARK SMILES IDX 37 13 38 14 39 15 86 16 40 17 91 18 85 19 87 20 41 21 90 22
REMARK SMILES IDX 84 23 83 24 42 26 72 27 53 28 71 29 54 30 57 31 70 32 88 33
REMARK SMILES IDX 55 34 56 35 69 37 89 38 58 39 43 40 44 41 52 42 45 43 51 44
REMARK SMILES IDX 46 45 47 46 48 47 49 48 50 49 73 50 74 51 82 52 75 53 81 54
REMARK SMILES IDX 76 55 77 56 78 57 79 58 80 59 59 60 60 61 68 62 61 63 67 64
REMARK SMILES IDX 62 65 63 66 64 67 65 68 66 69 8 70 9 71 10 72 11 73 12 74
REMARK SMILES IDX 13 75 14 76 15 77 16 78 20 79 17 80 19 81 21 82 22 83 23 84
REMARK SMILES IDX 24 85 25 86 29 87 26 88 28 89 27 90 30 91 33 92 31 93 32 94
REMARK SMILES IDX 18 95
REMARK H PARENT 87 25 57 36 18 96
REMARK Flexibility Score: inf
ROOT
ATOM      1  C   UNL     1       2.612   0.136   1.961  1.00  0.00     0.188 C 
ENDROOT
BRANCH   1   2
ATOM      2  O   UNL     1       3.807  -0.407   1.383  1.00  0.00    -0.376 OA
BRANCH   2   3
ATOM      3  C   UNL     1       4.835   0.566   1.183  1.00  0.00     0.202 C 
BRANCH   3   4
ATOM      4  C   UNL     1       4.639   1.474  -0.039  1.00  0.00     0.261 C 
BRANCH   4   5
ATOM      5  O   UNL     1       3.261   1.614  -0.417  1.00  0.00    -0.460 OA
BRANCH   5   6
ATOM      6  C   UNL     1       2.579   0.892  -1.341  1.00  0.00     0.338 C 
ATOM      7  O   UNL     1       1.399   1.169  -1.554  1.00  0.00    -0.246 OA
BRANCH   6   8
ATOM      8  C   UNL     1       3.197  -0.197  -2.153  1.00  0.00     0.060 A 
ATOM      9  C   UNL     1       4.163  -1.093  -1.689  1.00  0.00     0.016 A 
ATOM     10  C   UNL     1       2.688  -0.383  -3.450  1.00  0.00     0.016 A 
ATOM     11  C   UNL     1       4.676  -2.089  -2.515  1.00  0.00     0.010 A 
ATOM     12  C   UNL     1       3.170  -1.405  -4.273  1.00  0.00     0.010 A 
ATOM     13  C   UNL     1       4.188  -2.245  -3.814  1.00  0.00    -0.014 A 
BRANCH  13  14
ATOM     14  C   UNL     1       4.809  -3.258  -4.689  1.00  0.00     0.031 A 
ATOM     15  C   UNL     1       5.827  -2.815  -5.692  1.00  0.00     0.074 A 
ATOM     16  C   UNL     1       4.503  -4.557  -4.519  1.00  0.00     0.049 A 
ATOM     17  N   UNL     1       6.506  -3.535  -6.541  1.00  0.00    -0.248 NA
ATOM     18  C   UNL     1       6.100  -1.369  -5.769  1.00  0.00     0.031 C 
ATOM     19  C   UNL     1       3.522  -5.059  -3.560  1.00  0.00     0.029 A 
ATOM     20  N   UNL     1       5.014  -5.690  -5.095  1.00  0.00    -0.354 N 
ATOM     21  C   UNL     1       7.210  -2.626  -7.319  1.00  0.00     0.074 A 
ATOM     22  C   UNL     1       6.932  -1.307  -6.798  1.00  0.00     0.031 C 
ATOM     23  C   UNL     1       3.577  -6.401  -3.539  1.00  0.00     0.029 A 
ATOM     24  C   UNL     1       4.564  -6.854  -4.509  1.00  0.00     0.049 A 
ATOM     25  H   UNL     1       5.642  -5.675  -5.853  1.00  0.00     0.167 HD
ATOM     26  C   UNL     1       7.968  -2.882  -8.409  1.00  0.00     0.031 A 
ATOM     27  C   UNL     1       4.929  -8.132  -4.731  1.00  0.00     0.031 A 
ATOM     28  C   UNL     1       8.220  -4.210  -8.897  1.00  0.00     0.049 A 
ATOM     29  C   UNL     1       5.881  -8.390  -5.870  1.00  0.00     0.074 A 
ATOM     30  C   UNL     1       8.923  -4.597 -10.022  1.00  0.00     0.029 A 
ATOM     31  N   UNL     1       7.772  -5.370  -8.280  1.00  0.00    -0.354 N 
ATOM     32  N   UNL     1       6.528  -7.520  -6.613  1.00  0.00    -0.248 NA
ATOM     33  C   UNL     1       6.105  -9.792  -6.247  1.00  0.00     0.031 C 
ATOM     34  C   UNL     1       8.858  -5.992 -10.110  1.00  0.00     0.029 A 
ATOM     35  C   UNL     1       8.159  -6.474  -9.014  1.00  0.00     0.049 A 
ATOM     36  H   UNL     1       7.254  -5.401  -7.443  1.00  0.00     0.167 HD
ATOM     37  C   UNL     1       7.176  -8.267  -7.587  1.00  0.00     0.074 A 
ATOM     38  C   UNL     1       6.925  -9.662  -7.281  1.00  0.00     0.031 C 
ATOM     39  C   UNL     1       7.867  -7.843  -8.674  1.00  0.00     0.031 A 
BRANCH  26  40
ATOM     40  C   UNL     1       8.450  -1.704  -9.205  1.00  0.00    -0.014 A 
ATOM     41  C   UNL     1       9.522  -0.902  -8.782  1.00  0.00     0.010 A 
ATOM     42  C   UNL     1       7.798  -1.398 -10.415  1.00  0.00     0.010 A 
ATOM     43  C   UNL     1       9.916   0.203  -9.544  1.00  0.00     0.020 A 
ATOM     44  C   UNL     1       8.200  -0.308 -11.188  1.00  0.00     0.020 A 
ATOM     45  C   UNL     1       9.249   0.495 -10.740  1.00  0.00     0.054 A 
BRANCH  45  46
ATOM     46  S   UNL     1       9.792   1.923 -11.719  1.00  0.00     0.124 S 
ATOM     47  O   UNL     1       9.284   3.041 -10.927  1.00  0.00    -0.237 OA
ATOM     48  O   UNL     1      11.244   1.770 -11.731  1.00  0.00    -0.237 OA
ATOM     49  O   UNL     1       9.137   1.727 -13.010  1.00  0.00    -0.744 OA
ENDBRANCH  45  46
ENDBRANCH  26  40
BRANCH  27  50
ATOM     50  C   UNL     1       4.374  -9.258  -3.922  1.00  0.00    -0.014 A 
ATOM     51  C   UNL     1       5.229 -10.079  -3.159  1.00  0.00     0.010 A 
ATOM     52  C   UNL     1       2.998  -9.550  -3.932  1.00  0.00     0.010 A 
ATOM     53  C   UNL     1       4.727 -11.184  -2.459  1.00  0.00     0.020 A 
ATOM     54  C   UNL     1       2.487 -10.630  -3.206  1.00  0.00     0.020 A 
ATOM     55  C   UNL     1       3.359 -11.457  -2.495  1.00  0.00     0.054 A 
BRANCH  55  56
ATOM     56  S   UNL     1       2.680 -12.887  -1.608  1.00  0.00     0.124 S 
ATOM     57  O   UNL     1       2.441 -13.833  -2.692  1.00  0.00    -0.237 OA
ATOM     58  O   UNL     1       3.748 -13.254  -0.681  1.00  0.00    -0.237 OA
ATOM     59  O   UNL     1       1.486 -12.331  -0.976  1.00  0.00    -0.744 OA
ENDBRANCH  55  56
ENDBRANCH  27  50
BRANCH  39  60
ATOM     60  C   UNL     1       8.325  -8.899  -9.637  1.00  0.00    -0.014 A 
ATOM     61  C   UNL     1       7.398  -9.506 -10.504  1.00  0.00     0.010 A 
ATOM     62  C   UNL     1       9.688  -9.219  -9.743  1.00  0.00     0.010 A 
ATOM     63  C   UNL     1       7.827 -10.429 -11.457  1.00  0.00     0.020 A 
ATOM     64  C   UNL     1      10.123 -10.127 -10.710  1.00  0.00     0.020 A 
ATOM     65  C   UNL     1       9.189 -10.731 -11.556  1.00  0.00     0.054 A 
BRANCH  65  66
ATOM     66  S   UNL     1       9.730 -11.877 -12.852  1.00  0.00     0.124 S 
ATOM     67  O   UNL     1       9.305 -13.166 -12.312  1.00  0.00    -0.237 OA
ATOM     68  O   UNL     1       8.991 -11.411 -14.023  1.00  0.00    -0.237 OA
ATOM     69  O   UNL     1      11.175 -11.672 -12.912  1.00  0.00    -0.744 OA
ENDBRANCH  65  66
ENDBRANCH  39  60
ENDBRANCH  13  14
ENDBRANCH   6   8
ENDBRANCH   5   6
ENDBRANCH   4   5
ENDBRANCH   3   4
ENDBRANCH   2   3
ENDBRANCH   1   2
BRANCH   1  70
ATOM     70  C   UNL     1       1.988  -0.856   2.936  1.00  0.00     0.188 C 
BRANCH  70  71
ATOM     71  O   UNL     1       2.671  -1.019   4.179  1.00  0.00    -0.376 OA
BRANCH  71  72
ATOM     72  C   UNL     1       4.048  -1.373   4.153  1.00  0.00     0.202 C 
BRANCH  72  73
ATOM     73  C   UNL     1       4.437  -2.826   3.842  1.00  0.00     0.261 C 
BRANCH  73  74
ATOM     74  O   UNL     1       3.985  -3.366   2.595  1.00  0.00    -0.462 OA
BRANCH  74  75
ATOM     75  C   UNL     1       2.781  -3.995   2.673  1.00  0.00     0.324 C 
ATOM     76  O   UNL     1       2.006  -3.834   3.608  1.00  0.00    -0.250 OA
BRANCH  75  77
ATOM     77  C   UNL     1       2.464  -4.887   1.475  1.00  0.00     0.185 C 
ATOM     78  C   UNL     1       3.508  -4.854   0.343  1.00  0.00     0.065 C 
ATOM     79  N   UNL     1       2.192  -6.386   1.748  1.00  0.00    -0.181 NA
ATOM     80  C   UNL     1       4.144  -6.229   0.390  1.00  0.00     0.131 C 
ATOM     81  C   UNL     1       2.915  -7.090   0.647  1.00  0.00     0.135 C 
BRANCH  79  82
ATOM     82  S   UNL     1       2.563  -6.862   3.360  1.00  0.00     0.244 S 
ATOM     83  O   UNL     1       3.983  -6.607   3.557  1.00  0.00    -0.207 OA
ATOM     84  O   UNL     1       1.584  -6.277   4.237  1.00  0.00    -0.207 OA
BRANCH  82  85
ATOM     85  C   UNL     1       2.321  -8.610   3.497  1.00  0.00     0.086 A 
ATOM     86  C   UNL     1       1.274  -9.083   4.304  1.00  0.00     0.026 A 
ATOM     87  C   UNL     1       3.271  -9.491   2.988  1.00  0.00     0.072 A 
ATOM     88  C   UNL     1       1.170 -10.444   4.585  1.00  0.00     0.052 A 
ATOM     89  C   UNL     1       3.111 -10.852   3.202  1.00  0.00     0.162 A 
ATOM     90  C   UNL     1       2.088 -11.331   4.030  1.00  0.00     0.161 A 
ATOM     91  O   UNL     1       4.007 -11.677   2.575  1.00  0.00    -0.486 OA
ATOM     92  O   UNL     1       1.933 -12.657   4.345  1.00  0.00    -0.486 OA
ATOM     93  C   UNL     1       3.438 -12.988   2.450  1.00  0.00     0.271 C 
ATOM     94  C   UNL     1       3.009 -13.458   3.830  1.00  0.00     0.271 C 
ENDBRANCH  82  85
ENDBRANCH  79  82
BRANCH  80  95
ATOM     95  O   UNL     1       4.807  -6.515  -0.820  1.00  0.00    -0.392 OA
ATOM     96  H   UNL     1       4.187  -6.415  -1.560  1.00  0.00     0.211 HD
ENDBRANCH  80  95
ENDBRANCH  75  77
ENDBRANCH  74  75
ENDBRANCH  73  74
ENDBRANCH  72  73
ENDBRANCH  71  72
ENDBRANCH  70  71
ENDBRANCH   1  70
TORSDOF 23
