REMARK SMILES CC[C@@H](C)[C@@H](C(=O)OCCOCCOCCOC(=O)c1ccc(-c2c3nc(c(-c4ccc(S(=O)(=O)[O-])cc4)c4ccc([nH]4)c(-c4ccc(S(=O)(=O)[O-])cc4)c4nc(c(-c5ccc(S(=O)(=O)[O-])cc5)c5ccc2[nH]5)C=C4)C=C3)cc1)N1C(=O)/C(=C/c2ccc(O)cc2)SC1=S
REMARK SMILES IDX 12 1 11 2 10 3 9 4 8 5 6 6 7 7 5 8 3 9 4 10 2 11 1 12 80 13
REMARK SMILES IDX 81 14 93 15 82 16 83 17 92 18 94 19 84 20 85 21 86 22 91 23
REMARK SMILES IDX 87 24 90 25 88 26 89 27 13 29 14 30 15 31 16 32 17 33 18 34
REMARK SMILES IDX 19 35 20 36 21 37 79 38 22 39 78 40 23 41 24 42 25 43 72 44
REMARK SMILES IDX 26 45 77 46 71 47 73 48 27 49 76 50 70 51 69 52 28 54 58 55
REMARK SMILES IDX 39 56 57 57 40 58 43 59 56 60 74 61 41 62 42 63 55 65 75 66
REMARK SMILES IDX 44 67 29 68 30 69 38 70 31 71 37 72 32 73 33 74 34 75 35 76
REMARK SMILES IDX 36 77 59 78 60 79 68 80 61 81 67 82 62 83 63 84 64 85 65 86
REMARK SMILES IDX 66 87 45 88 46 89 54 90 47 91 53 92 48 93 49 94 50 95 51 96
REMARK SMILES IDX 52 97
REMARK H PARENT 89 28 73 53 43 64
REMARK Flexibility Score: inf
ROOT
ATOM      1  C   UNL     1       3.060   4.338   2.630  1.00  0.00     0.188 C 
ENDROOT
BRANCH   1   2
ATOM      2  O   UNL     1       2.950   4.388   4.046  1.00  0.00    -0.376 OA
BRANCH   2   3
ATOM      3  C   UNL     1       1.980   3.562   4.682  1.00  0.00     0.202 C 
BRANCH   3   4
ATOM      4  C   UNL     1       0.555   3.497   4.103  1.00  0.00     0.261 C 
BRANCH   4   5
ATOM      5  O   UNL     1       0.486   3.201   2.686  1.00  0.00    -0.462 OA
BRANCH   5   6
ATOM      6  C   UNL     1      -0.284   4.019   1.928  1.00  0.00     0.329 C 
ATOM      7  O   UNL     1      -0.908   4.948   2.428  1.00  0.00    -0.250 OA
BRANCH   6   8
ATOM      8  C   UNL     1      -0.254   3.749   0.379  1.00  0.00     0.204 C 
BRANCH   8   9
ATOM      9  C   UNL     1       0.062   2.303  -0.141  1.00  0.00     0.020 C 
ATOM     10  C   UNL     1      -0.648   2.106  -1.503  1.00  0.00     0.010 C 
BRANCH   9  11
ATOM     11  C   UNL     1      -0.249   1.073   0.741  1.00  0.00     0.002 C 
ATOM     12  C   UNL     1       0.475  -0.179   0.224  1.00  0.00     0.004 C 
ENDBRANCH   9  11
ENDBRANCH   8   9
BRANCH   8  13
ATOM     13  N   UNL     1       0.473   4.902  -0.339  1.00  0.00    -0.278 N 
ATOM     14  C   UNL     1      -0.099   6.171  -0.187  1.00  0.00     0.267 C 
ATOM     15  C   UNL     1       1.491   4.880  -1.289  1.00  0.00     0.149 C 
ATOM     16  O   UNL     1      -1.201   6.410   0.287  1.00  0.00    -0.268 OA
ATOM     17  C   UNL     1       0.697   7.227  -0.866  1.00  0.00     0.081 C 
ATOM     18  S   UNL     1       1.938   6.511  -1.782  1.00  0.00    -0.054 SA
ATOM     19  S   UNL     1       2.308   3.648  -2.068  1.00  0.00    -0.052 S 
ATOM     20  C   UNL     1       0.371   8.527  -0.830  1.00  0.00     0.029 C 
BRANCH  20  21
ATOM     21  C   UNL     1       0.889   9.516  -1.785  1.00  0.00    -0.024 A 
ATOM     22  C   UNL     1       1.798  10.512  -1.427  1.00  0.00     0.012 A 
ATOM     23  C   UNL     1       0.431   9.447  -3.112  1.00  0.00     0.012 A 
ATOM     24  C   UNL     1       2.256  11.412  -2.396  1.00  0.00     0.047 A 
ATOM     25  C   UNL     1       0.890  10.343  -4.077  1.00  0.00     0.047 A 
ATOM     26  C   UNL     1       1.806  11.318  -3.709  1.00  0.00     0.115 A 
BRANCH  26  27
ATOM     27  O   UNL     1       2.288  12.211  -4.619  1.00  0.00    -0.508 OA
ATOM     28  H   UNL     1       2.906  12.864  -4.353  1.00  0.00     0.293 HD
ENDBRANCH  26  27
ENDBRANCH  20  21
ENDBRANCH   8  13
ENDBRANCH   6   8
ENDBRANCH   5   6
ENDBRANCH   4   5
ENDBRANCH   3   4
ENDBRANCH   2   3
ENDBRANCH   1   2
BRANCH   1  29
ATOM     29  C   UNL     1       3.135   2.962   1.944  1.00  0.00     0.188 C 
BRANCH  29  30
ATOM     30  O   UNL     1       2.881   1.863   2.782  1.00  0.00    -0.376 OA
BRANCH  30  31
ATOM     31  C   UNL     1       3.899   0.928   3.079  1.00  0.00     0.202 C 
BRANCH  31  32
ATOM     32  C   UNL     1       5.394   1.284   3.226  1.00  0.00     0.261 C 
BRANCH  32  33
ATOM     33  O   UNL     1       5.884   2.458   2.570  1.00  0.00    -0.460 OA
BRANCH  33  34
ATOM     34  C   UNL     1       6.245   2.322   1.270  1.00  0.00     0.338 C 
ATOM     35  O   UNL     1       6.170   1.306   0.593  1.00  0.00    -0.246 OA
BRANCH  34  36
ATOM     36  C   UNL     1       6.479   3.681   0.737  1.00  0.00     0.060 A 
ATOM     37  C   UNL     1       5.606   4.180  -0.239  1.00  0.00     0.016 A 
ATOM     38  C   UNL     1       7.521   4.470   1.214  1.00  0.00     0.016 A 
ATOM     39  C   UNL     1       5.758   5.472  -0.740  1.00  0.00     0.010 A 
ATOM     40  C   UNL     1       7.705   5.749   0.679  1.00  0.00     0.010 A 
ATOM     41  C   UNL     1       6.837   6.249  -0.312  1.00  0.00    -0.014 A 
BRANCH  41  42
ATOM     42  C   UNL     1       7.231   7.461  -1.067  1.00  0.00     0.031 A 
ATOM     43  C   UNL     1       8.320   7.304  -2.092  1.00  0.00     0.074 A 
ATOM     44  C   UNL     1       6.675   8.665  -0.846  1.00  0.00     0.049 A 
ATOM     45  N   UNL     1       9.018   8.218  -2.709  1.00  0.00    -0.248 NA
ATOM     46  C   UNL     1       8.679   5.920  -2.452  1.00  0.00     0.031 C 
ATOM     47  C   UNL     1       5.545   8.934   0.041  1.00  0.00     0.029 A 
ATOM     48  N   UNL     1       7.014   9.901  -1.342  1.00  0.00    -0.354 N 
ATOM     49  C   UNL     1       9.922   7.523  -3.503  1.00  0.00     0.074 A 
ATOM     50  C   UNL     1       9.694   6.113  -3.281  1.00  0.00     0.031 C 
ATOM     51  C   UNL     1       5.303  10.258   0.046  1.00  0.00     0.029 A 
ATOM     52  C   UNL     1       6.289  10.934  -0.795  1.00  0.00     0.049 A 
ATOM     53  H   UNL     1       7.711  10.034  -2.025  1.00  0.00     0.167 HD
ATOM     54  C   UNL     1      10.864   8.017  -4.337  1.00  0.00     0.031 A 
ATOM     55  C   UNL     1       6.439  12.269  -0.927  1.00  0.00     0.031 A 
ATOM     56  C   UNL     1      11.089   9.421  -4.544  1.00  0.00     0.049 A 
ATOM     57  C   UNL     1       7.567  12.801  -1.783  1.00  0.00     0.074 A 
ATOM     58  C   UNL     1      12.038  10.031  -5.344  1.00  0.00     0.029 A 
ATOM     59  N   UNL     1      10.350  10.434  -3.952  1.00  0.00    -0.354 N 
ATOM     60  N   UNL     1       8.452  12.139  -2.492  1.00  0.00    -0.248 NA
ATOM     61  C   UNL     1       7.723  14.262  -1.849  1.00  0.00     0.031 C 
ATOM     62  C   UNL     1      11.907  11.414  -5.195  1.00  0.00     0.029 A 
ATOM     63  C   UNL     1      10.828  11.665  -4.361  1.00  0.00     0.049 A 
ATOM     64  H   UNL     1       9.597  10.297  -3.333  1.00  0.00     0.167 HD
ATOM     65  C   UNL     1       9.233  13.104  -3.123  1.00  0.00     0.074 A 
ATOM     66  C   UNL     1       8.719  14.393  -2.715  1.00  0.00     0.031 C 
ATOM     67  C   UNL     1      10.280  12.938  -3.969  1.00  0.00     0.031 A 
BRANCH  54  68
ATOM     68  C   UNL     1      11.749   7.032  -5.050  1.00  0.00    -0.014 A 
ATOM     69  C   UNL     1      11.250   6.211  -6.077  1.00  0.00     0.010 A 
ATOM     70  C   UNL     1      13.112   6.952  -4.710  1.00  0.00     0.010 A 
ATOM     71  C   UNL     1      12.091   5.308  -6.730  1.00  0.00     0.020 A 
ATOM     72  C   UNL     1      13.964   6.073  -5.383  1.00  0.00     0.020 A 
ATOM     73  C   UNL     1      13.444   5.247  -6.381  1.00  0.00     0.054 A 
BRANCH  73  74
ATOM     74  S   UNL     1      14.519   4.093  -7.274  1.00  0.00     0.124 S 
ATOM     75  O   UNL     1      14.050   2.800  -6.781  1.00  0.00    -0.237 OA
ATOM     76  O   UNL     1      14.206   4.383  -8.671  1.00  0.00    -0.237 OA
ATOM     77  O   UNL     1      15.864   4.469  -6.849  1.00  0.00    -0.744 OA
ENDBRANCH  73  74
ENDBRANCH  54  68
BRANCH  55  78
ATOM     78  C   UNL     1       5.535  13.216  -0.208  1.00  0.00    -0.014 A 
ATOM     79  C   UNL     1       4.697  14.089  -0.926  1.00  0.00     0.010 A 
ATOM     80  C   UNL     1       5.538  13.286   1.197  1.00  0.00     0.010 A 
ATOM     81  C   UNL     1       3.898  15.023  -0.258  1.00  0.00     0.020 A 
ATOM     82  C   UNL     1       4.720  14.198   1.871  1.00  0.00     0.020 A 
ATOM     83  C   UNL     1       3.916  15.073   1.137  1.00  0.00     0.054 A 
BRANCH  83  84
ATOM     84  S   UNL     1       2.864  16.285   1.984  1.00  0.00     0.124 S 
ATOM     85  O   UNL     1       3.532  17.543   1.664  1.00  0.00    -0.237 OA
ATOM     86  O   UNL     1       1.567  16.076   1.345  1.00  0.00    -0.237 OA
ATOM     87  O   UNL     1       2.934  15.879   3.385  1.00  0.00    -0.744 OA
ENDBRANCH  83  84
ENDBRANCH  55  78
BRANCH  67  88
ATOM     88  C   UNL     1      10.894  14.168  -4.587  1.00  0.00    -0.014 A 
ATOM     89  C   UNL     1      11.696  15.050  -3.843  1.00  0.00     0.010 A 
ATOM     90  C   UNL     1      10.741  14.383  -5.971  1.00  0.00     0.010 A 
ATOM     91  C   UNL     1      12.320  16.134  -4.469  1.00  0.00     0.020 A 
ATOM     92  C   UNL     1      11.387  15.446  -6.605  1.00  0.00     0.020 A 
ATOM     93  C   UNL     1      12.168  16.320  -5.847  1.00  0.00     0.054 A 
BRANCH  93  94
ATOM     94  S   UNL     1      13.052  17.688  -6.647  1.00  0.00     0.124 S 
ATOM     95  O   UNL     1      12.320  18.853  -6.158  1.00  0.00    -0.237 OA
ATOM     96  O   UNL     1      14.409  17.536  -6.130  1.00  0.00    -0.237 OA
ATOM     97  O   UNL     1      12.900  17.413  -8.075  1.00  0.00    -0.744 OA
ENDBRANCH  93  94
ENDBRANCH  67  88
ENDBRANCH  41  42
ENDBRANCH  34  36
ENDBRANCH  33  34
ENDBRANCH  32  33
ENDBRANCH  31  32
ENDBRANCH  30  31
ENDBRANCH  29  30
ENDBRANCH   1  29
TORSDOF 25
