REMARK SMILES COc1ccccc1[C@H](C)NC(=O)[C@@H]1CC=CC[C@@H]1C(=O)OCCOCCOCCOC(=O)c1ccc(-c2c3nc(c(-c4ccc(S(=O)(=O)[O-])cc4)c4ccc([nH]4)c(-c4ccc(S(=O)(=O)[O-])cc4)c4nc(c(-c5ccc(S(=O)(=O)[O-])cc5)c5ccc2[nH]5)C=C4)C=C3)cc1
REMARK SMILES IDX 26 1 25 2 24 3 23 4 22 5 20 6 21 7 19 8 14 9 15 10 16 11
REMARK SMILES IDX 18 12 17 13 12 14 11 15 13 17 9 18 10 19 8 20 3 21 4 22 5 23
REMARK SMILES IDX 7 24 6 25 2 26 1 27 27 28 28 29 29 30 30 31 31 32 32 33
REMARK SMILES IDX 33 34 34 35 35 36 93 37 36 38 92 39 37 40 38 41 39 42 86 43
REMARK SMILES IDX 40 44 91 45 85 46 87 47 41 48 90 49 84 50 83 51 42 53 72 54
REMARK SMILES IDX 53 55 71 56 54 57 57 58 70 59 88 60 55 61 56 62 69 64 89 65
REMARK SMILES IDX 58 66 43 67 44 68 52 69 45 70 51 71 46 72 47 73 48 74 49 75
REMARK SMILES IDX 50 76 73 77 74 78 82 79 75 80 81 81 76 82 77 83 78 84 79 85
REMARK SMILES IDX 80 86 59 87 60 88 68 89 61 90 67 91 62 92 63 93 64 94 65 95
REMARK SMILES IDX 66 96
REMARK H PARENT 11 16 87 52 57 63
REMARK Flexibility Score: inf
ROOT
ATOM      1  C   UNL     1      -1.215  -1.638   1.631  1.00  0.00     0.188 C 
ENDROOT
BRANCH   1   2
ATOM      2  O   UNL     1      -1.813  -2.532   0.705  1.00  0.00    -0.376 OA
BRANCH   2   3
ATOM      3  C   UNL     1      -1.107  -3.693   0.322  1.00  0.00     0.202 C 
BRANCH   3   4
ATOM      4  C   UNL     1       0.146  -3.523  -0.536  1.00  0.00     0.261 C 
BRANCH   4   5
ATOM      5  O   UNL     1       1.164  -2.635  -0.035  1.00  0.00    -0.463 OA
BRANCH   5   6
ATOM      6  C   UNL     1       1.182  -1.394  -0.598  1.00  0.00     0.310 C 
ATOM      7  O   UNL     1       0.278  -0.964  -1.302  1.00  0.00    -0.252 OA
BRANCH   6   8
ATOM      8  C   UNL     1       2.546  -0.718  -0.469  1.00  0.00     0.115 C 
ATOM      9  C   UNL     1       3.236  -0.615   0.901  1.00  0.00     0.097 C 
ATOM     10  C   UNL     1       2.517   0.403   1.805  1.00  0.00     0.041 C 
ATOM     11  C   UNL     1       2.155   1.666   1.081  1.00  0.00    -0.030 C 
ATOM     12  C   UNL     1       2.551   0.656  -1.162  1.00  0.00     0.043 C 
ATOM     13  C   UNL     1       2.179   1.782  -0.253  1.00  0.00    -0.030 C 
BRANCH   9  14
ATOM     14  C   UNL     1       3.504  -1.920   1.638  1.00  0.00     0.224 C 
ATOM     15  N   UNL     1       4.277  -2.891   1.084  1.00  0.00    -0.349 N 
ATOM     16  H   UNL     1       4.320  -3.718   1.617  1.00  0.00     0.164 HD
ATOM     17  O   UNL     1       3.102  -2.113   2.787  1.00  0.00    -0.275 OA
BRANCH  15  18
ATOM     18  C   UNL     1       5.061  -2.943  -0.154  1.00  0.00     0.113 C 
ATOM     19  C   UNL     1       6.553  -2.840   0.166  1.00  0.00     0.036 C 
BRANCH  18  20
ATOM     20  C   UNL     1       4.578  -4.127  -0.984  1.00  0.00     0.016 A 
ATOM     21  C   UNL     1       5.006  -5.449  -0.811  1.00  0.00     0.124 A 
ATOM     22  C   UNL     1       4.361  -6.509  -1.468  1.00  0.00     0.047 A 
ATOM     23  C   UNL     1       3.273  -6.273  -2.307  1.00  0.00     0.004 A 
ATOM     24  C   UNL     1       3.534  -3.919  -1.911  1.00  0.00     0.010 A 
ATOM     25  C   UNL     1       2.875  -4.970  -2.550  1.00  0.00     0.001 A 
BRANCH  21  26
ATOM     26  O   UNL     1       6.166  -5.728  -0.140  1.00  0.00    -0.496 OA
ATOM     27  C   UNL     1       5.932  -6.217   1.176  1.00  0.00     0.278 C 
ENDBRANCH  21  26
ENDBRANCH  18  20
ENDBRANCH  15  18
ENDBRANCH   9  14
ENDBRANCH   6   8
ENDBRANCH   5   6
ENDBRANCH   4   5
ENDBRANCH   3   4
ENDBRANCH   2   3
ENDBRANCH   1   2
BRANCH   1  28
ATOM     28  C   UNL     1      -0.227  -2.157   2.696  1.00  0.00     0.188 C 
BRANCH  28  29
ATOM     29  O   UNL     1      -0.424  -3.408   3.333  1.00  0.00    -0.376 OA
BRANCH  29  30
ATOM     30  C   UNL     1      -1.705  -3.736   3.837  1.00  0.00     0.202 C 
BRANCH  30  31
ATOM     31  C   UNL     1      -2.344  -2.790   4.858  1.00  0.00     0.261 C 
BRANCH  31  32
ATOM     32  O   UNL     1      -2.589  -1.470   4.340  1.00  0.00    -0.460 OA
BRANCH  32  33
ATOM     33  C   UNL     1      -1.972  -0.459   4.987  1.00  0.00     0.338 C 
ATOM     34  O   UNL     1      -1.291  -0.546   6.013  1.00  0.00    -0.246 OA
BRANCH  33  35
ATOM     35  C   UNL     1      -2.059   0.790   4.210  1.00  0.00     0.060 A 
ATOM     36  C   UNL     1      -0.866   1.386   3.780  1.00  0.00     0.016 A 
ATOM     37  C   UNL     1      -3.282   1.425   3.980  1.00  0.00     0.016 A 
ATOM     38  C   UNL     1      -0.888   2.630   3.151  1.00  0.00     0.010 A 
ATOM     39  C   UNL     1      -3.298   2.686   3.365  1.00  0.00     0.010 A 
ATOM     40  C   UNL     1      -2.099   3.308   2.970  1.00  0.00    -0.014 A 
BRANCH  40  41
ATOM     41  C   UNL     1      -2.079   4.741   2.573  1.00  0.00     0.031 A 
ATOM     42  C   UNL     1      -2.169   5.783   3.656  1.00  0.00     0.074 A 
ATOM     43  C   UNL     1      -1.919   5.126   1.292  1.00  0.00     0.049 A 
ATOM     44  N   UNL     1      -2.273   7.083   3.554  1.00  0.00    -0.248 NA
ATOM     45  C   UNL     1      -2.121   5.289   5.042  1.00  0.00     0.031 C 
ATOM     46  C   UNL     1      -1.695   4.233   0.157  1.00  0.00     0.029 A 
ATOM     47  N   UNL     1      -1.922   6.383   0.735  1.00  0.00    -0.354 N 
ATOM     48  C   UNL     1      -2.329   7.560   4.859  1.00  0.00     0.074 A 
ATOM     49  C   UNL     1      -2.251   6.410   5.734  1.00  0.00     0.031 C 
ATOM     50  C   UNL     1      -1.595   4.971  -0.964  1.00  0.00     0.029 A 
ATOM     51  C   UNL     1      -1.800   6.381  -0.635  1.00  0.00     0.049 A 
ATOM     52  H   UNL     1      -2.003   7.208   1.267  1.00  0.00     0.167 HD
ATOM     53  C   UNL     1      -2.446   8.838   5.293  1.00  0.00     0.031 A 
ATOM     54  C   UNL     1      -1.884   7.394  -1.523  1.00  0.00     0.031 A 
ATOM     55  C   UNL     1      -2.542   9.980   4.424  1.00  0.00     0.049 A 
ATOM     56  C   UNL     1      -2.141   8.797  -1.026  1.00  0.00     0.074 A 
ATOM     57  C   UNL     1      -2.703  11.311   4.767  1.00  0.00     0.029 A 
ATOM     58  N   UNL     1      -2.489   9.927   3.040  1.00  0.00    -0.354 N 
ATOM     59  N   UNL     1      -2.243   9.232   0.208  1.00  0.00    -0.248 NA
ATOM     60  C   UNL     1      -2.301   9.847  -2.044  1.00  0.00     0.031 C 
ATOM     61  C   UNL     1      -2.805  12.056   3.588  1.00  0.00     0.029 A 
ATOM     62  C   UNL     1      -2.640  11.198   2.512  1.00  0.00     0.049 A 
ATOM     63  H   UNL     1      -2.364   9.107   2.510  1.00  0.00     0.167 HD
ATOM     64  C   UNL     1      -2.451  10.606   0.114  1.00  0.00     0.074 A 
ATOM     65  C   UNL     1      -2.448  10.933  -1.297  1.00  0.00     0.031 C 
ATOM     66  C   UNL     1      -2.628  11.514   1.106  1.00  0.00     0.031 A 
BRANCH  53  67
ATOM     67  C   UNL     1      -2.552   9.052   6.779  1.00  0.00    -0.014 A 
ATOM     68  C   UNL     1      -1.444   8.886   7.629  1.00  0.00     0.010 A 
ATOM     69  C   UNL     1      -3.788   9.433   7.332  1.00  0.00     0.010 A 
ATOM     70  C   UNL     1      -1.583   9.051   9.010  1.00  0.00     0.020 A 
ATOM     71  C   UNL     1      -3.925   9.626   8.708  1.00  0.00     0.020 A 
ATOM     72  C   UNL     1      -2.825   9.414   9.541  1.00  0.00     0.054 A 
BRANCH  72  73
ATOM     73  S   UNL     1      -2.980   9.619  11.337  1.00  0.00     0.124 S 
ATOM     74  O   UNL     1      -2.926   8.236  11.804  1.00  0.00    -0.237 OA
ATOM     75  O   UNL     1      -1.818  10.440  11.667  1.00  0.00    -0.237 OA
ATOM     76  O   UNL     1      -4.272  10.281  11.500  1.00  0.00    -0.744 OA
ENDBRANCH  72  73
ENDBRANCH  53  67
BRANCH  54  77
ATOM     77  C   UNL     1      -1.786   7.121  -2.986  1.00  0.00    -0.014 A 
ATOM     78  C   UNL     1      -0.708   7.614  -3.744  1.00  0.00     0.010 A 
ATOM     79  C   UNL     1      -2.792   6.384  -3.638  1.00  0.00     0.010 A 
ATOM     80  C   UNL     1      -0.647   7.389  -5.124  1.00  0.00     0.020 A 
ATOM     81  C   UNL     1      -2.720   6.130  -5.011  1.00  0.00     0.020 A 
ATOM     82  C   UNL     1      -1.652   6.644  -5.748  1.00  0.00     0.054 A 
BRANCH  82  83
ATOM     83  S   UNL     1      -1.528   6.323  -7.530  1.00  0.00     0.124 S 
ATOM     84  O   UNL     1      -1.832   7.632  -8.098  1.00  0.00    -0.237 OA
ATOM     85  O   UNL     1      -0.144   5.876  -7.674  1.00  0.00    -0.237 OA
ATOM     86  O   UNL     1      -2.535   5.290  -7.763  1.00  0.00    -0.744 OA
ENDBRANCH  82  83
ENDBRANCH  54  77
BRANCH  66  87
ATOM     87  C   UNL     1      -2.787  12.962   0.716  1.00  0.00    -0.014 A 
ATOM     88  C   UNL     1      -3.968  13.436   0.118  1.00  0.00     0.010 A 
ATOM     89  C   UNL     1      -1.762  13.877   1.023  1.00  0.00     0.010 A 
ATOM     90  C   UNL     1      -4.110  14.793  -0.188  1.00  0.00     0.020 A 
ATOM     91  C   UNL     1      -1.912  15.238   0.745  1.00  0.00     0.020 A 
ATOM     92  C   UNL     1      -3.082  15.686   0.129  1.00  0.00     0.054 A 
BRANCH  92  93
ATOM     93  S   UNL     1      -3.312  17.450  -0.228  1.00  0.00     0.124 S 
ATOM     94  O   UNL     1      -3.175  17.487  -1.682  1.00  0.00    -0.237 OA
ATOM     95  O   UNL     1      -4.656  17.708   0.283  1.00  0.00    -0.237 OA
ATOM     96  O   UNL     1      -2.235  18.099   0.516  1.00  0.00    -0.744 OA
ENDBRANCH  92  93
ENDBRANCH  66  87
ENDBRANCH  40  41
ENDBRANCH  33  35
ENDBRANCH  32  33
ENDBRANCH  31  32
ENDBRANCH  30  31
ENDBRANCH  29  30
ENDBRANCH  28  29
ENDBRANCH   1  28
TORSDOF 24
