REMARK SMILES Cc1ccc(-c2c(C)sc(NC(=O)[C@H]3CC=CC[C@H]3C(=O)OCCOCCOCCOC(=O)c3ccc(-c4c5nc(c(-c6ccc(S(=O)(=O)[O-])cc6)c6ccc([nH]6)c(-c6ccc(S(=O)(=O)[O-])cc6)c6nc(c(-c7ccc(S(=O)(=O)[O-])cc7)c7ccc4[nH]7)C=C6)C=C5)cc3)c2C(N)=O)cc1
REMARK SMILES IDX 26 1 25 2 24 3 23 4 22 5 20 6 21 7 19 8 14 9 15 10 16 11
REMARK SMILES IDX 18 12 17 13 12 14 11 15 13 17 10 18 6 19 7 20 94 21 8 22
REMARK SMILES IDX 9 23 5 24 1 25 2 26 3 27 99 28 4 29 98 30 95 31 96 32 97 33
REMARK SMILES IDX 27 36 28 37 29 38 30 39 31 40 32 41 33 42 34 43 35 44 93 45
REMARK SMILES IDX 36 46 92 47 37 48 38 49 39 50 86 51 40 52 91 53 85 54 87 55
REMARK SMILES IDX 41 56 90 57 84 58 83 59 42 61 72 62 53 63 71 64 54 65 57 66
REMARK SMILES IDX 70 67 88 68 55 69 56 70 69 72 89 73 58 74 43 75 44 76 52 77
REMARK SMILES IDX 45 78 51 79 46 80 47 81 48 82 49 83 50 84 73 85 74 86 82 87
REMARK SMILES IDX 75 88 81 89 76 90 77 91 78 92 79 93 80 94 59 95 60 96 68 97
REMARK SMILES IDX 61 98 67 99 62 100 63 101 64 102 65 103 66 104
REMARK H PARENT 11 16 96 34 96 35 87 60 57 71
REMARK Flexibility Score: inf
ROOT
ATOM      1  C   UNL     1     -13.937  -2.646  -0.924  1.00  0.00     0.188 C 
ENDROOT
BRANCH   1   2
ATOM      2  O   UNL     1     -13.712  -4.016  -0.657  1.00  0.00    -0.376 OA
BRANCH   2   3
ATOM      3  C   UNL     1     -12.328  -4.332  -0.651  1.00  0.00     0.202 C 
BRANCH   3   4
ATOM      4  C   UNL     1     -11.283  -3.180  -0.468  1.00  0.00     0.261 C 
BRANCH   4   5
ATOM      5  O   UNL     1     -10.655  -2.104  -1.603  1.00  0.00    -0.463 OA
BRANCH   5   6
ATOM      6  C   UNL     1      -9.373  -1.749  -2.165  1.00  0.00     0.310 C 
ATOM      7  O   UNL     1      -9.072  -2.330  -3.215  1.00  0.00    -0.252 OA
BRANCH   6   8
ATOM      8  C   UNL     1      -8.274  -0.578  -1.813  1.00  0.00     0.116 C 
ATOM      9  C   UNL     1      -8.052   0.651  -0.814  1.00  0.00     0.097 C 
ATOM     10  C   UNL     1      -7.454   1.826  -1.623  1.00  0.00     0.041 C 
ATOM     11  C   UNL     1      -6.386   1.417  -2.601  1.00  0.00    -0.030 C 
ATOM     12  C   UNL     1      -6.847  -1.023  -2.268  1.00  0.00     0.043 C 
ATOM     13  C   UNL     1      -6.074   0.135  -2.849  1.00  0.00    -0.030 C 
BRANCH   9  14
ATOM     14  C   UNL     1      -7.416   0.578   0.659  1.00  0.00     0.229 C 
ATOM     15  N   UNL     1      -6.264  -0.026   1.098  1.00  0.00    -0.317 N 
ATOM     16  H   UNL     1      -6.390  -0.800   1.693  1.00  0.00     0.170 HD
ATOM     17  O   UNL     1      -8.061   1.092   1.594  1.00  0.00    -0.274 OA
BRANCH  15  18
ATOM     18  C   UNL     1      -4.943   0.308   0.815  1.00  0.00     0.109 A 
ATOM     19  C   UNL     1      -2.676   0.354   0.311  1.00  0.00     0.010 A 
ATOM     20  C   UNL     1      -3.240   1.181  -0.647  1.00  0.00     0.012 A 
ATOM     21  C   UNL     1      -3.683  -0.095   1.292  1.00  0.00     0.082 A 
ATOM     22  C   UNL     1      -2.745   1.696  -1.952  1.00  0.00     0.057 C 
ATOM     23  S   UNL     1      -4.694   1.772  -0.017  1.00  0.00    -0.122 S 
BRANCH  19  24
ATOM     24  C   UNL     1      -1.232   0.137   0.275  1.00  0.00    -0.016 A 
ATOM     25  C   UNL     1       3.044  -0.253  -0.083  1.00  0.00     0.044 C 
ATOM     26  C   UNL     1       1.556  -0.116   0.036  1.00  0.00    -0.051 A 
ATOM     27  C   UNL     1       0.727  -1.247  -0.029  1.00  0.00     0.004 A 
ATOM     28  C   UNL     1       0.982   1.140   0.239  1.00  0.00     0.004 A 
ATOM     29  C   UNL     1      -0.664  -1.122   0.080  1.00  0.00     0.009 A 
ATOM     30  C   UNL     1      -0.397   1.261   0.374  1.00  0.00     0.009 A 
ENDBRANCH  19  24
BRANCH  21  31
ATOM     31  C   UNL     1      -3.300  -0.856   2.495  1.00  0.00     0.252 C 
ATOM     32  N   UNL     1      -4.255  -1.172   3.428  1.00  0.00    -0.365 N 
ATOM     33  O   UNL     1      -2.161  -1.181   2.759  1.00  0.00    -0.269 OA
ATOM     34  H   UNL     1      -5.196  -0.933   3.269  1.00  0.00     0.159 HD
ATOM     35  H   UNL     1      -3.998  -1.637   4.257  1.00  0.00     0.159 HD
ENDBRANCH  21  31
ENDBRANCH  15  18
ENDBRANCH   9  14
ENDBRANCH   6   8
ENDBRANCH   5   6
ENDBRANCH   4   5
ENDBRANCH   3   4
ENDBRANCH   2   3
ENDBRANCH   1   2
BRANCH   1  36
ATOM     36  C   UNL     1     -14.091  -1.804   0.349  1.00  0.00     0.188 C 
BRANCH  36  37
ATOM     37  O   UNL     1     -13.053  -1.965   1.306  1.00  0.00    -0.376 OA
BRANCH  37  38
ATOM     38  C   UNL     1     -13.291  -2.693   2.493  1.00  0.00     0.202 C 
BRANCH  38  39
ATOM     39  C   UNL     1     -13.732  -1.684   3.548  1.00  0.00     0.261 C 
BRANCH  39  40
ATOM     40  O   UNL     1     -12.616  -0.948   4.120  1.00  0.00    -0.460 OA
BRANCH  40  41
ATOM     41  C   UNL     1     -12.026  -0.022   3.319  1.00  0.00     0.338 C 
ATOM     42  O   UNL     1     -12.448   1.107   3.129  1.00  0.00    -0.246 OA
BRANCH  41  43
ATOM     43  C   UNL     1     -10.829  -0.620   2.668  1.00  0.00     0.060 A 
ATOM     44  C   UNL     1     -10.628  -0.272   1.371  1.00  0.00     0.016 A 
ATOM     45  C   UNL     1     -10.084  -1.696   3.167  1.00  0.00     0.016 A 
ATOM     46  C   UNL     1      -9.792  -1.093   0.592  1.00  0.00     0.010 A 
ATOM     47  C   UNL     1      -9.275  -2.525   2.318  1.00  0.00     0.010 A 
ATOM     48  C   UNL     1      -9.100  -2.285   0.945  1.00  0.00    -0.014 A 
BRANCH  48  49
ATOM     49  C   UNL     1      -8.379  -3.451   0.002  1.00  0.00     0.031 A 
ATOM     50  C   UNL     1      -6.931  -3.634   0.302  1.00  0.00     0.074 A 
ATOM     51  C   UNL     1      -8.797  -4.358  -1.020  1.00  0.00     0.049 A 
ATOM     52  N   UNL     1      -6.054  -4.069  -0.545  1.00  0.00    -0.248 NA
ATOM     53  C   UNL     1      -6.345  -3.245   1.581  1.00  0.00     0.031 C 
ATOM     54  C   UNL     1      -8.287  -5.721  -1.278  1.00  0.00     0.029 A 
ATOM     55  N   UNL     1      -9.852  -4.388  -1.980  1.00  0.00    -0.354 N 
ATOM     56  C   UNL     1      -4.931  -4.353   0.189  1.00  0.00     0.074 A 
ATOM     57  C   UNL     1      -5.090  -3.661   1.437  1.00  0.00     0.031 C 
ATOM     58  C   UNL     1      -8.899  -6.289  -2.349  1.00  0.00     0.029 A 
ATOM     59  C   UNL     1      -9.777  -5.321  -2.985  1.00  0.00     0.049 A 
ATOM     60  H   UNL     1     -10.609  -3.760  -1.924  1.00  0.00     0.167 HD
ATOM     61  C   UNL     1      -4.097  -5.374  -0.139  1.00  0.00     0.031 A 
ATOM     62  C   UNL     1     -10.064  -5.061  -4.311  1.00  0.00     0.031 A 
ATOM     63  C   UNL     1      -4.607  -6.157  -1.255  1.00  0.00     0.049 A 
ATOM     64  C   UNL     1      -8.806  -5.388  -5.064  1.00  0.00     0.074 A 
ATOM     65  C   UNL     1      -5.289  -7.364  -1.290  1.00  0.00     0.029 A 
ATOM     66  N   UNL     1      -4.744  -5.596  -2.520  1.00  0.00    -0.354 N 
ATOM     67  N   UNL     1      -7.658  -5.441  -4.454  1.00  0.00    -0.248 NA
ATOM     68  C   UNL     1      -8.695  -5.694  -6.484  1.00  0.00     0.031 C 
ATOM     69  C   UNL     1      -5.790  -7.555  -2.598  1.00  0.00     0.029 A 
ATOM     70  C   UNL     1      -5.409  -6.467  -3.363  1.00  0.00     0.049 A 
ATOM     71  H   UNL     1      -4.414  -4.705  -2.778  1.00  0.00     0.167 HD
ATOM     72  C   UNL     1      -6.711  -5.921  -5.293  1.00  0.00     0.074 A 
ATOM     73  C   UNL     1      -7.386  -6.006  -6.577  1.00  0.00     0.031 C 
ATOM     74  C   UNL     1      -5.480  -6.230  -4.803  1.00  0.00     0.031 A 
BRANCH  61  75
ATOM     75  C   UNL     1      -3.104  -5.875   0.886  1.00  0.00    -0.014 A 
ATOM     76  C   UNL     1      -2.931  -7.256   1.080  1.00  0.00     0.010 A 
ATOM     77  C   UNL     1      -2.373  -5.018   1.738  1.00  0.00     0.010 A 
ATOM     78  C   UNL     1      -2.168  -7.761   2.139  1.00  0.00     0.020 A 
ATOM     79  C   UNL     1      -1.648  -5.508   2.834  1.00  0.00     0.020 A 
ATOM     80  C   UNL     1      -1.552  -6.883   3.027  1.00  0.00     0.054 A 
BRANCH  80  81
ATOM     81  S   UNL     1      -0.633  -7.571   4.428  1.00  0.00     0.124 S 
ATOM     82  O   UNL     1      -1.578  -8.535   4.987  1.00  0.00    -0.237 OA
ATOM     83  O   UNL     1       0.538  -8.145   3.773  1.00  0.00    -0.237 OA
ATOM     84  O   UNL     1      -0.372  -6.410   5.276  1.00  0.00    -0.744 OA
ENDBRANCH  80  81
ENDBRANCH  61  75
BRANCH  62  85
ATOM     85  C   UNL     1     -11.032  -3.947  -4.734  1.00  0.00    -0.014 A 
ATOM     86  C   UNL     1     -12.390  -4.005  -4.353  1.00  0.00     0.010 A 
ATOM     87  C   UNL     1     -10.591  -2.707  -5.243  1.00  0.00     0.010 A 
ATOM     88  C   UNL     1     -13.178  -2.837  -4.225  1.00  0.00     0.020 A 
ATOM     89  C   UNL     1     -11.336  -1.521  -5.024  1.00  0.00     0.020 A 
ATOM     90  C   UNL     1     -12.597  -1.588  -4.437  1.00  0.00     0.054 A 
BRANCH  90  91
ATOM     91  S   UNL     1     -13.297  -0.074  -3.663  1.00  0.00     0.124 S 
ATOM     92  O   UNL     1     -13.659   0.746  -4.813  1.00  0.00    -0.237 OA
ATOM     93  O   UNL     1     -14.432  -0.564  -2.883  1.00  0.00    -0.237 OA
ATOM     94  O   UNL     1     -12.179   0.417  -2.857  1.00  0.00    -0.744 OA
ENDBRANCH  90  91
ENDBRANCH  62  85
BRANCH  74  95
ATOM     95  C   UNL     1      -4.240  -6.494  -5.597  1.00  0.00    -0.014 A 
ATOM     96  C   UNL     1      -4.131  -6.305  -6.976  1.00  0.00     0.010 A 
ATOM     97  C   UNL     1      -3.062  -6.849  -4.894  1.00  0.00     0.010 A 
ATOM     98  C   UNL     1      -2.913  -6.504  -7.629  1.00  0.00     0.020 A 
ATOM     99  C   UNL     1      -1.833  -6.996  -5.522  1.00  0.00     0.020 A 
ATOM    100  C   UNL     1      -1.774  -6.843  -6.897  1.00  0.00     0.054 A 
BRANCH 100 101
ATOM    101  S   UNL     1      -0.208  -7.040  -7.762  1.00  0.00     0.124 S 
ATOM    102  O   UNL     1      -0.406  -8.314  -8.448  1.00  0.00    -0.237 OA
ATOM    103  O   UNL     1      -0.174  -5.860  -8.623  1.00  0.00    -0.237 OA
ATOM    104  O   UNL     1       0.784  -7.052  -6.690  1.00  0.00    -0.744 OA
ENDBRANCH 100 101
ENDBRANCH  74  95
ENDBRANCH  48  49
ENDBRANCH  41  43
ENDBRANCH  40  41
ENDBRANCH  39  40
ENDBRANCH  38  39
ENDBRANCH  37  38
ENDBRANCH  36  37
ENDBRANCH   1  36
TORSDOF 24
