REMARK SMILES CC(C)C[C@H](NC(=O)CNC(=O)[C@@H](NC(=O)OCc1ccccc1)C(C)C)C(=O)N[C@@H](C)C(=O)OCCOCCOCCOC(=O)c1ccc(-c2c3nc(c(-c4ccc(S(=O)(=O)[O-])cc4)c4ccc([nH]4)c(-c4ccc(S(=O)(=O)[O-])cc4)c4nc(c(-c5ccc(S(=O)(=O)[O-])cc5)c5ccc2[nH]5)C=C4)C=C3)cc1
REMARK SMILES IDX 36 1 35 2 33 3 34 4 31 5 32 6 30 7 28 8 29 9 5 11 4 12 2 13
REMARK SMILES IDX 1 14 3 15 6 16 7 17 8 19 9 20 10 21 11 22 12 24 13 25 14 26
REMARK SMILES IDX 15 27 16 29 17 30 18 31 19 32 20 33 24 34 21 35 23 36 22 37
REMARK SMILES IDX 25 38 26 39 27 40 37 41 38 42 39 43 40 44 41 45 42 46 43 47
REMARK SMILES IDX 44 48 45 49 46 50 47 51 48 52 106 53 49 54 105 55 50 56
REMARK SMILES IDX 51 57 52 58 99 59 53 60 104 61 98 62 100 63 54 64 103 65
REMARK SMILES IDX 97 66 96 67 55 69 85 70 66 71 84 72 67 73 70 74 83 75 101 76
REMARK SMILES IDX 68 77 69 78 82 80 102 81 71 82 56 83 57 84 65 85 58 86 64 87
REMARK SMILES IDX 59 88 60 89 61 90 62 91 63 92 86 93 87 94 95 95 88 96 94 97
REMARK SMILES IDX 89 98 90 99 91 100 92 101 93 102 72 103 73 104 81 105 74 106
REMARK SMILES IDX 80 107 75 108 76 109 77 110 78 111 79 112
REMARK H PARENT 30 10 6 18 10 23 14 28 100 68 70 79
REMARK Flexibility Score: inf
ROOT
ATOM      1  C   UNL     1      -5.396  -5.701   2.138  1.00  0.00     0.261 C 
ENDROOT
BRANCH   1   2
ATOM      2  O   UNL     1      -5.094  -4.323   1.774  1.00  0.00    -0.462 OA
BRANCH   2   3
ATOM      3  C   UNL     1      -5.308  -3.405   2.758  1.00  0.00     0.328 C 
ATOM      4  O   UNL     1      -5.982  -3.659   3.757  1.00  0.00    -0.250 OA
BRANCH   3   5
ATOM      5  C   UNL     1      -4.470  -2.078   2.676  1.00  0.00     0.189 C 
ATOM      6  C   UNL     1      -5.268  -0.951   3.325  1.00  0.00     0.043 C 
BRANCH   5   7
ATOM      7  N   UNL     1      -3.718  -1.592   1.506  1.00  0.00    -0.341 N 
ATOM      8  C   UNL     1      -2.367  -1.374   1.271  1.00  0.00     0.243 C 
ATOM      9  O   UNL     1      -2.076  -1.068   0.104  1.00  0.00    -0.273 OA
ATOM     10  H   UNL     1      -4.290  -1.378   0.733  1.00  0.00     0.164 HD
BRANCH   8  11
ATOM     11  C   UNL     1      -1.205  -1.401   2.380  1.00  0.00     0.171 C 
BRANCH  11  12
ATOM     12  C   UNL     1       0.205  -2.014   2.016  1.00  0.00     0.038 C 
BRANCH  12  13
ATOM     13  C   UNL     1       1.167  -2.557   3.159  1.00  0.00    -0.015 C 
ATOM     14  C   UNL     1       1.256  -4.090   3.322  1.00  0.00     0.007 C 
ATOM     15  C   UNL     1       2.629  -2.170   2.940  1.00  0.00     0.007 C 
ENDBRANCH  12  13
ENDBRANCH  11  12
BRANCH  11  16
ATOM     16  N   UNL     1      -1.573  -1.684   3.743  1.00  0.00    -0.343 N 
ATOM     17  C   UNL     1      -1.785  -2.856   4.386  1.00  0.00     0.240 C 
ATOM     18  H   UNL     1      -1.691  -0.885   4.306  1.00  0.00     0.164 HD
ATOM     19  O   UNL     1      -2.042  -2.748   5.593  1.00  0.00    -0.273 OA
BRANCH  17  20
ATOM     20  C   UNL     1      -1.998  -4.225   3.675  1.00  0.00     0.216 C 
BRANCH  20  21
ATOM     21  N   UNL     1      -1.320  -4.710   2.469  1.00  0.00    -0.345 N 
ATOM     22  C   UNL     1      -1.651  -4.528   1.165  1.00  0.00     0.243 C 
ATOM     23  H   UNL     1      -0.508  -5.245   2.628  1.00  0.00     0.164 HD
ATOM     24  O   UNL     1      -2.622  -3.848   0.851  1.00  0.00    -0.273 OA
BRANCH  22  25
ATOM     25  C   UNL     1      -0.778  -5.137   0.024  1.00  0.00     0.177 C 
BRANCH  25  26
ATOM     26  N   UNL     1      -0.154  -4.061  -0.807  1.00  0.00    -0.309 N 
ATOM     27  C   UNL     1       0.986  -3.323  -0.937  1.00  0.00     0.408 C 
ATOM     28  H   UNL     1      -0.791  -3.789  -1.507  1.00  0.00     0.167 HD
ATOM     29  O   UNL     1       0.887  -2.221  -1.498  1.00  0.00    -0.225 OA
BRANCH  27  30
ATOM     30  O   UNL     1       2.143  -3.791  -0.437  1.00  0.00    -0.445 OA
BRANCH  30  31
ATOM     31  C   UNL     1       3.207  -2.806  -0.257  1.00  0.00     0.270 C 
BRANCH  31  32
ATOM     32  C   UNL     1       4.177  -2.280  -1.310  1.00  0.00    -0.011 A 
ATOM     33  C   UNL     1       5.438  -1.809  -0.867  1.00  0.00     0.007 A 
ATOM     34  C   UNL     1       3.868  -2.092  -2.654  1.00  0.00     0.007 A 
ATOM     35  C   UNL     1       6.364  -1.232  -1.743  1.00  0.00     0.000 A 
ATOM     36  C   UNL     1       4.795  -1.514  -3.535  1.00  0.00     0.000 A 
ATOM     37  C   UNL     1       6.044  -1.093  -3.086  1.00  0.00     0.000 A 
ENDBRANCH  31  32
ENDBRANCH  30  31
ENDBRANCH  27  30
ENDBRANCH  25  26
BRANCH  25  38
ATOM     38  C   UNL     1      -0.119  -6.516   0.252  1.00  0.00     0.015 C 
ATOM     39  C   UNL     1      -0.931  -7.470   1.156  1.00  0.00     0.010 C 
ATOM     40  C   UNL     1      -0.061  -7.268  -1.084  1.00  0.00     0.010 C 
ENDBRANCH  25  38
ENDBRANCH  22  25
ENDBRANCH  20  21
ENDBRANCH  17  20
ENDBRANCH  11  16
ENDBRANCH   8  11
ENDBRANCH   5   7
ENDBRANCH   3   5
ENDBRANCH   2   3
ENDBRANCH   1   2
BRANCH   1  41
ATOM     41  C   UNL     1      -5.934  -6.561   0.984  1.00  0.00     0.202 C 
BRANCH  41  42
ATOM     42  O   UNL     1      -4.971  -7.049   0.055  1.00  0.00    -0.376 OA
BRANCH  42  43
ATOM     43  C   UNL     1      -4.217  -6.060  -0.630  1.00  0.00     0.188 C 
BRANCH  43  44
ATOM     44  C   UNL     1      -4.984  -4.944  -1.346  1.00  0.00     0.188 C 
BRANCH  44  45
ATOM     45  O   UNL     1      -6.130  -5.375  -2.074  1.00  0.00    -0.376 OA
BRANCH  45  46
ATOM     46  C   UNL     1      -5.953  -6.519  -2.906  1.00  0.00     0.202 C 
BRANCH  46  47
ATOM     47  C   UNL     1      -5.130  -6.265  -4.170  1.00  0.00     0.261 C 
BRANCH  47  48
ATOM     48  O   UNL     1      -3.701  -6.246  -3.936  1.00  0.00    -0.460 OA
BRANCH  48  49
ATOM     49  C   UNL     1      -3.053  -5.152  -4.404  1.00  0.00     0.338 C 
ATOM     50  O   UNL     1      -3.594  -4.141  -4.853  1.00  0.00    -0.246 OA
BRANCH  49  51
ATOM     51  C   UNL     1      -1.575  -5.257  -4.290  1.00  0.00     0.060 A 
ATOM     52  C   UNL     1      -0.859  -4.072  -4.115  1.00  0.00     0.016 A 
ATOM     53  C   UNL     1      -0.866  -6.457  -4.441  1.00  0.00     0.016 A 
ATOM     54  C   UNL     1       0.541  -4.088  -4.068  1.00  0.00     0.010 A 
ATOM     55  C   UNL     1       0.551  -6.465  -4.409  1.00  0.00     0.010 A 
ATOM     56  C   UNL     1       1.275  -5.281  -4.200  1.00  0.00    -0.014 A 
BRANCH  56  57
ATOM     57  C   UNL     1       2.775  -5.204  -4.244  1.00  0.00     0.031 A 
ATOM     58  C   UNL     1       3.405  -4.526  -5.431  1.00  0.00     0.074 A 
ATOM     59  C   UNL     1       3.578  -5.561  -3.215  1.00  0.00     0.049 A 
ATOM     60  N   UNL     1       4.639  -4.128  -5.595  1.00  0.00    -0.248 NA
ATOM     61  C   UNL     1       2.514  -4.220  -6.562  1.00  0.00     0.031 C 
ATOM     62  C   UNL     1       3.126  -6.137  -1.962  1.00  0.00     0.029 A 
ATOM     63  N   UNL     1       4.937  -5.410  -3.011  1.00  0.00    -0.354 N 
ATOM     64  C   UNL     1       4.655  -3.450  -6.803  1.00  0.00     0.074 A 
ATOM     65  C   UNL     1       3.322  -3.539  -7.361  1.00  0.00     0.031 C 
ATOM     66  C   UNL     1       4.141  -6.222  -1.089  1.00  0.00     0.029 A 
ATOM     67  C   UNL     1       5.349  -5.724  -1.728  1.00  0.00     0.049 A 
ATOM     68  H   UNL     1       5.555  -5.107  -3.715  1.00  0.00     0.167 HD
ATOM     69  C   UNL     1       5.678  -2.786  -7.388  1.00  0.00     0.031 A 
ATOM     70  C   UNL     1       6.539  -5.588  -1.105  1.00  0.00     0.031 A 
ATOM     71  C   UNL     1       7.023  -2.746  -6.893  1.00  0.00     0.049 A 
ATOM     72  C   UNL     1       7.702  -5.025  -1.873  1.00  0.00     0.074 A 
ATOM     73  C   UNL     1       8.147  -2.224  -7.509  1.00  0.00     0.029 A 
ATOM     74  N   UNL     1       7.435  -3.255  -5.672  1.00  0.00    -0.354 N 
ATOM     75  N   UNL     1       7.712  -4.456  -3.052  1.00  0.00    -0.248 NA
ATOM     76  C   UNL     1       9.024  -5.103  -1.230  1.00  0.00     0.031 C 
ATOM     77  C   UNL     1       9.249  -2.458  -6.680  1.00  0.00     0.029 A 
ATOM     78  C   UNL     1       8.802  -3.083  -5.528  1.00  0.00     0.049 A 
ATOM     79  H   UNL     1       6.844  -3.675  -5.006  1.00  0.00     0.167 HD
ATOM     80  C   UNL     1       9.032  -4.096  -3.286  1.00  0.00     0.074 A 
ATOM     81  C   UNL     1       9.793  -4.488  -2.119  1.00  0.00     0.031 C 
ATOM     82  C   UNL     1       9.563  -3.500  -4.380  1.00  0.00     0.031 A 
BRANCH  69  83
ATOM     83  C   UNL     1       5.362  -2.086  -8.673  1.00  0.00    -0.014 A 
ATOM     84  C   UNL     1       4.758  -0.816  -8.662  1.00  0.00     0.010 A 
ATOM     85  C   UNL     1       5.654  -2.709  -9.897  1.00  0.00     0.010 A 
ATOM     86  C   UNL     1       4.423  -0.191  -9.864  1.00  0.00     0.020 A 
ATOM     87  C   UNL     1       5.328  -2.082 -11.100  1.00  0.00     0.020 A 
ATOM     88  C   UNL     1       4.701  -0.833 -11.075  1.00  0.00     0.054 A 
BRANCH  88  89
ATOM     89  S   UNL     1       4.245  -0.007 -12.623  1.00  0.00     0.124 S 
ATOM     90  O   UNL     1       2.791  -0.148 -12.622  1.00  0.00    -0.237 OA
ATOM     91  O   UNL     1       4.747   1.349 -12.423  1.00  0.00    -0.237 OA
ATOM     92  O   UNL     1       4.943  -0.782 -13.647  1.00  0.00    -0.744 OA
ENDBRANCH  88  89
ENDBRANCH  69  83
BRANCH  70  93
ATOM     93  C   UNL     1       6.724  -5.989   0.325  1.00  0.00    -0.014 A 
ATOM     94  C   UNL     1       7.087  -5.035   1.296  1.00  0.00     0.010 A 
ATOM     95  C   UNL     1       6.612  -7.337   0.714  1.00  0.00     0.010 A 
ATOM     96  C   UNL     1       7.366  -5.423   2.612  1.00  0.00     0.020 A 
ATOM     97  C   UNL     1       6.861  -7.725   2.035  1.00  0.00     0.020 A 
ATOM     98  C   UNL     1       7.259  -6.769   2.971  1.00  0.00     0.054 A 
BRANCH  98  99
ATOM     99  S   UNL     1       7.609  -7.265   4.683  1.00  0.00     0.124 S 
ATOM    100  O   UNL     1       9.064  -7.377   4.673  1.00  0.00    -0.237 OA
ATOM    101  O   UNL     1       7.063  -6.154   5.458  1.00  0.00    -0.237 OA
ATOM    102  O   UNL     1       6.881  -8.524   4.821  1.00  0.00    -0.744 OA
ENDBRANCH  98  99
ENDBRANCH  70  93
BRANCH  82 103
ATOM    103  C   UNL     1      11.049  -3.271  -4.391  1.00  0.00    -0.014 A 
ATOM    104  C   UNL     1      11.935  -4.350  -4.556  1.00  0.00     0.010 A 
ATOM    105  C   UNL     1      11.564  -1.966  -4.300  1.00  0.00     0.010 A 
ATOM    106  C   UNL     1      13.313  -4.131  -4.614  1.00  0.00     0.020 A 
ATOM    107  C   UNL     1      12.941  -1.741  -4.381  1.00  0.00     0.020 A 
ATOM    108  C   UNL     1      13.808  -2.827  -4.529  1.00  0.00     0.054 A 
BRANCH 108 109
ATOM    109  S   UNL     1      15.596  -2.560  -4.679  1.00  0.00     0.124 S 
ATOM    110  O   UNL     1      16.074  -2.959  -3.358  1.00  0.00    -0.237 OA
ATOM    111  O   UNL     1      15.965  -3.452  -5.776  1.00  0.00    -0.237 OA
ATOM    112  O   UNL     1      15.708  -1.135  -4.979  1.00  0.00    -0.744 OA
ENDBRANCH 108 109
ENDBRANCH  82 103
ENDBRANCH  56  57
ENDBRANCH  49  51
ENDBRANCH  48  49
ENDBRANCH  47  48
ENDBRANCH  46  47
ENDBRANCH  45  46
ENDBRANCH  44  45
ENDBRANCH  43  44
ENDBRANCH  42  43
ENDBRANCH  41  42
ENDBRANCH   1  41
TORSDOF 33
