REMARK SMILES COc1ccc2[nH]c(C(=O)c3cc(C)ccn3)c(CC(=O)OCCOCCOCCOC(=O)c3ccc(-c4c5nc(c(-c6ccc(S(=O)(=O)[O-])cc6)c6ccc([nH]6)c(-c6ccc(S(=O)(=O)[O-])cc6)c6nc(c(-c7ccc(S(=O)(=O)[O-])cc7)c7ccc4[nH]7)C=C6)C=C5)cc3)c2c1
REMARK SMILES IDX 26 1 25 2 24 3 23 4 22 5 20 6 21 7 19 8 18 9 3 10 4 11 95 12
REMARK SMILES IDX 5 13 94 14 6 15 7 16 8 17 2 19 1 20 9 21 10 22 11 23 12 24
REMARK SMILES IDX 17 25 13 26 16 27 14 28 15 29 27 30 28 31 29 32 30 33 31 34
REMARK SMILES IDX 32 35 33 36 34 37 35 38 93 39 36 40 92 41 37 42 38 43 39 44
REMARK SMILES IDX 86 45 40 46 91 47 85 48 87 49 41 50 90 51 84 52 83 53 42 55
REMARK SMILES IDX 72 56 53 57 71 58 54 59 57 60 70 61 88 62 55 63 56 64 69 66
REMARK SMILES IDX 89 67 58 68 43 69 44 70 52 71 45 72 51 73 46 74 47 75 48 76
REMARK SMILES IDX 49 77 50 78 73 79 74 80 82 81 75 82 81 83 76 84 77 85 78 86
REMARK SMILES IDX 79 87 80 88 59 89 60 90 68 91 61 92 67 93 62 94 63 95 64 96
REMARK SMILES IDX 65 97 66 98
REMARK H PARENT 7 18 87 54 57 65
REMARK Flexibility Score: inf
ROOT
ATOM      1  C   UNL     1      -2.590  -8.308   2.513  1.00  0.00     0.188 C 
ENDROOT
BRANCH   1   2
ATOM      2  O   UNL     1      -3.754  -8.395   1.695  1.00  0.00    -0.376 OA
BRANCH   2   3
ATOM      3  C   UNL     1      -3.862  -7.511   0.587  1.00  0.00     0.202 C 
BRANCH   3   4
ATOM      4  C   UNL     1      -3.810  -6.010   0.908  1.00  0.00     0.261 C 
BRANCH   4   5
ATOM      5  O   UNL     1      -2.589  -5.631   1.582  1.00  0.00    -0.463 OA
BRANCH   5   6
ATOM      6  C   UNL     1      -2.702  -4.741   2.604  1.00  0.00     0.310 C 
ATOM      7  O   UNL     1      -3.714  -4.074   2.802  1.00  0.00    -0.252 OA
BRANCH   6   8
ATOM      8  C   UNL     1      -1.542  -4.775   3.599  1.00  0.00     0.161 C 
BRANCH   8   9
ATOM      9  C   UNL     1      -0.122  -4.787   3.071  1.00  0.00     0.000 A 
ATOM     10  C   UNL     1       0.976  -1.564   1.337  1.00  0.00     0.119 A 
ATOM     11  C   UNL     1       2.311  -1.929   1.170  1.00  0.00     0.048 A 
ATOM     12  C   UNL     1       0.054  -2.455   1.900  1.00  0.00     0.057 A 
ATOM     13  C   UNL     1       2.755  -3.205   1.525  1.00  0.00     0.030 A 
ATOM     14  C   UNL     1       0.491  -3.725   2.323  1.00  0.00     0.008 A 
ATOM     15  C   UNL     1       1.824  -4.067   2.112  1.00  0.00     0.046 A 
ATOM     16  N   UNL     1       1.998  -5.325   2.628  1.00  0.00    -0.352 N 
ATOM     17  C   UNL     1       0.930  -5.644   3.437  1.00  0.00     0.093 A 
ATOM     18  H   UNL     1       2.769  -5.910   2.448  1.00  0.00     0.167 HD
BRANCH  10  19
ATOM     19  O   UNL     1       0.495  -0.309   1.071  1.00  0.00    -0.497 OA
ATOM     20  C   UNL     1       0.964   0.239  -0.154  1.00  0.00     0.278 C 
ENDBRANCH  10  19
BRANCH  17  21
ATOM     21  C   UNL     1       1.012  -6.627   4.510  1.00  0.00     0.227 C 
ATOM     22  O   UNL     1       0.199  -6.680   5.426  1.00  0.00    -0.285 OA
BRANCH  21  23
ATOM     23  C   UNL     1       2.162  -7.583   4.537  1.00  0.00     0.113 A 
ATOM     24  C   UNL     1       3.232  -7.383   5.406  1.00  0.00     0.036 A 
ATOM     25  N   UNL     1       2.047  -8.656   3.713  1.00  0.00    -0.253 NA
ATOM     26  C   UNL     1       4.231  -8.364   5.463  1.00  0.00    -0.047 A 
ATOM     27  C   UNL     1       2.988  -9.618   3.847  1.00  0.00     0.112 A 
ATOM     28  C   UNL     1       5.447  -8.219   6.330  1.00  0.00     0.044 C 
ATOM     29  C   UNL     1       4.076  -9.522   4.698  1.00  0.00     0.023 A 
ENDBRANCH  21  23
ENDBRANCH  17  21
ENDBRANCH   8   9
ENDBRANCH   6   8
ENDBRANCH   5   6
ENDBRANCH   4   5
ENDBRANCH   3   4
ENDBRANCH   2   3
ENDBRANCH   1   2
BRANCH   1  30
ATOM     30  C   UNL     1      -1.216  -8.108   1.833  1.00  0.00     0.188 C 
BRANCH  30  31
ATOM     31  O   UNL     1      -1.168  -8.565   0.488  1.00  0.00    -0.376 OA
BRANCH  31  32
ATOM     32  C   UNL     1      -0.317  -9.682   0.282  1.00  0.00     0.202 C 
BRANCH  32  33
ATOM     33  C   UNL     1      -0.856 -10.959   0.927  1.00  0.00     0.261 C 
BRANCH  33  34
ATOM     34  O   UNL     1      -0.950 -10.838   2.365  1.00  0.00    -0.460 OA
BRANCH  34  35
ATOM     35  C   UNL     1       0.001 -11.423   3.113  1.00  0.00     0.338 C 
ATOM     36  O   UNL     1       0.931 -12.107   2.686  1.00  0.00    -0.246 OA
BRANCH  35  37
ATOM     37  C   UNL     1      -0.224 -11.181   4.562  1.00  0.00     0.060 A 
ATOM     38  C   UNL     1      -0.498  -9.914   5.086  1.00  0.00     0.016 A 
ATOM     39  C   UNL     1      -0.036 -12.242   5.445  1.00  0.00     0.016 A 
ATOM     40  C   UNL     1      -0.512  -9.692   6.470  1.00  0.00     0.010 A 
ATOM     41  C   UNL     1      -0.120 -12.034   6.829  1.00  0.00     0.010 A 
ATOM     42  C   UNL     1      -0.329 -10.750   7.365  1.00  0.00    -0.014 A 
BRANCH  42  43
ATOM     43  C   UNL     1      -0.312 -10.545   8.844  1.00  0.00     0.031 A 
ATOM     44  C   UNL     1       0.901 -10.947   9.647  1.00  0.00     0.074 A 
ATOM     45  C   UNL     1      -1.380 -10.039   9.496  1.00  0.00     0.049 A 
ATOM     46  N   UNL     1       1.026 -11.111  10.940  1.00  0.00    -0.248 NA
ATOM     47  C   UNL     1       2.136 -11.207   8.888  1.00  0.00     0.031 C 
ATOM     48  C   UNL     1      -2.595  -9.517   8.870  1.00  0.00     0.029 A 
ATOM     49  N   UNL     1      -1.619  -9.902  10.845  1.00  0.00    -0.354 N 
ATOM     50  C   UNL     1       2.330 -11.549  11.146  1.00  0.00     0.074 A 
ATOM     51  C   UNL     1       2.957 -11.623   9.843  1.00  0.00     0.031 C 
ATOM     52  C   UNL     1      -3.446  -9.116   9.827  1.00  0.00     0.029 A 
ATOM     53  C   UNL     1      -2.880  -9.433  11.134  1.00  0.00     0.049 A 
ATOM     54  H   UNL     1      -0.952 -10.117  11.536  1.00  0.00     0.167 HD
ATOM     55  C   UNL     1       2.944 -11.871  12.312  1.00  0.00     0.031 A 
ATOM     56  C   UNL     1      -3.538  -9.323  12.307  1.00  0.00     0.031 A 
ATOM     57  C   UNL     1       2.328 -11.775  13.612  1.00  0.00     0.049 A 
ATOM     58  C   UNL     1      -2.870  -9.768  13.580  1.00  0.00     0.074 A 
ATOM     59  C   UNL     1       2.876 -12.082  14.847  1.00  0.00     0.029 A 
ATOM     60  N   UNL     1       1.036 -11.334  13.850  1.00  0.00    -0.354 N 
ATOM     61  N   UNL     1      -1.660 -10.243  13.756  1.00  0.00    -0.248 NA
ATOM     62  C   UNL     1      -3.664  -9.673  14.814  1.00  0.00     0.031 C 
ATOM     63  C   UNL     1       1.897 -11.878  15.825  1.00  0.00     0.029 A 
ATOM     64  C   UNL     1       0.761 -11.383  15.208  1.00  0.00     0.049 A 
ATOM     65  H   UNL     1       0.406 -11.031  13.157  1.00  0.00     0.167 HD
ATOM     66  C   UNL     1      -1.542 -10.482  15.122  1.00  0.00     0.074 A 
ATOM     67  C   UNL     1      -2.795 -10.083  15.728  1.00  0.00     0.031 C 
ATOM     68  C   UNL     1      -0.488 -10.988  15.809  1.00  0.00     0.031 A 
BRANCH  55  69
ATOM     69  C   UNL     1       4.348 -12.415  12.236  1.00  0.00    -0.014 A 
ATOM     70  C   UNL     1       5.444 -11.594  11.918  1.00  0.00     0.010 A 
ATOM     71  C   UNL     1       4.576 -13.772  12.537  1.00  0.00     0.010 A 
ATOM     72  C   UNL     1       6.735 -12.129  11.862  1.00  0.00     0.020 A 
ATOM     73  C   UNL     1       5.869 -14.304  12.511  1.00  0.00     0.020 A 
ATOM     74  C   UNL     1       6.938 -13.482  12.153  1.00  0.00     0.054 A 
BRANCH  74  75
ATOM     75  S   UNL     1       8.624 -14.146  12.077  1.00  0.00     0.124 S 
ATOM     76  O   UNL     1       8.870 -14.171  10.637  1.00  0.00    -0.237 OA
ATOM     77  O   UNL     1       9.393 -13.156  12.827  1.00  0.00    -0.237 OA
ATOM     78  O   UNL     1       8.512 -15.457  12.712  1.00  0.00    -0.744 OA
ENDBRANCH  74  75
ENDBRANCH  55  69
BRANCH  56  79
ATOM     79  C   UNL     1      -4.943  -8.825  12.325  1.00  0.00    -0.014 A 
ATOM     80  C   UNL     1      -5.258  -7.590  12.916  1.00  0.00     0.010 A 
ATOM     81  C   UNL     1      -5.975  -9.588  11.748  1.00  0.00     0.010 A 
ATOM     82  C   UNL     1      -6.579  -7.132  12.940  1.00  0.00     0.020 A 
ATOM     83  C   UNL     1      -7.291  -9.119  11.739  1.00  0.00     0.020 A 
ATOM     84  C   UNL     1      -7.587  -7.899  12.347  1.00  0.00     0.054 A 
BRANCH  84  85
ATOM     85  S   UNL     1      -9.285  -7.260  12.341  1.00  0.00     0.124 S 
ATOM     86  O   UNL     1      -9.687  -7.452  13.731  1.00  0.00    -0.237 OA
ATOM     87  O   UNL     1      -9.101  -5.873  11.921  1.00  0.00    -0.237 OA
ATOM     88  O   UNL     1      -9.967  -8.112  11.369  1.00  0.00    -0.744 OA
ENDBRANCH  84  85
ENDBRANCH  56  79
BRANCH  68  89
ATOM     89  C   UNL     1      -0.624 -11.101  17.307  1.00  0.00    -0.014 A 
ATOM     90  C   UNL     1      -1.462 -12.064  17.897  1.00  0.00     0.010 A 
ATOM     91  C   UNL     1       0.127 -10.249  18.138  1.00  0.00     0.010 A 
ATOM     92  C   UNL     1      -1.574 -12.148  19.288  1.00  0.00     0.020 A 
ATOM     93  C   UNL     1       0.040 -10.349  19.529  1.00  0.00     0.020 A 
ATOM     94  C   UNL     1      -0.823 -11.288  20.096  1.00  0.00     0.054 A 
BRANCH  94  95
ATOM     95  S   UNL     1      -0.961 -11.438  21.899  1.00  0.00     0.124 S 
ATOM     96  O   UNL     1      -2.277 -10.858  22.153  1.00  0.00    -0.237 OA
ATOM     97  O   UNL     1      -0.857 -12.879  22.111  1.00  0.00    -0.237 OA
ATOM     98  O   UNL     1       0.170 -10.659  22.399  1.00  0.00    -0.744 OA
ENDBRANCH  94  95
ENDBRANCH  68  89
ENDBRANCH  42  43
ENDBRANCH  35  37
ENDBRANCH  34  35
ENDBRANCH  33  34
ENDBRANCH  32  33
ENDBRANCH  31  32
ENDBRANCH  30  31
ENDBRANCH   1  30
TORSDOF 24
