REMARK SMILES CCC[N@@H+](CC1CC[NH2+]CC1)[C@@H](CC)C(=O)OCCOCCOCCOC(=O)c1ccc(-c2c3nc(c(-c4ccc(S(=O)(=O)[O-])cc4)c4ccc([nH]4)c(-c4ccc(S(=O)(=O)[O-])cc4)c4nc(c(-c5ccc(S(=O)(=O)[O-])cc5)c5ccc2[nH]5)C=C4)C=C3)cc1
REMARK SMILES IDX 21 1 20 2 19 3 18 4 17 5 15 6 16 7 12 8 4 9 3 11 2 12 1 13
REMARK SMILES IDX 5 14 6 15 7 16 11 17 8 18 10 19 9 20 13 23 14 24 22 25 23 26
REMARK SMILES IDX 24 27 25 28 26 29 27 30 28 31 29 32 30 33 88 34 31 35 87 36
REMARK SMILES IDX 32 37 33 38 34 39 81 40 35 41 86 42 80 43 82 44 36 45 85 46
REMARK SMILES IDX 79 47 78 48 37 50 67 51 48 52 66 53 49 54 52 55 65 56 83 57
REMARK SMILES IDX 50 58 51 59 64 61 84 62 53 63 38 64 39 65 47 66 40 67 46 68
REMARK SMILES IDX 41 69 42 70 43 71 44 72 45 73 68 74 69 75 77 76 70 77 76 78
REMARK SMILES IDX 71 79 72 80 73 81 74 82 75 83 54 84 55 85 63 86 56 87 62 88
REMARK SMILES IDX 57 89 58 90 59 91 60 92 61 93
REMARK H PARENT 4 10 9 21 9 22 82 49 52 60
REMARK Flexibility Score: inf
ROOT
ATOM      1  C   UNL     1      -1.609   0.748  -0.283  1.00  0.00     0.188 C 
ENDROOT
BRANCH   1   2
ATOM      2  O   UNL     1      -2.187  -0.028  -1.322  1.00  0.00    -0.376 OA
BRANCH   2   3
ATOM      3  C   UNL     1      -1.288  -0.901  -2.032  1.00  0.00     0.202 C 
BRANCH   3   4
ATOM      4  C   UNL     1       0.061  -0.368  -2.579  1.00  0.00     0.261 C 
BRANCH   4   5
ATOM      5  O   UNL     1       1.006   0.042  -1.565  1.00  0.00    -0.459 OA
BRANCH   5   6
ATOM      6  C   UNL     1       1.101   1.383  -1.322  1.00  0.00     0.364 C 
ATOM      7  O   UNL     1       0.490   2.236  -1.959  1.00  0.00    -0.245 OA
BRANCH   6   8
ATOM      8  C   UNL     1       2.027   1.720  -0.132  1.00  0.00     0.294 C 
BRANCH   8   9
ATOM      9  N   UNL     1       1.395   1.648   1.225  1.00  0.00    -0.323 N 
ATOM     10  H   UNL     1       0.474   1.385   0.875  1.00  0.00     0.348 HD
BRANCH   9  11
ATOM     11  C   UNL     1       1.592   0.544   2.177  1.00  0.00     0.262 C 
BRANCH  11  12
ATOM     12  C   UNL     1       1.094  -0.924   2.164  1.00  0.00     0.058 C 
ATOM     13  C   UNL     1       0.859  -1.722   0.908  1.00  0.00     0.010 C 
ENDBRANCH  11  12
ENDBRANCH   9  11
BRANCH   9  14
ATOM     14  C   UNL     1       1.462   2.962   1.957  1.00  0.00     0.266 C 
BRANCH  14  15
ATOM     15  C   UNL     1       2.716   3.608   2.671  1.00  0.00     0.055 C 
ATOM     16  C   UNL     1       3.498   4.652   1.859  1.00  0.00     0.071 C 
ATOM     17  C   UNL     1       3.713   2.743   3.451  1.00  0.00     0.071 C 
ATOM     18  C   UNL     1       4.659   4.103   1.046  1.00  0.00     0.261 C 
ATOM     19  C   UNL     1       4.856   2.186   2.612  1.00  0.00     0.261 C 
ATOM     20  N   UNL     1       5.526   3.173   1.770  1.00  0.00    -0.346 N 
ATOM     21  H   UNL     1       6.142   3.724   2.368  1.00  0.00     0.346 HD
ATOM     22  H   UNL     1       6.007   2.635   1.050  1.00  0.00     0.346 HD
ENDBRANCH  14  15
ENDBRANCH   9  14
ENDBRANCH   8   9
BRANCH   8  23
ATOM     23  C   UNL     1       3.429   1.198  -0.439  1.00  0.00     0.074 C 
ATOM     24  C   UNL     1       3.757  -0.258  -0.233  1.00  0.00     0.011 C 
ENDBRANCH   8  23
ENDBRANCH   6   8
ENDBRANCH   5   6
ENDBRANCH   4   5
ENDBRANCH   3   4
ENDBRANCH   2   3
ENDBRANCH   1   2
BRANCH   1  25
ATOM     25  C   UNL     1      -2.052   0.590   1.169  1.00  0.00     0.188 C 
BRANCH  25  26
ATOM     26  O   UNL     1      -2.165  -0.714   1.711  1.00  0.00    -0.376 OA
BRANCH  26  27
ATOM     27  C   UNL     1      -3.079  -1.587   1.065  1.00  0.00     0.202 C 
BRANCH  27  28
ATOM     28  C   UNL     1      -4.558  -1.171   1.007  1.00  0.00     0.261 C 
BRANCH  28  29
ATOM     29  O   UNL     1      -4.808   0.103   0.379  1.00  0.00    -0.460 OA
BRANCH  29  30
ATOM     30  C   UNL     1      -5.178   1.117   1.206  1.00  0.00     0.338 C 
ATOM     31  O   UNL     1      -5.374   1.050   2.413  1.00  0.00    -0.246 OA
BRANCH  30  32
ATOM     32  C   UNL     1      -5.089   2.398   0.473  1.00  0.00     0.060 A 
ATOM     33  C   UNL     1      -4.125   3.355   0.843  1.00  0.00     0.016 A 
ATOM     34  C   UNL     1      -5.989   2.669  -0.552  1.00  0.00     0.016 A 
ATOM     35  C   UNL     1      -4.044   4.575   0.171  1.00  0.00     0.010 A 
ATOM     36  C   UNL     1      -5.940   3.909  -1.190  1.00  0.00     0.010 A 
ATOM     37  C   UNL     1      -4.979   4.870  -0.823  1.00  0.00    -0.014 A 
BRANCH  37  38
ATOM     38  C   UNL     1      -5.097   6.242  -1.364  1.00  0.00     0.031 A 
ATOM     39  C   UNL     1      -6.131   7.151  -0.763  1.00  0.00     0.074 A 
ATOM     40  C   UNL     1      -4.341   6.652  -2.397  1.00  0.00     0.049 A 
ATOM     41  N   UNL     1      -6.560   8.311  -1.183  1.00  0.00    -0.248 NA
ATOM     42  C   UNL     1      -6.774   6.678   0.475  1.00  0.00     0.031 C 
ATOM     43  C   UNL     1      -3.256   5.889  -3.010  1.00  0.00     0.029 A 
ATOM     44  N   UNL     1      -4.400   7.810  -3.132  1.00  0.00    -0.354 N 
ATOM     45  C   UNL     1      -7.542   8.695  -0.278  1.00  0.00     0.074 A 
ATOM     46  C   UNL     1      -7.653   7.641   0.706  1.00  0.00     0.031 C 
ATOM     47  C   UNL     1      -2.770   6.586  -4.052  1.00  0.00     0.029 A 
ATOM     48  C   UNL     1      -3.546   7.816  -4.210  1.00  0.00     0.049 A 
ATOM     49  H   UNL     1      -4.994   8.562  -2.909  1.00  0.00     0.167 HD
ATOM     50  C   UNL     1      -8.291   9.823  -0.277  1.00  0.00     0.031 A 
ATOM     51  C   UNL     1      -3.441   8.690  -5.231  1.00  0.00     0.031 A 
ATOM     52  C   UNL     1      -8.187  10.851  -1.278  1.00  0.00     0.049 A 
ATOM     53  C   UNL     1      -4.361   9.885  -5.271  1.00  0.00     0.074 A 
ATOM     54  C   UNL     1      -8.889  12.040  -1.366  1.00  0.00     0.029 A 
ATOM     55  N   UNL     1      -7.337  10.805  -2.373  1.00  0.00    -0.354 N 
ATOM     56  N   UNL     1      -5.277  10.252  -4.404  1.00  0.00    -0.248 NA
ATOM     57  C   UNL     1      -4.239  10.779  -6.431  1.00  0.00     0.031 C 
ATOM     58  C   UNL     1      -8.514  12.678  -2.552  1.00  0.00     0.029 A 
ATOM     59  C   UNL     1      -7.527  11.923  -3.167  1.00  0.00     0.049 A 
ATOM     60  H   UNL     1      -6.693  10.083  -2.559  1.00  0.00     0.167 HD
ATOM     61  C   UNL     1      -5.826  11.428  -4.906  1.00  0.00     0.074 A 
ATOM     62  C   UNL     1      -5.124  11.723  -6.138  1.00  0.00     0.031 C 
ATOM     63  C   UNL     1      -6.823  12.195  -4.396  1.00  0.00     0.031 A 
BRANCH  50  64
ATOM     64  C   UNL     1      -9.323   9.972   0.809  1.00  0.00    -0.014 A 
ATOM     65  C   UNL     1      -8.954  10.187   2.149  1.00  0.00     0.010 A 
ATOM     66  C   UNL     1     -10.690   9.923   0.477  1.00  0.00     0.010 A 
ATOM     67  C   UNL     1      -9.930  10.312   3.141  1.00  0.00     0.020 A 
ATOM     68  C   UNL     1     -11.670  10.078   1.460  1.00  0.00     0.020 A 
ATOM     69  C   UNL     1     -11.283  10.256   2.790  1.00  0.00     0.054 A 
BRANCH  69  70
ATOM     70  S   UNL     1     -12.527  10.446   4.095  1.00  0.00     0.124 S 
ATOM     71  O   UNL     1     -12.385   9.194   4.833  1.00  0.00    -0.237 OA
ATOM     72  O   UNL     1     -12.072  11.644   4.797  1.00  0.00    -0.237 OA
ATOM     73  O   UNL     1     -13.782  10.596   3.362  1.00  0.00    -0.744 OA
ENDBRANCH  69  70
ENDBRANCH  50  64
BRANCH  51  74
ATOM     74  C   UNL     1      -2.459   8.446  -6.325  1.00  0.00    -0.014 A 
ATOM     75  C   UNL     1      -1.355   9.299  -6.498  1.00  0.00     0.010 A 
ATOM     76  C   UNL     1      -2.622   7.356  -7.201  1.00  0.00     0.010 A 
ATOM     77  C   UNL     1      -0.439   9.072  -7.530  1.00  0.00     0.020 A 
ATOM     78  C   UNL     1      -1.691   7.108  -8.215  1.00  0.00     0.020 A 
ATOM     79  C   UNL     1      -0.609   7.974  -8.378  1.00  0.00     0.054 A 
BRANCH  79  80
ATOM     80  S   UNL     1       0.629   7.668  -9.669  1.00  0.00     0.124 S 
ATOM     81  O   UNL     1       0.373   8.760 -10.602  1.00  0.00    -0.237 OA
ATOM     82  O   UNL     1       1.884   7.750  -8.926  1.00  0.00    -0.237 OA
ATOM     83  O   UNL     1       0.291   6.333 -10.160  1.00  0.00    -0.744 OA
ENDBRANCH  79  80
ENDBRANCH  51  74
BRANCH  63  84
ATOM     84  C   UNL     1      -7.210  13.435  -5.160  1.00  0.00    -0.014 A 
ATOM     85  C   UNL     1      -7.907  13.350  -6.378  1.00  0.00     0.010 A 
ATOM     86  C   UNL     1      -6.940  14.704  -4.613  1.00  0.00     0.010 A 
ATOM     87  C   UNL     1      -8.307  14.510  -7.046  1.00  0.00     0.020 A 
ATOM     88  C   UNL     1      -7.366  15.866  -5.262  1.00  0.00     0.020 A 
ATOM     89  C   UNL     1      -8.039  15.761  -6.481  1.00  0.00     0.054 A 
BRANCH  89  90
ATOM     90  S   UNL     1      -8.624  17.247  -7.340  1.00  0.00     0.124 S 
ATOM     91  O   UNL     1      -7.746  17.293  -8.505  1.00  0.00    -0.237 OA
ATOM     92  O   UNL     1     -10.022  16.925  -7.619  1.00  0.00    -0.237 OA
ATOM     93  O   UNL     1      -8.420  18.316  -6.365  1.00  0.00    -0.744 OA
ENDBRANCH  89  90
ENDBRANCH  63  84
ENDBRANCH  37  38
ENDBRANCH  30  32
ENDBRANCH  29  30
ENDBRANCH  28  29
ENDBRANCH  27  28
ENDBRANCH  26  27
ENDBRANCH  25  26
ENDBRANCH   1  25
TORSDOF 26
