REMARK SMILES O=C(OCCOCCOCCOC(=O)c1ccc2nc(Cl)sc2c1)c1ccc(-c2c3nc(c(-c4ccc(S(=O)(=O)[O-])cc4)c4ccc([nH]4)c(-c4ccc(S(=O)(=O)[O-])cc4)c4nc(c(-c5ccc(S(=O)(=O)[O-])cc5)c5ccc2[nH]5)C=C4)C=C3)cc1
REMARK SMILES IDX 6 1 5 2 4 3 3 4 2 5 1 6 25 7 26 8 84 9 27 10 83 11 28 12
REMARK SMILES IDX 29 13 30 14 77 15 31 16 82 17 76 18 78 19 32 20 81 21 75 22
REMARK SMILES IDX 74 23 33 25 63 26 44 27 62 28 45 29 48 30 61 31 79 32 46 33
REMARK SMILES IDX 47 34 60 36 80 37 49 38 34 39 35 40 43 41 36 42 42 43 37 44
REMARK SMILES IDX 38 45 39 46 40 47 41 48 64 49 65 50 73 51 66 52 72 53 67 54
REMARK SMILES IDX 68 55 69 56 70 57 71 58 50 59 51 60 59 61 52 62 58 63 53 64
REMARK SMILES IDX 54 65 55 66 56 67 57 68 7 69 8 70 9 71 10 72 11 73 12 74
REMARK SMILES IDX 13 75 14 76 15 77 16 78 24 79 17 80 23 81 18 82 22 83 19 84
REMARK SMILES IDX 20 85 21 86
REMARK H PARENT 78 24 48 35
REMARK Flexibility Score: inf
ROOT
ATOM      1  O   UNL     1       3.789  -0.085   1.091  1.00  0.00    -0.376 OA
ENDROOT
BRANCH   1   2
ATOM      2  C   UNL     1       4.894   0.769   0.785  1.00  0.00     0.202 C 
BRANCH   2   3
ATOM      3  C   UNL     1       4.771   1.378  -0.609  1.00  0.00     0.261 C 
BRANCH   3   4
ATOM      4  O   UNL     1       4.791   0.286  -1.541  1.00  0.00    -0.460 OA
BRANCH   4   5
ATOM      5  C   UNL     1       3.604   0.019  -2.129  1.00  0.00     0.338 C 
ATOM      6  O   UNL     1       2.754   0.831  -2.458  1.00  0.00    -0.246 OA
BRANCH   5   7
ATOM      7  C   UNL     1       3.422  -1.446  -2.213  1.00  0.00     0.060 A 
ATOM      8  C   UNL     1       2.658  -1.987  -3.241  1.00  0.00     0.016 A 
ATOM      9  C   UNL     1       3.892  -2.273  -1.191  1.00  0.00     0.016 A 
ATOM     10  C   UNL     1       2.326  -3.345  -3.210  1.00  0.00     0.010 A 
ATOM     11  C   UNL     1       3.470  -3.595  -1.110  1.00  0.00     0.010 A 
ATOM     12  C   UNL     1       2.600  -4.138  -2.070  1.00  0.00    -0.014 A 
BRANCH  12  13
ATOM     13  C   UNL     1       2.042  -5.744  -1.882  1.00  0.00     0.031 A 
ATOM     14  C   UNL     1       3.786  -6.335  -1.794  1.00  0.00     0.074 A 
ATOM     15  C   UNL     1       0.500  -6.775  -1.424  1.00  0.00     0.049 A 
ATOM     16  N   UNL     1       4.380  -6.623  -0.657  1.00  0.00    -0.248 NA
ATOM     17  C   UNL     1       4.696  -6.462  -2.937  1.00  0.00     0.031 C 
ATOM     18  C   UNL     1      -0.880  -6.630  -0.464  1.00  0.00     0.029 A 
ATOM     19  N   UNL     1       0.189  -8.249  -1.612  1.00  0.00    -0.354 N 
ATOM     20  C   UNL     1       5.631  -7.104  -0.900  1.00  0.00     0.074 A 
ATOM     21  C   UNL     1       5.816  -6.916  -2.331  1.00  0.00     0.031 C 
ATOM     22  C   UNL     1      -1.269  -7.841   0.010  1.00  0.00     0.029 A 
ATOM     23  C   UNL     1      -0.605  -8.890  -0.703  1.00  0.00     0.049 A 
ATOM     24  H   UNL     1       0.556  -8.740  -2.382  1.00  0.00     0.167 HD
ATOM     25  C   UNL     1       6.410  -7.656   0.074  1.00  0.00     0.031 A 
ATOM     26  C   UNL     1      -0.513 -10.224  -0.464  1.00  0.00     0.031 A 
ATOM     27  C   UNL     1       5.845  -7.880   1.398  1.00  0.00     0.049 A 
ATOM     28  C   UNL     1       0.798 -10.351   0.325  1.00  0.00     0.074 A 
ATOM     29  C   UNL     1       5.898  -7.274   2.637  1.00  0.00     0.029 A 
ATOM     30  N   UNL     1       5.173  -9.064   1.637  1.00  0.00    -0.354 N 
ATOM     31  N   UNL     1       1.002 -10.238   1.613  1.00  0.00    -0.248 NA
ATOM     32  C   UNL     1       2.038 -10.551  -0.441  1.00  0.00     0.031 C 
ATOM     33  C   UNL     1       5.018  -8.000   3.510  1.00  0.00     0.029 A 
ATOM     34  C   UNL     1       4.358  -8.973   2.755  1.00  0.00     0.049 A 
ATOM     35  H   UNL     1       5.263  -9.873   1.082  1.00  0.00     0.167 HD
ATOM     36  C   UNL     1       2.395 -10.183   1.793  1.00  0.00     0.074 A 
ATOM     37  C   UNL     1       2.954 -10.555   0.515  1.00  0.00     0.031 C 
ATOM     38  C   UNL     1       3.026  -9.625   2.880  1.00  0.00     0.031 A 
BRANCH  25  39
ATOM     39  C   UNL     1       7.809  -8.086  -0.165  1.00  0.00    -0.014 A 
ATOM     40  C   UNL     1       8.832  -7.127  -0.230  1.00  0.00     0.010 A 
ATOM     41  C   UNL     1       8.146  -9.450  -0.095  1.00  0.00     0.010 A 
ATOM     42  C   UNL     1      10.171  -7.525  -0.186  1.00  0.00     0.020 A 
ATOM     43  C   UNL     1       9.483  -9.851  -0.047  1.00  0.00     0.020 A 
ATOM     44  C   UNL     1      10.487  -8.883  -0.080  1.00  0.00     0.054 A 
BRANCH  44  45
ATOM     45  S   UNL     1      12.227  -9.360   0.109  1.00  0.00     0.124 S 
ATOM     46  O   UNL     1      12.767  -9.069  -1.216  1.00  0.00    -0.237 OA
ATOM     47  O   UNL     1      12.683  -8.478   1.181  1.00  0.00    -0.237 OA
ATOM     48  O   UNL     1      12.163 -10.777   0.460  1.00  0.00    -0.744 OA
ENDBRANCH  44  45
ENDBRANCH  25  39
BRANCH  26  49
ATOM     49  C   UNL     1      -0.672 -11.060  -1.744  1.00  0.00    -0.014 A 
ATOM     50  C   UNL     1       0.103 -12.195  -2.054  1.00  0.00     0.010 A 
ATOM     51  C   UNL     1      -1.612 -10.653  -2.721  1.00  0.00     0.010 A 
ATOM     52  C   UNL     1       0.098 -12.754  -3.343  1.00  0.00     0.020 A 
ATOM     53  C   UNL     1      -1.651 -11.225  -4.000  1.00  0.00     0.020 A 
ATOM     54  C   UNL     1      -0.755 -12.240  -4.319  1.00  0.00     0.054 A 
BRANCH  54  55
ATOM     55  S   UNL     1      -0.676 -12.903  -6.007  1.00  0.00     0.124 S 
ATOM     56  O   UNL     1       0.605 -12.384  -6.478  1.00  0.00    -0.237 OA
ATOM     57  O   UNL     1      -0.729 -14.346  -5.785  1.00  0.00    -0.237 OA
ATOM     58  O   UNL     1      -1.854 -12.335  -6.658  1.00  0.00    -0.744 OA
ENDBRANCH  54  55
ENDBRANCH  26  49
BRANCH  38  59
ATOM     59  C   UNL     1       2.114  -9.335   4.068  1.00  0.00    -0.014 A 
ATOM     60  C   UNL     1       1.956  -8.030   4.569  1.00  0.00     0.010 A 
ATOM     61  C   UNL     1       1.366 -10.347   4.698  1.00  0.00     0.010 A 
ATOM     62  C   UNL     1       1.092  -7.723   5.625  1.00  0.00     0.020 A 
ATOM     63  C   UNL     1       0.495 -10.057   5.767  1.00  0.00     0.020 A 
ATOM     64  C   UNL     1       0.363  -8.743   6.222  1.00  0.00     0.054 A 
BRANCH  64  65
ATOM     65  S   UNL     1      -0.726  -8.317   7.608  1.00  0.00     0.124 S 
ATOM     66  O   UNL     1       0.189  -7.650   8.533  1.00  0.00    -0.237 OA
ATOM     67  O   UNL     1      -1.720  -7.451   6.979  1.00  0.00    -0.237 OA
ATOM     68  O   UNL     1      -1.230  -9.609   8.068  1.00  0.00    -0.744 OA
ENDBRANCH  64  65
ENDBRANCH  38  59
ENDBRANCH  12  13
ENDBRANCH   5   7
ENDBRANCH   4   5
ENDBRANCH   3   4
ENDBRANCH   2   3
ENDBRANCH   1   2
BRANCH   1  69
ATOM     69  C   UNL     1       2.600   0.601   1.472  1.00  0.00     0.188 C 
BRANCH  69  70
ATOM     70  C   UNL     1       1.900  -0.150   2.606  1.00  0.00     0.188 C 
BRANCH  70  71
ATOM     71  O   UNL     1       2.606  -0.136   3.848  1.00  0.00    -0.376 OA
BRANCH  71  72
ATOM     72  C   UNL     1       3.801  -0.913   3.929  1.00  0.00     0.202 C 
BRANCH  72  73
ATOM     73  C   UNL     1       3.637  -2.434   4.008  1.00  0.00     0.261 C 
BRANCH  73  74
ATOM     74  O   UNL     1       3.140  -3.052   2.812  1.00  0.00    -0.460 OA
BRANCH  74  75
ATOM     75  C   UNL     1       1.855  -3.498   2.869  1.00  0.00     0.338 C 
ATOM     76  O   UNL     1       0.999  -3.201   3.679  1.00  0.00    -0.246 OA
BRANCH  75  77
ATOM     77  C   UNL     1       1.671  -4.483   1.788  1.00  0.00     0.061 A 
ATOM     78  C   UNL     1       2.395  -5.686   1.988  1.00  0.00     0.018 A 
ATOM     79  C   UNL     1       0.866  -4.173   0.672  1.00  0.00     0.037 A 
ATOM     80  C   UNL     1       2.436  -6.774   1.112  1.00  0.00     0.031 A 
ATOM     81  C   UNL     1       0.928  -5.104  -0.382  1.00  0.00     0.057 A 
ATOM     82  C   UNL     1       1.909  -6.623  -0.152  1.00  0.00     0.083 A 
ATOM     83  S   UNL     1       0.049  -5.010  -2.568  1.00  0.00    -0.102 S 
ATOM     84  N   UNL     1       2.119  -7.604  -1.849  1.00  0.00    -0.225 NA
ATOM     85  C   UNL     1       1.278  -6.901  -3.214  1.00  0.00     0.184 A 
ATOM     86  Cl  UNL     1       1.085  -7.429  -4.826  1.00  0.00    -0.050 Cl
ENDBRANCH  75  77
ENDBRANCH  74  75
ENDBRANCH  73  74
ENDBRANCH  72  73
ENDBRANCH  71  72
ENDBRANCH  70  71
ENDBRANCH  69  70
ENDBRANCH   1  69
TORSDOF 20
