REMARK SMILES O=C(OCCOCCOCCOC(=O)c1nnn(-c2cccc(C(F)(F)F)c2)c1[C@@H]1COc2ccccc2O1)c1ccc(-c2c3nc(c(-c4ccc(S(=O)(=O)[O-])cc4)c4ccc([nH]4)c(-c4ccc(S(=O)(=O)[O-])cc4)c4nc(c(-c5ccc(S(=O)(=O)[O-])cc5)c5ccc2[nH]5)C=C4)C=C3)cc1
REMARK SMILES IDX 7 1 6 2 5 3 4 4 3 5 2 6 1 7 40 8 41 9 99 10 42 11 98 12
REMARK SMILES IDX 43 13 44 14 45 15 92 16 46 17 97 18 91 19 93 20 47 21 96 22
REMARK SMILES IDX 90 23 89 24 48 26 78 27 59 28 77 29 60 30 63 31 76 32 94 33
REMARK SMILES IDX 61 34 62 35 75 37 95 38 64 39 49 40 50 41 58 42 51 43 57 44
REMARK SMILES IDX 52 45 53 46 54 47 55 48 56 49 79 50 80 51 88 52 81 53 87 54
REMARK SMILES IDX 82 55 83 56 84 57 85 58 86 59 65 60 66 61 74 62 67 63 73 64
REMARK SMILES IDX 68 65 69 66 70 67 71 68 72 69 8 70 9 71 10 72 11 73 12 74
REMARK SMILES IDX 13 75 14 76 15 77 16 78 29 79 17 80 18 81 30 82 31 83 39 84
REMARK SMILES IDX 32 85 38 86 33 87 37 88 34 89 36 90 35 91 19 92 20 93 28 94
REMARK SMILES IDX 21 95 23 96 22 97 24 98 25 99 26 100 27 101
REMARK H PARENT 93 25 63 36
REMARK Flexibility Score: inf
ROOT
ATOM      1  C   UNL     1       3.355  -0.257   1.937  1.00  0.00     0.188 C 
ENDROOT
BRANCH   1   2
ATOM      2  O   UNL     1       4.660   0.268   1.697  1.00  0.00    -0.376 OA
BRANCH   2   3
ATOM      3  C   UNL     1       5.199   0.041   0.400  1.00  0.00     0.202 C 
BRANCH   3   4
ATOM      4  C   UNL     1       4.643   0.942  -0.706  1.00  0.00     0.261 C 
BRANCH   4   5
ATOM      5  O   UNL     1       3.230   1.188  -0.647  1.00  0.00    -0.460 OA
BRANCH   5   6
ATOM      6  C   UNL     1       2.174   0.565  -1.202  1.00  0.00     0.338 C 
ATOM      7  O   UNL     1       1.114   1.180  -1.300  1.00  0.00    -0.246 OA
BRANCH   6   8
ATOM      8  C   UNL     1       2.164  -0.882  -1.530  1.00  0.00     0.060 A 
ATOM      9  C   UNL     1       3.248  -1.601  -2.029  1.00  0.00     0.016 A 
ATOM     10  C   UNL     1       0.912  -1.522  -1.418  1.00  0.00     0.016 A 
ATOM     11  C   UNL     1       3.060  -2.897  -2.503  1.00  0.00     0.010 A 
ATOM     12  C   UNL     1       0.723  -2.816  -1.889  1.00  0.00     0.010 A 
ATOM     13  C   UNL     1       1.787  -3.476  -2.495  1.00  0.00    -0.014 A 
BRANCH  13  14
ATOM     14  C   UNL     1       1.614  -4.732  -3.219  1.00  0.00     0.031 A 
ATOM     15  C   UNL     1       2.341  -5.923  -2.706  1.00  0.00     0.074 A 
ATOM     16  C   UNL     1       0.817  -4.846  -4.300  1.00  0.00     0.049 A 
ATOM     17  N   UNL     1       3.305  -6.575  -3.269  1.00  0.00    -0.248 NA
ATOM     18  C   UNL     1       1.982  -6.414  -1.369  1.00  0.00     0.031 C 
ATOM     19  C   UNL     1      -0.185  -3.894  -4.791  1.00  0.00     0.029 A 
ATOM     20  N   UNL     1       0.676  -5.909  -5.143  1.00  0.00    -0.354 N 
ATOM     21  C   UNL     1       3.570  -7.667  -2.444  1.00  0.00     0.074 A 
ATOM     22  C   UNL     1       2.803  -7.457  -1.240  1.00  0.00     0.031 C 
ATOM     23  C   UNL     1      -0.978  -4.513  -5.694  1.00  0.00     0.029 A 
ATOM     24  C   UNL     1      -0.447  -5.840  -5.952  1.00  0.00     0.049 A 
ATOM     25  H   UNL     1       1.315  -6.657  -5.173  1.00  0.00     0.167 HD
ATOM     26  C   UNL     1       4.271  -8.758  -2.864  1.00  0.00     0.031 A 
ATOM     27  C   UNL     1      -0.948  -6.829  -6.730  1.00  0.00     0.031 A 
ATOM     28  C   UNL     1       4.974  -8.523  -4.095  1.00  0.00     0.049 A 
ATOM     29  C   UNL     1       0.145  -7.792  -6.999  1.00  0.00     0.074 A 
ATOM     30  C   UNL     1       5.988  -7.680  -4.499  1.00  0.00     0.029 A 
ATOM     31  N   UNL     1       4.423  -9.035  -5.245  1.00  0.00    -0.354 N 
ATOM     32  N   UNL     1       1.196  -7.515  -7.719  1.00  0.00    -0.248 NA
ATOM     33  C   UNL     1       0.266  -8.968  -6.152  1.00  0.00     0.031 C 
ATOM     34  C   UNL     1       5.697  -7.375  -5.859  1.00  0.00     0.029 A 
ATOM     35  C   UNL     1       4.536  -8.068  -6.210  1.00  0.00     0.049 A 
ATOM     36  H   UNL     1       4.024  -9.927  -5.355  1.00  0.00     0.167 HD
ATOM     37  C   UNL     1       2.233  -8.225  -7.132  1.00  0.00     0.074 A 
ATOM     38  C   UNL     1       1.580  -9.185  -6.250  1.00  0.00     0.031 C 
ATOM     39  C   UNL     1       3.526  -7.791  -7.212  1.00  0.00     0.031 A 
BRANCH  26  40
ATOM     40  C   UNL     1       4.069 -10.154  -2.330  1.00  0.00    -0.014 A 
ATOM     41  C   UNL     1       4.955 -11.179  -2.725  1.00  0.00     0.010 A 
ATOM     42  C   UNL     1       2.881 -10.547  -1.681  1.00  0.00     0.010 A 
ATOM     43  C   UNL     1       4.633 -12.531  -2.540  1.00  0.00     0.020 A 
ATOM     44  C   UNL     1       2.572 -11.890  -1.452  1.00  0.00     0.020 A 
ATOM     45  C   UNL     1       3.432 -12.876  -1.920  1.00  0.00     0.054 A 
BRANCH  45  46
ATOM     46  S   UNL     1       2.961 -14.620  -1.808  1.00  0.00     0.124 S 
ATOM     47  O   UNL     1       2.712 -14.953  -3.207  1.00  0.00    -0.237 OA
ATOM     48  O   UNL     1       4.148 -15.227  -1.212  1.00  0.00    -0.237 OA
ATOM     49  O   UNL     1       1.780 -14.599  -0.947  1.00  0.00    -0.744 OA
ENDBRANCH  45  46
ENDBRANCH  26  40
BRANCH  27  50
ATOM     50  C   UNL     1      -2.381  -7.135  -6.953  1.00  0.00    -0.014 A 
ATOM     51  C   UNL     1      -2.792  -8.011  -7.973  1.00  0.00     0.010 A 
ATOM     52  C   UNL     1      -3.335  -6.766  -5.980  1.00  0.00     0.010 A 
ATOM     53  C   UNL     1      -4.095  -8.539  -7.986  1.00  0.00     0.020 A 
ATOM     54  C   UNL     1      -4.635  -7.278  -5.993  1.00  0.00     0.020 A 
ATOM     55  C   UNL     1      -5.002  -8.182  -6.984  1.00  0.00     0.054 A 
BRANCH  55  56
ATOM     56  S   UNL     1      -6.621  -9.003  -6.907  1.00  0.00     0.124 S 
ATOM     57  O   UNL     1      -7.317  -8.423  -8.052  1.00  0.00    -0.237 OA
ATOM     58  O   UNL     1      -6.267 -10.414  -7.030  1.00  0.00    -0.237 OA
ATOM     59  O   UNL     1      -7.144  -8.610  -5.599  1.00  0.00    -0.744 OA
ENDBRANCH  55  56
ENDBRANCH  27  50
BRANCH  39  60
ATOM     60  C   UNL     1       3.872  -6.717  -8.216  1.00  0.00    -0.014 A 
ATOM     61  C   UNL     1       3.347  -5.412  -8.154  1.00  0.00     0.010 A 
ATOM     62  C   UNL     1       4.912  -6.982  -9.126  1.00  0.00     0.010 A 
ATOM     63  C   UNL     1       3.852  -4.398  -8.981  1.00  0.00     0.020 A 
ATOM     64  C   UNL     1       5.431  -5.971  -9.941  1.00  0.00     0.020 A 
ATOM     65  C   UNL     1       4.900  -4.683  -9.862  1.00  0.00     0.054 A 
BRANCH  65  66
ATOM     66  S   UNL     1       5.629  -3.338 -10.840  1.00  0.00     0.124 S 
ATOM     67  O   UNL     1       4.590  -3.066 -11.829  1.00  0.00    -0.237 OA
ATOM     68  O   UNL     1       5.840  -2.290  -9.844  1.00  0.00    -0.237 OA
ATOM     69  O   UNL     1       6.857  -3.924 -11.377  1.00  0.00    -0.744 OA
ENDBRANCH  65  66
ENDBRANCH  39  60
ENDBRANCH  13  14
ENDBRANCH   6   8
ENDBRANCH   5   6
ENDBRANCH   4   5
ENDBRANCH   3   4
ENDBRANCH   2   3
ENDBRANCH   1   2
BRANCH   1  70
ATOM     70  C   UNL     1       2.283   0.815   2.238  1.00  0.00     0.188 C 
BRANCH  70  71
ATOM     71  O   UNL     1       2.507   1.824   3.223  1.00  0.00    -0.376 OA
BRANCH  71  72
ATOM     72  C   UNL     1       3.828   2.279   3.450  1.00  0.00     0.202 C 
BRANCH  72  73
ATOM     73  C   UNL     1       4.438   1.599   4.683  1.00  0.00     0.261 C 
BRANCH  73  74
ATOM     74  O   UNL     1       3.979   0.249   4.878  1.00  0.00    -0.458 OA
BRANCH  74  75
ATOM     75  C   UNL     1       2.755   0.134   5.497  1.00  0.00     0.361 C 
ATOM     76  O   UNL     1       2.145   1.056   5.993  1.00  0.00    -0.244 OA
BRANCH  75  77
ATOM     77  C   UNL     1       2.261  -1.244   5.496  1.00  0.00     0.198 A 
ATOM     78  N   UNL     1       0.915  -1.507   5.415  1.00  0.00    -0.122 NA
ATOM     79  C   UNL     1       2.950  -2.451   5.535  1.00  0.00     0.123 A 
ATOM     80  N   UNL     1       0.745  -2.819   5.420  1.00  0.00    -0.061 NA
ATOM     81  N   UNL     1       1.940  -3.392   5.690  1.00  0.00    -0.213 N 
BRANCH  79  82
ATOM     82  C   UNL     1       4.406  -2.772   5.359  1.00  0.00     0.262 C 
ATOM     83  C   UNL     1       4.716  -3.502   4.046  1.00  0.00     0.281 C 
ATOM     84  O   UNL     1       4.923  -3.422   6.525  1.00  0.00    -0.477 OA
ATOM     85  O   UNL     1       4.337  -4.878   4.092  1.00  0.00    -0.485 OA
ATOM     86  C   UNL     1       5.208  -4.752   6.354  1.00  0.00     0.162 A 
ATOM     87  C   UNL     1       4.888  -5.469   5.198  1.00  0.00     0.161 A 
ATOM     88  C   UNL     1       5.770  -5.413   7.444  1.00  0.00     0.050 A 
ATOM     89  C   UNL     1       5.061  -6.850   5.155  1.00  0.00     0.050 A 
ATOM     90  C   UNL     1       5.971  -6.793   7.393  1.00  0.00     0.004 A 
ATOM     91  C   UNL     1       5.603  -7.513   6.256  1.00  0.00     0.004 A 
ENDBRANCH  79  82
BRANCH  81  92
ATOM     92  C   UNL     1       1.933  -4.550   6.491  1.00  0.00     0.067 A 
ATOM     93  C   UNL     1       1.559  -5.776   5.939  1.00  0.00     0.028 A 
ATOM     94  C   UNL     1       2.224  -4.430   7.857  1.00  0.00     0.041 A 
ATOM     95  C   UNL     1       1.567  -6.911   6.749  1.00  0.00     0.003 A 
ATOM     96  C   UNL     1       2.175  -5.559   8.684  1.00  0.00     0.058 A 
ATOM     97  C   UNL     1       1.875  -6.806   8.110  1.00  0.00     0.013 A 
BRANCH  96  98
ATOM     98  C   UNL     1       2.443  -5.443  10.162  1.00  0.00     0.416 C 
ATOM     99  F   UNL     1       1.523  -6.106  10.920  1.00  0.00    -0.166 F 
ATOM    100  F   UNL     1       3.655  -5.952  10.519  1.00  0.00    -0.166 F 
ATOM    101  F   UNL     1       2.434  -4.158  10.618  1.00  0.00    -0.166 F 
ENDBRANCH  96  98
ENDBRANCH  81  92
ENDBRANCH  75  77
ENDBRANCH  74  75
ENDBRANCH  73  74
ENDBRANCH  72  73
ENDBRANCH  71  72
ENDBRANCH  70  71
ENDBRANCH   1  70
TORSDOF 23
