REMARK SMILES Nc1c(CC(=O)OCCOCCOCCOC(=O)c2ccc(-c3c4nc(c(-c5ccc(S(=O)(=O)[O-])cc5)c5ccc([nH]5)c(-c5ccc(S(=O)(=O)[O-])cc5)c5nc(c(-c6ccc(S(=O)(=O)[O-])cc6)c6ccc3[nH]6)C=C5)C=C4)cc2)cccc1C(=O)c1ccc(Br)cc1
REMARK SMILES IDX 11 1 10 2 9 3 8 4 7 5 5 6 6 7 4 8 3 9 2 10 82 11 79 12 81 13
REMARK SMILES IDX 80 14 1 15 83 18 84 19 85 20 86 21 91 22 87 23 90 24 88 25
REMARK SMILES IDX 89 26 12 27 13 28 14 29 15 30 16 31 17 32 18 33 19 34 20 35
REMARK SMILES IDX 78 36 21 37 77 38 22 39 23 40 24 41 71 42 25 43 76 44 70 45
REMARK SMILES IDX 72 46 26 47 75 48 69 49 68 50 27 52 57 53 38 54 56 55 39 56
REMARK SMILES IDX 42 57 55 58 73 59 40 60 41 61 54 63 74 64 43 65 28 66 29 67
REMARK SMILES IDX 37 68 30 69 36 70 31 71 32 72 33 73 34 74 35 75 58 76 59 77
REMARK SMILES IDX 67 78 60 79 66 80 61 81 62 82 63 83 64 84 65 85 44 86 45 87
REMARK SMILES IDX 53 88 46 89 52 90 47 91 48 92 49 93 50 94 51 95
REMARK H PARENT 1 16 1 17 72 51 42 62
REMARK Flexibility Score: inf
ROOT
ATOM      1  C   UNL     1      -1.324  -4.240   1.821  1.00  0.00     0.188 C 
ENDROOT
BRANCH   1   2
ATOM      2  O   UNL     1      -0.754  -5.056   2.847  1.00  0.00    -0.376 OA
BRANCH   2   3
ATOM      3  C   UNL     1       0.153  -4.469   3.771  1.00  0.00     0.202 C 
BRANCH   3   4
ATOM      4  C   UNL     1       1.458  -3.924   3.180  1.00  0.00     0.261 C 
BRANCH   4   5
ATOM      5  O   UNL     1       1.236  -3.034   2.068  1.00  0.00    -0.463 OA
BRANCH   5   6
ATOM      6  C   UNL     1       2.040  -3.183   0.989  1.00  0.00     0.310 C 
ATOM      7  O   UNL     1       3.058  -3.869   0.987  1.00  0.00    -0.252 OA
BRANCH   6   8
ATOM      8  C   UNL     1       1.506  -2.553  -0.285  1.00  0.00     0.160 C 
BRANCH   8   9
ATOM      9  C   UNL     1       0.780  -1.217  -0.240  1.00  0.00    -0.013 A 
ATOM     10  C   UNL     1       1.396  -0.022   0.188  1.00  0.00     0.047 A 
ATOM     11  C   UNL     1       0.665   1.196   0.072  1.00  0.00     0.046 A 
ATOM     12  C   UNL     1      -0.537  -1.165  -0.744  1.00  0.00     0.006 A 
ATOM     13  C   UNL     1      -0.676   1.196  -0.340  1.00  0.00     0.014 A 
ATOM     14  C   UNL     1      -1.277   0.015  -0.749  1.00  0.00     0.001 A 
BRANCH  10  15
ATOM     15  N   UNL     1       2.687  -0.075   0.701  1.00  0.00    -0.398 N 
ATOM     16  H   UNL     1       3.156  -0.939   0.763  1.00  0.00     0.156 HD
ATOM     17  H   UNL     1       3.131   0.750   1.002  1.00  0.00     0.156 HD
ENDBRANCH  10  15
BRANCH  11  18
ATOM     18  C   UNL     1       1.256   2.552   0.291  1.00  0.00     0.195 C 
ATOM     19  O   UNL     1       0.576   3.476   0.730  1.00  0.00    -0.289 OA
BRANCH  18  20
ATOM     20  C   UNL     1       2.676   2.814  -0.032  1.00  0.00     0.023 A 
ATOM     21  C   UNL     1       3.451   3.483   0.921  1.00  0.00     0.013 A 
ATOM     22  C   UNL     1       3.263   2.309  -1.199  1.00  0.00     0.013 A 
ATOM     23  C   UNL     1       4.833   3.560   0.753  1.00  0.00     0.016 A 
ATOM     24  C   UNL     1       4.647   2.387  -1.363  1.00  0.00     0.016 A 
ATOM     25  C   UNL     1       5.426   2.991  -0.376  1.00  0.00     0.018 A 
ATOM     26  Br  UNL     1       7.308   3.005  -0.548  1.00  0.00    -0.051 Br
ENDBRANCH  18  20
ENDBRANCH  11  18
ENDBRANCH   8   9
ENDBRANCH   6   8
ENDBRANCH   5   6
ENDBRANCH   4   5
ENDBRANCH   3   4
ENDBRANCH   2   3
ENDBRANCH   1   2
BRANCH   1  27
ATOM     27  C   UNL     1      -1.579  -2.749   2.106  1.00  0.00     0.188 C 
BRANCH  27  28
ATOM     28  O   UNL     1      -1.852  -2.529   3.477  1.00  0.00    -0.376 OA
BRANCH  28  29
ATOM     29  C   UNL     1      -2.989  -1.747   3.764  1.00  0.00     0.202 C 
BRANCH  29  30
ATOM     30  C   UNL     1      -4.303  -2.519   3.611  1.00  0.00     0.261 C 
BRANCH  30  31
ATOM     31  O   UNL     1      -4.439  -3.315   2.419  1.00  0.00    -0.460 OA
BRANCH  31  32
ATOM     32  C   UNL     1      -4.725  -2.675   1.268  1.00  0.00     0.338 C 
ATOM     33  O   UNL     1      -4.818  -1.463   1.103  1.00  0.00    -0.246 OA
BRANCH  32  34
ATOM     34  C   UNL     1      -4.740  -3.674   0.181  1.00  0.00     0.060 A 
ATOM     35  C   UNL     1      -3.816  -3.578  -0.869  1.00  0.00     0.016 A 
ATOM     36  C   UNL     1      -5.681  -4.703   0.194  1.00  0.00     0.016 A 
ATOM     37  C   UNL     1      -3.836  -4.504  -1.918  1.00  0.00     0.010 A 
ATOM     38  C   UNL     1      -5.716  -5.613  -0.864  1.00  0.00     0.010 A 
ATOM     39  C   UNL     1      -4.810  -5.508  -1.937  1.00  0.00    -0.014 A 
BRANCH  39  40
ATOM     40  C   UNL     1      -5.035  -6.358  -3.133  1.00  0.00     0.031 A 
ATOM     41  C   UNL     1      -6.203  -6.030  -4.021  1.00  0.00     0.074 A 
ATOM     42  C   UNL     1      -4.274  -7.437  -3.387  1.00  0.00     0.049 A 
ATOM     43  N   UNL     1      -6.764  -6.750  -4.955  1.00  0.00    -0.248 NA
ATOM     44  C   UNL     1      -6.830  -4.714  -3.811  1.00  0.00     0.031 C 
ATOM     45  C   UNL     1      -3.067  -7.819  -2.656  1.00  0.00     0.029 A 
ATOM     46  N   UNL     1      -4.431  -8.434  -4.321  1.00  0.00    -0.354 N 
ATOM     47  C   UNL     1      -7.834  -5.993  -5.420  1.00  0.00     0.074 A 
ATOM     48  C   UNL     1      -7.847  -4.762  -4.659  1.00  0.00     0.031 C 
ATOM     49  C   UNL     1      -2.610  -8.984  -3.149  1.00  0.00     0.029 A 
ATOM     50  C   UNL     1      -3.526  -9.461  -4.184  1.00  0.00     0.049 A 
ATOM     51  H   UNL     1      -5.125  -8.414  -5.019  1.00  0.00     0.167 HD
ATOM     52  C   UNL     1      -8.730  -6.302  -6.386  1.00  0.00     0.031 A 
ATOM     53  C   UNL     1      -3.476 -10.668  -4.786  1.00  0.00     0.031 A 
ATOM     54  C   UNL     1      -8.714  -7.536  -7.124  1.00  0.00     0.049 A 
ATOM     55  C   UNL     1      -4.543 -11.038  -5.788  1.00  0.00     0.074 A 
ATOM     56  C   UNL     1      -9.579  -7.952  -8.121  1.00  0.00     0.029 A 
ATOM     57  N   UNL     1      -7.789  -8.553  -6.944  1.00  0.00    -0.354 N 
ATOM     58  N   UNL     1      -5.562 -10.326  -6.207  1.00  0.00    -0.248 NA
ATOM     59  C   UNL     1      -4.456 -12.374  -6.396  1.00  0.00     0.031 C 
ATOM     60  C   UNL     1      -9.211  -9.245  -8.502  1.00  0.00     0.029 A 
ATOM     61  C   UNL     1      -8.072  -9.603  -7.798  1.00  0.00     0.049 A 
ATOM     62  H   UNL     1      -7.042  -8.531  -6.303  1.00  0.00     0.167 HD
ATOM     63  C   UNL     1      -6.208 -11.110  -7.160  1.00  0.00     0.074 A 
ATOM     64  C   UNL     1      -5.470 -12.351  -7.252  1.00  0.00     0.031 C 
ATOM     65  C   UNL     1      -7.307 -10.821  -7.899  1.00  0.00     0.031 A 
BRANCH  52  66
ATOM     66  C   UNL     1      -9.831  -5.313  -6.662  1.00  0.00    -0.014 A 
ATOM     67  C   UNL     1      -9.567  -4.076  -7.277  1.00  0.00     0.010 A 
ATOM     68  C   UNL     1     -11.158  -5.644  -6.333  1.00  0.00     0.010 A 
ATOM     69  C   UNL     1     -10.605  -3.173  -7.521  1.00  0.00     0.020 A 
ATOM     70  C   UNL     1     -12.203  -4.758  -6.604  1.00  0.00     0.020 A 
ATOM     71  C   UNL     1     -11.917  -3.520  -7.182  1.00  0.00     0.054 A 
BRANCH  71  72
ATOM     72  S   UNL     1     -13.246  -2.336  -7.530  1.00  0.00     0.124 S 
ATOM     73  O   UNL     1     -12.984  -1.291  -6.543  1.00  0.00    -0.237 OA
ATOM     74  O   UNL     1     -12.987  -1.966  -8.919  1.00  0.00    -0.237 OA
ATOM     75  O   UNL     1     -14.466  -3.108  -7.310  1.00  0.00    -0.744 OA
ENDBRANCH  71  72
ENDBRANCH  52  66
BRANCH  53  76
ATOM     76  C   UNL     1      -2.399 -11.636  -4.434  1.00  0.00    -0.014 A 
ATOM     77  C   UNL     1      -1.416 -11.985  -5.377  1.00  0.00     0.010 A 
ATOM     78  C   UNL     1      -2.353 -12.223  -3.155  1.00  0.00     0.010 A 
ATOM     79  C   UNL     1      -0.420 -12.913  -5.056  1.00  0.00     0.020 A 
ATOM     80  C   UNL     1      -1.340 -13.127  -2.819  1.00  0.00     0.020 A 
ATOM     81  C   UNL     1      -0.386 -13.475  -3.776  1.00  0.00     0.054 A 
BRANCH  81  82
ATOM     82  S   UNL     1       0.944 -14.641  -3.370  1.00  0.00     0.124 S 
ATOM     83  O   UNL     1       0.569 -15.814  -4.154  1.00  0.00    -0.237 OA
ATOM     84  O   UNL     1       2.135 -13.929  -3.826  1.00  0.00    -0.237 OA
ATOM     85  O   UNL     1       0.834 -14.795  -1.922  1.00  0.00    -0.744 OA
ENDBRANCH  81  82
ENDBRANCH  53  76
BRANCH  65  86
ATOM     86  C   UNL     1      -7.749 -11.817  -8.940  1.00  0.00    -0.014 A 
ATOM     87  C   UNL     1      -8.402 -13.011  -8.591  1.00  0.00     0.010 A 
ATOM     88  C   UNL     1      -7.617 -11.480 -10.301  1.00  0.00     0.010 A 
ATOM     89  C   UNL     1      -8.915 -13.850  -9.586  1.00  0.00     0.020 A 
ATOM     90  C   UNL     1      -8.152 -12.301 -11.296  1.00  0.00     0.020 A 
ATOM     91  C   UNL     1      -8.796 -13.483 -10.931  1.00  0.00     0.054 A 
BRANCH  91  92
ATOM     92  S   UNL     1      -9.562 -14.536 -12.195  1.00  0.00     0.124 S 
ATOM     93  O   UNL     1      -8.689 -15.707 -12.186  1.00  0.00    -0.237 OA
ATOM     94  O   UNL     1     -10.905 -14.749 -11.661  1.00  0.00    -0.237 OA
ATOM     95  O   UNL     1      -9.501 -13.724 -13.408  1.00  0.00    -0.744 OA
ENDBRANCH  91  92
ENDBRANCH  65  86
ENDBRANCH  39  40
ENDBRANCH  32  34
ENDBRANCH  31  32
ENDBRANCH  30  31
ENDBRANCH  29  30
ENDBRANCH  28  29
ENDBRANCH  27  28
ENDBRANCH   1  27
TORSDOF 24
