REMARK SMILES CCN(CC(C)(C)O)C(=O)[C@H]1CC=CC[C@H]1C(=O)OCCOCCOCCOC(=O)c1ccc(-c2c3nc(c(-c4ccc(S(=O)(=O)[O-])cc4)c4ccc([nH]4)c(-c4ccc(S(=O)(=O)[O-])cc4)c4nc(c(-c5ccc(S(=O)(=O)[O-])cc5)c5ccc2[nH]5)C=C4)C=C3)cc1
REMARK SMILES IDX 23 1 22 2 21 3 20 4 19 5 17 6 18 7 16 8 11 9 12 10 13 11
REMARK SMILES IDX 15 12 14 13 9 14 10 15 3 16 2 17 1 18 4 19 5 20 6 21 7 22
REMARK SMILES IDX 8 23 24 25 25 26 26 27 27 28 28 29 29 30 30 31 31 32 32 33
REMARK SMILES IDX 90 34 33 35 89 36 34 37 35 38 36 39 83 40 37 41 88 42 82 43
REMARK SMILES IDX 84 44 38 45 87 46 81 47 80 48 39 50 69 51 50 52 68 53 51 54
REMARK SMILES IDX 54 55 67 56 85 57 52 58 53 59 66 61 86 62 55 63 40 64 41 65
REMARK SMILES IDX 49 66 42 67 48 68 43 69 44 70 45 71 46 72 47 73 70 74 71 75
REMARK SMILES IDX 79 76 72 77 78 78 73 79 74 80 75 81 76 82 77 83 56 84 57 85
REMARK SMILES IDX 65 86 58 87 64 88 59 89 60 90 61 91 62 92 63 93
REMARK H PARENT 8 24 84 49 54 60
REMARK Flexibility Score: inf
ROOT
ATOM      1  C   UNL     1       0.722  -2.497   5.316  1.00  0.00     0.188 C 
ENDROOT
BRANCH   1   2
ATOM      2  O   UNL     1       0.736  -1.149   5.778  1.00  0.00    -0.376 OA
BRANCH   2   3
ATOM      3  C   UNL     1       0.443  -0.088   4.882  1.00  0.00     0.202 C 
BRANCH   3   4
ATOM      4  C   UNL     1       1.579   0.364   3.956  1.00  0.00     0.261 C 
BRANCH   4   5
ATOM      5  O   UNL     1       2.151  -0.653   3.102  1.00  0.00    -0.463 OA
BRANCH   5   6
ATOM      6  C   UNL     1       3.326  -1.158   3.545  1.00  0.00     0.310 C 
ATOM      7  O   UNL     1       3.829  -0.861   4.626  1.00  0.00    -0.252 OA
BRANCH   6   8
ATOM      8  C   UNL     1       4.054  -2.086   2.591  1.00  0.00     0.115 C 
ATOM      9  C   UNL     1       3.308  -2.912   1.514  1.00  0.00     0.097 C 
ATOM     10  C   UNL     1       4.324  -3.890   0.861  1.00  0.00     0.041 C 
ATOM     11  C   UNL     1       5.716  -3.351   0.667  1.00  0.00    -0.030 C 
ATOM     12  C   UNL     1       5.278  -1.329   2.055  1.00  0.00     0.043 C 
ATOM     13  C   UNL     1       6.135  -2.184   1.175  1.00  0.00    -0.030 C 
BRANCH   9  14
ATOM     14  C   UNL     1       2.684  -2.093   0.383  1.00  0.00     0.226 C 
ATOM     15  O   UNL     1       3.343  -1.189  -0.142  1.00  0.00    -0.275 OA
BRANCH  14  16
ATOM     16  N   UNL     1       1.400  -2.383  -0.084  1.00  0.00    -0.340 N 
BRANCH  16  17
ATOM     17  C   UNL     1       0.862  -1.429  -1.062  1.00  0.00     0.116 C 
ATOM     18  C   UNL     1       0.581  -0.071  -0.415  1.00  0.00     0.027 C 
ENDBRANCH  16  17
BRANCH  16  19
ATOM     19  C   UNL     1       0.437  -3.388   0.412  1.00  0.00     0.154 C 
BRANCH  19  20
ATOM     20  C   UNL     1       0.388  -4.805  -0.244  1.00  0.00     0.077 C 
ATOM     21  C   UNL     1       1.420  -5.752   0.372  1.00  0.00     0.043 C 
ATOM     22  C   UNL     1      -1.012  -5.409  -0.040  1.00  0.00     0.043 C 
BRANCH  20  23
ATOM     23  O   UNL     1       0.604  -4.734  -1.653  1.00  0.00    -0.389 OA
ATOM     24  H   UNL     1       1.480  -4.357  -1.827  1.00  0.00     0.211 HD
ENDBRANCH  20  23
ENDBRANCH  19  20
ENDBRANCH  16  19
ENDBRANCH  14  16
ENDBRANCH   9  14
ENDBRANCH   6   8
ENDBRANCH   5   6
ENDBRANCH   4   5
ENDBRANCH   3   4
ENDBRANCH   2   3
ENDBRANCH   1   2
BRANCH   1  25
ATOM     25  C   UNL     1       0.133  -2.809   3.942  1.00  0.00     0.188 C 
BRANCH  25  26
ATOM     26  O   UNL     1      -1.151  -2.222   3.768  1.00  0.00    -0.376 OA
BRANCH  26  27
ATOM     27  C   UNL     1      -2.128  -3.048   3.159  1.00  0.00     0.202 C 
BRANCH  27  28
ATOM     28  C   UNL     1      -2.850  -3.886   4.212  1.00  0.00     0.261 C 
BRANCH  28  29
ATOM     29  O   UNL     1      -1.971  -4.759   4.945  1.00  0.00    -0.460 OA
BRANCH  29  30
ATOM     30  C   UNL     1      -1.500  -5.823   4.258  1.00  0.00     0.338 C 
ATOM     31  O   UNL     1      -1.749  -6.119   3.105  1.00  0.00    -0.246 OA
BRANCH  30  32
ATOM     32  C   UNL     1      -0.489  -6.512   5.075  1.00  0.00     0.060 A 
ATOM     33  C   UNL     1       0.797  -6.686   4.552  1.00  0.00     0.016 A 
ATOM     34  C   UNL     1      -0.835  -7.045   6.316  1.00  0.00     0.016 A 
ATOM     35  C   UNL     1       1.733  -7.442   5.253  1.00  0.00     0.010 A 
ATOM     36  C   UNL     1       0.103  -7.802   7.016  1.00  0.00     0.010 A 
ATOM     37  C   UNL     1       1.378  -8.033   6.472  1.00  0.00    -0.014 A 
BRANCH  37  38
ATOM     38  C   UNL     1       2.304  -8.979   7.135  1.00  0.00     0.031 A 
ATOM     39  C   UNL     1       2.027 -10.456   7.055  1.00  0.00     0.074 A 
ATOM     40  C   UNL     1       3.376  -8.516   7.801  1.00  0.00     0.049 A 
ATOM     41  N   UNL     1       2.670 -11.449   7.611  1.00  0.00    -0.248 NA
ATOM     42  C   UNL     1       0.868 -10.868   6.245  1.00  0.00     0.031 C 
ATOM     43  C   UNL     1       3.750  -7.106   7.924  1.00  0.00     0.029 A 
ATOM     44  N   UNL     1       4.342  -9.183   8.510  1.00  0.00    -0.354 N 
ATOM     45  C   UNL     1       1.981 -12.600   7.243  1.00  0.00     0.074 A 
ATOM     46  C   UNL     1       0.864 -12.181   6.426  1.00  0.00     0.031 C 
ATOM     47  C   UNL     1       4.863  -7.013   8.671  1.00  0.00     0.029 A 
ATOM     48  C   UNL     1       5.256  -8.349   9.109  1.00  0.00     0.049 A 
ATOM     49  H   UNL     1       4.377 -10.164   8.582  1.00  0.00     0.167 HD
ATOM     50  C   UNL     1       2.257 -13.887   7.562  1.00  0.00     0.031 A 
ATOM     51  C   UNL     1       6.277  -8.632   9.940  1.00  0.00     0.031 A 
ATOM     52  C   UNL     1       3.372 -14.288   8.379  1.00  0.00     0.049 A 
ATOM     53  C   UNL     1       6.547 -10.068  10.299  1.00  0.00     0.074 A 
ATOM     54  C   UNL     1       3.762 -15.568   8.735  1.00  0.00     0.029 A 
ATOM     55  N   UNL     1       4.273 -13.416   8.972  1.00  0.00    -0.354 N 
ATOM     56  N   UNL     1       5.904 -11.147   9.918  1.00  0.00    -0.248 NA
ATOM     57  C   UNL     1       7.685 -10.325  11.191  1.00  0.00     0.031 C 
ATOM     58  C   UNL     1       4.866 -15.465   9.589  1.00  0.00     0.029 A 
ATOM     59  C   UNL     1       5.201 -14.126   9.715  1.00  0.00     0.049 A 
ATOM     60  H   UNL     1       4.255 -12.436   8.878  1.00  0.00     0.167 HD
ATOM     61  C   UNL     1       6.568 -12.213  10.516  1.00  0.00     0.074 A 
ATOM     62  C   UNL     1       7.678 -11.649  11.258  1.00  0.00     0.031 C 
ATOM     63  C   UNL     1       6.285 -13.539  10.461  1.00  0.00     0.031 A 
BRANCH  50  64
ATOM     64  C   UNL     1       1.315 -14.951   7.063  1.00  0.00    -0.014 A 
ATOM     65  C   UNL     1       1.272 -15.317   5.705  1.00  0.00     0.010 A 
ATOM     66  C   UNL     1       0.492 -15.633   7.979  1.00  0.00     0.010 A 
ATOM     67  C   UNL     1       0.403 -16.322   5.270  1.00  0.00     0.020 A 
ATOM     68  C   UNL     1      -0.360 -16.655   7.552  1.00  0.00     0.020 A 
ATOM     69  C   UNL     1      -0.409 -16.984   6.196  1.00  0.00     0.054 A 
BRANCH  69  70
ATOM     70  S   UNL     1      -1.504 -18.306   5.608  1.00  0.00     0.124 S 
ATOM     71  O   UNL     1      -2.537 -17.550   4.904  1.00  0.00    -0.237 OA
ATOM     72  O   UNL     1      -0.620 -19.101   4.760  1.00  0.00    -0.237 OA
ATOM     73  O   UNL     1      -1.944 -18.965   6.836  1.00  0.00    -0.744 OA
ENDBRANCH  69  70
ENDBRANCH  50  64
BRANCH  51  74
ATOM     74  C   UNL     1       7.098  -7.528  10.509  1.00  0.00    -0.014 A 
ATOM     75  C   UNL     1       8.435  -7.346  10.116  1.00  0.00     0.010 A 
ATOM     76  C   UNL     1       6.534  -6.639  11.444  1.00  0.00     0.010 A 
ATOM     77  C   UNL     1       9.198  -6.307  10.659  1.00  0.00     0.020 A 
ATOM     78  C   UNL     1       7.284  -5.582  11.966  1.00  0.00     0.020 A 
ATOM     79  C   UNL     1       8.616  -5.430  11.579  1.00  0.00     0.054 A 
BRANCH  79  80
ATOM     80  S   UNL     1       9.607  -4.057  12.231  1.00  0.00     0.124 S 
ATOM     81  O   UNL     1      10.486  -4.739  13.175  1.00  0.00    -0.237 OA
ATOM     82  O   UNL     1      10.254  -3.535  11.029  1.00  0.00    -0.237 OA
ATOM     83  O   UNL     1       8.611  -3.171  12.829  1.00  0.00    -0.744 OA
ENDBRANCH  79  80
ENDBRANCH  51  74
BRANCH  63  84
ATOM     84  C   UNL     1       7.205 -14.463  11.214  1.00  0.00    -0.014 A 
ATOM     85  C   UNL     1       7.198 -14.508  12.620  1.00  0.00     0.010 A 
ATOM     86  C   UNL     1       8.078 -15.307  10.504  1.00  0.00     0.010 A 
ATOM     87  C   UNL     1       8.085 -15.343  13.303  1.00  0.00     0.020 A 
ATOM     88  C   UNL     1       8.945 -16.166  11.184  1.00  0.00     0.020 A 
ATOM     89  C   UNL     1       8.959 -16.161  12.580  1.00  0.00     0.054 A 
BRANCH  89  90
ATOM     90  S   UNL     1      10.099 -17.240  13.487  1.00  0.00     0.124 S 
ATOM     91  O   UNL     1      11.109 -16.292  13.950  1.00  0.00    -0.237 OA
ATOM     92  O   UNL     1       9.246 -17.808  14.529  1.00  0.00    -0.237 OA
ATOM     93  O   UNL     1      10.553 -18.191  12.476  1.00  0.00    -0.744 OA
ENDBRANCH  89  90
ENDBRANCH  63  84
ENDBRANCH  37  38
ENDBRANCH  30  32
ENDBRANCH  29  30
ENDBRANCH  28  29
ENDBRANCH  27  28
ENDBRANCH  26  27
ENDBRANCH  25  26
ENDBRANCH   1  25
TORSDOF 26
