REMARK SMILES C[C@@H](C(=O)OCCOCCOCCOC(=O)c1ccc(-c2c3nc(c(-c4ccc(S(=O)(=O)[O-])cc4)c4ccc([nH]4)c(-c4ccc(S(=O)(=O)[O-])cc4)c4nc(c(-c5ccc(S(=O)(=O)[O-])cc5)c5ccc2[nH]5)C=C4)C=C3)cc1)N1C(=O)c2nccnc2C1=O
REMARK SMILES IDX 10 1 9 2 8 3 7 4 6 5 5 6 3 7 4 8 2 9 1 10 77 11 78 12 86 13
REMARK SMILES IDX 79 14 80 15 85 16 87 17 81 18 84 19 82 20 83 21 11 22 12 23
REMARK SMILES IDX 13 24 14 25 15 26 16 27 17 28 18 29 76 30 19 31 75 32 20 33
REMARK SMILES IDX 21 34 22 35 69 36 23 37 74 38 68 39 70 40 24 41 73 42 67 43
REMARK SMILES IDX 66 44 25 46 55 47 36 48 54 49 37 50 40 51 53 52 71 53 38 54
REMARK SMILES IDX 39 55 52 57 72 58 41 59 26 60 27 61 35 62 28 63 34 64 29 65
REMARK SMILES IDX 30 66 31 67 32 68 33 69 56 70 57 71 65 72 58 73 64 74 59 75
REMARK SMILES IDX 60 76 61 77 62 78 63 79 42 80 43 81 51 82 44 83 50 84 45 85
REMARK SMILES IDX 46 86 47 87 48 88 49 89
REMARK H PARENT 70 45 40 56
REMARK Flexibility Score: inf
ROOT
ATOM      1  C   UNL     1       1.175  -1.641  -2.453  1.00  0.00     0.188 C 
ENDROOT
BRANCH   1   2
ATOM      2  C   UNL     1       0.338  -1.105  -3.629  1.00  0.00     0.188 C 
BRANCH   2   3
ATOM      3  O   UNL     1       0.982  -0.730  -4.841  1.00  0.00    -0.376 OA
BRANCH   3   4
ATOM      4  C   UNL     1       2.258  -0.111  -4.807  1.00  0.00     0.202 C 
BRANCH   4   5
ATOM      5  C   UNL     1       2.476   1.159  -3.966  1.00  0.00     0.261 C 
BRANCH   5   6
ATOM      6  O   UNL     1       2.049   1.129  -2.587  1.00  0.00    -0.462 OA
BRANCH   6   7
ATOM      7  C   UNL     1       0.899   1.806  -2.316  1.00  0.00     0.329 C 
ATOM      8  O   UNL     1       0.229   2.365  -3.180  1.00  0.00    -0.250 OA
BRANCH   7   9
ATOM      9  C   UNL     1       0.525   1.868  -0.818  1.00  0.00     0.201 C 
ATOM     10  C   UNL     1       1.237   0.926   0.155  1.00  0.00     0.044 C 
BRANCH   9  11
ATOM     11  N   UNL     1      -0.943   1.807  -0.740  1.00  0.00    -0.257 N 
ATOM     12  C   UNL     1      -1.722   0.682  -0.676  1.00  0.00     0.282 C 
ATOM     13  C   UNL     1      -1.719   2.930  -0.934  1.00  0.00     0.282 C 
ATOM     14  O   UNL     1      -1.360  -0.480  -0.578  1.00  0.00    -0.267 OA
ATOM     15  C   UNL     1      -3.113   1.121  -0.786  1.00  0.00     0.160 A 
ATOM     16  C   UNL     1      -3.109   2.474  -0.992  1.00  0.00     0.160 A 
ATOM     17  O   UNL     1      -1.335   4.080  -1.020  1.00  0.00    -0.267 OA
ATOM     18  N   UNL     1      -4.224   0.363  -0.720  1.00  0.00    -0.247 NA
ATOM     19  N   UNL     1      -4.216   3.214  -1.182  1.00  0.00    -0.247 NA
ATOM     20  C   UNL     1      -5.362   1.087  -0.919  1.00  0.00     0.132 A 
ATOM     21  C   UNL     1      -5.356   2.469  -1.161  1.00  0.00     0.132 A 
ENDBRANCH   9  11
ENDBRANCH   7   9
ENDBRANCH   6   7
ENDBRANCH   5   6
ENDBRANCH   4   5
ENDBRANCH   3   4
ENDBRANCH   2   3
ENDBRANCH   1   2
BRANCH   1  22
ATOM     22  O   UNL     1       2.535  -1.848  -2.759  1.00  0.00    -0.376 OA
BRANCH  22  23
ATOM     23  C   UNL     1       3.003  -3.177  -2.872  1.00  0.00     0.202 C 
BRANCH  23  24
ATOM     24  C   UNL     1       2.214  -4.243  -3.658  1.00  0.00     0.261 C 
BRANCH  24  25
ATOM     25  O   UNL     1       0.781  -4.149  -3.654  1.00  0.00    -0.460 OA
BRANCH  25  26
ATOM     26  C   UNL     1       0.124  -4.733  -2.623  1.00  0.00     0.338 C 
ATOM     27  O   UNL     1       0.624  -5.328  -1.685  1.00  0.00    -0.246 OA
BRANCH  26  28
ATOM     28  C   UNL     1      -1.308  -4.362  -2.721  1.00  0.00     0.060 A 
ATOM     29  C   UNL     1      -1.841  -3.465  -1.787  1.00  0.00     0.016 A 
ATOM     30  C   UNL     1      -2.123  -4.894  -3.722  1.00  0.00     0.016 A 
ATOM     31  C   UNL     1      -3.186  -3.094  -1.849  1.00  0.00     0.010 A 
ATOM     32  C   UNL     1      -3.481  -4.548  -3.762  1.00  0.00     0.010 A 
ATOM     33  C   UNL     1      -4.025  -3.660  -2.815  1.00  0.00    -0.014 A 
BRANCH  33  34
ATOM     34  C   UNL     1      -5.496  -3.473  -2.714  1.00  0.00     0.031 A 
ATOM     35  C   UNL     1      -6.311  -4.567  -2.078  1.00  0.00     0.074 A 
ATOM     36  C   UNL     1      -6.103  -2.353  -3.147  1.00  0.00     0.049 A 
ATOM     37  N   UNL     1      -7.609  -4.680  -1.968  1.00  0.00    -0.248 NA
ATOM     38  C   UNL     1      -5.555  -5.686  -1.491  1.00  0.00     0.031 C 
ATOM     39  C   UNL     1      -5.428  -1.190  -3.720  1.00  0.00     0.029 A 
ATOM     40  N   UNL     1      -7.436  -2.017  -3.179  1.00  0.00    -0.354 N 
ATOM     41  C   UNL     1      -7.828  -5.893  -1.323  1.00  0.00     0.074 A 
ATOM     42  C   UNL     1      -6.530  -6.485  -1.083  1.00  0.00     0.031 C 
ATOM     43  C   UNL     1      -6.353  -0.274  -4.060  1.00  0.00     0.029 A 
ATOM     44  C   UNL     1      -7.686  -0.802  -3.772  1.00  0.00     0.049 A 
ATOM     45  H   UNL     1      -8.146  -2.592  -2.811  1.00  0.00     0.167 HD
ATOM     46  C   UNL     1      -9.002  -6.465  -0.966  1.00  0.00     0.031 A 
ATOM     47  C   UNL     1      -8.855  -0.200  -4.077  1.00  0.00     0.031 A 
ATOM     48  C   UNL     1     -10.293  -5.882  -1.219  1.00  0.00     0.049 A 
ATOM     49  C   UNL     1     -10.155  -0.895  -3.752  1.00  0.00     0.074 A 
ATOM     50  C   UNL     1     -11.542  -6.388  -0.903  1.00  0.00     0.029 A 
ATOM     51  N   UNL     1     -10.504  -4.667  -1.853  1.00  0.00    -0.354 N 
ATOM     52  N   UNL     1     -10.349  -2.043  -3.145  1.00  0.00    -0.248 NA
ATOM     53  C   UNL     1     -11.395  -0.212  -4.152  1.00  0.00     0.031 C 
ATOM     54  C   UNL     1     -12.508  -5.510  -1.404  1.00  0.00     0.029 A 
ATOM     55  C   UNL     1     -11.862  -4.418  -1.961  1.00  0.00     0.049 A 
ATOM     56  H   UNL     1      -9.792  -4.069  -2.179  1.00  0.00     0.167 HD
ATOM     57  C   UNL     1     -11.730  -2.207  -3.072  1.00  0.00     0.074 A 
ATOM     58  C   UNL     1     -12.322  -1.031  -3.673  1.00  0.00     0.031 C 
ATOM     59  C   UNL     1     -12.443  -3.240  -2.555  1.00  0.00     0.031 A 
BRANCH  46  60
ATOM     60  C   UNL     1      -8.943  -7.820  -0.310  1.00  0.00    -0.014 A 
ATOM     61  C   UNL     1      -8.438  -7.986   0.992  1.00  0.00     0.010 A 
ATOM     62  C   UNL     1      -9.428  -8.945  -1.003  1.00  0.00     0.010 A 
ATOM     63  C   UNL     1      -8.380  -9.257   1.571  1.00  0.00     0.020 A 
ATOM     64  C   UNL     1      -9.403 -10.212  -0.415  1.00  0.00     0.020 A 
ATOM     65  C   UNL     1      -8.862 -10.362   0.863  1.00  0.00     0.054 A 
BRANCH  65  66
ATOM     66  S   UNL     1      -8.792 -11.995   1.648  1.00  0.00     0.124 S 
ATOM     67  O   UNL     1      -7.357 -12.271   1.643  1.00  0.00    -0.237 OA
ATOM     68  O   UNL     1      -9.378 -11.742   2.962  1.00  0.00    -0.237 OA
ATOM     69  O   UNL     1      -9.591 -12.841   0.765  1.00  0.00    -0.744 OA
ENDBRANCH  65  66
ENDBRANCH  46  60
BRANCH  47  70
ATOM     70  C   UNL     1      -8.857   1.121  -4.769  1.00  0.00    -0.014 A 
ATOM     71  C   UNL     1      -9.359   2.269  -4.130  1.00  0.00     0.010 A 
ATOM     72  C   UNL     1      -8.368   1.233  -6.084  1.00  0.00     0.010 A 
ATOM     73  C   UNL     1      -9.384   3.498  -4.798  1.00  0.00     0.020 A 
ATOM     74  C   UNL     1      -8.360   2.465  -6.742  1.00  0.00     0.020 A 
ATOM     75  C   UNL     1      -8.879   3.589  -6.098  1.00  0.00     0.054 A 
BRANCH  75  76
ATOM     76  S   UNL     1      -8.877   5.205  -6.923  1.00  0.00     0.124 S 
ATOM     77  O   UNL     1     -10.297   5.413  -7.184  1.00  0.00    -0.237 OA
ATOM     78  O   UNL     1      -8.285   6.071  -5.907  1.00  0.00    -0.237 OA
ATOM     79  O   UNL     1      -8.048   4.983  -8.106  1.00  0.00    -0.744 OA
ENDBRANCH  75  76
ENDBRANCH  47  70
BRANCH  59  80
ATOM     80  C   UNL     1     -13.948  -3.131  -2.565  1.00  0.00    -0.014 A 
ATOM     81  C   UNL     1     -14.686  -3.214  -3.759  1.00  0.00     0.010 A 
ATOM     82  C   UNL     1     -14.639  -3.008  -1.344  1.00  0.00     0.010 A 
ATOM     83  C   UNL     1     -16.083  -3.142  -3.735  1.00  0.00     0.020 A 
ATOM     84  C   UNL     1     -16.035  -2.969  -1.312  1.00  0.00     0.020 A 
ATOM     85  C   UNL     1     -16.748  -3.022  -2.510  1.00  0.00     0.054 A 
BRANCH  85  86
ATOM     86  S   UNL     1     -18.562  -2.976  -2.503  1.00  0.00     0.124 S 
ATOM     87  O   UNL     1     -18.835  -1.659  -3.073  1.00  0.00    -0.237 OA
ATOM     88  O   UNL     1     -18.914  -4.113  -3.350  1.00  0.00    -0.237 OA
ATOM     89  O   UNL     1     -18.908  -3.126  -1.091  1.00  0.00    -0.744 OA
ENDBRANCH  85  86
ENDBRANCH  59  80
ENDBRANCH  33  34
ENDBRANCH  26  28
ENDBRANCH  25  26
ENDBRANCH  24  25
ENDBRANCH  23  24
ENDBRANCH  22  23
ENDBRANCH   1  22
TORSDOF 21
