REMARK SMILES CC(C)Cc1ccc([C@H](C)C(=O)OCCOCCOCCOC(=O)c2ccc(-c3c4nc(c(-c5ccc(S(=O)(=O)[O-])cc5)c5ccc([nH]5)c(-c5ccc(S(=O)(=O)[O-])cc5)c5nc(c(-c6ccc(S(=O)(=O)[O-])cc6)c6ccc3[nH]6)C=C5)C=C4)cc2)cc1
REMARK SMILES IDX 17 1 16 2 15 3 14 4 13 5 11 6 12 7 9 8 10 9 8 10 5 11 6 12
REMARK SMILES IDX 86 13 7 14 85 15 4 16 2 17 1 18 3 19 18 20 19 21 20 22 21 23
REMARK SMILES IDX 22 24 23 25 24 26 25 27 26 28 84 29 27 30 83 31 28 32 29 33
REMARK SMILES IDX 30 34 77 35 31 36 82 37 76 38 78 39 32 40 81 41 75 42 74 43
REMARK SMILES IDX 33 45 63 46 44 47 62 48 45 49 48 50 61 51 79 52 46 53 47 54
REMARK SMILES IDX 60 56 80 57 49 58 34 59 35 60 43 61 36 62 42 63 37 64 38 65
REMARK SMILES IDX 39 66 40 67 41 68 64 69 65 70 73 71 66 72 72 73 67 74 68 75
REMARK SMILES IDX 69 76 70 77 71 78 50 79 51 80 59 81 52 82 58 83 53 84 54 85
REMARK SMILES IDX 55 86 56 87 57 88
REMARK H PARENT 78 44 48 55
REMARK Flexibility Score: inf
ROOT
ATOM      1  C   UNL     1       0.337   2.139  -6.360  1.00  0.00     0.188 C 
ENDROOT
BRANCH   1   2
ATOM      2  O   UNL     1       1.308   3.141  -6.627  1.00  0.00    -0.376 OA
BRANCH   2   3
ATOM      3  C   UNL     1       1.692   4.066  -5.619  1.00  0.00     0.202 C 
BRANCH   3   4
ATOM      4  C   UNL     1       0.625   4.926  -4.923  1.00  0.00     0.261 C 
BRANCH   4   5
ATOM      5  O   UNL     1      -0.325   4.223  -4.099  1.00  0.00    -0.463 OA
BRANCH   5   6
ATOM      6  C   UNL     1      -1.595   4.130  -4.584  1.00  0.00     0.313 C 
ATOM      7  O   UNL     1      -1.936   4.553  -5.685  1.00  0.00    -0.252 OA
BRANCH   6   8
ATOM      8  C   UNL     1      -2.595   3.511  -3.595  1.00  0.00     0.126 C 
ATOM      9  C   UNL     1      -2.021   2.397  -2.693  1.00  0.00     0.025 C 
BRANCH   8  10
ATOM     10  C   UNL     1      -3.373   4.561  -2.816  1.00  0.00    -0.034 A 
ATOM     11  C   UNL     1      -5.020   6.416  -1.480  1.00  0.00    -0.048 A 
ATOM     12  C   UNL     1      -4.998   5.077  -1.090  1.00  0.00     0.004 A 
ATOM     13  C   UNL     1      -4.171   6.838  -2.503  1.00  0.00     0.004 A 
ATOM     14  C   UNL     1      -4.237   4.155  -1.790  1.00  0.00     0.005 A 
ATOM     15  C   UNL     1      -3.346   5.922  -3.155  1.00  0.00     0.005 A 
BRANCH  11  16
ATOM     16  C   UNL     1      -6.014   7.357  -0.859  1.00  0.00     0.038 C 
BRANCH  16  17
ATOM     17  C   UNL     1      -7.461   7.122  -1.352  1.00  0.00    -0.013 C 
ATOM     18  C   UNL     1      -8.049   5.771  -0.923  1.00  0.00     0.008 C 
ATOM     19  C   UNL     1      -8.354   8.244  -0.828  1.00  0.00     0.008 C 
ENDBRANCH  16  17
ENDBRANCH  11  16
ENDBRANCH   8  10
ENDBRANCH   6   8
ENDBRANCH   5   6
ENDBRANCH   4   5
ENDBRANCH   3   4
ENDBRANCH   2   3
ENDBRANCH   1   2
BRANCH   1  20
ATOM     20  C   UNL     1       0.296   1.486  -4.976  1.00  0.00     0.188 C 
BRANCH  20  21
ATOM     21  O   UNL     1       1.379   1.787  -4.133  1.00  0.00    -0.376 OA
BRANCH  21  22
ATOM     22  C   UNL     1       2.387   0.817  -3.934  1.00  0.00     0.202 C 
BRANCH  22  23
ATOM     23  C   UNL     1       2.875  -0.100  -5.071  1.00  0.00     0.261 C 
BRANCH  23  24
ATOM     24  O   UNL     1       1.920  -0.514  -6.059  1.00  0.00    -0.460 OA
BRANCH  24  25
ATOM     25  C   UNL     1       1.060  -1.507  -5.732  1.00  0.00     0.338 C 
ATOM     26  O   UNL     1       1.005  -2.103  -4.668  1.00  0.00    -0.246 OA
BRANCH  25  27
ATOM     27  C   UNL     1       0.030  -1.568  -6.800  1.00  0.00     0.060 A 
ATOM     28  C   UNL     1      -1.318  -1.352  -6.473  1.00  0.00     0.016 A 
ATOM     29  C   UNL     1       0.401  -1.792  -8.127  1.00  0.00     0.016 A 
ATOM     30  C   UNL     1      -2.300  -1.386  -7.468  1.00  0.00     0.010 A 
ATOM     31  C   UNL     1      -0.585  -1.852  -9.116  1.00  0.00     0.010 A 
ATOM     32  C   UNL     1      -1.943  -1.679  -8.790  1.00  0.00    -0.014 A 
BRANCH  32  33
ATOM     33  C   UNL     1      -2.975  -2.028  -9.799  1.00  0.00     0.031 A 
ATOM     34  C   UNL     1      -3.248  -3.488 -10.048  1.00  0.00     0.074 A 
ATOM     35  C   UNL     1      -3.633  -1.092 -10.506  1.00  0.00     0.049 A 
ATOM     36  N   UNL     1      -3.990  -4.053 -10.963  1.00  0.00    -0.248 NA
ATOM     37  C   UNL     1      -2.580  -4.438  -9.141  1.00  0.00     0.031 C 
ATOM     38  C   UNL     1      -3.517   0.353 -10.321  1.00  0.00     0.029 A 
ATOM     39  N   UNL     1      -4.525  -1.228 -11.543  1.00  0.00    -0.354 N 
ATOM     40  C   UNL     1      -3.860  -5.422 -10.760  1.00  0.00     0.074 A 
ATOM     41  C   UNL     1      -2.952  -5.602  -9.648  1.00  0.00     0.031 C 
ATOM     42  C   UNL     1      -4.299   0.971 -11.226  1.00  0.00     0.029 A 
ATOM     43  C   UNL     1      -4.931  -0.031 -12.083  1.00  0.00     0.049 A 
ATOM     44  H   UNL     1      -4.843  -2.101 -11.869  1.00  0.00     0.167 HD
ATOM     45  C   UNL     1      -4.440  -6.440 -11.439  1.00  0.00     0.031 A 
ATOM     46  C   UNL     1      -5.699   0.225 -13.163  1.00  0.00     0.031 A 
ATOM     47  C   UNL     1      -5.325  -6.259 -12.558  1.00  0.00     0.049 A 
ATOM     48  C   UNL     1      -6.252  -0.925 -13.971  1.00  0.00     0.074 A 
ATOM     49  C   UNL     1      -5.973  -7.226 -13.306  1.00  0.00     0.029 A 
ATOM     50  N   UNL     1      -5.677  -5.032 -13.098  1.00  0.00    -0.354 N 
ATOM     51  N   UNL     1      -6.135  -2.215 -13.761  1.00  0.00    -0.248 NA
ATOM     52  C   UNL     1      -7.042  -0.583 -15.164  1.00  0.00     0.031 C 
ATOM     53  C   UNL     1      -6.663  -6.586 -14.340  1.00  0.00     0.029 A 
ATOM     54  C   UNL     1      -6.507  -5.217 -14.190  1.00  0.00     0.049 A 
ATOM     55  H   UNL     1      -5.380  -4.157 -12.755  1.00  0.00     0.167 HD
ATOM     56  C   UNL     1      -6.869  -2.834 -14.770  1.00  0.00     0.074 A 
ATOM     57  C   UNL     1      -7.428  -1.779 -15.588  1.00  0.00     0.031 C 
ATOM     58  C   UNL     1      -7.068  -4.158 -14.992  1.00  0.00     0.031 A 
BRANCH  45  59
ATOM     59  C   UNL     1      -4.084  -7.842 -11.019  1.00  0.00    -0.014 A 
ATOM     60  C   UNL     1      -4.512  -8.370  -9.787  1.00  0.00     0.010 A 
ATOM     61  C   UNL     1      -3.317  -8.649 -11.879  1.00  0.00     0.010 A 
ATOM     62  C   UNL     1      -4.133  -9.659  -9.401  1.00  0.00     0.020 A 
ATOM     63  C   UNL     1      -2.964  -9.950 -11.511  1.00  0.00     0.020 A 
ATOM     64  C   UNL     1      -3.356 -10.438 -10.264  1.00  0.00     0.054 A 
BRANCH  64  65
ATOM     65  S   UNL     1      -2.879 -12.106  -9.736  1.00  0.00     0.124 S 
ATOM     66  O   UNL     1      -1.889 -11.821  -8.700  1.00  0.00    -0.237 OA
ATOM     67  O   UNL     1      -4.142 -12.665  -9.261  1.00  0.00    -0.237 OA
ATOM     68  O   UNL     1      -2.347 -12.717 -10.952  1.00  0.00    -0.744 OA
ENDBRANCH  64  65
ENDBRANCH  45  59
BRANCH  46  69
ATOM     69  C   UNL     1      -5.986   1.632 -13.563  1.00  0.00    -0.014 A 
ATOM     70  C   UNL     1      -7.289   2.150 -13.461  1.00  0.00     0.010 A 
ATOM     71  C   UNL     1      -4.962   2.460 -14.061  1.00  0.00     0.010 A 
ATOM     72  C   UNL     1      -7.567   3.462 -13.859  1.00  0.00     0.020 A 
ATOM     73  C   UNL     1      -5.229   3.782 -14.432  1.00  0.00     0.020 A 
ATOM     74  C   UNL     1      -6.533   4.271 -14.338  1.00  0.00     0.054 A 
BRANCH  74  75
ATOM     75  S   UNL     1      -6.910   5.986 -14.800  1.00  0.00     0.124 S 
ATOM     76  O   UNL     1      -7.684   5.808 -16.025  1.00  0.00    -0.237 OA
ATOM     77  O   UNL     1      -7.660   6.465 -13.642  1.00  0.00    -0.237 OA
ATOM     78  O   UNL     1      -5.592   6.592 -14.974  1.00  0.00    -0.744 OA
ENDBRANCH  74  75
ENDBRANCH  46  69
BRANCH  58  79
ATOM     79  C   UNL     1      -7.973  -4.556 -16.131  1.00  0.00    -0.014 A 
ATOM     80  C   UNL     1      -7.570  -4.428 -17.472  1.00  0.00     0.010 A 
ATOM     81  C   UNL     1      -9.215  -5.154 -15.845  1.00  0.00     0.010 A 
ATOM     82  C   UNL     1      -8.402  -4.873 -18.505  1.00  0.00     0.020 A 
ATOM     83  C   UNL     1     -10.035  -5.627 -16.873  1.00  0.00     0.020 A 
ATOM     84  C   UNL     1      -9.627  -5.476 -18.198  1.00  0.00     0.054 A 
BRANCH  84  85
ATOM     85  S   UNL     1     -10.653  -6.108 -19.554  1.00  0.00     0.124 S 
ATOM     86  O   UNL     1     -11.141  -4.877 -20.168  1.00  0.00    -0.237 OA
ATOM     87  O   UNL     1      -9.696  -6.872 -20.350  1.00  0.00    -0.237 OA
ATOM     88  O   UNL     1     -11.670  -6.910 -18.875  1.00  0.00    -0.744 OA
ENDBRANCH  84  85
ENDBRANCH  58  79
ENDBRANCH  32  33
ENDBRANCH  25  27
ENDBRANCH  24  25
ENDBRANCH  23  24
ENDBRANCH  22  23
ENDBRANCH  21  22
ENDBRANCH  20  21
ENDBRANCH   1  20
TORSDOF 23
