REMARK SMILES Cn1cc(CCC(=O)N2CCCC2)cc1C(=O)OCCOCCOCCOC(=O)c1ccc(-c2c3nc(c(-c4ccc(S(=O)(=O)[O-])cc4)c4ccc([nH]4)c(-c4ccc(S(=O)(=O)[O-])cc4)c4nc(c(-c5ccc(S(=O)(=O)[O-])cc5)c5ccc2[nH]5)C=C4)C=C3)cc1
REMARK SMILES IDX 22 1 21 2 20 3 19 4 18 5 16 6 17 7 15 8 1 9 2 10 3 11 4 12
REMARK SMILES IDX 14 13 5 14 6 15 7 16 8 17 9 18 10 19 13 20 11 21 12 22 23 23
REMARK SMILES IDX 24 24 25 25 26 26 27 27 28 28 29 29 30 30 31 31 89 32 32 33
REMARK SMILES IDX 88 34 33 35 34 36 35 37 82 38 36 39 87 40 81 41 83 42 37 43
REMARK SMILES IDX 86 44 80 45 79 46 38 48 68 49 49 50 67 51 50 52 53 53 66 54
REMARK SMILES IDX 84 55 51 56 52 57 65 59 85 60 54 61 39 62 40 63 48 64 41 65
REMARK SMILES IDX 47 66 42 67 43 68 44 69 45 70 46 71 69 72 70 73 78 74 71 75
REMARK SMILES IDX 77 76 72 77 73 78 74 79 75 80 76 81 55 82 56 83 64 84 57 85
REMARK SMILES IDX 63 86 58 87 59 88 60 89 61 90 62 91
REMARK H PARENT 83 47 53 58
REMARK Flexibility Score: inf
ROOT
ATOM      1  C   UNL     1       0.053  -3.857   1.458  1.00  0.00     0.188 C 
ENDROOT
BRANCH   1   2
ATOM      2  O   UNL     1       0.972  -4.915   1.297  1.00  0.00    -0.376 OA
BRANCH   2   3
ATOM      3  C   UNL     1       1.481  -5.200   0.010  1.00  0.00     0.202 C 
BRANCH   3   4
ATOM      4  C   UNL     1       2.080  -4.094  -0.872  1.00  0.00     0.261 C 
BRANCH   4   5
ATOM      5  O   UNL     1       1.484  -2.794  -0.809  1.00  0.00    -0.459 OA
BRANCH   5   6
ATOM      6  C   UNL     1       0.408  -2.550  -1.601  1.00  0.00     0.355 C 
ATOM      7  O   UNL     1      -0.158  -3.398  -2.278  1.00  0.00    -0.244 OA
BRANCH   6   8
ATOM      8  C   UNL     1      -0.010  -1.175  -1.422  1.00  0.00     0.127 A 
ATOM      9  C   UNL     1       2.220  -0.000  -1.698  1.00  0.00     0.150 C 
ATOM     10  N   UNL     1       0.789  -0.050  -1.497  1.00  0.00    -0.345 N 
ATOM     11  C   UNL     1       0.024   1.078  -1.341  1.00  0.00     0.089 A 
ATOM     12  C   UNL     1      -1.253   0.697  -0.992  1.00  0.00    -0.029 A 
ATOM     13  C   UNL     1      -1.288  -0.720  -1.119  1.00  0.00     0.039 A 
BRANCH  12  14
ATOM     14  C   UNL     1      -2.360   1.609  -0.564  1.00  0.00     0.047 C 
BRANCH  14  15
ATOM     15  C   UNL     1      -2.335   1.918   0.932  1.00  0.00     0.105 C 
BRANCH  15  16
ATOM     16  C   UNL     1      -1.282   2.944   1.321  1.00  0.00     0.222 C 
ATOM     17  O   UNL     1      -1.486   4.144   1.113  1.00  0.00    -0.275 OA
ATOM     18  N   UNL     1      -0.129   2.512   1.940  1.00  0.00    -0.343 N 
ATOM     19  C   UNL     1       0.350   1.149   2.104  1.00  0.00     0.119 C 
ATOM     20  C   UNL     1       0.817   3.462   2.502  1.00  0.00     0.119 C 
ATOM     21  C   UNL     1       1.495   1.254   3.098  1.00  0.00     0.023 C 
ATOM     22  C   UNL     1       2.059   2.641   2.816  1.00  0.00     0.023 C 
ENDBRANCH  15  16
ENDBRANCH  14  15
ENDBRANCH  12  14
ENDBRANCH   6   8
ENDBRANCH   5   6
ENDBRANCH   4   5
ENDBRANCH   3   4
ENDBRANCH   2   3
ENDBRANCH   1   2
BRANCH   1  23
ATOM     23  C   UNL     1       0.684  -2.619   2.127  1.00  0.00     0.188 C 
BRANCH  23  24
ATOM     24  O   UNL     1       1.991  -2.692   2.694  1.00  0.00    -0.376 OA
BRANCH  24  25
ATOM     25  C   UNL     1       2.393  -3.854   3.410  1.00  0.00     0.202 C 
BRANCH  25  26
ATOM     26  C   UNL     1       1.596  -4.291   4.646  1.00  0.00     0.261 C 
BRANCH  26  27
ATOM     27  O   UNL     1       0.182  -4.424   4.442  1.00  0.00    -0.460 OA
BRANCH  27  28
ATOM     28  C   UNL     1      -0.579  -3.488   5.060  1.00  0.00     0.338 C 
ATOM     29  O   UNL     1      -0.191  -2.563   5.753  1.00  0.00    -0.246 OA
BRANCH  28  30
ATOM     30  C   UNL     1      -1.985  -3.632   4.633  1.00  0.00     0.060 A 
ATOM     31  C   UNL     1      -2.619  -2.512   4.080  1.00  0.00     0.016 A 
ATOM     32  C   UNL     1      -2.685  -4.826   4.817  1.00  0.00     0.016 A 
ATOM     33  C   UNL     1      -3.966  -2.575   3.730  1.00  0.00     0.010 A 
ATOM     34  C   UNL     1      -4.042  -4.881   4.483  1.00  0.00     0.010 A 
ATOM     35  C   UNL     1      -4.694  -3.749   3.964  1.00  0.00    -0.014 A 
BRANCH  35  36
ATOM     36  C   UNL     1      -6.169  -3.739   3.812  1.00  0.00     0.031 A 
ATOM     37  C   UNL     1      -7.019  -3.469   5.023  1.00  0.00     0.074 A 
ATOM     38  C   UNL     1      -6.744  -3.948   2.614  1.00  0.00     0.049 A 
ATOM     39  N   UNL     1      -8.322  -3.417   5.125  1.00  0.00    -0.248 NA
ATOM     40  C   UNL     1      -6.303  -3.223   6.286  1.00  0.00     0.031 C 
ATOM     41  C   UNL     1      -6.029  -4.181   1.360  1.00  0.00     0.029 A 
ATOM     42  N   UNL     1      -8.069  -4.000   2.263  1.00  0.00    -0.354 N 
ATOM     43  C   UNL     1      -8.584  -3.137   6.460  1.00  0.00     0.074 A 
ATOM     44  C   UNL     1      -7.306  -3.054   7.135  1.00  0.00     0.031 C 
ATOM     45  C   UNL     1      -6.927  -4.358   0.375  1.00  0.00     0.029 A 
ATOM     46  C   UNL     1      -8.276  -4.278   0.933  1.00  0.00     0.049 A 
ATOM     47  H   UNL     1      -8.803  -3.852   2.903  1.00  0.00     0.167 HD
ATOM     48  C   UNL     1      -9.779  -2.963   7.072  1.00  0.00     0.031 A 
ATOM     49  C   UNL     1      -9.423  -4.463   0.249  1.00  0.00     0.031 A 
ATOM     50  C   UNL     1     -11.050  -3.071   6.409  1.00  0.00     0.049 A 
ATOM     51  C   UNL     1     -10.742  -4.343   0.968  1.00  0.00     0.074 A 
ATOM     52  C   UNL     1     -12.316  -2.897   6.940  1.00  0.00     0.029 A 
ATOM     53  N   UNL     1     -11.218  -3.397   5.071  1.00  0.00    -0.354 N 
ATOM     54  N   UNL     1     -10.973  -4.044   2.224  1.00  0.00    -0.248 NA
ATOM     55  C   UNL     1     -11.956  -4.581   0.172  1.00  0.00     0.031 C 
ATOM     56  C   UNL     1     -13.252  -3.170   5.935  1.00  0.00     0.029 A 
ATOM     57  C   UNL     1     -12.567  -3.459   4.766  1.00  0.00     0.049 A 
ATOM     58  H   UNL     1     -10.486  -3.560   4.434  1.00  0.00     0.167 HD
ATOM     59  C   UNL     1     -12.358  -4.031   2.362  1.00  0.00     0.074 A 
ATOM     60  C   UNL     1     -12.912  -4.344   1.061  1.00  0.00     0.031 C 
ATOM     61  C   UNL     1     -13.104  -3.776   3.466  1.00  0.00     0.031 A 
BRANCH  48  62
ATOM     62  C   UNL     1      -9.760  -2.679   8.549  1.00  0.00    -0.014 A 
ATOM     63  C   UNL     1      -9.340  -1.431   9.045  1.00  0.00     0.010 A 
ATOM     64  C   UNL     1     -10.177  -3.671   9.454  1.00  0.00     0.010 A 
ATOM     65  C   UNL     1      -9.294  -1.197  10.422  1.00  0.00     0.020 A 
ATOM     66  C   UNL     1     -10.155  -3.433  10.830  1.00  0.00     0.020 A 
ATOM     67  C   UNL     1      -9.694  -2.204  11.306  1.00  0.00     0.054 A 
BRANCH  67  68
ATOM     68  S   UNL     1      -9.625  -1.878  13.089  1.00  0.00     0.124 S 
ATOM     69  O   UNL     1      -8.191  -1.965  13.354  1.00  0.00    -0.237 OA
ATOM     70  O   UNL     1     -10.203  -0.540  13.195  1.00  0.00    -0.237 OA
ATOM     71  O   UNL     1     -10.432  -2.949  13.669  1.00  0.00    -0.744 OA
ENDBRANCH  67  68
ENDBRANCH  48  62
BRANCH  49  72
ATOM     72  C   UNL     1      -9.377  -4.794  -1.200  1.00  0.00    -0.014 A 
ATOM     73  C   UNL     1      -9.778  -3.852  -2.163  1.00  0.00     0.010 A 
ATOM     74  C   UNL     1      -8.926  -6.058  -1.625  1.00  0.00     0.010 A 
ATOM     75  C   UNL     1      -9.740  -4.170  -3.524  1.00  0.00     0.020 A 
ATOM     76  C   UNL     1      -8.865  -6.371  -2.986  1.00  0.00     0.020 A 
ATOM     77  C   UNL     1      -9.282  -5.428  -3.927  1.00  0.00     0.054 A 
BRANCH  77  78
ATOM     78  S   UNL     1      -9.189  -5.800  -5.701  1.00  0.00     0.124 S 
ATOM     79  O   UNL     1     -10.592  -6.013  -6.040  1.00  0.00    -0.237 OA
ATOM     80  O   UNL     1      -8.582  -4.589  -6.247  1.00  0.00    -0.237 OA
ATOM     81  O   UNL     1      -8.343  -6.990  -5.755  1.00  0.00    -0.744 OA
ENDBRANCH  77  78
ENDBRANCH  49  72
BRANCH  61  82
ATOM     82  C   UNL     1     -14.602  -3.792   3.314  1.00  0.00    -0.014 A 
ATOM     83  C   UNL     1     -15.308  -5.000   3.176  1.00  0.00     0.010 A 
ATOM     84  C   UNL     1     -15.318  -2.582   3.375  1.00  0.00     0.010 A 
ATOM     85  C   UNL     1     -16.702  -4.995   3.075  1.00  0.00     0.020 A 
ATOM     86  C   UNL     1     -16.713  -2.575   3.298  1.00  0.00     0.020 A 
ATOM     87  C   UNL     1     -17.396  -3.782   3.135  1.00  0.00     0.054 A 
BRANCH  87  88
ATOM     88  S   UNL     1     -19.209  -3.804   3.051  1.00  0.00     0.124 S 
ATOM     89  O   UNL     1     -19.443  -4.044   1.630  1.00  0.00    -0.237 OA
ATOM     90  O   UNL     1     -19.560  -4.908   3.941  1.00  0.00    -0.237 OA
ATOM     91  O   UNL     1     -19.593  -2.479   3.532  1.00  0.00    -0.744 OA
ENDBRANCH  87  88
ENDBRANCH  61  82
ENDBRANCH  35  36
ENDBRANCH  28  30
ENDBRANCH  27  28
ENDBRANCH  26  27
ENDBRANCH  25  26
ENDBRANCH  24  25
ENDBRANCH  23  24
ENDBRANCH   1  23
TORSDOF 23
