REMARK SMILES COc1ccc(Nc2c(C(=O)OCCOCCOCCOC(=O)c3ccc(-c4c5nc(c(-c6ccc(S(=O)(=O)[O-])cc6)c6ccc([nH]6)c(-c6ccc(S(=O)(=O)[O-])cc6)c6nc(c(-c7ccc(S(=O)(=O)[O-])cc7)c7ccc4[nH]7)C=C6)C=C5)cc3)[nH]c(=O)[nH]c2=O)cc1
REMARK SMILES IDX 16 1 15 2 14 3 13 4 12 5 10 6 11 7 9 8 8 9 88 10 84 11 87 12
REMARK SMILES IDX 89 13 85 14 86 17 7 18 6 20 3 21 4 22 91 23 5 24 90 25 2 26
REMARK SMILES IDX 1 27 17 28 18 29 19 30 20 31 21 32 22 33 23 34 24 35 25 36
REMARK SMILES IDX 83 37 26 38 82 39 27 40 28 41 29 42 76 43 30 44 81 45 75 46
REMARK SMILES IDX 77 47 31 48 80 49 74 50 73 51 32 53 62 54 43 55 61 56 44 57
REMARK SMILES IDX 47 58 60 59 78 60 45 61 46 62 59 64 79 65 48 66 33 67 34 68
REMARK SMILES IDX 42 69 35 70 41 71 36 72 37 73 38 74 39 75 40 76 63 77 64 78
REMARK SMILES IDX 72 79 65 80 71 81 66 82 67 83 68 84 69 85 70 86 49 87 50 88
REMARK SMILES IDX 58 89 51 90 57 91 52 92 53 93 54 94 55 95 56 96
REMARK H PARENT 84 15 87 16 7 19 77 52 47 63
REMARK Flexibility Score: inf
ROOT
ATOM      1  C   UNL     1       2.532   3.632  -8.946  1.00  0.00     0.188 C 
ENDROOT
BRANCH   1   2
ATOM      2  O   UNL     1       3.872   3.361  -9.336  1.00  0.00    -0.376 OA
BRANCH   2   3
ATOM      3  C   UNL     1       4.889   3.189  -8.360  1.00  0.00     0.202 C 
BRANCH   3   4
ATOM      4  C   UNL     1       5.080   4.234  -7.247  1.00  0.00     0.261 C 
BRANCH   4   5
ATOM      5  O   UNL     1       3.895   4.559  -6.499  1.00  0.00    -0.459 OA
BRANCH   5   6
ATOM      6  C   UNL     1       3.397   5.807  -6.699  1.00  0.00     0.357 C 
ATOM      7  O   UNL     1       3.913   6.684  -7.378  1.00  0.00    -0.244 OA
BRANCH   6   8
ATOM      8  C   UNL     1       2.008   5.962  -6.161  1.00  0.00     0.158 A 
ATOM      9  C   UNL     1       1.540   5.323  -5.066  1.00  0.00     0.136 A 
ATOM     10  C   UNL     1       0.150   5.765  -4.646  1.00  0.00     0.278 A 
ATOM     11  N   UNL     1       1.193   6.746  -6.950  1.00  0.00    -0.299 N 
ATOM     12  N   UNL     1      -0.619   6.374  -5.596  1.00  0.00    -0.272 N 
ATOM     13  O   UNL     1      -0.282   5.626  -3.504  1.00  0.00    -0.267 OA
ATOM     14  C   UNL     1      -0.140   6.905  -6.750  1.00  0.00     0.326 A 
ATOM     15  H   UNL     1       1.605   7.221  -7.708  1.00  0.00     0.172 HD
ATOM     16  H   UNL     1      -1.588   6.433  -5.433  1.00  0.00     0.175 HD
ATOM     17  O   UNL     1      -0.860   7.492  -7.546  1.00  0.00    -0.248 OA
BRANCH   9  18
ATOM     18  N   UNL     1       2.234   4.391  -4.303  1.00  0.00    -0.349 N 
ATOM     19  H   UNL     1       3.200   4.562  -4.218  1.00  0.00     0.167 HD
BRANCH  18  20
ATOM     20  C   UNL     1       1.772   3.239  -3.631  1.00  0.00     0.039 A 
ATOM     21  C   UNL     1       0.978   0.977  -2.131  1.00  0.00     0.119 A 
ATOM     22  C   UNL     1       0.074   1.615  -2.974  1.00  0.00     0.048 A 
ATOM     23  C   UNL     1       2.291   1.432  -2.064  1.00  0.00     0.048 A 
ATOM     24  C   UNL     1       0.467   2.741  -3.709  1.00  0.00     0.030 A 
ATOM     25  C   UNL     1       2.676   2.560  -2.798  1.00  0.00     0.030 A 
BRANCH  21  26
ATOM     26  O   UNL     1       0.515  -0.114  -1.449  1.00  0.00    -0.497 OA
ATOM     27  C   UNL     1       0.916  -0.136  -0.082  1.00  0.00     0.278 C 
ENDBRANCH  21  26
ENDBRANCH  18  20
ENDBRANCH   9  18
ENDBRANCH   6   8
ENDBRANCH   5   6
ENDBRANCH   4   5
ENDBRANCH   3   4
ENDBRANCH   2   3
ENDBRANCH   1   2
BRANCH   1  28
ATOM     28  C   UNL     1       1.874   2.800  -7.825  1.00  0.00     0.188 C 
BRANCH  28  29
ATOM     29  O   UNL     1       2.744   1.871  -7.228  1.00  0.00    -0.376 OA
BRANCH  29  30
ATOM     30  C   UNL     1       2.626   0.507  -7.597  1.00  0.00     0.202 C 
BRANCH  30  31
ATOM     31  C   UNL     1       2.276   0.037  -9.027  1.00  0.00     0.261 C 
BRANCH  31  32
ATOM     32  O   UNL     1       1.600   0.948  -9.904  1.00  0.00    -0.460 OA
BRANCH  32  33
ATOM     33  C   UNL     1       0.247   0.902  -9.937  1.00  0.00     0.338 C 
ATOM     34  O   UNL     1      -0.480   0.204  -9.248  1.00  0.00    -0.246 OA
BRANCH  33  35
ATOM     35  C   UNL     1      -0.223   1.978 -10.835  1.00  0.00     0.060 A 
ATOM     36  C   UNL     1      -0.827   3.120 -10.290  1.00  0.00     0.016 A 
ATOM     37  C   UNL     1      -0.041   1.870 -12.215  1.00  0.00     0.016 A 
ATOM     38  C   UNL     1      -1.233   4.167 -11.124  1.00  0.00     0.010 A 
ATOM     39  C   UNL     1      -0.473   2.906 -13.049  1.00  0.00     0.010 A 
ATOM     40  C   UNL     1      -1.075   4.059 -12.512  1.00  0.00    -0.014 A 
BRANCH  40  41
ATOM     41  C   UNL     1      -1.612   5.095 -13.430  1.00  0.00     0.031 A 
ATOM     42  C   UNL     1      -2.919   4.845 -14.129  1.00  0.00     0.074 A 
ATOM     43  C   UNL     1      -0.922   6.224 -13.677  1.00  0.00     0.049 A 
ATOM     44  N   UNL     1      -3.502   5.541 -15.070  1.00  0.00    -0.248 NA
ATOM     45  C   UNL     1      -3.665   3.645 -13.715  1.00  0.00     0.031 C 
ATOM     46  C   UNL     1       0.331   6.608 -13.028  1.00  0.00     0.029 A 
ATOM     47  N   UNL     1      -1.169   7.246 -14.561  1.00  0.00    -0.354 N 
ATOM     48  C   UNL     1      -4.675   4.859 -15.373  1.00  0.00     0.074 A 
ATOM     49  C   UNL     1      -4.710   3.684 -14.529  1.00  0.00     0.031 C 
ATOM     50  C   UNL     1       0.754   7.772 -13.552  1.00  0.00     0.029 A 
ATOM     51  C   UNL     1      -0.170   8.190 -14.606  1.00  0.00     0.049 A 
ATOM     52  H   UNL     1      -1.985   7.298 -15.111  1.00  0.00     0.167 HD
ATOM     53  C   UNL     1      -5.632   5.182 -16.275  1.00  0.00     0.031 A 
ATOM     54  C   UNL     1       0.003   9.246 -15.428  1.00  0.00     0.031 A 
ATOM     55  C   UNL     1      -5.580   6.341 -17.127  1.00  0.00     0.049 A 
ATOM     56  C   UNL     1      -1.023   9.527 -16.496  1.00  0.00     0.074 A 
ATOM     57  C   UNL     1      -6.513   6.766 -18.058  1.00  0.00     0.029 A 
ATOM     58  N   UNL     1      -4.534   7.251 -17.168  1.00  0.00    -0.354 N 
ATOM     59  N   UNL     1      -2.146   8.896 -16.748  1.00  0.00    -0.248 NA
ATOM     60  C   UNL     1      -0.757  10.659 -17.396  1.00  0.00     0.031 C 
ATOM     61  C   UNL     1      -5.997   7.889 -18.712  1.00  0.00     0.029 A 
ATOM     62  C   UNL     1      -4.775   8.207 -18.140  1.00  0.00     0.049 A 
ATOM     63  H   UNL     1      -3.736   7.221 -16.590  1.00  0.00     0.167 HD
ATOM     64  C   UNL     1      -2.727   9.565 -17.821  1.00  0.00     0.074 A 
ATOM     65  C   UNL     1      -1.844  10.662 -18.158  1.00  0.00     0.031 C 
ATOM     66  C   UNL     1      -3.886   9.294 -18.470  1.00  0.00     0.031 A 
BRANCH  53  67
ATOM     67  C   UNL     1      -6.802   4.243 -16.422  1.00  0.00    -0.014 A 
ATOM     68  C   UNL     1      -7.774   4.122 -15.413  1.00  0.00     0.010 A 
ATOM     69  C   UNL     1      -6.955   3.507 -17.611  1.00  0.00     0.010 A 
ATOM     70  C   UNL     1      -8.858   3.255 -15.576  1.00  0.00     0.020 A 
ATOM     71  C   UNL     1      -8.054   2.661 -17.791  1.00  0.00     0.020 A 
ATOM     72  C   UNL     1      -8.991   2.530 -16.765  1.00  0.00     0.054 A 
BRANCH  72  73
ATOM     73  S   UNL     1     -10.421   1.431 -16.957  1.00  0.00     0.124 S 
ATOM     74  O   UNL     1     -10.111   0.363 -16.010  1.00  0.00    -0.237 OA
ATOM     75  O   UNL     1     -11.539   2.295 -16.584  1.00  0.00    -0.237 OA
ATOM     76  O   UNL     1     -10.378   1.046 -18.365  1.00  0.00    -0.744 OA
ENDBRANCH  72  73
ENDBRANCH  53  67
BRANCH  54  77
ATOM     77  C   UNL     1       1.222  10.095 -15.305  1.00  0.00    -0.014 A 
ATOM     78  C   UNL     1       1.127  11.431 -14.880  1.00  0.00     0.010 A 
ATOM     79  C   UNL     1       2.490   9.569 -15.619  1.00  0.00     0.010 A 
ATOM     80  C   UNL     1       2.273  12.228 -14.781  1.00  0.00     0.020 A 
ATOM     81  C   UNL     1       3.641  10.352 -15.491  1.00  0.00     0.020 A 
ATOM     82  C   UNL     1       3.524  11.681 -15.082  1.00  0.00     0.054 A 
BRANCH  82  83
ATOM     83  S   UNL     1       5.001  12.717 -14.890  1.00  0.00     0.124 S 
ATOM     84  O   UNL     1       4.859  13.657 -15.998  1.00  0.00    -0.237 OA
ATOM     85  O   UNL     1       4.818  13.281 -13.555  1.00  0.00    -0.237 OA
ATOM     86  O   UNL     1       6.105  11.768 -15.013  1.00  0.00    -0.744 OA
ENDBRANCH  82  83
ENDBRANCH  54  77
BRANCH  66  87
ATOM     87  C   UNL     1      -4.287  10.199 -19.607  1.00  0.00    -0.014 A 
ATOM     88  C   UNL     1      -3.614  10.155 -20.841  1.00  0.00     0.010 A 
ATOM     89  C   UNL     1      -5.409  11.037 -19.471  1.00  0.00     0.010 A 
ATOM     90  C   UNL     1      -4.049  10.940 -21.913  1.00  0.00     0.020 A 
ATOM     91  C   UNL     1      -5.865  11.801 -20.549  1.00  0.00     0.020 A 
ATOM     92  C   UNL     1      -5.178  11.751 -21.763  1.00  0.00     0.054 A 
BRANCH  92  93
ATOM     93  S   UNL     1      -5.768  12.695 -23.196  1.00  0.00     0.124 S 
ATOM     94  O   UNL     1      -4.726  13.707 -23.345  1.00  0.00    -0.237 OA
ATOM     95  O   UNL     1      -5.815  11.682 -24.247  1.00  0.00    -0.237 OA
ATOM     96  O   UNL     1      -7.070  13.201 -22.767  1.00  0.00    -0.744 OA
ENDBRANCH  92  93
ENDBRANCH  66  87
ENDBRANCH  40  41
ENDBRANCH  33  35
ENDBRANCH  32  33
ENDBRANCH  31  32
ENDBRANCH  30  31
ENDBRANCH  29  30
ENDBRANCH  28  29
ENDBRANCH   1  28
TORSDOF 23
