REMARK SMILES Cc1ccc(S(=O)(=O)n2cc(C(=O)C(=O)N[C@@H](Cc3c[nH]c4ccccc34)C(=O)OCCOCCOCCOC(=O)c3ccc(-c4c5nc(c(-c6ccc(S(=O)(=O)[O-])cc6)c6ccc([nH]6)c(-c6ccc(S(=O)(=O)[O-])cc6)c6nc(c(-c7ccc(S(=O)(=O)[O-])cc7)c7ccc4[nH]7)C=C6)C=C5)cc3)c3ccccc32)cc1
REMARK SMILES IDX 34 1 33 2 32 3 31 4 30 5 28 6 29 7 17 8 16 9 14 10 15 11
REMARK SMILES IDX 12 13 13 14 11 15 9 16 10 17 107 18 102 19 106 20 103 21
REMARK SMILES IDX 105 22 104 23 6 24 7 25 8 26 5 27 1 28 2 29 3 30 109 31 4 32
REMARK SMILES IDX 108 33 18 34 19 35 20 36 27 37 21 38 22 39 26 40 23 42 25 43
REMARK SMILES IDX 24 44 35 45 36 46 37 47 38 48 39 49 40 50 41 51 42 52 43 53
REMARK SMILES IDX 101 54 44 55 100 56 45 57 46 58 47 59 94 60 48 61 99 62
REMARK SMILES IDX 93 63 95 64 49 65 98 66 92 67 91 68 50 70 80 71 61 72 79 73
REMARK SMILES IDX 62 74 65 75 78 76 96 77 63 78 64 79 77 81 97 82 66 83 51 84
REMARK SMILES IDX 52 85 60 86 53 87 59 88 54 89 55 90 56 91 57 92 58 93 81 94
REMARK SMILES IDX 82 95 90 96 83 97 89 98 84 99 85 100 86 101 87 102 88 103
REMARK SMILES IDX 67 104 68 105 76 106 69 107 75 108 70 109 71 110 72 111
REMARK SMILES IDX 73 112 74 113
REMARK H PARENT 16 12 21 41 95 69 65 80
REMARK Flexibility Score: inf
ROOT
ATOM      1  C   UNL     1     -10.941   0.975  -5.595  1.00  0.00     0.188 C 
ENDROOT
BRANCH   1   2
ATOM      2  O   UNL     1     -12.220   1.248  -6.102  1.00  0.00    -0.376 OA
BRANCH   2   3
ATOM      3  C   UNL     1     -12.941   2.082  -5.253  1.00  0.00     0.202 C 
BRANCH   3   4
ATOM      4  C   UNL     1     -12.439   2.419  -3.812  1.00  0.00     0.261 C 
BRANCH   4   5
ATOM      5  O   UNL     1     -11.346   1.493  -2.700  1.00  0.00    -0.462 OA
BRANCH   5   6
ATOM      6  C   UNL     1     -11.277   0.549  -1.522  1.00  0.00     0.329 C 
ATOM      7  O   UNL     1     -11.888  -0.523  -1.598  1.00  0.00    -0.250 OA
BRANCH   6   8
ATOM      8  C   UNL     1     -10.679   0.664   0.067  1.00  0.00     0.197 C 
BRANCH   8   9
ATOM      9  N   UNL     1      -9.711   1.517   0.823  1.00  0.00    -0.335 N 
ATOM     10  C   UNL     1      -8.358   1.612   0.684  1.00  0.00     0.293 C 
ATOM     11  O   UNL     1      -7.703   2.437   1.307  1.00  0.00    -0.265 OA
ATOM     12  H   UNL     1     -10.107   2.091   1.519  1.00  0.00     0.164 HD
BRANCH  10  13
ATOM     13  C   UNL     1      -7.754   0.644  -0.301  1.00  0.00     0.252 C 
ATOM     14  O   UNL     1      -8.536  -0.157  -0.804  1.00  0.00    -0.283 OA
BRANCH  13  15
ATOM     15  C   UNL     1      -6.351   0.371  -0.350  1.00  0.00     0.054 A 
ATOM     16  N   UNL     1      -4.430  -0.023   0.584  1.00  0.00    -0.240 N 
ATOM     17  C   UNL     1      -5.189   1.019   0.062  1.00  0.00     0.117 A 
ATOM     18  C   UNL     1      -5.262  -1.167   0.609  1.00  0.00     0.065 A 
ATOM     19  C   UNL     1      -6.019  -0.976  -0.528  1.00  0.00     0.012 A 
ATOM     20  C   UNL     1      -5.090  -2.443   1.165  1.00  0.00     0.028 A 
ATOM     21  C   UNL     1      -6.578  -2.067  -1.202  1.00  0.00     0.011 A 
ATOM     22  C   UNL     1      -5.551  -3.526   0.410  1.00  0.00     0.002 A 
ATOM     23  C   UNL     1      -6.275  -3.346  -0.765  1.00  0.00     0.001 A 
BRANCH  16  24
ATOM     24  S   UNL     1      -2.883  -0.576   0.197  1.00  0.00     0.268 S 
ATOM     25  O   UNL     1      -3.104  -1.296  -1.051  1.00  0.00    -0.201 OA
ATOM     26  O   UNL     1      -2.587  -1.277   1.447  1.00  0.00    -0.201 OA
BRANCH  24  27
ATOM     27  C   UNL     1      -1.325   0.094  -0.083  1.00  0.00     0.088 A 
ATOM     28  C   UNL     1       2.937   0.306  -0.017  1.00  0.00     0.044 C 
ATOM     29  C   UNL     1       1.446   0.300  -0.107  1.00  0.00    -0.051 A 
ATOM     30  C   UNL     1       0.882  -0.952  -0.228  1.00  0.00     0.005 A 
ATOM     31  C   UNL     1       0.619   1.452  -0.043  1.00  0.00     0.005 A 
ATOM     32  C   UNL     1      -0.475  -1.035  -0.254  1.00  0.00     0.022 A 
ATOM     33  C   UNL     1      -0.794   1.361  -0.017  1.00  0.00     0.022 A 
ENDBRANCH  24  27
ENDBRANCH  16  24
ENDBRANCH  13  15
ENDBRANCH  10  13
ENDBRANCH   8   9
BRANCH   8  34
ATOM     34  C   UNL     1     -11.852   0.656   1.055  1.00  0.00     0.074 C 
BRANCH  34  35
ATOM     35  C   UNL     1     -12.576   1.881   0.779  1.00  0.00    -0.020 A 
ATOM     36  C   UNL     1     -14.274   1.805   0.189  1.00  0.00     0.087 A 
ATOM     37  C   UNL     1     -11.992   3.746   0.685  1.00  0.00     0.003 A 
ATOM     38  N   UNL     1     -14.762   3.556  -0.365  1.00  0.00    -0.361 N 
ATOM     39  C   UNL     1     -13.341   4.703  -0.064  1.00  0.00     0.046 A 
ATOM     40  C   UNL     1     -10.869   4.524   1.119  1.00  0.00     0.010 A 
ATOM     41  H   UNL     1     -15.631   3.813  -0.750  1.00  0.00     0.166 HD
ATOM     42  C   UNL     1     -13.226   6.109  -0.019  1.00  0.00     0.026 A 
ATOM     43  C   UNL     1     -10.886   5.928   0.947  1.00  0.00     0.001 A 
ATOM     44  C   UNL     1     -12.000   6.664   0.456  1.00  0.00     0.002 A 
ENDBRANCH  34  35
ENDBRANCH   8  34
ENDBRANCH   6   8
ENDBRANCH   5   6
ENDBRANCH   4   5
ENDBRANCH   3   4
ENDBRANCH   2   3
ENDBRANCH   1   2
BRANCH   1  45
ATOM     45  C   UNL     1     -10.004   2.142  -5.295  1.00  0.00     0.188 C 
BRANCH  45  46
ATOM     46  O   UNL     1     -10.598   3.344  -4.861  1.00  0.00    -0.376 OA
BRANCH  46  47
ATOM     47  C   UNL     1     -10.786   4.527  -5.578  1.00  0.00     0.202 C 
BRANCH  47  48
ATOM     48  C   UNL     1      -9.500   4.912  -6.213  1.00  0.00     0.261 C 
BRANCH  48  49
ATOM     49  O   UNL     1      -8.324   5.025  -5.346  1.00  0.00    -0.460 OA
BRANCH  49  50
ATOM     50  C   UNL     1      -8.015   4.415  -4.165  1.00  0.00     0.338 C 
ATOM     51  O   UNL     1      -6.881   3.983  -3.974  1.00  0.00    -0.246 OA
BRANCH  50  52
ATOM     52  C   UNL     1      -9.017   4.354  -3.055  1.00  0.00     0.060 A 
ATOM     53  C   UNL     1      -9.042   3.239  -2.273  1.00  0.00     0.016 A 
ATOM     54  C   UNL     1     -10.031   5.283  -2.804  1.00  0.00     0.016 A 
ATOM     55  C   UNL     1     -10.170   3.074  -1.442  1.00  0.00     0.010 A 
ATOM     56  C   UNL     1     -11.288   4.878  -2.189  1.00  0.00     0.010 A 
ATOM     57  C   UNL     1     -11.475   3.628  -1.561  1.00  0.00    -0.014 A 
BRANCH  57  58
ATOM     58  C   UNL     1     -13.035   2.864  -0.875  1.00  0.00     0.031 A 
ATOM     59  C   UNL     1     -13.780   3.303   1.204  1.00  0.00     0.074 A 
ATOM     60  C   UNL     1     -13.789   1.751  -1.894  1.00  0.00     0.049 A 
ATOM     61  N   UNL     1     -14.582   2.534   2.081  1.00  0.00    -0.248 NA
ATOM     62  C   UNL     1     -13.591   4.507   2.362  1.00  0.00     0.031 C 
ATOM     63  C   UNL     1     -15.291   1.582  -2.277  1.00  0.00     0.029 A 
ATOM     64  N   UNL     1     -13.439   0.635  -2.838  1.00  0.00    -0.354 N 
ATOM     65  C   UNL     1     -15.485   3.396   2.602  1.00  0.00     0.074 A 
ATOM     66  C   UNL     1     -14.662   4.412   3.150  1.00  0.00     0.031 C 
ATOM     67  C   UNL     1     -15.564   0.427  -2.952  1.00  0.00     0.029 A 
ATOM     68  C   UNL     1     -14.354  -0.328  -3.192  1.00  0.00     0.049 A 
ATOM     69  H   UNL     1     -12.529   0.593  -3.213  1.00  0.00     0.167 HD
ATOM     70  C   UNL     1     -16.744   3.405   2.075  1.00  0.00     0.031 A 
ATOM     71  C   UNL     1     -14.133  -1.694  -3.296  1.00  0.00     0.031 A 
ATOM     72  C   UNL     1     -17.134   2.275   1.190  1.00  0.00     0.049 A 
ATOM     73  C   UNL     1     -14.965  -2.244  -2.151  1.00  0.00     0.074 A 
ATOM     74  C   UNL     1     -17.712   2.227  -0.073  1.00  0.00     0.029 A 
ATOM     75  N   UNL     1     -16.792   0.951   1.485  1.00  0.00    -0.354 N 
ATOM     76  N   UNL     1     -15.313  -1.461  -1.161  1.00  0.00    -0.248 NA
ATOM     77  C   UNL     1     -15.563  -3.575  -2.044  1.00  0.00     0.031 C 
ATOM     78  C   UNL     1     -17.738   0.874  -0.517  1.00  0.00     0.029 A 
ATOM     79  C   UNL     1     -17.125   0.081   0.439  1.00  0.00     0.049 A 
ATOM     80  H   UNL     1     -16.369   0.665   2.327  1.00  0.00     0.167 HD
ATOM     81  C   UNL     1     -16.276  -2.054  -0.423  1.00  0.00     0.074 A 
ATOM     82  C   UNL     1     -16.362  -3.404  -0.971  1.00  0.00     0.031 C 
ATOM     83  C   UNL     1     -16.945  -1.376   0.553  1.00  0.00     0.031 A 
BRANCH  70  84
ATOM     84  C   UNL     1     -17.590   4.636   2.181  1.00  0.00    -0.014 A 
ATOM     85  C   UNL     1     -18.965   4.491   1.955  1.00  0.00     0.010 A 
ATOM     86  C   UNL     1     -17.115   5.922   2.512  1.00  0.00     0.010 A 
ATOM     87  C   UNL     1     -19.844   5.533   2.215  1.00  0.00     0.020 A 
ATOM     88  C   UNL     1     -17.987   6.953   2.840  1.00  0.00     0.020 A 
ATOM     89  C   UNL     1     -19.352   6.733   2.722  1.00  0.00     0.054 A 
BRANCH  89  90
ATOM     90  S   UNL     1     -20.528   7.958   3.311  1.00  0.00     0.124 S 
ATOM     91  O   UNL     1     -21.211   8.337   2.077  1.00  0.00    -0.237 OA
ATOM     92  O   UNL     1     -21.318   7.189   4.267  1.00  0.00    -0.237 OA
ATOM     93  O   UNL     1     -19.681   8.995   3.898  1.00  0.00    -0.744 OA
ENDBRANCH  89  90
ENDBRANCH  70  84
BRANCH  71  94
ATOM     94  C   UNL     1     -12.786  -2.303  -3.757  1.00  0.00    -0.014 A 
ATOM     95  C   UNL     1     -12.388  -2.242  -5.115  1.00  0.00     0.010 A 
ATOM     96  C   UNL     1     -11.758  -2.622  -2.857  1.00  0.00     0.010 A 
ATOM     97  C   UNL     1     -11.018  -2.163  -5.495  1.00  0.00     0.020 A 
ATOM     98  C   UNL     1     -10.400  -2.376  -3.195  1.00  0.00     0.020 A 
ATOM     99  C   UNL     1     -10.036  -2.086  -4.507  1.00  0.00     0.054 A 
BRANCH  99 100
ATOM    100  S   UNL     1      -8.396  -1.297  -4.832  1.00  0.00     0.124 S 
ATOM    101  O   UNL     1      -7.484  -2.432  -4.798  1.00  0.00    -0.237 OA
ATOM    102  O   UNL     1      -8.540  -0.670  -6.144  1.00  0.00    -0.237 OA
ATOM    103  O   UNL     1      -8.273  -0.338  -3.737  1.00  0.00    -0.744 OA
ENDBRANCH  99 100
ENDBRANCH  71  94
BRANCH  83 104
ATOM    104  C   UNL     1     -17.610  -2.082   1.679  1.00  0.00    -0.014 A 
ATOM    105  C   UNL     1     -17.350  -3.417   2.010  1.00  0.00     0.010 A 
ATOM    106  C   UNL     1     -18.425  -1.328   2.547  1.00  0.00     0.010 A 
ATOM    107  C   UNL     1     -17.985  -4.007   3.094  1.00  0.00     0.020 A 
ATOM    108  C   UNL     1     -18.963  -1.872   3.696  1.00  0.00     0.020 A 
ATOM    109  C   UNL     1     -18.783  -3.225   3.928  1.00  0.00     0.054 A 
BRANCH 109 110
ATOM    110  S   UNL     1     -19.598  -4.007   5.320  1.00  0.00     0.124 S 
ATOM    111  O   UNL     1     -20.624  -4.800   4.648  1.00  0.00    -0.237 OA
ATOM    112  O   UNL     1     -18.511  -4.766   5.932  1.00  0.00    -0.237 OA
ATOM    113  O   UNL     1     -20.091  -2.881   6.109  1.00  0.00    -0.744 OA
ENDBRANCH 109 110
ENDBRANCH  83 104
ENDBRANCH  57  58
ENDBRANCH  50  52
ENDBRANCH  49  50
ENDBRANCH  48  49
ENDBRANCH  47  48
ENDBRANCH  46  47
ENDBRANCH  45  46
ENDBRANCH   1  45
TORSDOF 27
