REMARK SMILES Cc1nc(NC(=O)[C@H]2[C@@H]3CC[C@@H](C3)[C@@H]2C(=O)OCCOCCOCCOC(=O)c2ccc(-c3c4nc(c(-c5ccc(S(=O)(=O)[O-])cc5)c5ccc([nH]5)c(-c5ccc(S(=O)(=O)[O-])cc5)c5nc(c(-c6ccc(S(=O)(=O)[O-])cc6)c6ccc3[nH]6)C=C5)C=C4)cc2)sc1-c1ccccc1
REMARK SMILES IDX 21 1 20 2 19 3 18 4 17 5 15 6 16 7 14 8 8 9 9 10 10 11 13 12
REMARK SMILES IDX 12 13 11 14 6 15 5 16 7 18 4 19 1 20 2 21 3 22 90 23 89 24
REMARK SMILES IDX 91 25 92 26 96 27 93 28 95 29 94 30 22 31 23 32 24 33 25 34
REMARK SMILES IDX 26 35 27 36 28 37 29 38 30 39 88 40 31 41 87 42 32 43 33 44
REMARK SMILES IDX 34 45 81 46 35 47 86 48 80 49 82 50 36 51 85 52 79 53 78 54
REMARK SMILES IDX 37 56 67 57 48 58 66 59 49 60 52 61 65 62 83 63 50 64 51 65
REMARK SMILES IDX 64 67 84 68 53 69 38 70 39 71 47 72 40 73 46 74 41 75 42 76
REMARK SMILES IDX 43 77 44 78 45 79 68 80 69 81 77 82 70 83 76 84 71 85 72 86
REMARK SMILES IDX 73 87 74 88 75 89 54 90 55 91 63 92 56 93 62 94 57 95 58 96
REMARK SMILES IDX 59 97 60 98 61 99
REMARK H PARENT 5 17 82 55 52 66
REMARK Flexibility Score: inf
ROOT
ATOM      1  C   UNL     1      -1.240   1.317   3.113  1.00  0.00     0.188 C 
ENDROOT
BRANCH   1   2
ATOM      2  O   UNL     1      -2.284   1.530   4.050  1.00  0.00    -0.376 OA
BRANCH   2   3
ATOM      3  C   UNL     1      -3.549   0.946   3.757  1.00  0.00     0.202 C 
BRANCH   3   4
ATOM      4  C   UNL     1      -4.370   1.600   2.637  1.00  0.00     0.261 C 
BRANCH   4   5
ATOM      5  O   UNL     1      -3.689   1.668   1.375  1.00  0.00    -0.463 OA
BRANCH   5   6
ATOM      6  C   UNL     1      -3.150   2.887   1.055  1.00  0.00     0.310 C 
ATOM      7  O   UNL     1      -3.288   3.909   1.708  1.00  0.00    -0.252 OA
BRANCH   6   8
ATOM      8  C   UNL     1      -2.304   2.751  -0.207  1.00  0.00     0.115 C 
ATOM      9  C   UNL     1      -1.087   3.688  -0.283  1.00  0.00     0.096 C 
ATOM     10  C   UNL     1      -1.460   4.613  -1.471  1.00  0.00     0.003 C 
ATOM     11  C   UNL     1      -2.722   5.440  -1.120  1.00  0.00     0.005 C 
ATOM     12  C   UNL     1      -2.026   3.608  -2.467  1.00  0.00     0.009 C 
ATOM     13  C   UNL     1      -3.100   3.107  -1.491  1.00  0.00     0.004 C 
ATOM     14  C   UNL     1      -3.867   4.424  -1.286  1.00  0.00     0.005 C 
BRANCH   9  15
ATOM     15  C   UNL     1       0.366   3.165  -0.449  1.00  0.00     0.230 C 
ATOM     16  N   UNL     1       0.838   2.010  -0.983  1.00  0.00    -0.302 N 
ATOM     17  H   UNL     1       1.820   1.966  -1.039  1.00  0.00     0.172 HD
ATOM     18  O   UNL     1       1.272   3.931  -0.070  1.00  0.00    -0.274 OA
BRANCH  16  19
ATOM     19  C   UNL     1       0.206   0.900  -1.454  1.00  0.00     0.190 A 
ATOM     20  C   UNL     1      -2.808  -0.928  -1.568  1.00  0.00     0.068 C 
ATOM     21  C   UNL     1      -1.360  -0.616  -1.704  1.00  0.00     0.058 A 
ATOM     22  N   UNL     1      -1.055   0.728  -1.698  1.00  0.00    -0.225 NA
ATOM     23  C   UNL     1      -0.262  -1.474  -1.733  1.00  0.00     0.059 A 
ATOM     24  S   UNL     1       1.171  -0.492  -1.688  1.00  0.00    -0.096 S 
BRANCH  23  25
ATOM     25  C   UNL     1      -0.233  -2.952  -1.657  1.00  0.00    -0.006 A 
ATOM     26  C   UNL     1       0.763  -3.643  -0.959  1.00  0.00     0.009 A 
ATOM     27  C   UNL     1      -1.316  -3.706  -2.135  1.00  0.00     0.009 A 
ATOM     28  C   UNL     1       0.595  -4.983  -0.586  1.00  0.00     0.001 A 
ATOM     29  C   UNL     1      -1.487  -5.047  -1.777  1.00  0.00     0.001 A 
ATOM     30  C   UNL     1      -0.548  -5.675  -0.967  1.00  0.00     0.000 A 
ENDBRANCH  23  25
ENDBRANCH  16  19
ENDBRANCH   9  15
ENDBRANCH   6   8
ENDBRANCH   5   6
ENDBRANCH   4   5
ENDBRANCH   3   4
ENDBRANCH   2   3
ENDBRANCH   1   2
BRANCH   1  31
ATOM     31  C   UNL     1      -0.745  -0.112   2.939  1.00  0.00     0.188 C 
BRANCH  31  32
ATOM     32  O   UNL     1      -1.732  -1.103   2.673  1.00  0.00    -0.376 OA
BRANCH  32  33
ATOM     33  C   UNL     1      -1.175  -2.376   2.314  1.00  0.00     0.202 C 
BRANCH  33  34
ATOM     34  C   UNL     1      -0.259  -3.020   3.380  1.00  0.00     0.261 C 
BRANCH  34  35
ATOM     35  O   UNL     1       0.930  -2.256   3.692  1.00  0.00    -0.460 OA
BRANCH  35  36
ATOM     36  C   UNL     1       1.789  -2.073   2.670  1.00  0.00     0.338 C 
ATOM     37  O   UNL     1       1.759  -2.655   1.594  1.00  0.00    -0.246 OA
BRANCH  36  38
ATOM     38  C   UNL     1       2.668  -0.916   2.898  1.00  0.00     0.060 A 
ATOM     39  C   UNL     1       2.657   0.114   1.946  1.00  0.00     0.016 A 
ATOM     40  C   UNL     1       3.567  -0.888   3.958  1.00  0.00     0.016 A 
ATOM     41  C   UNL     1       3.583   1.149   2.011  1.00  0.00     0.010 A 
ATOM     42  C   UNL     1       4.509   0.144   4.018  1.00  0.00     0.010 A 
ATOM     43  C   UNL     1       4.547   1.142   3.023  1.00  0.00    -0.014 A 
BRANCH  43  44
ATOM     44  C   UNL     1       5.688   2.084   2.956  1.00  0.00     0.031 A 
ATOM     45  C   UNL     1       7.038   1.557   2.552  1.00  0.00     0.074 A 
ATOM     46  C   UNL     1       5.522   3.391   3.224  1.00  0.00     0.049 A 
ATOM     47  N   UNL     1       8.204   2.145   2.585  1.00  0.00    -0.248 NA
ATOM     48  C   UNL     1       7.074   0.175   2.045  1.00  0.00     0.031 C 
ATOM     49  C   UNL     1       4.245   4.037   3.527  1.00  0.00     0.029 A 
ATOM     50  N   UNL     1       6.441   4.407   3.295  1.00  0.00    -0.354 N 
ATOM     51  C   UNL     1       9.120   1.192   2.154  1.00  0.00     0.074 A 
ATOM     52  C   UNL     1       8.373  -0.011   1.858  1.00  0.00     0.031 C 
ATOM     53  C   UNL     1       4.464   5.340   3.770  1.00  0.00     0.029 A 
ATOM     54  C   UNL     1       5.899   5.603   3.701  1.00  0.00     0.049 A 
ATOM     55  H   UNL     1       7.394   4.291   3.077  1.00  0.00     0.167 HD
ATOM     56  C   UNL     1      10.464   1.310   2.034  1.00  0.00     0.031 A 
ATOM     57  C   UNL     1       6.498   6.764   4.030  1.00  0.00     0.031 A 
ATOM     58  C   UNL     1      11.188   2.519   2.325  1.00  0.00     0.049 A 
ATOM     59  C   UNL     1       7.997   6.859   3.946  1.00  0.00     0.074 A 
ATOM     60  C   UNL     1      12.550   2.751   2.240  1.00  0.00     0.029 A 
ATOM     61  N   UNL     1      10.606   3.702   2.758  1.00  0.00    -0.354 N 
ATOM     62  N   UNL     1       8.862   5.940   3.583  1.00  0.00    -0.248 NA
ATOM     63  C   UNL     1       8.602   8.145   4.316  1.00  0.00     0.031 C 
ATOM     64  C   UNL     1      12.796   4.059   2.672  1.00  0.00     0.029 A 
ATOM     65  C   UNL     1      11.582   4.662   2.967  1.00  0.00     0.049 A 
ATOM     66  H   UNL     1       9.641   3.839   2.896  1.00  0.00     0.167 HD
ATOM     67  C   UNL     1      10.112   6.541   3.666  1.00  0.00     0.074 A 
ATOM     68  C   UNL     1       9.889   7.907   4.097  1.00  0.00     0.031 C 
ATOM     69  C   UNL     1      11.335   6.013   3.407  1.00  0.00     0.031 A 
BRANCH  56  70
ATOM     70  C   UNL     1      11.236   0.074   1.648  1.00  0.00    -0.014 A 
ATOM     71  C   UNL     1      11.175  -0.468   0.351  1.00  0.00     0.010 A 
ATOM     72  C   UNL     1      12.039  -0.559   2.614  1.00  0.00     0.010 A 
ATOM     73  C   UNL     1      11.859  -1.649   0.045  1.00  0.00     0.020 A 
ATOM     74  C   UNL     1      12.748  -1.723   2.305  1.00  0.00     0.020 A 
ATOM     75  C   UNL     1      12.634  -2.274   1.028  1.00  0.00     0.054 A 
BRANCH  75  76
ATOM     76  S   UNL     1      13.502  -3.812   0.612  1.00  0.00     0.124 S 
ATOM     77  O   UNL     1      12.405  -4.777   0.580  1.00  0.00    -0.237 OA
ATOM     78  O   UNL     1      14.103  -3.503  -0.682  1.00  0.00    -0.237 OA
ATOM     79  O   UNL     1      14.449  -3.985   1.710  1.00  0.00    -0.744 OA
ENDBRANCH  75  76
ENDBRANCH  56  70
BRANCH  57  80
ATOM     80  C   UNL     1       5.672   7.899   4.526  1.00  0.00    -0.014 A 
ATOM     81  C   UNL     1       5.480   9.050   3.744  1.00  0.00     0.010 A 
ATOM     82  C   UNL     1       5.031   7.808   5.777  1.00  0.00     0.010 A 
ATOM     83  C   UNL     1       4.660  10.087   4.203  1.00  0.00     0.020 A 
ATOM     84  C   UNL     1       4.190   8.829   6.225  1.00  0.00     0.020 A 
ATOM     85  C   UNL     1       4.014   9.967   5.437  1.00  0.00     0.054 A 
BRANCH  85  86
ATOM     86  S   UNL     1       2.892  11.288   5.975  1.00  0.00     0.124 S 
ATOM     87  O   UNL     1       3.826  12.342   6.358  1.00  0.00    -0.237 OA
ATOM     88  O   UNL     1       2.106  11.546   4.771  1.00  0.00    -0.237 OA
ATOM     89  O   UNL     1       2.149  10.679   7.077  1.00  0.00    -0.744 OA
ENDBRANCH  85  86
ENDBRANCH  57  80
BRANCH  69  90
ATOM     90  C   UNL     1      12.523   6.927   3.553  1.00  0.00    -0.014 A 
ATOM     91  C   UNL     1      12.991   7.321   4.819  1.00  0.00     0.010 A 
ATOM     92  C   UNL     1      13.206   7.361   2.402  1.00  0.00     0.010 A 
ATOM     93  C   UNL     1      14.100   8.163   4.929  1.00  0.00     0.020 A 
ATOM     94  C   UNL     1      14.331   8.181   2.510  1.00  0.00     0.020 A 
ATOM     95  C   UNL     1      14.761   8.591   3.773  1.00  0.00     0.054 A 
BRANCH  95  96
ATOM     96  S   UNL     1      16.217   9.659   3.942  1.00  0.00     0.124 S 
ATOM     97  O   UNL     1      15.613  10.944   4.280  1.00  0.00    -0.237 OA
ATOM     98  O   UNL     1      16.967   9.014   5.018  1.00  0.00    -0.237 OA
ATOM     99  O   UNL     1      16.849   9.594   2.626  1.00  0.00    -0.744 OA
ENDBRANCH  95  96
ENDBRANCH  69  90
ENDBRANCH  43  44
ENDBRANCH  36  38
ENDBRANCH  35  36
ENDBRANCH  34  35
ENDBRANCH  33  34
ENDBRANCH  32  33
ENDBRANCH  31  32
ENDBRANCH   1  31
TORSDOF 23
