REMARK SMILES CC[C@@H](C(=O)OCCOCCOCCOC(=O)c1ccc(-c2c3nc(c(-c4ccc(S(=O)(=O)[O-])cc4)c4ccc([nH]4)c(-c4ccc(S(=O)(=O)[O-])cc4)c4nc(c(-c5ccc(S(=O)(=O)[O-])cc5)c5ccc2[nH]5)C=C4)C=C3)cc1)N1C(=O)/C(=C/C(C)=C/c2ccccc2)SC1=S
REMARK SMILES IDX 10 1 9 2 8 3 7 4 6 5 4 6 5 7 3 8 2 9 1 10 78 11 79 12 93 13
REMARK SMILES IDX 80 14 81 15 92 16 94 17 82 18 83 19 84 20 85 21 86 22 87 23
REMARK SMILES IDX 91 24 88 25 90 26 89 27 11 28 12 29 13 30 14 31 15 32 16 33
REMARK SMILES IDX 17 34 18 35 19 36 77 37 20 38 76 39 21 40 22 41 23 42 70 43
REMARK SMILES IDX 24 44 75 45 69 46 71 47 25 48 74 49 68 50 67 51 26 53 56 54
REMARK SMILES IDX 37 55 55 56 38 57 41 58 54 59 72 60 39 61 40 62 53 64 73 65
REMARK SMILES IDX 42 66 27 67 28 68 36 69 29 70 35 71 30 72 31 73 32 74 33 75
REMARK SMILES IDX 34 76 57 77 58 78 66 79 59 80 65 81 60 82 61 83 62 84 63 85
REMARK SMILES IDX 64 86 43 87 44 88 52 89 45 90 51 91 46 92 47 93 48 94 49 95
REMARK SMILES IDX 50 96
REMARK H PARENT 71 52 41 63
REMARK Flexibility Score: inf
ROOT
ATOM      1  C   UNL     1      -1.882   1.909   2.755  1.00  0.00     0.188 C 
ENDROOT
BRANCH   1   2
ATOM      2  O   UNL     1      -1.895   3.301   2.548  1.00  0.00    -0.376 OA
BRANCH   2   3
ATOM      3  C   UNL     1      -0.674   4.013   2.440  1.00  0.00     0.202 C 
BRANCH   3   4
ATOM      4  C   UNL     1       0.735   3.378   2.391  1.00  0.00     0.261 C 
BRANCH   4   5
ATOM      5  O   UNL     1       0.794   1.958   2.225  1.00  0.00    -0.462 OA
BRANCH   5   6
ATOM      6  C   UNL     1       1.905   1.329   2.693  1.00  0.00     0.329 C 
ATOM      7  O   UNL     1       2.845   1.906   3.231  1.00  0.00    -0.250 OA
BRANCH   6   8
ATOM      8  C   UNL     1       1.837  -0.207   2.548  1.00  0.00     0.201 C 
BRANCH   8   9
ATOM      9  C   UNL     1       1.436  -0.708   1.123  1.00  0.00     0.034 C 
ATOM     10  C   UNL     1       1.696   0.192  -0.072  1.00  0.00     0.007 C 
ENDBRANCH   8   9
BRANCH   8  11
ATOM     11  N   UNL     1       1.134  -1.011   3.603  1.00  0.00    -0.278 N 
ATOM     12  C   UNL     1       1.259  -2.396   3.507  1.00  0.00     0.266 C 
ATOM     13  C   UNL     1       0.544  -0.592   4.781  1.00  0.00     0.149 C 
ATOM     14  O   UNL     1       1.932  -3.006   2.687  1.00  0.00    -0.268 OA
ATOM     15  C   UNL     1       0.572  -3.080   4.624  1.00  0.00     0.080 C 
ATOM     16  S   UNL     1      -0.341  -1.937   5.505  1.00  0.00    -0.054 SA
ATOM     17  S   UNL     1       0.601   0.872   5.571  1.00  0.00    -0.052 S 
ATOM     18  C   UNL     1       0.854  -4.364   4.883  1.00  0.00     0.024 C 
BRANCH  18  19
ATOM     19  C   UNL     1       0.524  -5.149   6.059  1.00  0.00    -0.049 C 
ATOM     20  C   UNL     1       0.254  -6.616   5.847  1.00  0.00     0.044 C 
ATOM     21  C   UNL     1       0.620  -4.599   7.280  1.00  0.00     0.011 C 
BRANCH  21  22
ATOM     22  C   UNL     1       0.304  -5.258   8.533  1.00  0.00    -0.025 A 
ATOM     23  C   UNL     1      -0.892  -4.903   9.135  1.00  0.00     0.008 A 
ATOM     24  C   UNL     1       1.187  -6.130   9.176  1.00  0.00     0.008 A 
ATOM     25  C   UNL     1      -1.171  -5.390  10.395  1.00  0.00     0.001 A 
ATOM     26  C   UNL     1       0.890  -6.609  10.452  1.00  0.00     0.001 A 
ATOM     27  C   UNL     1      -0.288  -6.220  11.075  1.00  0.00     0.000 A 
ENDBRANCH  21  22
ENDBRANCH  18  19
ENDBRANCH   8  11
ENDBRANCH   6   8
ENDBRANCH   5   6
ENDBRANCH   4   5
ENDBRANCH   3   4
ENDBRANCH   2   3
ENDBRANCH   1   2
BRANCH   1  28
ATOM     28  C   UNL     1      -1.716   1.054   1.491  1.00  0.00     0.188 C 
BRANCH  28  29
ATOM     29  O   UNL     1      -1.631   1.657   0.215  1.00  0.00    -0.376 OA
BRANCH  29  30
ATOM     30  C   UNL     1      -2.622   2.597  -0.165  1.00  0.00     0.202 C 
BRANCH  30  31
ATOM     31  C   UNL     1      -4.120   2.378   0.132  1.00  0.00     0.261 C 
BRANCH  31  32
ATOM     32  O   UNL     1      -4.464   1.677   1.338  1.00  0.00    -0.460 OA
BRANCH  32  33
ATOM     33  C   UNL     1      -4.777   0.362   1.177  1.00  0.00     0.338 C 
ATOM     34  O   UNL     1      -4.797  -0.256   0.132  1.00  0.00    -0.246 OA
BRANCH  33  35
ATOM     35  C   UNL     1      -4.891  -0.293   2.507  1.00  0.00     0.060 A 
ATOM     36  C   UNL     1      -4.082  -1.409   2.783  1.00  0.00     0.016 A 
ATOM     37  C   UNL     1      -5.838   0.127   3.440  1.00  0.00     0.016 A 
ATOM     38  C   UNL     1      -4.262  -2.144   3.959  1.00  0.00     0.010 A 
ATOM     39  C   UNL     1      -6.034  -0.625   4.608  1.00  0.00     0.010 A 
ATOM     40  C   UNL     1      -5.287  -1.797   4.849  1.00  0.00    -0.014 A 
BRANCH  40  41
ATOM     41  C   UNL     1      -5.785  -2.805   5.833  1.00  0.00     0.031 A 
ATOM     42  C   UNL     1      -6.926  -3.691   5.383  1.00  0.00     0.074 A 
ATOM     43  C   UNL     1      -5.291  -2.916   7.084  1.00  0.00     0.049 A 
ATOM     44  N   UNL     1      -7.520  -4.669   6.016  1.00  0.00    -0.248 NA
ATOM     45  C   UNL     1      -7.478  -3.430   4.040  1.00  0.00     0.031 C 
ATOM     46  C   UNL     1      -4.189  -2.125   7.623  1.00  0.00     0.029 A 
ATOM     47  N   UNL     1      -5.655  -3.730   8.137  1.00  0.00    -0.354 N 
ATOM     48  C   UNL     1      -8.533  -5.108   5.168  1.00  0.00     0.074 A 
ATOM     49  C   UNL     1      -8.486  -4.287   3.982  1.00  0.00     0.031 C 
ATOM     50  C   UNL     1      -3.984  -2.476   8.907  1.00  0.00     0.029 A 
ATOM     51  C   UNL     1      -4.953  -3.501   9.309  1.00  0.00     0.049 A 
ATOM     52  H   UNL     1      -6.357  -4.417   8.061  1.00  0.00     0.167 HD
ATOM     53  C   UNL     1      -9.427  -6.106   5.362  1.00  0.00     0.031 A 
ATOM     54  C   UNL     1      -5.080  -4.069  10.540  1.00  0.00     0.031 A 
ATOM     55  C   UNL     1      -9.456  -6.934   6.535  1.00  0.00     0.049 A 
ATOM     56  C   UNL     1      -6.053  -5.241  10.651  1.00  0.00     0.074 A 
ATOM     57  C   UNL     1     -10.296  -7.996   6.822  1.00  0.00     0.029 A 
ATOM     58  N   UNL     1      -8.604  -6.789   7.616  1.00  0.00    -0.354 N 
ATOM     59  N   UNL     1      -6.767  -5.828   9.714  1.00  0.00    -0.248 NA
ATOM     60  C   UNL     1      -6.171  -5.895  11.963  1.00  0.00     0.031 C 
ATOM     61  C   UNL     1      -9.986  -8.459   8.104  1.00  0.00     0.029 A 
ATOM     62  C   UNL     1      -8.919  -7.721   8.588  1.00  0.00     0.049 A 
ATOM     63  H   UNL     1      -7.882  -6.123   7.683  1.00  0.00     0.167 HD
ATOM     64  C   UNL     1      -7.315  -6.964  10.312  1.00  0.00     0.074 A 
ATOM     65  C   UNL     1      -6.760  -7.035  11.643  1.00  0.00     0.031 C 
ATOM     66  C   UNL     1      -8.248  -7.838   9.852  1.00  0.00     0.031 A 
BRANCH  53  67
ATOM     67  C   UNL     1     -10.474  -6.335   4.305  1.00  0.00    -0.014 A 
ATOM     68  C   UNL     1     -10.150  -6.891   3.055  1.00  0.00     0.010 A 
ATOM     69  C   UNL     1     -11.820  -6.048   4.599  1.00  0.00     0.010 A 
ATOM     70  C   UNL     1     -11.151  -7.133   2.110  1.00  0.00     0.020 A 
ATOM     71  C   UNL     1     -12.827  -6.316   3.668  1.00  0.00     0.020 A 
ATOM     72  C   UNL     1     -12.483  -6.848   2.424  1.00  0.00     0.054 A 
BRANCH  72  73
ATOM     73  S   UNL     1     -13.767  -7.222   1.199  1.00  0.00     0.124 S 
ATOM     74  O   UNL     1     -13.526  -6.196   0.187  1.00  0.00    -0.237 OA
ATOM     75  O   UNL     1     -13.437  -8.588   0.799  1.00  0.00    -0.237 OA
ATOM     76  O   UNL     1     -15.014  -7.079   1.946  1.00  0.00    -0.744 OA
ENDBRANCH  72  73
ENDBRANCH  53  67
BRANCH  54  77
ATOM     77  C   UNL     1      -4.193  -3.676  11.715  1.00  0.00    -0.014 A 
ATOM     78  C   UNL     1      -3.560  -4.654  12.519  1.00  0.00     0.010 A 
ATOM     79  C   UNL     1      -3.879  -2.337  12.012  1.00  0.00     0.010 A 
ATOM     80  C   UNL     1      -2.586  -4.338  13.473  1.00  0.00     0.020 A 
ATOM     81  C   UNL     1      -2.856  -2.007  12.923  1.00  0.00     0.020 A 
ATOM     82  C   UNL     1      -2.188  -3.017  13.614  1.00  0.00     0.054 A 
BRANCH  82  83
ATOM     83  S   UNL     1      -0.729  -2.664  14.630  1.00  0.00     0.124 S 
ATOM     84  O   UNL     1      -0.974  -3.457  15.831  1.00  0.00    -0.237 OA
ATOM     85  O   UNL     1       0.356  -3.140  13.775  1.00  0.00    -0.237 OA
ATOM     86  O   UNL     1      -0.787  -1.217  14.817  1.00  0.00    -0.744 OA
ENDBRANCH  82  83
ENDBRANCH  54  77
BRANCH  66  87
ATOM     87  C   UNL     1      -8.641  -8.981  10.761  1.00  0.00    -0.014 A 
ATOM     88  C   UNL     1      -9.263  -8.745  12.002  1.00  0.00     0.010 A 
ATOM     89  C   UNL     1      -8.390 -10.309  10.370  1.00  0.00     0.010 A 
ATOM     90  C   UNL     1      -9.525  -9.799  12.878  1.00  0.00     0.020 A 
ATOM     91  C   UNL     1      -8.700 -11.373  11.223  1.00  0.00     0.020 A 
ATOM     92  C   UNL     1      -9.232 -11.107  12.487  1.00  0.00     0.054 A 
BRANCH  92  93
ATOM     93  S   UNL     1      -9.569 -12.456  13.649  1.00  0.00     0.124 S 
ATOM     94  O   UNL     1      -8.472 -12.316  14.602  1.00  0.00    -0.237 OA
ATOM     95  O   UNL     1     -10.894 -12.115  14.162  1.00  0.00    -0.237 OA
ATOM     96  O   UNL     1      -9.521 -13.653  12.813  1.00  0.00    -0.744 OA
ENDBRANCH  92  93
ENDBRANCH  66  87
ENDBRANCH  40  41
ENDBRANCH  33  35
ENDBRANCH  32  33
ENDBRANCH  31  32
ENDBRANCH  30  31
ENDBRANCH  29  30
ENDBRANCH  28  29
ENDBRANCH   1  28
TORSDOF 24
