REMARK SMILES O=C(OCCOCCOCCOC(=O)c1ccc2c(c1)[C@@H](C1CCOCC1)C(=O)N2)c1ccc(-c2c3nc(c(-c4ccc(S(=O)(=O)[O-])cc4)c4ccc([nH]4)c(-c4ccc(S(=O)(=O)[O-])cc4)c4nc(c(-c5ccc(S(=O)(=O)[O-])cc5)c5ccc2[nH]5)C=C4)C=C3)cc1
REMARK SMILES IDX 7 1 6 2 5 3 4 4 3 5 2 6 1 7 31 8 32 9 90 10 33 11 89 12
REMARK SMILES IDX 34 13 35 14 36 15 83 16 37 17 88 18 82 19 84 20 38 21 87 22
REMARK SMILES IDX 81 23 80 24 39 26 69 27 50 28 68 29 51 30 54 31 67 32 85 33
REMARK SMILES IDX 52 34 53 35 66 37 86 38 55 39 40 40 41 41 49 42 42 43 48 44
REMARK SMILES IDX 43 45 44 46 45 47 46 48 47 49 70 50 71 51 79 52 72 53 78 54
REMARK SMILES IDX 73 55 74 56 75 57 76 58 77 59 56 60 57 61 65 62 58 63 64 64
REMARK SMILES IDX 59 65 60 66 61 67 62 68 63 69 8 70 9 71 10 72 11 73 12 74
REMARK SMILES IDX 13 75 14 76 15 77 16 78 20 79 17 80 19 81 18 82 21 83 30 84
REMARK SMILES IDX 28 85 29 87 22 88 23 89 27 90 24 91 26 92 25 93
REMARK H PARENT 84 25 54 36 30 86
REMARK Flexibility Score: inf
ROOT
ATOM      1  C   UNL     1       2.668  -2.093  -0.490  1.00  0.00     0.188 C 
ENDROOT
BRANCH   1   2
ATOM      2  O   UNL     1       3.967  -1.658  -0.868  1.00  0.00    -0.376 OA
BRANCH   2   3
ATOM      3  C   UNL     1       4.904  -1.278   0.133  1.00  0.00     0.202 C 
BRANCH   3   4
ATOM      4  C   UNL     1       4.434  -0.468   1.346  1.00  0.00     0.261 C 
BRANCH   4   5
ATOM      5  O   UNL     1       3.064  -0.038   1.333  1.00  0.00    -0.460 OA
BRANCH   5   6
ATOM      6  C   UNL     1       2.528   0.934   0.561  1.00  0.00     0.338 C 
ATOM      7  O   UNL     1       1.324   1.167   0.577  1.00  0.00    -0.246 OA
BRANCH   6   8
ATOM      8  C   UNL     1       3.398   1.764  -0.281  1.00  0.00     0.060 A 
ATOM      9  C   UNL     1       4.059   1.290  -1.416  1.00  0.00     0.016 A 
ATOM     10  C   UNL     1       3.410   3.118  -0.005  1.00  0.00     0.016 A 
ATOM     11  C   UNL     1       4.853   2.127  -2.195  1.00  0.00     0.010 A 
ATOM     12  C   UNL     1       4.074   3.969  -0.879  1.00  0.00     0.010 A 
ATOM     13  C   UNL     1       4.814   3.499  -1.988  1.00  0.00    -0.014 A 
BRANCH  13  14
ATOM     14  C   UNL     1       5.465   4.489  -2.902  1.00  0.00     0.031 A 
ATOM     15  C   UNL     1       6.119   5.684  -2.268  1.00  0.00     0.074 A 
ATOM     16  C   UNL     1       5.344   4.440  -4.248  1.00  0.00     0.049 A 
ATOM     17  N   UNL     1       6.297   6.881  -2.750  1.00  0.00    -0.248 NA
ATOM     18  C   UNL     1       6.498   5.535  -0.851  1.00  0.00     0.031 C 
ATOM     19  C   UNL     1       4.758   3.352  -5.031  1.00  0.00     0.029 A 
ATOM     20  N   UNL     1       5.680   5.371  -5.207  1.00  0.00    -0.354 N 
ATOM     21  C   UNL     1       6.684   7.650  -1.661  1.00  0.00     0.074 A 
ATOM     22  C   UNL     1       6.602   6.803  -0.492  1.00  0.00     0.031 C 
ATOM     23  C   UNL     1       4.790   3.666  -6.334  1.00  0.00     0.029 A 
ATOM     24  C   UNL     1       5.302   5.012  -6.483  1.00  0.00     0.049 A 
ATOM     25  H   UNL     1       6.146   6.213  -5.000  1.00  0.00     0.167 HD
ATOM     26  C   UNL     1       7.120   8.930  -1.641  1.00  0.00     0.031 A 
ATOM     27  C   UNL     1       5.318   5.692  -7.646  1.00  0.00     0.031 A 
ATOM     28  C   UNL     1       7.324   9.696  -2.837  1.00  0.00     0.049 A 
ATOM     29  C   UNL     1       5.859   7.088  -7.635  1.00  0.00     0.074 A 
ATOM     30  C   UNL     1       7.886  10.949  -2.974  1.00  0.00     0.029 A 
ATOM     31  N   UNL     1       7.011   9.247  -4.114  1.00  0.00    -0.354 N 
ATOM     32  N   UNL     1       6.234   7.805  -6.604  1.00  0.00    -0.248 NA
ATOM     33  C   UNL     1       6.012   7.755  -8.932  1.00  0.00     0.031 C 
ATOM     34  C   UNL     1       7.893  11.269  -4.336  1.00  0.00     0.029 A 
ATOM     35  C   UNL     1       7.384  10.192  -5.049  1.00  0.00     0.049 A 
ATOM     36  H   UNL     1       6.585   8.384  -4.322  1.00  0.00     0.167 HD
ATOM     37  C   UNL     1       6.723   8.991  -7.130  1.00  0.00     0.074 A 
ATOM     38  C   UNL     1       6.580   8.898  -8.571  1.00  0.00     0.031 C 
ATOM     39  C   UNL     1       7.260  10.050  -6.479  1.00  0.00     0.031 A 
BRANCH  26  40
ATOM     40  C   UNL     1       7.416   9.532  -0.291  1.00  0.00    -0.014 A 
ATOM     41  C   UNL     1       8.407   8.991   0.552  1.00  0.00     0.010 A 
ATOM     42  C   UNL     1       6.640  10.607   0.177  1.00  0.00     0.010 A 
ATOM     43  C   UNL     1       8.531   9.426   1.872  1.00  0.00     0.020 A 
ATOM     44  C   UNL     1       6.799  11.083   1.483  1.00  0.00     0.020 A 
ATOM     45  C   UNL     1       7.715  10.460   2.334  1.00  0.00     0.054 A 
BRANCH  45  46
ATOM     46  S   UNL     1       7.866  10.972   4.066  1.00  0.00     0.124 S 
ATOM     47  O   UNL     1       7.191   9.879   4.761  1.00  0.00    -0.237 OA
ATOM     48  O   UNL     1       9.313  11.034   4.256  1.00  0.00    -0.237 OA
ATOM     49  O   UNL     1       7.178  12.259   4.108  1.00  0.00    -0.744 OA
ENDBRANCH  45  46
ENDBRANCH  26  40
BRANCH  27  50
ATOM     50  C   UNL     1       4.840   5.044  -8.902  1.00  0.00    -0.014 A 
ATOM     51  C   UNL     1       5.765   4.570  -9.849  1.00  0.00     0.010 A 
ATOM     52  C   UNL     1       3.466   4.842  -9.133  1.00  0.00     0.010 A 
ATOM     53  C   UNL     1       5.329   3.908 -11.001  1.00  0.00     0.020 A 
ATOM     54  C   UNL     1       3.026   4.159 -10.274  1.00  0.00     0.020 A 
ATOM     55  C   UNL     1       3.962   3.699 -11.203  1.00  0.00     0.054 A 
BRANCH  55  56
ATOM     56  S   UNL     1       3.432   2.761 -12.666  1.00  0.00     0.124 S 
ATOM     57  O   UNL     1       3.715   3.697 -13.748  1.00  0.00    -0.237 OA
ATOM     58  O   UNL     1       4.292   1.581 -12.605  1.00  0.00    -0.237 OA
ATOM     59  O   UNL     1       2.017   2.504 -12.408  1.00  0.00    -0.744 OA
ENDBRANCH  55  56
ENDBRANCH  27  50
BRANCH  39  60
ATOM     60  C   UNL     1       7.827  11.159  -7.314  1.00  0.00    -0.014 A 
ATOM     61  C   UNL     1       6.997  12.094  -7.952  1.00  0.00     0.010 A 
ATOM     62  C   UNL     1       9.223  11.330  -7.342  1.00  0.00     0.010 A 
ATOM     63  C   UNL     1       7.559  13.195  -8.598  1.00  0.00     0.020 A 
ATOM     64  C   UNL     1       9.786  12.444  -7.962  1.00  0.00     0.020 A 
ATOM     65  C   UNL     1       8.948  13.371  -8.585  1.00  0.00     0.054 A 
BRANCH  65  66
ATOM     66  S   UNL     1       9.642  14.874  -9.322  1.00  0.00     0.124 S 
ATOM     67  O   UNL     1       9.462  14.623 -10.749  1.00  0.00    -0.237 OA
ATOM     68  O   UNL     1       8.800  15.924  -8.755  1.00  0.00    -0.237 OA
ATOM     69  O   UNL     1      11.028  14.878  -8.860  1.00  0.00    -0.744 OA
ENDBRANCH  65  66
ENDBRANCH  39  60
ENDBRANCH  13  14
ENDBRANCH   6   8
ENDBRANCH   5   6
ENDBRANCH   4   5
ENDBRANCH   3   4
ENDBRANCH   2   3
ENDBRANCH   1   2
BRANCH   1  70
ATOM     70  C   UNL     1       1.995  -2.938  -1.576  1.00  0.00     0.188 C 
BRANCH  70  71
ATOM     71  O   UNL     1       2.665  -4.131  -1.960  1.00  0.00    -0.376 OA
BRANCH  71  72
ATOM     72  C   UNL     1       4.029  -4.000  -2.342  1.00  0.00     0.202 C 
BRANCH  72  73
ATOM     73  C   UNL     1       4.379  -3.159  -3.587  1.00  0.00     0.261 C 
BRANCH  73  74
ATOM     74  O   UNL     1       3.811  -1.834  -3.698  1.00  0.00    -0.460 OA
BRANCH  74  75
ATOM     75  C   UNL     1       2.812  -1.729  -4.612  1.00  0.00     0.338 C 
ATOM     76  O   UNL     1       2.264  -2.658  -5.188  1.00  0.00    -0.246 OA
BRANCH  75  77
ATOM     77  C   UNL     1       2.527  -0.326  -4.995  1.00  0.00     0.060 A 
ATOM     78  C   UNL     1       2.936   0.008  -6.303  1.00  0.00     0.018 A 
ATOM     79  C   UNL     1       1.677   0.531  -4.250  1.00  0.00     0.022 A 
ATOM     80  C   UNL     1       2.469   1.166  -6.914  1.00  0.00     0.027 A 
ATOM     81  C   UNL     1       1.226   1.705  -4.864  1.00  0.00    -0.011 A 
ATOM     82  C   UNL     1       1.612   1.966  -6.186  1.00  0.00     0.045 A 
ATOM     83  C   UNL     1       0.160   2.731  -4.468  1.00  0.00     0.114 C 
ATOM     84  N   UNL     1       0.936   3.059  -6.688  1.00  0.00    -0.325 N 
ATOM     85  C   UNL     1       0.019   3.547  -5.784  1.00  0.00     0.232 C 
ATOM     86  H   UNL     1       1.091   3.443  -7.581  1.00  0.00     0.169 HD
ATOM     87  O   UNL     1      -0.780   4.447  -6.023  1.00  0.00    -0.274 OA
BRANCH  83  88
ATOM     88  C   UNL     1       0.394   3.659  -3.243  1.00  0.00     0.010 C 
ATOM     89  C   UNL     1      -0.861   4.511  -2.922  1.00  0.00     0.033 C 
ATOM     90  C   UNL     1       1.603   4.594  -3.399  1.00  0.00     0.033 C 
ATOM     91  C   UNL     1      -0.615   5.541  -1.825  1.00  0.00     0.160 C 
ATOM     92  C   UNL     1       1.683   5.618  -2.271  1.00  0.00     0.160 C 
ATOM     93  O   UNL     1       0.484   6.377  -2.175  1.00  0.00    -0.381 OA
ENDBRANCH  83  88
ENDBRANCH  75  77
ENDBRANCH  74  75
ENDBRANCH  73  74
ENDBRANCH  72  73
ENDBRANCH  71  72
ENDBRANCH  70  71
ENDBRANCH   1  70
TORSDOF 21
