REMARK SMILES Cc1cccc(-c2cc(OCC(=O)OCCOCCOCCOC(=O)c3ccc(-c4c5nc(c(-c6ccc(S(=O)(=O)[O-])cc6)c6ccc([nH]6)c(-c6ccc(S(=O)(=O)[O-])cc6)c6nc(c(-c7ccc(S(=O)(=O)[O-])cc7)c7ccc4[nH]7)C=C6)C=C5)cc3)nc(Nc3ccccc3C)n2)c1
REMARK SMILES IDX 18 1 17 2 16 3 15 4 14 5 12 6 13 7 11 8 10 9 9 10 7 11 8 12
REMARK SMILES IDX 96 13 87 14 86 15 6 16 1 17 2 18 3 19 97 20 4 21 5 22 88 23
REMARK SMILES IDX 89 25 90 26 94 27 91 28 93 29 95 30 92 31 19 32 20 33 21 34
REMARK SMILES IDX 22 35 23 36 24 37 25 38 26 39 27 40 85 41 28 42 84 43 29 44
REMARK SMILES IDX 30 45 31 46 78 47 32 48 83 49 77 50 79 51 33 52 82 53 76 54
REMARK SMILES IDX 75 55 34 57 64 58 45 59 63 60 46 61 49 62 62 63 80 64 47 65
REMARK SMILES IDX 48 66 61 68 81 69 50 70 35 71 36 72 44 73 37 74 43 75 38 76
REMARK SMILES IDX 39 77 40 78 41 79 42 80 65 81 66 82 74 83 67 84 73 85 68 86
REMARK SMILES IDX 69 87 70 88 71 89 72 90 51 91 52 92 60 93 53 94 59 95 54 96
REMARK SMILES IDX 55 97 56 98 57 99 58 100
REMARK H PARENT 88 24 79 56 49 67
REMARK Flexibility Score: inf
ROOT
ATOM      1  C   UNL     1       2.591   2.362   0.331  1.00  0.00     0.188 C 
ENDROOT
BRANCH   1   2
ATOM      2  O   UNL     1       3.760   2.749  -0.349  1.00  0.00    -0.376 OA
BRANCH   2   3
ATOM      3  C   UNL     1       3.668   4.035  -0.872  1.00  0.00     0.202 C 
BRANCH   3   4
ATOM      4  C   UNL     1       2.270   4.502  -1.290  1.00  0.00     0.261 C 
BRANCH   4   5
ATOM      5  O   UNL     1       1.073   3.510  -2.179  1.00  0.00    -0.461 OA
BRANCH   5   6
ATOM      6  C   UNL     1      -0.030   3.692  -3.474  1.00  0.00     0.344 C 
ATOM      7  O   UNL     1      -0.053   2.805  -4.317  1.00  0.00    -0.248 OA
BRANCH   6   8
ATOM      8  C   UNL     1      -1.391   5.030  -3.582  1.00  0.00     0.353 C 
BRANCH   8   9
ATOM      9  O   UNL     1      -2.261   5.730  -2.260  1.00  0.00    -0.466 OA
BRANCH   9  10
ATOM     10  C   UNL     1      -2.196   5.183  -0.663  1.00  0.00     0.219 A 
ATOM     11  C   UNL     1      -1.681   2.302   0.846  1.00  0.00     0.080 A 
ATOM     12  C   UNL     1      -0.924   3.722  -0.025  1.00  0.00     0.097 A 
ATOM     13  N   UNL     1      -3.325   2.496   1.349  1.00  0.00    -0.212 NA
ATOM     14  C   UNL     1      -4.255   3.906   0.992  1.00  0.00     0.231 A 
ATOM     15  N   UNL     1      -3.795   5.202  -0.027  1.00  0.00    -0.177 NA
BRANCH  11  16
ATOM     16  C   UNL     1      -1.195   0.867   0.904  1.00  0.00     0.001 A 
ATOM     17  C   UNL     1       2.144  -1.046   1.091  1.00  0.00     0.044 C 
ATOM     18  C   UNL     1       0.666  -0.793   1.022  1.00  0.00    -0.050 A 
ATOM     19  C   UNL     1      -0.195  -1.819   0.687  1.00  0.00     0.003 A 
ATOM     20  C   UNL     1       0.123   0.494   1.187  1.00  0.00     0.013 A 
ATOM     21  C   UNL     1      -1.553  -1.544   0.543  1.00  0.00     0.001 A 
ATOM     22  C   UNL     1      -2.044  -0.222   0.636  1.00  0.00     0.010 A 
ENDBRANCH  11  16
BRANCH  14  23
ATOM     23  N   UNL     1      -5.019   4.360   2.117  1.00  0.00    -0.324 N 
ATOM     24  H   UNL     1      -5.456   5.241   2.074  1.00  0.00     0.170 HD
BRANCH  23  25
ATOM     25  C   UNL     1      -5.164   3.581   3.287  1.00  0.00     0.044 A 
ATOM     26  C   UNL     1      -6.140   2.574   3.222  1.00  0.00     0.026 A 
ATOM     27  C   UNL     1      -4.274   3.584   4.388  1.00  0.00    -0.027 A 
ATOM     28  C   UNL     1      -6.184   1.534   4.148  1.00  0.00     0.002 A 
ATOM     29  C   UNL     1      -4.274   2.472   5.257  1.00  0.00     0.005 A 
ATOM     30  C   UNL     1      -3.285   4.667   4.734  1.00  0.00     0.046 C 
ATOM     31  C   UNL     1      -5.210   1.450   5.130  1.00  0.00     0.000 A 
ENDBRANCH  23  25
ENDBRANCH  14  23
ENDBRANCH   9  10
ENDBRANCH   8   9
ENDBRANCH   6   8
ENDBRANCH   5   6
ENDBRANCH   4   5
ENDBRANCH   3   4
ENDBRANCH   2   3
ENDBRANCH   1   2
BRANCH   1  32
ATOM     32  C   UNL     1       1.891   3.355   1.275  1.00  0.00     0.188 C 
BRANCH  32  33
ATOM     33  O   UNL     1       2.685   4.169   2.111  1.00  0.00    -0.376 OA
BRANCH  33  34
ATOM     34  C   UNL     1       1.845   5.058   2.879  1.00  0.00     0.202 C 
BRANCH  34  35
ATOM     35  C   UNL     1       0.726   4.338   3.691  1.00  0.00     0.261 C 
BRANCH  35  36
ATOM     36  O   UNL     1      -0.536   4.678   3.056  1.00  0.00    -0.460 OA
BRANCH  36  37
ATOM     37  C   UNL     1      -1.515   3.792   2.692  1.00  0.00     0.338 C 
ATOM     38  O   UNL     1      -1.607   2.736   3.291  1.00  0.00    -0.246 OA
BRANCH  37  39
ATOM     39  C   UNL     1      -2.204   4.428   1.182  1.00  0.00     0.060 A 
ATOM     40  C   UNL     1      -2.719   3.408  -0.492  1.00  0.00     0.016 A 
ATOM     41  C   UNL     1      -1.078   5.777   1.071  1.00  0.00     0.016 A 
ATOM     42  C   UNL     1      -1.591   3.693  -1.870  1.00  0.00     0.010 A 
ATOM     43  C   UNL     1      -0.171   6.044  -0.256  1.00  0.00     0.010 A 
ATOM     44  C   UNL     1      -0.294   5.100  -1.680  1.00  0.00    -0.014 A 
BRANCH  44  45
ATOM     45  C   UNL     1       0.873   5.834  -2.905  1.00  0.00     0.031 A 
ATOM     46  C   UNL     1       0.676   7.286  -3.176  1.00  0.00     0.074 A 
ATOM     47  C   UNL     1       1.990   5.224  -3.650  1.00  0.00     0.049 A 
ATOM     48  N   UNL     1       1.194   7.819  -4.226  1.00  0.00    -0.248 NA
ATOM     49  C   UNL     1      -0.210   8.217  -2.474  1.00  0.00     0.031 C 
ATOM     50  C   UNL     1       3.371   5.752  -3.876  1.00  0.00     0.029 A 
ATOM     51  N   UNL     1       2.337   3.858  -3.834  1.00  0.00    -0.354 N 
ATOM     52  C   UNL     1       1.092   9.174  -4.074  1.00  0.00     0.074 A 
ATOM     53  C   UNL     1       0.023   9.361  -3.130  1.00  0.00     0.031 C 
ATOM     54  C   UNL     1       4.242   4.746  -4.216  1.00  0.00     0.029 A 
ATOM     55  C   UNL     1       3.530   3.470  -4.352  1.00  0.00     0.049 A 
ATOM     56  H   UNL     1       1.686   3.166  -3.575  1.00  0.00     0.167 HD
ATOM     57  C   UNL     1       2.087   9.943  -4.587  1.00  0.00     0.031 A 
ATOM     58  C   UNL     1       3.433   2.519  -5.342  1.00  0.00     0.031 A 
ATOM     59  C   UNL     1       3.093   9.114  -5.279  1.00  0.00     0.049 A 
ATOM     60  C   UNL     1       3.350   3.362  -6.581  1.00  0.00     0.074 A 
ATOM     61  C   UNL     1       4.397   8.754  -4.980  1.00  0.00     0.029 A 
ATOM     62  N   UNL     1       2.690   8.250  -6.291  1.00  0.00    -0.354 N 
ATOM     63  N   UNL     1       3.304   4.658  -6.507  1.00  0.00    -0.248 NA
ATOM     64  C   UNL     1       3.229   2.880  -7.942  1.00  0.00     0.031 C 
ATOM     65  C   UNL     1       4.783   7.702  -5.869  1.00  0.00     0.029 A 
ATOM     66  C   UNL     1       3.710   7.407  -6.695  1.00  0.00     0.049 A 
ATOM     67  H   UNL     1       1.784   8.239  -6.676  1.00  0.00     0.167 HD
ATOM     68  C   UNL     1       3.281   5.204  -7.717  1.00  0.00     0.074 A 
ATOM     69  C   UNL     1       3.083   4.050  -8.591  1.00  0.00     0.031 C 
ATOM     70  C   UNL     1       3.489   6.540  -7.853  1.00  0.00     0.031 A 
BRANCH  57  71
ATOM     71  C   UNL     1       2.318  11.398  -4.247  1.00  0.00    -0.014 A 
ATOM     72  C   UNL     1       3.565  11.967  -4.576  1.00  0.00     0.010 A 
ATOM     73  C   UNL     1       1.390  12.260  -3.626  1.00  0.00     0.010 A 
ATOM     74  C   UNL     1       3.878  13.302  -4.303  1.00  0.00     0.020 A 
ATOM     75  C   UNL     1       1.691  13.605  -3.343  1.00  0.00     0.020 A 
ATOM     76  C   UNL     1       2.934  14.119  -3.695  1.00  0.00     0.054 A 
BRANCH  76  77
ATOM     77  S   UNL     1       3.343  15.862  -3.433  1.00  0.00     0.124 S 
ATOM     78  O   UNL     1       4.508  15.781  -2.556  1.00  0.00    -0.237 OA
ATOM     79  O   UNL     1       3.607  16.327  -4.792  1.00  0.00    -0.237 OA
ATOM     80  O   UNL     1       2.139  16.411  -2.812  1.00  0.00    -0.744 OA
ENDBRANCH  76  77
ENDBRANCH  57  71
BRANCH  58  81
ATOM     81  C   UNL     1       2.489   1.314  -5.126  1.00  0.00    -0.014 A 
ATOM     82  C   UNL     1       2.627   0.524  -3.960  1.00  0.00     0.010 A 
ATOM     83  C   UNL     1       1.295   1.137  -5.869  1.00  0.00     0.010 A 
ATOM     84  C   UNL     1       1.529  -0.175  -3.421  1.00  0.00     0.020 A 
ATOM     85  C   UNL     1       0.196   0.410  -5.351  1.00  0.00     0.020 A 
ATOM     86  C   UNL     1       0.292  -0.127  -4.072  1.00  0.00     0.054 A 
BRANCH  86  87
ATOM     87  S   UNL     1      -1.200  -0.170  -3.009  1.00  0.00     0.124 S 
ATOM     88  O   UNL     1      -1.314  -1.585  -2.674  1.00  0.00    -0.237 OA
ATOM     89  O   UNL     1      -0.782   0.726  -1.935  1.00  0.00    -0.237 OA
ATOM     90  O   UNL     1      -2.284   0.363  -3.832  1.00  0.00    -0.744 OA
ENDBRANCH  86  87
ENDBRANCH  58  81
BRANCH  70  91
ATOM     91  C   UNL     1       3.491   7.141  -9.194  1.00  0.00    -0.014 A 
ATOM     92  C   UNL     1       3.908   6.421 -10.314  1.00  0.00     0.010 A 
ATOM     93  C   UNL     1       3.070   8.472  -9.350  1.00  0.00     0.010 A 
ATOM     94  C   UNL     1       3.682   6.926 -11.577  1.00  0.00     0.020 A 
ATOM     95  C   UNL     1       2.913   9.017 -10.607  1.00  0.00     0.020 A 
ATOM     96  C   UNL     1       3.170   8.215 -11.711  1.00  0.00     0.054 A 
BRANCH  96  97
ATOM     97  S   UNL     1       2.908   8.847 -13.365  1.00  0.00     0.124 S 
ATOM     98  O   UNL     1       4.159   8.486 -14.030  1.00  0.00    -0.237 OA
ATOM     99  O   UNL     1       1.730   8.094 -13.786  1.00  0.00    -0.237 OA
ATOM    100  O   UNL     1       2.703  10.277 -13.159  1.00  0.00    -0.744 OA
ENDBRANCH  96  97
ENDBRANCH  70  91
ENDBRANCH  44  45
ENDBRANCH  37  39
ENDBRANCH  36  37
ENDBRANCH  35  36
ENDBRANCH  34  35
ENDBRANCH  33  34
ENDBRANCH  32  33
ENDBRANCH   1  32
TORSDOF 25
