REMARK SMILES CCc1ccc(C[NH+]2CCC(Oc3ccccc3OC)(C(=O)OCCOCCOCCOC(=O)c3ccc(-c4c5nc(c(-c6ccc(S(=O)(=O)[O-])cc6)c6ccc([nH]6)c(-c6ccc(S(=O)(=O)[O-])cc6)c6nc(c(-c7ccc(S(=O)(=O)[O-])cc7)c7ccc4[nH]7)C=C6)C=C5)cc3)CC2)nc1
REMARK SMILES IDX 27 1 26 2 25 3 24 4 23 5 21 6 22 7 11 8 8 9 9 10 96 11 10 13
REMARK SMILES IDX 95 14 7 15 6 16 3 17 4 18 98 19 5 20 97 21 2 22 1 23 12 24
REMARK SMILES IDX 13 25 14 26 18 27 15 28 17 29 16 30 19 31 20 32 28 33 29 34
REMARK SMILES IDX 30 35 31 36 32 37 33 38 34 39 35 40 36 41 94 42 37 43 93 44
REMARK SMILES IDX 38 45 39 46 40 47 87 48 41 49 92 50 86 51 88 52 42 53 91 54
REMARK SMILES IDX 85 55 84 56 43 58 73 59 54 60 72 61 55 62 58 63 71 64 89 65
REMARK SMILES IDX 56 66 57 67 70 69 90 70 59 71 44 72 45 73 53 74 46 75 52 76
REMARK SMILES IDX 47 77 48 78 49 79 50 80 51 81 74 82 75 83 83 84 76 85 82 86
REMARK SMILES IDX 77 87 78 88 79 89 80 90 81 91 60 92 61 93 69 94 62 95 68 96
REMARK SMILES IDX 63 97 64 98 65 99 66 100 67 101
REMARK H PARENT 8 12 88 57 58 68
REMARK Flexibility Score: inf
ROOT
ATOM      1  C   UNL     1      -1.467  -2.740   4.790  1.00  0.00     0.188 C 
ENDROOT
BRANCH   1   2
ATOM      2  O   UNL     1      -2.335  -3.582   4.069  1.00  0.00    -0.376 OA
BRANCH   2   3
ATOM      3  C   UNL     1      -3.603  -3.710   4.696  1.00  0.00     0.202 C 
BRANCH   3   4
ATOM      4  C   UNL     1      -3.645  -3.858   6.255  1.00  0.00     0.261 C 
BRANCH   4   5
ATOM      5  O   UNL     1      -3.035  -2.822   7.119  1.00  0.00    -0.460 OA
BRANCH   5   6
ATOM      6  C   UNL     1      -1.869  -3.112   7.803  1.00  0.00     0.351 C 
ATOM      7  O   UNL     1      -1.387  -4.247   7.786  1.00  0.00    -0.247 OA
BRANCH   6   8
ATOM      8  C   UNL     1      -1.226  -1.946   8.660  1.00  0.00     0.216 C 
ATOM      9  N   UNL     1       0.795   0.124   7.644  1.00  0.00    -0.330 N 
ATOM     10  C   UNL     1      -0.612   0.449   7.628  1.00  0.00     0.267 C 
ATOM     11  C   UNL     1       1.072  -1.319   7.658  1.00  0.00     0.267 C 
ATOM     12  H   UNL     1       1.216   0.371   8.541  1.00  0.00     0.348 HD
ATOM     13  C   UNL     1      -1.525  -0.456   8.441  1.00  0.00     0.122 C 
ATOM     14  C   UNL     1       0.314  -2.109   8.760  1.00  0.00     0.122 C 
BRANCH   9  15
ATOM     15  C   UNL     1       1.502   0.984   6.635  1.00  0.00     0.319 C 
BRANCH  15  16
ATOM     16  C   UNL     1       1.106   0.833   5.142  1.00  0.00     0.095 A 
ATOM     17  C   UNL     1       0.842  -0.035   1.616  1.00  0.00    -0.030 A 
ATOM     18  C   UNL     1       1.291   1.651   2.130  1.00  0.00     0.007 A 
ATOM     19  C   UNL     1       0.587  -1.272   2.878  1.00  0.00     0.115 A 
ATOM     20  C   UNL     1       1.554   2.056   3.887  1.00  0.00     0.030 A 
ATOM     21  N   UNL     1       0.582  -0.801   4.597  1.00  0.00    -0.255 NA
BRANCH  17  22
ATOM     22  C   UNL     1       0.504  -0.535   0.244  1.00  0.00     0.034 C 
ATOM     23  C   UNL     1       1.035   0.279  -0.904  1.00  0.00     0.009 C 
ENDBRANCH  17  22
ENDBRANCH  15  16
ENDBRANCH   9  15
BRANCH   8  24
ATOM     24  O   UNL     1      -2.023  -2.382   9.826  1.00  0.00    -0.471 OA
BRANCH  24  25
ATOM     25  C   UNL     1      -1.622  -2.066  11.084  1.00  0.00     0.162 A 
ATOM     26  C   UNL     1      -0.945  -3.087  11.765  1.00  0.00     0.050 A 
ATOM     27  C   UNL     1      -1.965  -0.884  11.753  1.00  0.00     0.160 A 
ATOM     28  C   UNL     1      -0.524  -2.902  13.079  1.00  0.00     0.004 A 
ATOM     29  C   UNL     1      -1.471  -0.686  13.047  1.00  0.00     0.050 A 
ATOM     30  C   UNL     1      -0.763  -1.687  13.712  1.00  0.00     0.004 A 
BRANCH  27  31
ATOM     31  O   UNL     1      -2.692   0.184  11.305  1.00  0.00    -0.493 OA
ATOM     32  C   UNL     1      -3.789  -0.015  10.422  1.00  0.00     0.278 C 
ENDBRANCH  27  31
ENDBRANCH  24  25
ENDBRANCH   8  24
ENDBRANCH   6   8
ENDBRANCH   5   6
ENDBRANCH   4   5
ENDBRANCH   3   4
ENDBRANCH   2   3
ENDBRANCH   1   2
BRANCH   1  33
ATOM     33  C   UNL     1      -2.018  -1.340   5.123  1.00  0.00     0.188 C 
BRANCH  33  34
ATOM     34  O   UNL     1      -3.287  -1.004   4.596  1.00  0.00    -0.376 OA
BRANCH  34  35
ATOM     35  C   UNL     1      -3.307   0.310   4.050  1.00  0.00     0.202 C 
BRANCH  35  36
ATOM     36  C   UNL     1      -2.492   0.452   2.755  1.00  0.00     0.261 C 
BRANCH  36  37
ATOM     37  O   UNL     1      -1.129  -0.059   2.765  1.00  0.00    -0.460 OA
BRANCH  37  38
ATOM     38  C   UNL     1       0.021   0.663   3.411  1.00  0.00     0.338 C 
ATOM     39  O   UNL     1      -0.578   1.659   3.912  1.00  0.00    -0.246 OA
BRANCH  38  40
ATOM     40  C   UNL     1       2.079   0.029   3.421  1.00  0.00     0.060 A 
ATOM     41  C   UNL     1       2.793  -0.681   4.562  1.00  0.00     0.016 A 
ATOM     42  C   UNL     1       3.172   0.080   2.393  1.00  0.00     0.016 A 
ATOM     43  C   UNL     1       4.106  -0.924   4.801  1.00  0.00     0.010 A 
ATOM     44  C   UNL     1       4.486  -0.425   2.509  1.00  0.00     0.010 A 
ATOM     45  C   UNL     1       4.928  -0.898   3.729  1.00  0.00    -0.014 A 
BRANCH  45  46
ATOM     46  C   UNL     1       6.286  -1.252   4.055  1.00  0.00     0.031 A 
ATOM     47  C   UNL     1       7.244  -0.128   4.056  1.00  0.00     0.074 A 
ATOM     48  C   UNL     1       6.502  -2.483   4.553  1.00  0.00     0.049 A 
ATOM     49  N   UNL     1       8.532  -0.177   4.136  1.00  0.00    -0.248 NA
ATOM     50  C   UNL     1       6.687   1.236   3.913  1.00  0.00     0.031 C 
ATOM     51  C   UNL     1       5.466  -3.514   4.782  1.00  0.00     0.029 A 
ATOM     52  N   UNL     1       7.636  -3.059   5.022  1.00  0.00    -0.354 N 
ATOM     53  C   UNL     1       8.949   1.125   3.930  1.00  0.00     0.074 A 
ATOM     54  C   UNL     1       7.785   1.955   3.755  1.00  0.00     0.031 C 
ATOM     55  C   UNL     1       6.021  -4.578   5.376  1.00  0.00     0.029 A 
ATOM     56  C   UNL     1       7.454  -4.362   5.415  1.00  0.00     0.049 A 
ATOM     57  H   UNL     1       8.500  -2.591   5.075  1.00  0.00     0.167 HD
ATOM     58  C   UNL     1      10.228   1.533   3.851  1.00  0.00     0.031 A 
ATOM     59  C   UNL     1       8.384  -5.293   5.670  1.00  0.00     0.031 A 
ATOM     60  C   UNL     1      11.303   0.606   4.060  1.00  0.00     0.049 A 
ATOM     61  C   UNL     1       9.801  -4.827   5.503  1.00  0.00     0.074 A 
ATOM     62  C   UNL     1      12.660   0.819   3.987  1.00  0.00     0.029 A 
ATOM     63  N   UNL     1      11.113  -0.735   4.398  1.00  0.00    -0.354 N 
ATOM     64  N   UNL     1      10.233  -3.623   5.191  1.00  0.00    -0.248 NA
ATOM     65  C   UNL     1      10.850  -5.824   5.694  1.00  0.00     0.031 C 
ATOM     66  C   UNL     1      13.287  -0.411   4.212  1.00  0.00     0.029 A 
ATOM     67  C   UNL     1      12.327  -1.372   4.513  1.00  0.00     0.049 A 
ATOM     68  H   UNL     1      10.237  -1.163   4.534  1.00  0.00     0.167 HD
ATOM     69  C   UNL     1      11.613  -3.705   5.171  1.00  0.00     0.074 A 
ATOM     70  C   UNL     1      11.935  -5.080   5.529  1.00  0.00     0.031 C 
ATOM     71  C   UNL     1      12.537  -2.753   4.885  1.00  0.00     0.031 A 
BRANCH  58  72
ATOM     72  C   UNL     1      10.475   2.941   3.410  1.00  0.00    -0.014 A 
ATOM     73  C   UNL     1      10.116   4.051   4.195  1.00  0.00     0.010 A 
ATOM     74  C   UNL     1      11.045   3.155   2.142  1.00  0.00     0.010 A 
ATOM     75  C   UNL     1      10.315   5.348   3.716  1.00  0.00     0.020 A 
ATOM     76  C   UNL     1      11.278   4.448   1.673  1.00  0.00     0.020 A 
ATOM     77  C   UNL     1      10.909   5.537   2.463  1.00  0.00     0.054 A 
BRANCH  77  78
ATOM     78  S   UNL     1      11.240   7.230   1.908  1.00  0.00     0.124 S 
ATOM     79  O   UNL     1       9.892   7.742   1.672  1.00  0.00    -0.237 OA
ATOM     80  O   UNL     1      11.939   7.805   3.054  1.00  0.00    -0.237 OA
ATOM     81  O   UNL     1      12.055   7.049   0.709  1.00  0.00    -0.744 OA
ENDBRANCH  77  78
ENDBRANCH  58  72
BRANCH  59  82
ATOM     82  C   UNL     1       8.001  -6.699   5.960  1.00  0.00    -0.014 A 
ATOM     83  C   UNL     1       8.345  -7.302   7.179  1.00  0.00     0.010 A 
ATOM     84  C   UNL     1       7.267  -7.450   5.018  1.00  0.00     0.010 A 
ATOM     85  C   UNL     1       7.999  -8.634   7.435  1.00  0.00     0.020 A 
ATOM     86  C   UNL     1       6.884  -8.767   5.284  1.00  0.00     0.020 A 
ATOM     87  C   UNL     1       7.273  -9.358   6.484  1.00  0.00     0.054 A 
BRANCH  87  88
ATOM     88  S   UNL     1       6.845 -11.084   6.841  1.00  0.00     0.124 S 
ATOM     89  O   UNL     1       8.152 -11.733   6.801  1.00  0.00    -0.237 OA
ATOM     90  O   UNL     1       6.226 -10.987   8.160  1.00  0.00    -0.237 OA
ATOM     91  O   UNL     1       5.935 -11.445   5.756  1.00  0.00    -0.744 OA
ENDBRANCH  87  88
ENDBRANCH  59  82
BRANCH  71  92
ATOM     92  C   UNL     1      13.964  -3.178   5.022  1.00  0.00    -0.014 A 
ATOM     93  C   UNL     1      14.554  -4.055   4.099  1.00  0.00     0.010 A 
ATOM     94  C   UNL     1      14.729  -2.625   6.063  1.00  0.00     0.010 A 
ATOM     95  C   UNL     1      15.893  -4.403   4.240  1.00  0.00     0.020 A 
ATOM     96  C   UNL     1      16.078  -2.933   6.177  1.00  0.00     0.020 A 
ATOM     97  C   UNL     1      16.647  -3.833   5.273  1.00  0.00     0.054 A 
BRANCH  97  98
ATOM     98  S   UNL     1      18.399  -4.256   5.395  1.00  0.00     0.124 S 
ATOM     99  O   UNL     1      18.343  -5.646   5.840  1.00  0.00    -0.237 OA
ATOM    100  O   UNL     1      18.869  -4.050   4.027  1.00  0.00    -0.237 OA
ATOM    101  O   UNL     1      18.918  -3.307   6.377  1.00  0.00    -0.744 OA
ENDBRANCH  97  98
ENDBRANCH  71  92
ENDBRANCH  45  46
ENDBRANCH  38  40
ENDBRANCH  37  38
ENDBRANCH  36  37
ENDBRANCH  35  36
ENDBRANCH  34  35
ENDBRANCH  33  34
ENDBRANCH   1  33
TORSDOF 26
