REMARK SMILES O=C(OCCOCCOCCOC(=O)c1ccccc1/N=C/c1coc2ccccc2c1=O)c1ccc(-c2c3nc(c(-c4ccc(S(=O)(=O)[O-])cc4)c4ccc([nH]4)c(-c4ccc(S(=O)(=O)[O-])cc4)c4nc(c(-c5ccc(S(=O)(=O)[O-])cc5)c5ccc2[nH]5)C=C4)C=C3)cc1
REMARK SMILES IDX 7 1 6 2 5 3 4 4 3 5 2 6 1 7 34 8 35 9 93 10 36 11 92 12
REMARK SMILES IDX 37 13 38 14 39 15 86 16 40 17 91 18 85 19 87 20 41 21 90 22
REMARK SMILES IDX 84 23 83 24 42 26 72 27 53 28 71 29 54 30 57 31 70 32 88 33
REMARK SMILES IDX 55 34 56 35 69 37 89 38 58 39 43 40 44 41 52 42 45 43 51 44
REMARK SMILES IDX 46 45 47 46 48 47 49 48 50 49 73 50 74 51 82 52 75 53 81 54
REMARK SMILES IDX 76 55 77 56 78 57 79 58 80 59 59 60 60 61 68 62 61 63 67 64
REMARK SMILES IDX 62 65 63 66 64 67 65 68 66 69 8 70 9 71 10 72 11 73 12 74
REMARK SMILES IDX 13 75 14 76 15 77 16 78 20 79 17 80 19 81 18 82 21 83 22 84
REMARK SMILES IDX 23 85 24 86 32 87 25 88 31 89 33 90 26 91 30 92 27 93 29 94
REMARK SMILES IDX 28 95
REMARK H PARENT 87 25 57 36
REMARK Flexibility Score: inf
ROOT
ATOM      1  C   UNL     1       2.497   2.205  -0.303  1.00  0.00     0.188 C 
ENDROOT
BRANCH   1   2
ATOM      2  O   UNL     1       3.639   1.422   0.080  1.00  0.00    -0.376 OA
BRANCH   2   3
ATOM      3  C   UNL     1       4.574   1.226  -0.981  1.00  0.00     0.202 C 
BRANCH   3   4
ATOM      4  C   UNL     1       4.320  -0.041  -1.804  1.00  0.00     0.261 C 
BRANCH   4   5
ATOM      5  O   UNL     1       2.934  -0.426  -1.779  1.00  0.00    -0.460 OA
BRANCH   5   6
ATOM      6  C   UNL     1       2.358  -1.295  -0.907  1.00  0.00     0.338 C 
ATOM      7  O   UNL     1       1.137  -1.420  -0.881  1.00  0.00    -0.246 OA
BRANCH   6   8
ATOM      8  C   UNL     1       3.187  -2.216  -0.084  1.00  0.00     0.060 A 
ATOM      9  C   UNL     1       4.250  -1.794   0.714  1.00  0.00     0.016 A 
ATOM     10  C   UNL     1       2.832  -3.573  -0.077  1.00  0.00     0.016 A 
ATOM     11  C   UNL     1       5.051  -2.731   1.371  1.00  0.00     0.010 A 
ATOM     12  C   UNL     1       3.585  -4.503   0.651  1.00  0.00     0.010 A 
ATOM     13  C   UNL     1       4.736  -4.097   1.341  1.00  0.00    -0.014 A 
BRANCH  13  14
ATOM     14  C   UNL     1       5.639  -5.083   1.995  1.00  0.00     0.031 A 
ATOM     15  C   UNL     1       6.385  -6.099   1.175  1.00  0.00     0.074 A 
ATOM     16  C   UNL     1       5.860  -5.034   3.323  1.00  0.00     0.049 A 
ATOM     17  N   UNL     1       7.207  -7.035   1.579  1.00  0.00    -0.248 NA
ATOM     18  C   UNL     1       6.188  -6.058  -0.282  1.00  0.00     0.031 C 
ATOM     19  C   UNL     1       5.229  -4.091   4.243  1.00  0.00     0.029 A 
ATOM     20  N   UNL     1       6.698  -5.771   4.125  1.00  0.00    -0.354 N 
ATOM     21  C   UNL     1       7.617  -7.700   0.432  1.00  0.00     0.074 A 
ATOM     22  C   UNL     1       6.932  -7.078  -0.683  1.00  0.00     0.031 C 
ATOM     23  C   UNL     1       5.744  -4.278   5.466  1.00  0.00     0.029 A 
ATOM     24  C   UNL     1       6.688  -5.375   5.439  1.00  0.00     0.049 A 
ATOM     25  H   UNL     1       7.253  -6.512   3.789  1.00  0.00     0.167 HD
ATOM     26  C   UNL     1       8.491  -8.728   0.311  1.00  0.00     0.031 A 
ATOM     27  C   UNL     1       7.339  -5.827   6.526  1.00  0.00     0.031 A 
ATOM     28  C   UNL     1       9.174  -9.357   1.409  1.00  0.00     0.049 A 
ATOM     29  C   UNL     1       8.275  -6.979   6.375  1.00  0.00     0.074 A 
ATOM     30  C   UNL     1      10.031 -10.444   1.384  1.00  0.00     0.029 A 
ATOM     31  N   UNL     1       9.090  -8.948   2.731  1.00  0.00    -0.354 N 
ATOM     32  N   UNL     1       8.583  -7.639   5.287  1.00  0.00    -0.248 NA
ATOM     33  C   UNL     1       8.942  -7.451   7.594  1.00  0.00     0.031 C 
ATOM     34  C   UNL     1      10.454 -10.702   2.695  1.00  0.00     0.029 A 
ATOM     35  C   UNL     1       9.881  -9.758   3.530  1.00  0.00     0.049 A 
ATOM     36  H   UNL     1       8.548  -8.193   3.054  1.00  0.00     0.167 HD
ATOM     37  C   UNL     1       9.468  -8.624   5.693  1.00  0.00     0.074 A 
ATOM     38  C   UNL     1       9.674  -8.449   7.119  1.00  0.00     0.031 C 
ATOM     39  C   UNL     1      10.047  -9.595   4.949  1.00  0.00     0.031 A 
BRANCH  26  40
ATOM     40  C   UNL     1       8.726  -9.242  -1.079  1.00  0.00    -0.014 A 
ATOM     41  C   UNL     1       9.556  -8.542  -1.973  1.00  0.00     0.010 A 
ATOM     42  C   UNL     1       8.087 -10.419  -1.507  1.00  0.00     0.010 A 
ATOM     43  C   UNL     1       9.708  -8.986  -3.288  1.00  0.00     0.020 A 
ATOM     44  C   UNL     1       8.250 -10.875  -2.817  1.00  0.00     0.020 A 
ATOM     45  C   UNL     1       9.043 -10.143  -3.705  1.00  0.00     0.054 A 
BRANCH  45  46
ATOM     46  S   UNL     1       9.237 -10.693  -5.423  1.00  0.00     0.124 S 
ATOM     47  O   UNL     1       8.336  -9.786  -6.130  1.00  0.00    -0.237 OA
ATOM     48  O   UNL     1      10.661 -10.484  -5.672  1.00  0.00    -0.237 OA
ATOM     49  O   UNL     1       8.813 -12.090  -5.387  1.00  0.00    -0.744 OA
ENDBRANCH  45  46
ENDBRANCH  26  40
BRANCH  27  50
ATOM     50  C   UNL     1       7.080  -5.230   7.864  1.00  0.00    -0.014 A 
ATOM     51  C   UNL     1       7.976  -4.307   8.432  1.00  0.00     0.010 A 
ATOM     52  C   UNL     1       5.915  -5.581   8.569  1.00  0.00     0.010 A 
ATOM     53  C   UNL     1       7.715  -3.752   9.690  1.00  0.00     0.020 A 
ATOM     54  C   UNL     1       5.650  -5.023   9.822  1.00  0.00     0.020 A 
ATOM     55  C   UNL     1       6.556  -4.118  10.380  1.00  0.00     0.054 A 
BRANCH  55  56
ATOM     56  S   UNL     1       6.153  -3.337  11.970  1.00  0.00     0.124 S 
ATOM     57  O   UNL     1       6.643  -4.319  12.929  1.00  0.00    -0.237 OA
ATOM     58  O   UNL     1       6.889  -2.075  11.923  1.00  0.00    -0.237 OA
ATOM     59  O   UNL     1       4.699  -3.193  11.899  1.00  0.00    -0.744 OA
ENDBRANCH  55  56
ENDBRANCH  27  50
BRANCH  39  60
ATOM     60  C   UNL     1      10.941 -10.543   5.689  1.00  0.00    -0.014 A 
ATOM     61  C   UNL     1      10.391 -11.569   6.478  1.00  0.00     0.010 A 
ATOM     62  C   UNL     1      12.334 -10.378   5.633  1.00  0.00     0.010 A 
ATOM     63  C   UNL     1      11.224 -12.393   7.236  1.00  0.00     0.020 A 
ATOM     64  C   UNL     1      13.170 -11.211   6.379  1.00  0.00     0.020 A 
ATOM     65  C   UNL     1      12.608 -12.200   7.192  1.00  0.00     0.054 A 
BRANCH  65  66
ATOM     66  S   UNL     1      13.678 -13.273   8.187  1.00  0.00     0.124 S 
ATOM     67  O   UNL     1      13.614 -12.632   9.497  1.00  0.00    -0.237 OA
ATOM     68  O   UNL     1      13.019 -14.573   8.090  1.00  0.00    -0.237 OA
ATOM     69  O   UNL     1      14.970 -13.186   7.510  1.00  0.00    -0.744 OA
ENDBRANCH  65  66
ENDBRANCH  39  60
ENDBRANCH  13  14
ENDBRANCH   6   8
ENDBRANCH   5   6
ENDBRANCH   4   5
ENDBRANCH   3   4
ENDBRANCH   2   3
ENDBRANCH   1   2
BRANCH   1  70
ATOM     70  C   UNL     1       1.899   2.881   0.932  1.00  0.00     0.188 C 
BRANCH  70  71
ATOM     71  O   UNL     1       2.602   4.056   1.352  1.00  0.00    -0.376 OA
BRANCH  71  72
ATOM     72  C   UNL     1       3.954   3.866   1.759  1.00  0.00     0.202 C 
BRANCH  72  73
ATOM     73  C   UNL     1       4.170   3.353   3.181  1.00  0.00     0.261 C 
BRANCH  73  74
ATOM     74  O   UNL     1       3.317   2.275   3.588  1.00  0.00    -0.460 OA
BRANCH  74  75
ATOM     75  C   UNL     1       2.241   2.663   4.317  1.00  0.00     0.340 C 
ATOM     76  O   UNL     1       1.832   3.799   4.493  1.00  0.00    -0.246 OA
BRANCH  75  77
ATOM     77  C   UNL     1       1.696   1.511   5.034  1.00  0.00     0.085 A 
ATOM     78  C   UNL     1       0.859   0.631   4.323  1.00  0.00     0.018 A 
ATOM     79  C   UNL     1       1.962   1.324   6.400  1.00  0.00     0.077 A 
ATOM     80  C   UNL     1       0.254  -0.443   4.973  1.00  0.00     0.001 A 
ATOM     81  C   UNL     1       1.290   0.262   7.035  1.00  0.00     0.029 A 
ATOM     82  C   UNL     1       0.451  -0.614   6.338  1.00  0.00     0.002 A 
BRANCH  79  83
ATOM     83  N   UNL     1       3.042   1.824   7.156  1.00  0.00    -0.255 NA
ATOM     84  C   UNL     1       3.948   2.647   6.734  1.00  0.00     0.127 C 
BRANCH  84  85
ATOM     85  C   UNL     1       5.353   2.176   6.912  1.00  0.00     0.076 A 
ATOM     86  C   UNL     1       5.768   2.128   8.189  1.00  0.00     0.209 A 
ATOM     87  C   UNL     1       5.684   0.949   6.122  1.00  0.00     0.201 A 
ATOM     88  O   UNL     1       6.271   0.957   8.756  1.00  0.00    -0.463 OA
ATOM     89  C   UNL     1       5.357  -0.258   6.897  1.00  0.00     0.065 A 
ATOM     90  O   UNL     1       5.984   0.963   4.942  1.00  0.00    -0.288 OA
ATOM     91  C   UNL     1       5.624  -0.167   8.265  1.00  0.00     0.137 A 
ATOM     92  C   UNL     1       4.492  -1.218   6.383  1.00  0.00     0.016 A 
ATOM     93  C   UNL     1       5.050  -1.070   9.141  1.00  0.00     0.048 A 
ATOM     94  C   UNL     1       3.873  -2.096   7.275  1.00  0.00     0.001 A 
ATOM     95  C   UNL     1       4.161  -2.029   8.643  1.00  0.00     0.004 A 
ENDBRANCH  84  85
ENDBRANCH  79  83
ENDBRANCH  75  77
ENDBRANCH  74  75
ENDBRANCH  73  74
ENDBRANCH  72  73
ENDBRANCH  71  72
ENDBRANCH  70  71
ENDBRANCH   1  70
TORSDOF 22
