REMARK SMILES O=C(OCCOCCOCCOC(=O)[C@@H]1O[C@H](OC(=O)c2cccnc2)[C@@H](O)[C@H](O)[C@H]1O)c1ccc(-c2c3nc(c(-c4ccc(S(=O)(=O)[O-])cc4)c4ccc([nH]4)c(-c4ccc(S(=O)(=O)[O-])cc4)c4nc(c(-c5ccc(S(=O)(=O)[O-])cc5)c5ccc2[nH]5)C=C4)C=C3)cc1
REMARK SMILES IDX 7 1 6 2 5 3 4 4 3 5 2 6 1 7 33 8 34 9 92 10 35 11 91 12
REMARK SMILES IDX 36 13 37 14 38 15 85 16 39 17 90 18 84 19 86 20 40 21 89 22
REMARK SMILES IDX 83 23 82 24 41 26 71 27 52 28 70 29 53 30 56 31 69 32 87 33
REMARK SMILES IDX 54 34 55 35 68 37 88 38 57 39 42 40 43 41 51 42 44 43 50 44
REMARK SMILES IDX 45 45 46 46 47 47 48 48 49 49 72 50 73 51 81 52 74 53 80 54
REMARK SMILES IDX 75 55 76 56 77 57 78 58 79 59 58 60 59 61 67 62 60 63 66 64
REMARK SMILES IDX 61 65 62 66 63 67 64 68 65 69 8 70 9 71 10 72 11 73 12 74
REMARK SMILES IDX 13 75 14 76 15 77 16 78 31 79 17 80 29 81 27 82 32 83 18 85
REMARK SMILES IDX 19 86 20 87 21 88 22 89 26 90 23 91 25 92 24 93 30 94 28 96
REMARK H PARENT 86 25 56 36 32 84 30 95 28 97
REMARK Flexibility Score: inf
ROOT
ATOM      1  C   UNL     1       6.420  -1.542  -6.521  1.00  0.00     0.188 C 
ENDROOT
BRANCH   1   2
ATOM      2  O   UNL     1       5.640  -0.461  -7.044  1.00  0.00    -0.376 OA
BRANCH   2   3
ATOM      3  C   UNL     1       6.347   0.364  -7.974  1.00  0.00     0.202 C 
BRANCH   3   4
ATOM      4  C   UNL     1       7.432   1.275  -7.375  1.00  0.00     0.261 C 
BRANCH   4   5
ATOM      5  O   UNL     1       7.997   0.793  -6.148  1.00  0.00    -0.460 OA
BRANCH   5   6
ATOM      6  C   UNL     1       7.587   1.012  -4.874  1.00  0.00     0.338 C 
ATOM      7  O   UNL     1       8.296   0.579  -3.965  1.00  0.00    -0.246 OA
BRANCH   6   8
ATOM      8  C   UNL     1       6.319   1.720  -4.492  1.00  0.00     0.060 A 
ATOM      9  C   UNL     1       5.256   2.034  -5.343  1.00  0.00     0.016 A 
ATOM     10  C   UNL     1       6.176   2.059  -3.136  1.00  0.00     0.016 A 
ATOM     11  C   UNL     1       4.128   2.725  -4.907  1.00  0.00     0.010 A 
ATOM     12  C   UNL     1       5.039   2.730  -2.679  1.00  0.00     0.010 A 
ATOM     13  C   UNL     1       4.028   3.106  -3.579  1.00  0.00    -0.014 A 
BRANCH  13  14
ATOM     14  C   UNL     1       3.011   4.092  -3.163  1.00  0.00     0.031 A 
ATOM     15  C   UNL     1       3.503   5.469  -2.848  1.00  0.00     0.074 A 
ATOM     16  C   UNL     1       1.702   3.795  -3.084  1.00  0.00     0.049 A 
ATOM     17  N   UNL     1       2.878   6.454  -2.271  1.00  0.00    -0.248 NA
ATOM     18  C   UNL     1       4.878   5.787  -3.279  1.00  0.00     0.031 C 
ATOM     19  C   UNL     1       1.062   2.586  -3.598  1.00  0.00     0.029 A 
ATOM     20  N   UNL     1       0.677   4.463  -2.460  1.00  0.00    -0.354 N 
ATOM     21  C   UNL     1       3.770   7.517  -2.296  1.00  0.00     0.074 A 
ATOM     22  C   UNL     1       5.006   7.036  -2.867  1.00  0.00     0.031 C 
ATOM     23  C   UNL     1      -0.188   2.515  -3.110  1.00  0.00     0.029 A 
ATOM     24  C   UNL     1      -0.420   3.655  -2.250  1.00  0.00     0.049 A 
ATOM     25  H   UNL     1       0.722   5.410  -2.194  1.00  0.00     0.167 HD
ATOM     26  C   UNL     1       3.550   8.791  -1.907  1.00  0.00     0.031 A 
ATOM     27  C   UNL     1      -1.448   3.790  -1.393  1.00  0.00     0.031 A 
ATOM     28  C   UNL     1       2.317   9.206  -1.300  1.00  0.00     0.049 A 
ATOM     29  C   UNL     1      -1.587   5.120  -0.715  1.00  0.00     0.074 A 
ATOM     30  C   UNL     1       1.949  10.456  -0.848  1.00  0.00     0.029 A 
ATOM     31  N   UNL     1       1.254   8.348  -1.039  1.00  0.00    -0.354 N 
ATOM     32  N   UNL     1      -0.754   6.134  -0.746  1.00  0.00    -0.248 NA
ATOM     33  C   UNL     1      -2.827   5.367   0.026  1.00  0.00     0.031 C 
ATOM     34  C   UNL     1       0.692  10.337  -0.245  1.00  0.00     0.029 A 
ATOM     35  C   UNL     1       0.244   9.030  -0.392  1.00  0.00     0.049 A 
ATOM     36  H   UNL     1       1.226   7.394  -1.280  1.00  0.00     0.167 HD
ATOM     37  C   UNL     1      -1.410   7.177  -0.110  1.00  0.00     0.074 A 
ATOM     38  C   UNL     1      -2.685   6.649   0.342  1.00  0.00     0.031 C 
ATOM     39  C   UNL     1      -1.015   8.465   0.035  1.00  0.00     0.031 A 
BRANCH  26  40
ATOM     40  C   UNL     1       4.688   9.758  -2.078  1.00  0.00    -0.014 A 
ATOM     41  C   UNL     1       5.156  10.122  -3.357  1.00  0.00     0.010 A 
ATOM     42  C   UNL     1       5.358  10.245  -0.943  1.00  0.00     0.010 A 
ATOM     43  C   UNL     1       6.317  10.886  -3.496  1.00  0.00     0.020 A 
ATOM     44  C   UNL     1       6.501  11.037  -1.077  1.00  0.00     0.020 A 
ATOM     45  C   UNL     1       6.991  11.326  -2.353  1.00  0.00     0.054 A 
BRANCH  45  46
ATOM     46  S   UNL     1       8.527  12.268  -2.558  1.00  0.00     0.124 S 
ATOM     47  O   UNL     1       9.455  11.234  -3.011  1.00  0.00    -0.237 OA
ATOM     48  O   UNL     1       8.160  13.264  -3.560  1.00  0.00    -0.237 OA
ATOM     49  O   UNL     1       8.790  12.798  -1.222  1.00  0.00    -0.744 OA
ENDBRANCH  45  46
ENDBRANCH  26  40
BRANCH  27  50
ATOM     50  C   UNL     1      -2.341   2.640  -1.070  1.00  0.00    -0.014 A 
ATOM     51  C   UNL     1      -3.644   2.523  -1.577  1.00  0.00     0.010 A 
ATOM     52  C   UNL     1      -1.876   1.650  -0.180  1.00  0.00     0.010 A 
ATOM     53  C   UNL     1      -4.483   1.476  -1.157  1.00  0.00     0.020 A 
ATOM     54  C   UNL     1      -2.700   0.593   0.225  1.00  0.00     0.020 A 
ATOM     55  C   UNL     1      -4.010   0.521  -0.249  1.00  0.00     0.054 A 
BRANCH  55  56
ATOM     56  S   UNL     1      -5.125  -0.756   0.422  1.00  0.00     0.124 S 
ATOM     57  O   UNL     1      -6.453  -0.213   0.151  1.00  0.00    -0.237 OA
ATOM     58  O   UNL     1      -4.771  -1.934  -0.362  1.00  0.00    -0.237 OA
ATOM     59  O   UNL     1      -4.747  -0.810   1.831  1.00  0.00    -0.744 OA
ENDBRANCH  55  56
ENDBRANCH  27  50
BRANCH  39  60
ATOM     60  C   UNL     1      -2.003   9.419   0.634  1.00  0.00    -0.014 A 
ATOM     61  C   UNL     1      -2.269   9.430   2.012  1.00  0.00     0.010 A 
ATOM     62  C   UNL     1      -2.572  10.403  -0.196  1.00  0.00     0.010 A 
ATOM     63  C   UNL     1      -3.085  10.424   2.553  1.00  0.00     0.020 A 
ATOM     64  C   UNL     1      -3.360  11.414   0.346  1.00  0.00     0.020 A 
ATOM     65  C   UNL     1      -3.611  11.418   1.719  1.00  0.00     0.054 A 
BRANCH  65  66
ATOM     66  S   UNL     1      -4.559  12.767   2.468  1.00  0.00     0.124 S 
ATOM     67  O   UNL     1      -5.805  12.098   2.830  1.00  0.00    -0.237 OA
ATOM     68  O   UNL     1      -3.710  13.168   3.588  1.00  0.00    -0.237 OA
ATOM     69  O   UNL     1      -4.669  13.752   1.394  1.00  0.00    -0.744 OA
ENDBRANCH  65  66
ENDBRANCH  39  60
ENDBRANCH  13  14
ENDBRANCH   6   8
ENDBRANCH   5   6
ENDBRANCH   4   5
ENDBRANCH   3   4
ENDBRANCH   2   3
ENDBRANCH   1   2
BRANCH   1  70
ATOM     70  C   UNL     1       5.624  -2.832  -6.333  1.00  0.00     0.188 C 
BRANCH  70  71
ATOM     71  O   UNL     1       5.100  -3.450  -7.506  1.00  0.00    -0.376 OA
BRANCH  71  72
ATOM     72  C   UNL     1       4.368  -2.630  -8.407  1.00  0.00     0.202 C 
BRANCH  72  73
ATOM     73  C   UNL     1       3.025  -2.024  -7.958  1.00  0.00     0.261 C 
BRANCH  73  74
ATOM     74  O   UNL     1       2.904  -1.689  -6.569  1.00  0.00    -0.461 OA
BRANCH  74  75
ATOM     75  C   UNL     1       2.415  -2.700  -5.799  1.00  0.00     0.338 C 
ATOM     76  O   UNL     1       2.129  -3.814  -6.236  1.00  0.00    -0.249 OA
BRANCH  75  77
ATOM     77  C   UNL     1       2.188  -2.329  -4.338  1.00  0.00     0.263 C 
ATOM     78  O   UNL     1       0.766  -2.294  -4.271  1.00  0.00    -0.322 OA
ATOM     79  C   UNL     1       2.814  -1.036  -3.812  1.00  0.00     0.186 C 
ATOM     80  C   UNL     1       0.188  -2.019  -3.006  1.00  0.00     0.343 C 
ATOM     81  C   UNL     1       2.322  -0.836  -2.371  1.00  0.00     0.181 C 
ATOM     82  C   UNL     1       0.801  -0.809  -2.281  1.00  0.00     0.214 C 
BRANCH  79  83
ATOM     83  O   UNL     1       4.245  -1.113  -3.755  1.00  0.00    -0.387 OA
ATOM     84  H   UNL     1       4.506  -1.833  -3.160  1.00  0.00     0.211 HD
ENDBRANCH  79  83
BRANCH  80  85
ATOM     85  O   UNL     1      -1.232  -1.856  -3.178  1.00  0.00    -0.429 OA
BRANCH  85  86
ATOM     86  C   UNL     1      -1.631  -1.058  -4.202  1.00  0.00     0.342 C 
ATOM     87  O   UNL     1      -0.933  -0.344  -4.900  1.00  0.00    -0.246 OA
BRANCH  86  88
ATOM     88  C   UNL     1      -3.072  -1.239  -4.429  1.00  0.00     0.078 A 
ATOM     89  C   UNL     1      -3.961  -1.440  -3.384  1.00  0.00     0.019 A 
ATOM     90  C   UNL     1      -3.579  -1.194  -5.720  1.00  0.00     0.126 A 
ATOM     91  C   UNL     1      -5.319  -1.572  -3.651  1.00  0.00     0.021 A 
ATOM     92  N   UNL     1      -4.896  -1.343  -6.021  1.00  0.00    -0.264 NA
ATOM     93  C   UNL     1      -5.735  -1.521  -4.971  1.00  0.00     0.111 A 
ENDBRANCH  86  88
ENDBRANCH  85  86
ENDBRANCH  80  85
BRANCH  81  94
ATOM     94  O   UNL     1       2.907   0.351  -1.805  1.00  0.00    -0.387 OA
ATOM     95  H   UNL     1       2.625   1.126  -2.316  1.00  0.00     0.211 HD
ENDBRANCH  81  94
BRANCH  82  96
ATOM     96  O   UNL     1       0.425  -0.778  -0.899  1.00  0.00    -0.384 OA
ATOM     97  H   UNL     1       0.765  -1.570  -0.454  1.00  0.00     0.211 HD
ENDBRANCH  82  96
ENDBRANCH  75  77
ENDBRANCH  74  75
ENDBRANCH  73  74
ENDBRANCH  72  73
ENDBRANCH  71  72
ENDBRANCH  70  71
ENDBRANCH   1  70
TORSDOF 26
