REMARK SMILES C=CCc1cccc(-c2ccc([C@@H](C)C(=O)OCCOCCOCCOC(=O)c3ccc(-c4c5nc(c(-c6ccc(S(=O)(=O)[O-])cc6)c6ccc([nH]6)c(-c6ccc(S(=O)(=O)[O-])cc6)c6nc(c(-c7ccc(S(=O)(=O)[O-])cc7)c7ccc4[nH]7)C=C6)C=C5)cc3)cc2)c1
REMARK SMILES IDX 21 1 20 2 19 3 18 4 17 5 15 6 16 7 13 8 14 9 12 10 9 11
REMARK SMILES IDX 10 12 90 13 11 14 89 15 8 16 4 17 5 18 91 19 6 20 7 21 3 22
REMARK SMILES IDX 2 23 1 24 22 25 23 26 24 27 25 28 26 29 27 30 28 31 29 32
REMARK SMILES IDX 30 33 88 34 31 35 87 36 32 37 33 38 34 39 81 40 35 41 86 42
REMARK SMILES IDX 80 43 82 44 36 45 85 46 79 47 78 48 37 50 67 51 48 52 66 53
REMARK SMILES IDX 49 54 52 55 65 56 83 57 50 58 51 59 64 61 84 62 53 63 38 64
REMARK SMILES IDX 39 65 47 66 40 67 46 68 41 69 42 70 43 71 44 72 45 73 68 74
REMARK SMILES IDX 69 75 77 76 70 77 76 78 71 79 72 80 73 81 74 82 75 83 54 84
REMARK SMILES IDX 55 85 63 86 56 87 62 88 57 89 58 90 59 91 60 92 61 93
REMARK H PARENT 82 49 52 60
REMARK Flexibility Score: inf
ROOT
ATOM      1  C   UNL     1       4.933  -7.473   0.853  1.00  0.00     0.188 C 
ENDROOT
BRANCH   1   2
ATOM      2  O   UNL     1       5.849  -8.047  -0.074  1.00  0.00    -0.376 OA
BRANCH   2   3
ATOM      3  C   UNL     1       5.346  -8.705  -1.230  1.00  0.00     0.202 C 
BRANCH   3   4
ATOM      4  C   UNL     1       4.306  -9.824  -1.049  1.00  0.00     0.261 C 
BRANCH   4   5
ATOM      5  O   UNL     1       3.118  -9.463  -0.307  1.00  0.00    -0.463 OA
BRANCH   5   6
ATOM      6  C   UNL     1       2.846 -10.205   0.796  1.00  0.00     0.313 C 
ATOM      7  O   UNL     1       3.515 -11.184   1.124  1.00  0.00    -0.252 OA
BRANCH   6   8
ATOM      8  C   UNL     1       1.659  -9.752   1.655  1.00  0.00     0.126 C 
ATOM      9  C   UNL     1       0.699 -10.931   1.810  1.00  0.00     0.025 C 
BRANCH   8  10
ATOM     10  C   UNL     1       0.874  -8.478   1.335  1.00  0.00    -0.034 A 
ATOM     11  C   UNL     1      -0.578  -6.053   0.858  1.00  0.00    -0.018 A 
ATOM     12  C   UNL     1      -0.385  -7.011  -0.153  1.00  0.00     0.009 A 
ATOM     13  C   UNL     1      -0.036  -6.333   2.118  1.00  0.00     0.009 A 
ATOM     14  C   UNL     1       0.319  -8.208   0.079  1.00  0.00     0.005 A 
ATOM     15  C   UNL     1       0.668  -7.526   2.355  1.00  0.00     0.005 A 
BRANCH  11  16
ATOM     16  C   UNL     1      -1.371  -4.827   0.619  1.00  0.00    -0.018 A 
ATOM     17  C   UNL     1      -1.620  -2.374   0.632  1.00  0.00    -0.044 A 
ATOM     18  C   UNL     1      -2.946  -2.526   0.198  1.00  0.00     0.004 A 
ATOM     19  C   UNL     1      -0.849  -3.536   0.849  1.00  0.00     0.012 A 
ATOM     20  C   UNL     1      -3.481  -3.791  -0.034  1.00  0.00     0.001 A 
ATOM     21  C   UNL     1      -2.699  -4.927   0.174  1.00  0.00     0.009 A 
BRANCH  17  22
ATOM     22  C   UNL     1      -1.131  -0.966   0.924  1.00  0.00     0.062 C 
BRANCH  22  23
ATOM     23  C   UNL     1       0.353  -0.749   0.895  1.00  0.00    -0.030 C 
ATOM     24  C   UNL     1       0.994   0.029   0.012  1.00  0.00     0.004 C 
ENDBRANCH  22  23
ENDBRANCH  17  22
ENDBRANCH  11  16
ENDBRANCH   8  10
ENDBRANCH   6   8
ENDBRANCH   5   6
ENDBRANCH   4   5
ENDBRANCH   3   4
ENDBRANCH   2   3
ENDBRANCH   1   2
BRANCH   1  25
ATOM     25  C   UNL     1       3.681  -6.761   0.319  1.00  0.00     0.188 C 
BRANCH  25  26
ATOM     26  O   UNL     1       3.653  -6.606  -1.083  1.00  0.00    -0.376 OA
BRANCH  26  27
ATOM     27  C   UNL     1       3.536  -5.288  -1.578  1.00  0.00     0.202 C 
BRANCH  27  28
ATOM     28  C   UNL     1       4.695  -4.336  -1.246  1.00  0.00     0.261 C 
BRANCH  28  29
ATOM     29  O   UNL     1       5.127  -4.307   0.127  1.00  0.00    -0.460 OA
BRANCH  29  30
ATOM     30  C   UNL     1       4.328  -3.678   1.018  1.00  0.00     0.338 C 
ATOM     31  O   UNL     1       3.271  -3.111   0.780  1.00  0.00    -0.246 OA
BRANCH  30  32
ATOM     32  C   UNL     1       4.836  -3.972   2.377  1.00  0.00     0.060 A 
ATOM     33  C   UNL     1       4.015  -4.658   3.285  1.00  0.00     0.016 A 
ATOM     34  C   UNL     1       6.120  -3.575   2.753  1.00  0.00     0.016 A 
ATOM     35  C   UNL     1       4.467  -4.919   4.582  1.00  0.00     0.010 A 
ATOM     36  C   UNL     1       6.562  -3.819   4.058  1.00  0.00     0.010 A 
ATOM     37  C   UNL     1       5.727  -4.463   4.990  1.00  0.00    -0.014 A 
BRANCH  37  38
ATOM     38  C   UNL     1       6.110  -4.486   6.426  1.00  0.00     0.031 A 
ATOM     39  C   UNL     1       5.984  -3.212   7.221  1.00  0.00     0.074 A 
ATOM     40  C   UNL     1       6.570  -5.603   7.019  1.00  0.00     0.049 A 
ATOM     41  N   UNL     1       6.335  -2.965   8.456  1.00  0.00    -0.248 NA
ATOM     42  C   UNL     1       5.385  -2.062   6.523  1.00  0.00     0.031 C 
ATOM     43  C   UNL     1       6.701  -6.911   6.380  1.00  0.00     0.029 A 
ATOM     44  N   UNL     1       7.030  -5.806   8.299  1.00  0.00    -0.354 N 
ATOM     45  C   UNL     1       6.020  -1.629   8.678  1.00  0.00     0.074 A 
ATOM     46  C   UNL     1       5.471  -1.113   7.443  1.00  0.00     0.031 C 
ATOM     47  C   UNL     1       7.221  -7.779   7.266  1.00  0.00     0.029 A 
ATOM     48  C   UNL     1       7.499  -7.080   8.521  1.00  0.00     0.049 A 
ATOM     49  H   UNL     1       7.023  -5.106   8.991  1.00  0.00     0.167 HD
ATOM     50  C   UNL     1       6.172  -0.896   9.807  1.00  0.00     0.031 A 
ATOM     51  C   UNL     1       8.109  -7.613   9.600  1.00  0.00     0.031 A 
ATOM     52  C   UNL     1       6.731  -1.407  11.031  1.00  0.00     0.049 A 
ATOM     53  C   UNL     1       8.336  -6.758  10.823  1.00  0.00     0.074 A 
ATOM     54  C   UNL     1       6.905  -0.747  12.235  1.00  0.00     0.029 A 
ATOM     55  N   UNL     1       7.216  -2.694  11.206  1.00  0.00    -0.354 N 
ATOM     56  N   UNL     1       8.007  -5.504  11.028  1.00  0.00    -0.248 NA
ATOM     57  C   UNL     1       9.009  -7.395  11.965  1.00  0.00     0.031 C 
ATOM     58  C   UNL     1       7.558  -1.614  13.117  1.00  0.00     0.029 A 
ATOM     59  C   UNL     1       7.719  -2.838  12.489  1.00  0.00     0.049 A 
ATOM     60  H   UNL     1       7.204  -3.400  10.521  1.00  0.00     0.167 HD
ATOM     61  C   UNL     1       8.404  -5.214  12.331  1.00  0.00     0.074 A 
ATOM     62  C   UNL     1       8.984  -6.426  12.870  1.00  0.00     0.031 C 
ATOM     63  C   UNL     1       8.294  -4.050  13.019  1.00  0.00     0.031 A 
BRANCH  50  64
ATOM     64  C   UNL     1       5.766   0.554   9.758  1.00  0.00    -0.014 A 
ATOM     65  C   UNL     1       4.415   0.935   9.668  1.00  0.00     0.010 A 
ATOM     66  C   UNL     1       6.753   1.553   9.850  1.00  0.00     0.010 A 
ATOM     67  C   UNL     1       4.062   2.288   9.633  1.00  0.00     0.020 A 
ATOM     68  C   UNL     1       6.402   2.906   9.848  1.00  0.00     0.020 A 
ATOM     69  C   UNL     1       5.059   3.264   9.724  1.00  0.00     0.054 A 
BRANCH  69  70
ATOM     70  S   UNL     1       4.568   5.010   9.708  1.00  0.00     0.124 S 
ATOM     71  O   UNL     1       4.138   5.189   8.323  1.00  0.00    -0.237 OA
ATOM     72  O   UNL     1       3.503   5.051  10.706  1.00  0.00    -0.237 OA
ATOM     73  O   UNL     1       5.792   5.719  10.075  1.00  0.00    -0.744 OA
ENDBRANCH  69  70
ENDBRANCH  50  64
BRANCH  51  74
ATOM     74  C   UNL     1       8.576  -9.029   9.569  1.00  0.00    -0.014 A 
ATOM     75  C   UNL     1       7.975 -10.004  10.384  1.00  0.00     0.010 A 
ATOM     76  C   UNL     1       9.636  -9.408   8.725  1.00  0.00     0.010 A 
ATOM     77  C   UNL     1       8.434 -11.326  10.366  1.00  0.00     0.020 A 
ATOM     78  C   UNL     1      10.077 -10.734   8.680  1.00  0.00     0.020 A 
ATOM     79  C   UNL     1       9.478 -11.683   9.509  1.00  0.00     0.054 A 
BRANCH  79  80
ATOM     80  S   UNL     1      10.017 -13.415   9.463  1.00  0.00     0.124 S 
ATOM     81  O   UNL     1      10.685 -13.561  10.753  1.00  0.00    -0.237 OA
ATOM     82  O   UNL     1       8.753 -14.133   9.319  1.00  0.00    -0.237 OA
ATOM     83  O   UNL     1      10.894 -13.470   8.295  1.00  0.00    -0.744 OA
ENDBRANCH  79  80
ENDBRANCH  51  74
BRANCH  63  84
ATOM     84  C   UNL     1       8.767  -4.032  14.452  1.00  0.00    -0.014 A 
ATOM     85  C   UNL     1      10.132  -4.104  14.779  1.00  0.00     0.010 A 
ATOM     86  C   UNL     1       7.825  -3.880  15.487  1.00  0.00     0.010 A 
ATOM     87  C   UNL     1      10.543  -4.059  16.116  1.00  0.00     0.020 A 
ATOM     88  C   UNL     1       8.233  -3.801  16.821  1.00  0.00     0.020 A 
ATOM     89  C   UNL     1       9.590  -3.907  17.128  1.00  0.00     0.054 A 
BRANCH  89  90
ATOM     90  S   UNL     1      10.153  -3.812  18.850  1.00  0.00     0.124 S 
ATOM     91  O   UNL     1      10.572  -5.186  19.110  1.00  0.00    -0.237 OA
ATOM     92  O   UNL     1      11.231  -2.828  18.781  1.00  0.00    -0.237 OA
ATOM     93  O   UNL     1       8.965  -3.375  19.581  1.00  0.00    -0.744 OA
ENDBRANCH  89  90
ENDBRANCH  63  84
ENDBRANCH  37  38
ENDBRANCH  30  32
ENDBRANCH  29  30
ENDBRANCH  28  29
ENDBRANCH  27  28
ENDBRANCH  26  27
ENDBRANCH  25  26
ENDBRANCH   1  25
TORSDOF 24
