REMARK SMILES CCN(CC(=O)NC(C)C)C(=O)N[C@H]1C=C[C@H](C(=O)OCCOCCOCCOC(=O)c2ccc(-c3c4nc(c(-c5ccc(S(=O)(=O)[O-])cc5)c5ccc([nH]5)c(-c5ccc(S(=O)(=O)[O-])cc5)c5nc(c(-c6ccc(S(=O)(=O)[O-])cc6)c6ccc3[nH]6)C=C5)C=C4)cc2)C1
REMARK SMILES IDX 24 1 23 2 22 3 21 4 20 5 18 6 19 7 17 8 14 9 15 10 92 11
REMARK SMILES IDX 16 12 13 13 11 14 12 15 3 17 2 18 1 19 4 20 5 21 6 22 7 23
REMARK SMILES IDX 8 25 9 26 10 27 25 28 26 29 27 30 28 31 29 32 30 33 31 34
REMARK SMILES IDX 32 35 33 36 91 37 34 38 90 39 35 40 36 41 37 42 84 43 38 44
REMARK SMILES IDX 89 45 83 46 85 47 39 48 88 49 82 50 81 51 40 53 70 54 51 55
REMARK SMILES IDX 69 56 52 57 55 58 68 59 86 60 53 61 54 62 67 64 87 65 56 66
REMARK SMILES IDX 41 67 42 68 50 69 43 70 49 71 44 72 45 73 46 74 47 75 48 76
REMARK SMILES IDX 71 77 72 78 80 79 73 80 79 81 74 82 75 83 76 84 77 85 78 86
REMARK SMILES IDX 57 87 58 88 66 89 59 90 65 91 60 92 61 93 62 94 63 95 64 96
REMARK H PARENT 13 16 7 24 85 52 55 63
REMARK Flexibility Score: inf
ROOT
ATOM      1  C   UNL     1      -0.055   9.517  -2.667  1.00  0.00     0.188 C 
ENDROOT
BRANCH   1   2
ATOM      2  O   UNL     1      -0.945  10.130  -3.579  1.00  0.00    -0.376 OA
BRANCH   2   3
ATOM      3  C   UNL     1      -1.201   9.489  -4.816  1.00  0.00     0.202 C 
BRANCH   3   4
ATOM      4  C   UNL     1      -1.597   8.007  -4.858  1.00  0.00     0.261 C 
BRANCH   4   5
ATOM      5  O   UNL     1      -0.976   7.151  -3.901  1.00  0.00    -0.463 OA
BRANCH   5   6
ATOM      6  C   UNL     1       0.269   6.669  -4.189  1.00  0.00     0.312 C 
ATOM      7  O   UNL     1       0.922   6.960  -5.179  1.00  0.00    -0.252 OA
BRANCH   6   8
ATOM      8  C   UNL     1       0.652   5.696  -3.091  1.00  0.00     0.124 C 
ATOM      9  C   UNL     1       2.310   3.908  -2.942  1.00  0.00     0.107 C 
ATOM     10  C   UNL     1       0.996   3.386  -3.382  1.00  0.00    -0.006 C 
ATOM     11  C   UNL     1       2.151   5.436  -2.909  1.00  0.00     0.048 C 
ATOM     12  C   UNL     1       0.086   4.361  -3.472  1.00  0.00    -0.014 C 
BRANCH   9  13
ATOM     13  N   UNL     1       2.850   3.299  -1.731  1.00  0.00    -0.332 N 
ATOM     14  C   UNL     1       2.524   2.492  -0.714  1.00  0.00     0.318 C 
ATOM     15  O   UNL     1       3.489   1.913  -0.195  1.00  0.00    -0.249 OA
ATOM     16  H   UNL     1       3.787   3.581  -1.625  1.00  0.00     0.165 HD
BRANCH  14  17
ATOM     17  N   UNL     1       1.265   2.275  -0.235  1.00  0.00    -0.316 N 
BRANCH  17  18
ATOM     18  C   UNL     1       1.080   1.130   0.667  1.00  0.00     0.118 C 
ATOM     19  C   UNL     1       1.318  -0.218  -0.009  1.00  0.00     0.027 C 
ENDBRANCH  17  18
BRANCH  17  20
ATOM     20  C   UNL     1       0.157   3.220  -0.295  1.00  0.00     0.221 C 
BRANCH  20  21
ATOM     21  C   UNL     1       0.417   4.590   0.345  1.00  0.00     0.239 C 
ATOM     22  O   UNL     1       1.268   5.384  -0.052  1.00  0.00    -0.273 OA
ATOM     23  N   UNL     1      -0.353   4.996   1.394  1.00  0.00    -0.352 N 
ATOM     24  H   UNL     1      -0.691   5.921   1.381  1.00  0.00     0.163 HD
BRANCH  23  25
ATOM     25  C   UNL     1      -0.712   4.167   2.529  1.00  0.00     0.075 C 
ATOM     26  C   UNL     1       0.474   4.147   3.492  1.00  0.00     0.030 C 
ATOM     27  C   UNL     1      -1.967   4.713   3.193  1.00  0.00     0.030 C 
ENDBRANCH  23  25
ENDBRANCH  20  21
ENDBRANCH  17  20
ENDBRANCH  14  17
ENDBRANCH   9  13
ENDBRANCH   6   8
ENDBRANCH   5   6
ENDBRANCH   4   5
ENDBRANCH   3   4
ENDBRANCH   2   3
ENDBRANCH   1   2
BRANCH   1  28
ATOM     28  C   UNL     1      -0.769   8.961  -1.415  1.00  0.00     0.188 C 
BRANCH  28  29
ATOM     29  O   UNL     1      -2.190   8.970  -1.354  1.00  0.00    -0.376 OA
BRANCH  29  30
ATOM     30  C   UNL     1      -2.887  10.165  -1.691  1.00  0.00     0.202 C 
BRANCH  30  31
ATOM     31  C   UNL     1      -2.428  11.548  -1.175  1.00  0.00     0.261 C 
BRANCH  31  32
ATOM     32  O   UNL     1      -1.017  11.824  -1.206  1.00  0.00    -0.460 OA
BRANCH  32  33
ATOM     33  C   UNL     1      -0.394  11.913  -0.001  1.00  0.00     0.338 C 
ATOM     34  O   UNL     1      -0.900  11.802   1.097  1.00  0.00    -0.246 OA
BRANCH  33  35
ATOM     35  C   UNL     1       1.070  11.995  -0.217  1.00  0.00     0.060 A 
ATOM     36  C   UNL     1       1.873  10.907   0.157  1.00  0.00     0.016 A 
ATOM     37  C   UNL     1       1.651  13.137  -0.768  1.00  0.00     0.016 A 
ATOM     38  C   UNL     1       3.256  10.950  -0.036  1.00  0.00     0.010 A 
ATOM     39  C   UNL     1       3.041  13.191  -0.930  1.00  0.00     0.010 A 
ATOM     40  C   UNL     1       3.853  12.103  -0.559  1.00  0.00    -0.014 A 
BRANCH  40  41
ATOM     41  C   UNL     1       5.332  12.234  -0.620  1.00  0.00     0.031 A 
ATOM     42  C   UNL     1       6.040  13.012   0.455  1.00  0.00     0.074 A 
ATOM     43  C   UNL     1       6.035  11.700  -1.636  1.00  0.00     0.049 A 
ATOM     44  N   UNL     1       7.296  13.367   0.531  1.00  0.00    -0.248 NA
ATOM     45  C   UNL     1       5.218  13.450   1.595  1.00  0.00     0.031 C 
ATOM     46  C   UNL     1       5.481  10.876  -2.709  1.00  0.00     0.029 A 
ATOM     47  N   UNL     1       7.373  11.792  -1.939  1.00  0.00    -0.354 N 
ATOM     48  C   UNL     1       7.415  14.086   1.715  1.00  0.00     0.074 A 
ATOM     49  C   UNL     1       6.098  14.130   2.316  1.00  0.00     0.031 C 
ATOM     50  C   UNL     1       6.467  10.559  -3.568  1.00  0.00     0.029 A 
ATOM     51  C   UNL     1       7.710  11.195  -3.131  1.00  0.00     0.049 A 
ATOM     52  H   UNL     1       8.027  12.243  -1.358  1.00  0.00     0.167 HD
ATOM     53  C   UNL     1       8.518  14.660   2.250  1.00  0.00     0.031 A 
ATOM     54  C   UNL     1       8.874  11.194  -3.814  1.00  0.00     0.031 A 
ATOM     55  C   UNL     1       9.821  14.632   1.639  1.00  0.00     0.049 A 
ATOM     56  C   UNL     1      10.065  11.930  -3.250  1.00  0.00     0.074 A 
ATOM     57  C   UNL     1      11.005  15.169   2.115  1.00  0.00     0.029 A 
ATOM     58  N   UNL     1      10.112  14.050   0.414  1.00  0.00    -0.354 N 
ATOM     59  N   UNL     1      10.171  12.581  -2.115  1.00  0.00    -0.248 NA
ATOM     60  C   UNL     1      11.291  11.936  -4.062  1.00  0.00     0.031 C 
ATOM     61  C   UNL     1      11.994  14.975   1.145  1.00  0.00     0.029 A 
ATOM     62  C   UNL     1      11.445  14.253   0.098  1.00  0.00     0.049 A 
ATOM     63  H   UNL     1       9.466  13.563  -0.148  1.00  0.00     0.167 HD
ATOM     64  C   UNL     1      11.481  13.053  -2.069  1.00  0.00     0.074 A 
ATOM     65  C   UNL     1      12.133  12.598  -3.279  1.00  0.00     0.031 C 
ATOM     66  C   UNL     1      12.086  13.798  -1.111  1.00  0.00     0.031 A 
BRANCH  53  67
ATOM     67  C   UNL     1       8.357  15.412   3.545  1.00  0.00    -0.014 A 
ATOM     68  C   UNL     1       8.109  14.741   4.756  1.00  0.00     0.010 A 
ATOM     69  C   UNL     1       8.507  16.812   3.558  1.00  0.00     0.010 A 
ATOM     70  C   UNL     1       7.978  15.458   5.948  1.00  0.00     0.020 A 
ATOM     71  C   UNL     1       8.406  17.530   4.753  1.00  0.00     0.020 A 
ATOM     72  C   UNL     1       8.127  16.849   5.939  1.00  0.00     0.054 A 
BRANCH  72  73
ATOM     73  S   UNL     1       7.979  17.749   7.506  1.00  0.00     0.124 S 
ATOM     74  O   UNL     1       6.551  17.627   7.790  1.00  0.00    -0.237 OA
ATOM     75  O   UNL     1       8.861  16.995   8.392  1.00  0.00    -0.237 OA
ATOM     76  O   UNL     1       8.433  19.098   7.178  1.00  0.00    -0.744 OA
ENDBRANCH  72  73
ENDBRANCH  53  67
BRANCH  54  77
ATOM     77  C   UNL     1       8.966  10.510  -5.136  1.00  0.00    -0.014 A 
ATOM     78  C   UNL     1       9.773   9.372  -5.302  1.00  0.00     0.010 A 
ATOM     79  C   UNL     1       8.252  11.006  -6.244  1.00  0.00     0.010 A 
ATOM     80  C   UNL     1       9.877   8.751  -6.551  1.00  0.00     0.020 A 
ATOM     81  C   UNL     1       8.328  10.370  -7.487  1.00  0.00     0.020 A 
ATOM     82  C   UNL     1       9.150   9.251  -7.635  1.00  0.00     0.054 A 
BRANCH  82  83
ATOM     83  S   UNL     1       9.263   8.398  -9.232  1.00  0.00     0.124 S 
ATOM     84  O   UNL     1      10.618   8.729  -9.660  1.00  0.00    -0.237 OA
ATOM     85  O   UNL     1       9.039   7.004  -8.860  1.00  0.00    -0.237 OA
ATOM     86  O   UNL     1       8.193   9.004 -10.022  1.00  0.00    -0.744 OA
ENDBRANCH  82  83
ENDBRANCH  54  77
BRANCH  66  87
ATOM     87  C   UNL     1      13.537  14.160  -1.311  1.00  0.00    -0.014 A 
ATOM     88  C   UNL     1      13.924  15.111  -2.271  1.00  0.00     0.010 A 
ATOM     89  C   UNL     1      14.517  13.603  -0.467  1.00  0.00     0.010 A 
ATOM     90  C   UNL     1      15.265  15.488  -2.394  1.00  0.00     0.020 A 
ATOM     91  C   UNL     1      15.854  13.999  -0.567  1.00  0.00     0.020 A 
ATOM     92  C   UNL     1      16.221  14.934  -1.536  1.00  0.00     0.054 A 
BRANCH  92  93
ATOM     93  S   UNL     1      17.941  15.496  -1.670  1.00  0.00     0.124 S 
ATOM     94  O   UNL     1      18.356  14.908  -2.941  1.00  0.00    -0.237 OA
ATOM     95  O   UNL     1      17.803  16.950  -1.667  1.00  0.00    -0.237 OA
ATOM     96  O   UNL     1      18.584  14.934  -0.485  1.00  0.00    -0.744 OA
ENDBRANCH  92  93
ENDBRANCH  66  87
ENDBRANCH  40  41
ENDBRANCH  33  35
ENDBRANCH  32  33
ENDBRANCH  31  32
ENDBRANCH  30  31
ENDBRANCH  29  30
ENDBRANCH  28  29
ENDBRANCH   1  28
TORSDOF 26
