REMARK SMILES CCOc1cc(N2CCOCC2)ccc1[C@H]([NH3+])C(=O)OCCOCCOCCOC(=O)c1ccc(-c2c3nc(c(-c4ccc(S(=O)(=O)[O-])cc4)c4ccc([nH]4)c(-c4ccc(S(=O)(=O)[O-])cc4)c4nc(c(-c5ccc(S(=O)(=O)[O-])cc5)c5ccc2[nH]5)C=C4)C=C3)cc1
REMARK SMILES IDX 24 1 23 2 22 3 21 4 20 5 18 6 19 7 16 8 15 9 4 10 5 11 6 12
REMARK SMILES IDX 14 13 13 14 3 15 2 16 1 17 7 18 8 19 12 20 9 21 11 22 10 23
REMARK SMILES IDX 17 24 25 28 26 29 27 30 28 31 29 32 30 33 31 34 32 35 33 36
REMARK SMILES IDX 91 37 34 38 90 39 35 40 36 41 37 42 84 43 38 44 89 45 83 46
REMARK SMILES IDX 85 47 39 48 88 49 82 50 81 51 40 53 70 54 51 55 69 56 52 57
REMARK SMILES IDX 55 58 68 59 86 60 53 61 54 62 67 64 87 65 56 66 41 67 42 68
REMARK SMILES IDX 50 69 43 70 49 71 44 72 45 73 46 74 47 75 48 76 71 77 72 78
REMARK SMILES IDX 80 79 73 80 79 81 74 82 75 83 76 84 77 85 78 86 57 87 58 88
REMARK SMILES IDX 66 89 59 90 65 91 60 92 61 93 62 94 63 95 64 96
REMARK H PARENT 17 25 17 26 17 27 85 52 55 63
REMARK Flexibility Score: inf
ROOT
ATOM      1  C   UNL     1       3.204   2.970  -1.755  1.00  0.00     0.188 C 
ENDROOT
BRANCH   1   2
ATOM      2  O   UNL     1       4.107   3.899  -1.178  1.00  0.00    -0.376 OA
BRANCH   2   3
ATOM      3  C   UNL     1       4.886   3.459  -0.071  1.00  0.00     0.202 C 
BRANCH   3   4
ATOM      4  C   UNL     1       4.137   2.781   1.076  1.00  0.00     0.261 C 
BRANCH   4   5
ATOM      5  O   UNL     1       3.720   1.452   0.706  1.00  0.00    -0.459 OA
BRANCH   5   6
ATOM      6  C   UNL     1       2.627   0.977   1.368  1.00  0.00     0.369 C 
ATOM      7  O   UNL     1       2.063   1.602   2.263  1.00  0.00    -0.245 OA
BRANCH   6   8
ATOM      8  C   UNL     1       2.206  -0.457   0.959  1.00  0.00     0.326 C 
BRANCH   8   9
ATOM      9  C   UNL     1       2.573  -1.430   2.057  1.00  0.00     0.063 A 
ATOM     10  C   UNL     1       3.903  -1.793   2.323  1.00  0.00     0.131 A 
ATOM     11  C   UNL     1       4.207  -2.606   3.413  1.00  0.00     0.072 A 
ATOM     12  C   UNL     1       3.187  -3.115   4.228  1.00  0.00     0.040 A 
ATOM     13  C   UNL     1       1.554  -1.947   2.866  1.00  0.00     0.016 A 
ATOM     14  C   UNL     1       1.860  -2.792   3.930  1.00  0.00     0.027 A 
BRANCH  10  15
ATOM     15  O   UNL     1       4.847  -1.539   1.364  1.00  0.00    -0.493 OA
BRANCH  15  16
ATOM     16  C   UNL     1       5.910  -0.675   1.759  1.00  0.00     0.226 C 
ATOM     17  C   UNL     1       6.639  -0.294   0.478  1.00  0.00     0.049 C 
ENDBRANCH  15  16
ENDBRANCH  10  15
BRANCH  12  18
ATOM     18  N   UNL     1       3.520  -3.965   5.268  1.00  0.00    -0.367 N 
ATOM     19  C   UNL     1       3.193  -5.389   5.129  1.00  0.00     0.145 C 
ATOM     20  C   UNL     1       3.506  -3.430   6.634  1.00  0.00     0.145 C 
ATOM     21  C   UNL     1       1.978  -5.772   5.988  1.00  0.00     0.181 C 
ATOM     22  C   UNL     1       2.271  -3.915   7.409  1.00  0.00     0.181 C 
ATOM     23  O   UNL     1       2.137  -5.346   7.352  1.00  0.00    -0.378 OA
ENDBRANCH  12  18
ENDBRANCH   8   9
BRANCH   8  24
ATOM     24  N   UNL     1       2.700  -0.924  -0.352  1.00  0.00    -0.342 N 
ATOM     25  H   UNL     1       3.717  -0.996  -0.326  1.00  0.00     0.345 HD
ATOM     26  H   UNL     1       2.424  -0.260  -1.075  1.00  0.00     0.345 HD
ATOM     27  H   UNL     1       2.300  -1.839  -0.560  1.00  0.00     0.345 HD
ENDBRANCH   8  24
ENDBRANCH   6   8
ENDBRANCH   5   6
ENDBRANCH   4   5
ENDBRANCH   3   4
ENDBRANCH   2   3
ENDBRANCH   1   2
BRANCH   1  28
ATOM     28  C   UNL     1       3.755   1.628  -2.263  1.00  0.00     0.188 C 
BRANCH  28  29
ATOM     29  O   UNL     1       5.138   1.378  -2.427  1.00  0.00    -0.376 OA
BRANCH  29  30
ATOM     30  C   UNL     1       5.938   2.267  -3.181  1.00  0.00     0.202 C 
BRANCH  30  31
ATOM     31  C   UNL     1       5.532   2.676  -4.602  1.00  0.00     0.261 C 
BRANCH  31  32
ATOM     32  O   UNL     1       4.145   2.981  -4.762  1.00  0.00    -0.460 OA
BRANCH  32  33
ATOM     33  C   UNL     1       3.429   2.067  -5.467  1.00  0.00     0.338 C 
ATOM     34  O   UNL     1       3.853   1.074  -6.036  1.00  0.00    -0.246 OA
BRANCH  33  35
ATOM     35  C   UNL     1       1.995   2.335  -5.240  1.00  0.00     0.060 A 
ATOM     36  C   UNL     1       1.189   1.285  -4.774  1.00  0.00     0.016 A 
ATOM     37  C   UNL     1       1.463   3.612  -5.425  1.00  0.00     0.016 A 
ATOM     38  C   UNL     1      -0.159   1.506  -4.504  1.00  0.00     0.010 A 
ATOM     39  C   UNL     1       0.106   3.826  -5.185  1.00  0.00     0.010 A 
ATOM     40  C   UNL     1      -0.714   2.768  -4.751  1.00  0.00    -0.014 A 
BRANCH  40  41
ATOM     41  C   UNL     1      -2.184   2.920  -4.813  1.00  0.00     0.031 A 
ATOM     42  C   UNL     1      -2.841   2.723  -6.151  1.00  0.00     0.074 A 
ATOM     43  C   UNL     1      -2.914   3.230  -3.727  1.00  0.00     0.049 A 
ATOM     44  N   UNL     1      -4.092   2.882  -6.491  1.00  0.00    -0.248 NA
ATOM     45  C   UNL     1      -1.964   2.291  -7.254  1.00  0.00     0.031 C 
ATOM     46  C   UNL     1      -2.397   3.397  -2.370  1.00  0.00     0.029 A 
ATOM     47  N   UNL     1      -4.259   3.474  -3.608  1.00  0.00    -0.354 N 
ATOM     48  C   UNL     1      -4.151   2.573  -7.844  1.00  0.00     0.074 A 
ATOM     49  C   UNL     1      -2.811   2.243  -8.270  1.00  0.00     0.031 C 
ATOM     50  C   UNL     1      -3.413   3.737  -1.556  1.00  0.00     0.029 A 
ATOM     51  C   UNL     1      -4.643   3.843  -2.341  1.00  0.00     0.049 A 
ATOM     52  H   UNL     1      -4.890   3.392  -4.359  1.00  0.00     0.167 HD
ATOM     53  C   UNL     1      -5.228   2.564  -8.662  1.00  0.00     0.031 A 
ATOM     54  C   UNL     1      -5.845   4.246  -1.881  1.00  0.00     0.031 A 
ATOM     55  C   UNL     1      -6.554   2.922  -8.246  1.00  0.00     0.049 A 
ATOM     56  C   UNL     1      -7.014   4.312  -2.833  1.00  0.00     0.074 A 
ATOM     57  C   UNL     1      -7.712   2.958  -9.001  1.00  0.00     0.029 A 
ATOM     58  N   UNL     1      -6.897   3.313  -6.961  1.00  0.00    -0.354 N 
ATOM     59  N   UNL     1      -7.061   4.005  -4.109  1.00  0.00    -0.248 NA
ATOM     60  C   UNL     1      -8.296   4.777  -2.282  1.00  0.00     0.031 C 
ATOM     61  C   UNL     1      -8.748   3.419  -8.183  1.00  0.00     0.029 A 
ATOM     62  C   UNL     1      -8.246   3.611  -6.905  1.00  0.00     0.049 A 
ATOM     63  H   UNL     1      -6.273   3.370  -6.202  1.00  0.00     0.167 HD
ATOM     64  C   UNL     1      -8.381   4.209  -4.502  1.00  0.00     0.074 A 
ATOM     65  C   UNL     1      -9.102   4.655  -3.328  1.00  0.00     0.031 C 
ATOM     66  C   UNL     1      -8.947   4.042  -5.723  1.00  0.00     0.031 A 
BRANCH  53  67
ATOM     67  C   UNL     1      -4.999   2.184 -10.098  1.00  0.00    -0.014 A 
ATOM     68  C   UNL     1      -4.729   0.852 -10.460  1.00  0.00     0.010 A 
ATOM     69  C   UNL     1      -5.079   3.167 -11.100  1.00  0.00     0.010 A 
ATOM     70  C   UNL     1      -4.518   0.514 -11.798  1.00  0.00     0.020 A 
ATOM     71  C   UNL     1      -4.893   2.829 -12.442  1.00  0.00     0.020 A 
ATOM     72  C   UNL     1      -4.601   1.506 -12.781  1.00  0.00     0.054 A 
BRANCH  72  73
ATOM     73  S   UNL     1      -4.359   1.032 -14.515  1.00  0.00     0.124 S 
ATOM     74  O   UNL     1      -2.919   0.791 -14.563  1.00  0.00    -0.237 OA
ATOM     75  O   UNL     1      -5.199  -0.157 -14.642  1.00  0.00    -0.237 OA
ATOM     76  O   UNL     1      -4.821   2.200 -15.261  1.00  0.00    -0.744 OA
ENDBRANCH  72  73
ENDBRANCH  53  67
BRANCH  54  77
ATOM     77  C   UNL     1      -6.010   4.655  -0.457  1.00  0.00    -0.014 A 
ATOM     78  C   UNL     1      -6.793   3.890   0.425  1.00  0.00     0.010 A 
ATOM     79  C   UNL     1      -5.412   5.838   0.013  1.00  0.00     0.010 A 
ATOM     80  C   UNL     1      -7.002   4.317   1.741  1.00  0.00     0.020 A 
ATOM     81  C   UNL     1      -5.595   6.254   1.336  1.00  0.00     0.020 A 
ATOM     82  C   UNL     1      -6.404   5.499   2.187  1.00  0.00     0.054 A 
BRANCH  82  83
ATOM     83  S   UNL     1      -6.669   6.023   3.904  1.00  0.00     0.124 S 
ATOM     84  O   UNL     1      -8.042   6.516   3.862  1.00  0.00    -0.237 OA
ATOM     85  O   UNL     1      -6.464   4.783   4.649  1.00  0.00    -0.237 OA
ATOM     86  O   UNL     1      -5.643   7.043   4.112  1.00  0.00    -0.744 OA
ENDBRANCH  82  83
ENDBRANCH  54  77
BRANCH  66  87
ATOM     87  C   UNL     1     -10.427   4.294  -5.849  1.00  0.00    -0.014 A 
ATOM     88  C   UNL     1     -10.952   5.597  -5.828  1.00  0.00     0.010 A 
ATOM     89  C   UNL     1     -11.295   3.207  -6.067  1.00  0.00     0.010 A 
ATOM     90  C   UNL     1     -12.324   5.807  -5.994  1.00  0.00     0.020 A 
ATOM     91  C   UNL     1     -12.662   3.416  -6.261  1.00  0.00     0.020 A 
ATOM     92  C   UNL     1     -13.170   4.715  -6.210  1.00  0.00     0.054 A 
BRANCH  92  93
ATOM     93  S   UNL     1     -14.939   5.017  -6.473  1.00  0.00     0.124 S 
ATOM     94  O   UNL     1     -15.396   5.339  -5.124  1.00  0.00    -0.237 OA
ATOM     95  O   UNL     1     -14.938   6.131  -7.418  1.00  0.00    -0.237 OA
ATOM     96  O   UNL     1     -15.431   3.751  -7.012  1.00  0.00    -0.744 OA
ENDBRANCH  92  93
ENDBRANCH  66  87
ENDBRANCH  40  41
ENDBRANCH  33  35
ENDBRANCH  32  33
ENDBRANCH  31  32
ENDBRANCH  30  31
ENDBRANCH  29  30
ENDBRANCH  28  29
ENDBRANCH   1  28
TORSDOF 25
