REMARK SMILES O=C(OCCOCCOCCOC(=O)c1ccc(N2C(=O)/C(=C/C3=c4ccccc4=NC3)SC2=S)cc1O)c1ccc(-c2c3nc(c(-c4ccc(S(=O)(=O)[O-])cc4)c4ccc([nH]4)c(-c4ccc(S(=O)(=O)[O-])cc4)c4nc(c(-c5ccc(S(=O)(=O)[O-])cc5)c5ccc2[nH]5)C=C4)C=C3)cc1
REMARK SMILES IDX 7 1 6 2 5 3 4 4 3 5 2 6 1 7 39 8 40 9 98 10 41 11 97 12
REMARK SMILES IDX 42 13 43 14 44 15 91 16 45 17 96 18 90 19 92 20 46 21 95 22
REMARK SMILES IDX 89 23 88 24 47 26 77 27 58 28 76 29 59 30 62 31 75 32 93 33
REMARK SMILES IDX 60 34 61 35 74 37 94 38 63 39 48 40 49 41 57 42 50 43 56 44
REMARK SMILES IDX 51 45 52 46 53 47 54 48 55 49 78 50 79 51 87 52 80 53 86 54
REMARK SMILES IDX 81 55 82 56 83 57 84 58 85 59 64 60 65 61 73 62 66 63 72 64
REMARK SMILES IDX 67 65 68 66 69 67 70 68 71 69 8 70 9 71 10 72 11 73 12 74
REMARK SMILES IDX 13 75 14 76 15 77 16 78 37 79 17 80 36 81 18 82 38 83 19 85
REMARK SMILES IDX 20 86 34 87 21 88 22 89 33 90 35 91 23 92 24 93 25 94 32 95
REMARK SMILES IDX 26 96 30 97 31 98 27 99 29 100 28 101
REMARK H PARENT 92 25 62 36 38 84
REMARK Flexibility Score: inf
ROOT
ATOM      1  C   UNL     1       3.018   1.181   1.218  1.00  0.00     0.188 C 
ENDROOT
BRANCH   1   2
ATOM      2  O   UNL     1       4.384   0.932   0.954  1.00  0.00    -0.376 OA
BRANCH   2   3
ATOM      3  C   UNL     1       4.904   1.003  -0.357  1.00  0.00     0.202 C 
BRANCH   3   4
ATOM      4  C   UNL     1       4.203   0.305  -1.528  1.00  0.00     0.261 C 
BRANCH   4   5
ATOM      5  O   UNL     1       2.928  -0.282  -1.260  1.00  0.00    -0.460 OA
BRANCH   5   6
ATOM      6  C   UNL     1       2.837  -1.623  -1.060  1.00  0.00     0.338 C 
ATOM      7  O   UNL     1       2.080  -2.336  -1.702  1.00  0.00    -0.246 OA
BRANCH   6   8
ATOM      8  C   UNL     1       3.401  -2.060   0.238  1.00  0.00     0.060 A 
ATOM      9  C   UNL     1       2.510  -2.434   1.255  1.00  0.00     0.016 A 
ATOM     10  C   UNL     1       4.777  -2.086   0.463  1.00  0.00     0.016 A 
ATOM     11  C   UNL     1       2.998  -2.809   2.509  1.00  0.00     0.010 A 
ATOM     12  C   UNL     1       5.262  -2.413   1.726  1.00  0.00     0.010 A 
ATOM     13  C   UNL     1       4.379  -2.808   2.746  1.00  0.00    -0.014 A 
BRANCH  13  14
ATOM     14  C   UNL     1       4.946  -3.505   3.920  1.00  0.00     0.031 A 
ATOM     15  C   UNL     1       5.247  -2.825   5.213  1.00  0.00     0.074 A 
ATOM     16  C   UNL     1       5.286  -4.794   3.731  1.00  0.00     0.049 A 
ATOM     17  N   UNL     1       5.697  -3.359   6.320  1.00  0.00    -0.248 NA
ATOM     18  C   UNL     1       5.034  -1.373   5.284  1.00  0.00     0.031 C 
ATOM     19  C   UNL     1       5.074  -5.536   2.484  1.00  0.00     0.029 A 
ATOM     20  N   UNL     1       5.917  -5.688   4.552  1.00  0.00    -0.354 N 
ATOM     21  C   UNL     1       5.763  -2.326   7.242  1.00  0.00     0.074 A 
ATOM     22  C   UNL     1       5.384  -1.117   6.542  1.00  0.00     0.031 C 
ATOM     23  C   UNL     1       5.620  -6.752   2.603  1.00  0.00     0.029 A 
ATOM     24  C   UNL     1       6.194  -6.883   3.938  1.00  0.00     0.049 A 
ATOM     25  H   UNL     1       6.149  -5.493   5.489  1.00  0.00     0.167 HD
ATOM     26  C   UNL     1       6.084  -2.403   8.555  1.00  0.00     0.031 A 
ATOM     27  C   UNL     1       6.831  -7.976   4.393  1.00  0.00     0.031 A 
ATOM     28  C   UNL     1       6.548  -3.603   9.205  1.00  0.00     0.049 A 
ATOM     29  C   UNL     1       7.251  -8.018   5.827  1.00  0.00     0.074 A 
ATOM     30  C   UNL     1       6.852  -3.793  10.542  1.00  0.00     0.029 A 
ATOM     31  N   UNL     1       6.824  -4.800   8.560  1.00  0.00    -0.354 N 
ATOM     32  N   UNL     1       7.152  -7.076   6.735  1.00  0.00    -0.248 NA
ATOM     33  C   UNL     1       7.821  -9.278   6.314  1.00  0.00     0.031 C 
ATOM     34  C   UNL     1       7.378  -5.080  10.691  1.00  0.00     0.029 A 
ATOM     35  C   UNL     1       7.338  -5.718   9.462  1.00  0.00     0.049 A 
ATOM     36  H   UNL     1       6.675  -4.972   7.602  1.00  0.00     0.167 HD
ATOM     37  C   UNL     1       7.636  -7.633   7.910  1.00  0.00     0.074 A 
ATOM     38  C   UNL     1       8.006  -9.001   7.599  1.00  0.00     0.031 C 
ATOM     39  C   UNL     1       7.752  -7.062   9.134  1.00  0.00     0.031 A 
BRANCH  26  40
ATOM     40  C   UNL     1       5.901  -1.175   9.406  1.00  0.00    -0.014 A 
ATOM     41  C   UNL     1       7.008  -0.503   9.950  1.00  0.00     0.010 A 
ATOM     42  C   UNL     1       4.605  -0.782   9.786  1.00  0.00     0.010 A 
ATOM     43  C   UNL     1       6.823   0.538  10.866  1.00  0.00     0.020 A 
ATOM     44  C   UNL     1       4.414   0.271  10.684  1.00  0.00     0.020 A 
ATOM     45  C   UNL     1       5.527   0.913  11.231  1.00  0.00     0.054 A 
BRANCH  45  46
ATOM     46  S   UNL     1       5.299   2.268  12.416  1.00  0.00     0.124 S 
ATOM     47  O   UNL     1       5.554   1.607  13.691  1.00  0.00    -0.237 OA
ATOM     48  O   UNL     1       6.306   3.236  11.986  1.00  0.00    -0.237 OA
ATOM     49  O   UNL     1       3.917   2.680  12.181  1.00  0.00    -0.744 OA
ENDBRANCH  45  46
ENDBRANCH  26  40
BRANCH  27  50
ATOM     50  C   UNL     1       6.988  -9.123   3.465  1.00  0.00    -0.014 A 
ATOM     51  C   UNL     1       7.887  -9.038   2.384  1.00  0.00     0.010 A 
ATOM     52  C   UNL     1       6.098 -10.207   3.540  1.00  0.00     0.010 A 
ATOM     53  C   UNL     1       7.843  -9.982   1.356  1.00  0.00     0.020 A 
ATOM     54  C   UNL     1       6.067 -11.165   2.524  1.00  0.00     0.020 A 
ATOM     55  C   UNL     1       6.914 -11.024   1.421  1.00  0.00     0.054 A 
BRANCH  55  56
ATOM     56  S   UNL     1       6.788 -12.168   0.019  1.00  0.00     0.124 S 
ATOM     57  O   UNL     1       6.093 -11.350  -0.971  1.00  0.00    -0.237 OA
ATOM     58  O   UNL     1       8.187 -12.464  -0.278  1.00  0.00    -0.237 OA
ATOM     59  O   UNL     1       6.019 -13.286   0.559  1.00  0.00    -0.744 OA
ENDBRANCH  55  56
ENDBRANCH  27  50
BRANCH  39  60
ATOM     60  C   UNL     1       8.349  -7.900  10.232  1.00  0.00    -0.014 A 
ATOM     61  C   UNL     1       7.557  -8.301  11.322  1.00  0.00     0.010 A 
ATOM     62  C   UNL     1       9.715  -8.236  10.215  1.00  0.00     0.010 A 
ATOM     63  C   UNL     1       8.121  -9.009  12.385  1.00  0.00     0.020 A 
ATOM     64  C   UNL     1      10.276  -8.974  11.261  1.00  0.00     0.020 A 
ATOM     65  C   UNL     1       9.479  -9.339  12.348  1.00  0.00     0.054 A 
BRANCH  65  66
ATOM     66  S   UNL     1      10.192 -10.277  13.726  1.00  0.00     0.124 S 
ATOM     67  O   UNL     1      10.391  -9.237  14.732  1.00  0.00    -0.237 OA
ATOM     68  O   UNL     1       9.146 -11.252  14.027  1.00  0.00    -0.237 OA
ATOM     69  O   UNL     1      11.414 -10.841  13.157  1.00  0.00    -0.744 OA
ENDBRANCH  65  66
ENDBRANCH  39  60
ENDBRANCH  13  14
ENDBRANCH   6   8
ENDBRANCH   5   6
ENDBRANCH   4   5
ENDBRANCH   3   4
ENDBRANCH   2   3
ENDBRANCH   1   2
BRANCH   1  70
ATOM     70  C   UNL     1       2.360   2.507   0.827  1.00  0.00     0.188 C 
BRANCH  70  71
ATOM     71  O   UNL     1       3.141   3.619   0.434  1.00  0.00    -0.376 OA
BRANCH  71  72
ATOM     72  C   UNL     1       4.280   3.993   1.194  1.00  0.00     0.202 C 
BRANCH  72  73
ATOM     73  C   UNL     1       4.171   4.226   2.700  1.00  0.00     0.261 C 
BRANCH  73  74
ATOM     74  O   UNL     1       3.779   3.074   3.456  1.00  0.00    -0.460 OA
BRANCH  74  75
ATOM     75  C   UNL     1       2.597   3.197   4.104  1.00  0.00     0.341 C 
ATOM     76  O   UNL     1       1.764   4.082   3.957  1.00  0.00    -0.246 OA
BRANCH  75  77
ATOM     77  C   UNL     1       2.354   2.032   4.963  1.00  0.00     0.101 A 
ATOM     78  C   UNL     1       1.344   1.126   4.606  1.00  0.00     0.022 A 
ATOM     79  C   UNL     1       2.986   1.928   6.199  1.00  0.00     0.132 A 
ATOM     80  C   UNL     1       0.953   0.122   5.497  1.00  0.00     0.028 A 
ATOM     81  C   UNL     1       2.550   0.972   7.110  1.00  0.00     0.073 A 
ATOM     82  C   UNL     1       1.509   0.085   6.779  1.00  0.00     0.054 A 
BRANCH  79  83
ATOM     83  O   UNL     1       3.995   2.783   6.534  1.00  0.00    -0.507 OA
ATOM     84  H   UNL     1       4.288   3.427   5.920  1.00  0.00     0.293 HD
ENDBRANCH  79  83
BRANCH  82  85
ATOM     85  N   UNL     1       0.975  -0.766   7.784  1.00  0.00    -0.261 N 
ATOM     86  C   UNL     1       0.865  -2.141   7.580  1.00  0.00     0.270 C 
ATOM     87  C   UNL     1       0.470  -0.273   8.981  1.00  0.00     0.152 C 
ATOM     88  O   UNL     1       1.072  -2.756   6.549  1.00  0.00    -0.268 OA
ATOM     89  C   UNL     1       0.413  -2.794   8.849  1.00  0.00     0.081 C 
ATOM     90  S   UNL     1       0.072  -1.606  10.045  1.00  0.00    -0.054 SA
ATOM     91  S   UNL     1       0.107   1.305   9.405  1.00  0.00    -0.051 S 
ATOM     92  C   UNL     1       0.337  -4.122   9.014  1.00  0.00     0.027 C 
BRANCH  92  93
ATOM     93  C   UNL     1      -0.045  -4.784  10.242  1.00  0.00    -0.016 C 
ATOM     94  C   UNL     1       0.762  -5.439  11.072  1.00  0.00     0.005 A 
ATOM     95  C   UNL     1      -1.443  -4.744  10.792  1.00  0.00     0.179 C 
ATOM     96  C   UNL     1       2.149  -5.780  11.088  1.00  0.00     0.011 A 
ATOM     97  C   UNL     1      -0.135  -5.793  12.188  1.00  0.00     0.065 A 
ATOM     98  N   UNL     1      -1.387  -5.455  12.096  1.00  0.00    -0.280 NA
ATOM     99  C   UNL     1       2.639  -6.437  12.153  1.00  0.00     0.001 A 
ATOM    100  C   UNL     1       0.483  -6.500  13.331  1.00  0.00     0.028 A 
ATOM    101  C   UNL     1       1.795  -6.788  13.284  1.00  0.00     0.002 A 
ENDBRANCH  92  93
ENDBRANCH  82  85
ENDBRANCH  75  77
ENDBRANCH  74  75
ENDBRANCH  73  74
ENDBRANCH  72  73
ENDBRANCH  71  72
ENDBRANCH  70  71
ENDBRANCH   1  70
TORSDOF 23
