REMARK SMILES O=C(CCCc1nc2cc(Cl)ccc2[nH]1)OCCOCCOCCOC(=O)c1ccc(-c2c3nc(c(-c4ccc(S(=O)(=O)[O-])cc4)c4ccc([nH]4)c(-c4ccc(S(=O)(=O)[O-])cc4)c4nc(c(-c5ccc(S(=O)(=O)[O-])cc5)c5ccc2[nH]5)C=C4)C=C3)cc1
REMARK SMILES IDX 20 1 19 2 18 3 17 4 16 5 2 6 1 7 3 8 4 9 5 10 6 11 7 12
REMARK SMILES IDX 15 13 8 14 14 15 9 17 13 18 10 19 12 20 11 21 21 22 22 23
REMARK SMILES IDX 23 24 24 25 25 26 26 27 27 28 28 29 29 30 87 31 30 32 86 33
REMARK SMILES IDX 31 34 32 35 33 36 80 37 34 38 85 39 79 40 81 41 35 42 84 43
REMARK SMILES IDX 78 44 77 45 36 47 66 48 47 49 65 50 48 51 51 52 64 53 82 54
REMARK SMILES IDX 49 55 50 56 63 58 83 59 52 60 37 61 38 62 46 63 39 64 45 65
REMARK SMILES IDX 40 66 41 67 42 68 43 69 44 70 67 71 68 72 76 73 69 74 75 75
REMARK SMILES IDX 70 76 71 77 72 78 73 79 74 80 53 81 54 82 62 83 55 84 61 85
REMARK SMILES IDX 56 86 57 87 58 88 59 89 60 90
REMARK H PARENT 15 16 81 46 51 57
REMARK Flexibility Score: inf
ROOT
ATOM      1  C   UNL     1       1.893  -1.014  -1.536  1.00  0.00     0.188 C 
ENDROOT
BRANCH   1   2
ATOM      2  O   UNL     1       3.208  -0.480  -1.439  1.00  0.00    -0.376 OA
BRANCH   2   3
ATOM      3  C   UNL     1       4.128  -1.271  -0.692  1.00  0.00     0.202 C 
BRANCH   3   4
ATOM      4  C   UNL     1       3.935  -1.284   0.826  1.00  0.00     0.261 C 
BRANCH   4   5
ATOM      5  O   UNL     1       2.807  -0.559   1.337  1.00  0.00    -0.463 OA
BRANCH   5   6
ATOM      6  C   UNL     1       2.750   0.777   1.505  1.00  0.00     0.305 C 
ATOM      7  O   UNL     1       1.879   1.257   2.229  1.00  0.00    -0.252 OA
BRANCH   6   8
ATOM      8  C   UNL     1       3.717   1.671   0.771  1.00  0.00     0.123 C 
BRANCH   8   9
ATOM      9  C   UNL     1       4.768   2.324   1.665  1.00  0.00     0.020 C 
BRANCH   9  10
ATOM     10  C   UNL     1       6.034   1.496   1.912  1.00  0.00     0.076 C 
BRANCH  10  11
ATOM     11  C   UNL     1       6.749   1.043   0.676  1.00  0.00     0.107 A 
ATOM     12  N   UNL     1       7.223  -0.171   0.462  1.00  0.00    -0.233 NA
ATOM     13  N   UNL     1       6.975   1.849  -0.416  1.00  0.00    -0.342 N 
ATOM     14  C   UNL     1       7.701  -0.167  -0.827  1.00  0.00     0.090 A 
ATOM     15  C   UNL     1       7.544   1.086  -1.406  1.00  0.00     0.066 A 
ATOM     16  H   UNL     1       6.765   2.809  -0.477  1.00  0.00     0.168 HD
ATOM     17  C   UNL     1       8.239  -1.218  -1.584  1.00  0.00     0.051 A 
ATOM     18  C   UNL     1       7.905   1.371  -2.725  1.00  0.00     0.030 A 
ATOM     19  C   UNL     1       8.591  -0.959  -2.912  1.00  0.00     0.043 A 
ATOM     20  C   UNL     1       8.432   0.311  -3.473  1.00  0.00     0.023 A 
ATOM     21  Cl  UNL     1       9.213  -2.240  -3.882  1.00  0.00    -0.084 Cl
ENDBRANCH  10  11
ENDBRANCH   9  10
ENDBRANCH   8   9
ENDBRANCH   6   8
ENDBRANCH   5   6
ENDBRANCH   4   5
ENDBRANCH   3   4
ENDBRANCH   2   3
ENDBRANCH   1   2
BRANCH   1  22
ATOM     22  C   UNL     1       1.724  -2.085  -2.618  1.00  0.00     0.188 C 
BRANCH  22  23
ATOM     23  O   UNL     1       2.800  -3.018  -2.632  1.00  0.00    -0.376 OA
BRANCH  23  24
ATOM     24  C   UNL     1       3.459  -3.132  -3.896  1.00  0.00     0.202 C 
BRANCH  24  25
ATOM     25  C   UNL     1       4.391  -1.966  -4.277  1.00  0.00     0.261 C 
BRANCH  25  26
ATOM     26  O   UNL     1       3.785  -0.663  -4.339  1.00  0.00    -0.460 OA
BRANCH  26  27
ATOM     27  C   UNL     1       2.961  -0.421  -5.381  1.00  0.00     0.338 C 
ATOM     28  O   UNL     1       2.609  -1.208  -6.239  1.00  0.00    -0.246 OA
BRANCH  27  29
ATOM     29  C   UNL     1       2.510   0.982  -5.294  1.00  0.00     0.060 A 
ATOM     30  C   UNL     1       1.249   1.282  -4.768  1.00  0.00     0.016 A 
ATOM     31  C   UNL     1       3.326   1.995  -5.802  1.00  0.00     0.016 A 
ATOM     32  C   UNL     1       0.793   2.606  -4.768  1.00  0.00     0.010 A 
ATOM     33  C   UNL     1       2.865   3.315  -5.806  1.00  0.00     0.010 A 
ATOM     34  C   UNL     1       1.587   3.626  -5.311  1.00  0.00    -0.014 A 
BRANCH  34  35
ATOM     35  C   UNL     1       1.044   4.998  -5.482  1.00  0.00     0.031 A 
ATOM     36  C   UNL     1       0.442   5.388  -6.806  1.00  0.00     0.074 A 
ATOM     37  C   UNL     1       1.103   5.896  -4.481  1.00  0.00     0.049 A 
ATOM     38  N   UNL     1      -0.043   6.542  -7.187  1.00  0.00    -0.248 NA
ATOM     39  C   UNL     1       0.378   4.338  -7.836  1.00  0.00     0.031 C 
ATOM     40  C   UNL     1       1.633   5.640  -3.142  1.00  0.00     0.029 A 
ATOM     41  N   UNL     1       0.721   7.216  -4.444  1.00  0.00    -0.354 N 
ATOM     42  C   UNL     1      -0.471   6.359  -8.496  1.00  0.00     0.074 A 
ATOM     43  C   UNL     1      -0.168   4.990  -8.853  1.00  0.00     0.031 C 
ATOM     44  C   UNL     1       1.561   6.773  -2.420  1.00  0.00     0.029 A 
ATOM     45  C   UNL     1       1.005   7.840  -3.252  1.00  0.00     0.049 A 
ATOM     46  H   UNL     1       0.285   7.672  -5.200  1.00  0.00     0.167 HD
ATOM     47  C   UNL     1      -1.065   7.248  -9.327  1.00  0.00     0.031 A 
ATOM     48  C   UNL     1       0.857   9.128  -2.881  1.00  0.00     0.031 A 
ATOM     49  C   UNL     1      -1.347   8.617  -8.985  1.00  0.00     0.049 A 
ATOM     50  C   UNL     1       0.267  10.118  -3.853  1.00  0.00     0.074 A 
ATOM     51  C   UNL     1      -1.965   9.586  -9.757  1.00  0.00     0.029 A 
ATOM     52  N   UNL     1      -1.017   9.216  -7.780  1.00  0.00    -0.354 N 
ATOM     53  N   UNL     1      -0.172   9.916  -5.072  1.00  0.00    -0.248 NA
ATOM     54  C   UNL     1       0.149  11.511  -3.394  1.00  0.00     0.031 C 
ATOM     55  C   UNL     1      -1.960  10.786  -9.038  1.00  0.00     0.029 A 
ATOM     56  C   UNL     1      -1.389  10.550  -7.799  1.00  0.00     0.049 A 
ATOM     57  H   UNL     1      -0.583   8.761  -7.023  1.00  0.00     0.167 HD
ATOM     58  C   UNL     1      -0.640  11.150  -5.516  1.00  0.00     0.074 A 
ATOM     59  C   UNL     1      -0.444  12.088  -4.431  1.00  0.00     0.031 C 
ATOM     60  C   UNL     1      -1.186  11.475  -6.714  1.00  0.00     0.031 A 
BRANCH  47  61
ATOM     61  C   UNL     1      -1.430   6.777 -10.709  1.00  0.00    -0.014 A 
ATOM     62  C   UNL     1      -2.533   5.930 -10.917  1.00  0.00     0.010 A 
ATOM     63  C   UNL     1      -0.698   7.238 -11.818  1.00  0.00     0.010 A 
ATOM     64  C   UNL     1      -2.884   5.534 -12.210  1.00  0.00     0.020 A 
ATOM     65  C   UNL     1      -1.059   6.861 -13.114  1.00  0.00     0.020 A 
ATOM     66  C   UNL     1      -2.144   6.002 -13.301  1.00  0.00     0.054 A 
BRANCH  66  67
ATOM     67  S   UNL     1      -2.646   5.505 -14.972  1.00  0.00     0.124 S 
ATOM     68  O   UNL     1      -2.218   4.109 -15.012  1.00  0.00    -0.237 OA
ATOM     69  O   UNL     1      -4.091   5.718 -14.949  1.00  0.00    -0.237 OA
ATOM     70  O   UNL     1      -1.900   6.410 -15.842  1.00  0.00    -0.744 OA
ENDBRANCH  66  67
ENDBRANCH  47  61
BRANCH  48  71
ATOM     71  C   UNL     1       1.310   9.576  -1.536  1.00  0.00    -0.014 A 
ATOM     72  C   UNL     1       0.383   9.966  -0.554  1.00  0.00     0.010 A 
ATOM     73  C   UNL     1       2.685   9.645  -1.243  1.00  0.00     0.010 A 
ATOM     74  C   UNL     1       0.822  10.438   0.687  1.00  0.00     0.020 A 
ATOM     75  C   UNL     1       3.127  10.092   0.004  1.00  0.00     0.020 A 
ATOM     76  C   UNL     1       2.192  10.500   0.957  1.00  0.00     0.054 A 
BRANCH  76  77
ATOM     77  S   UNL     1       2.746  11.082   2.585  1.00  0.00     0.124 S 
ATOM     78  O   UNL     1       2.580  12.527   2.462  1.00  0.00    -0.237 OA
ATOM     79  O   UNL     1       1.820  10.412   3.494  1.00  0.00    -0.237 OA
ATOM     80  O   UNL     1       4.128  10.613   2.659  1.00  0.00    -0.744 OA
ENDBRANCH  76  77
ENDBRANCH  48  71
BRANCH  60  81
ATOM     81  C   UNL     1      -1.636  12.898  -6.911  1.00  0.00    -0.014 A 
ATOM     82  C   UNL     1      -0.706  13.936  -7.098  1.00  0.00     0.010 A 
ATOM     83  C   UNL     1      -3.011  13.192  -6.968  1.00  0.00     0.010 A 
ATOM     84  C   UNL     1      -1.143  15.247  -7.308  1.00  0.00     0.020 A 
ATOM     85  C   UNL     1      -3.452  14.497  -7.203  1.00  0.00     0.020 A 
ATOM     86  C   UNL     1      -2.514  15.519  -7.358  1.00  0.00     0.054 A 
BRANCH  86  87
ATOM     87  S   UNL     1      -3.058  17.221  -7.676  1.00  0.00     0.124 S 
ATOM     88  O   UNL     1      -2.817  17.862  -6.387  1.00  0.00    -0.237 OA
ATOM     89  O   UNL     1      -2.177  17.643  -8.762  1.00  0.00    -0.237 OA
ATOM     90  O   UNL     1      -4.463  17.071  -8.045  1.00  0.00    -0.744 OA
ENDBRANCH  86  87
ENDBRANCH  60  81
ENDBRANCH  34  35
ENDBRANCH  27  29
ENDBRANCH  26  27
ENDBRANCH  25  26
ENDBRANCH  24  25
ENDBRANCH  23  24
ENDBRANCH  22  23
ENDBRANCH   1  22
TORSDOF 23
