REMARK SMILES CC(=O)NS(=O)(=O)c1cc(-c2ccn(C(F)F)c(=O)c2)ccc1C(=O)OCCOCCOCCOC(=O)c1ccc(-c2c3nc(c(-c4ccc(S(=O)(=O)[O-])cc4)c4ccc([nH]4)c(-c4ccc(S(=O)(=O)[O-])cc4)c4nc(c(-c5ccc(S(=O)(=O)[O-])cc5)c5ccc2[nH]5)C=C4)C=C3)cc1
REMARK SMILES IDX 31 1 30 2 29 3 28 4 27 5 26 6 24 7 25 8 23 9 8 10 9 11 10 12
REMARK SMILES IDX 22 13 21 14 5 15 6 16 7 17 4 18 1 19 2 20 3 21 11 23 12 24
REMARK SMILES IDX 20 25 13 26 18 27 14 28 19 29 15 30 16 31 17 32 32 33 33 34
REMARK SMILES IDX 34 35 35 36 36 37 37 38 38 39 39 40 97 41 40 42 96 43 41 44
REMARK SMILES IDX 42 45 43 46 90 47 44 48 95 49 89 50 91 51 45 52 94 53 88 54
REMARK SMILES IDX 87 55 46 57 76 58 57 59 75 60 58 61 61 62 74 63 92 64 59 65
REMARK SMILES IDX 60 66 73 68 93 69 62 70 47 71 48 72 56 73 49 74 55 75 50 76
REMARK SMILES IDX 51 77 52 78 53 79 54 80 77 81 78 82 86 83 79 84 85 85 80 86
REMARK SMILES IDX 81 87 82 88 83 89 84 90 63 91 64 92 72 93 65 94 71 95 66 96
REMARK SMILES IDX 67 97 68 98 69 99 70 100
REMARK H PARENT 4 22 91 56 61 67
REMARK Flexibility Score: inf
ROOT
ATOM      1  C   UNL     1       4.185   0.995   1.636  1.00  0.00     0.188 C 
ENDROOT
BRANCH   1   2
ATOM      2  C   UNL     1       3.394   2.273   1.284  1.00  0.00     0.188 C 
BRANCH   2   3
ATOM      3  O   UNL     1       2.544   2.733   2.327  1.00  0.00    -0.376 OA
BRANCH   3   4
ATOM      4  C   UNL     1       1.153   2.621   2.069  1.00  0.00     0.202 C 
BRANCH   4   5
ATOM      5  C   UNL     1       0.629   1.202   2.271  1.00  0.00     0.261 C 
BRANCH   5   6
ATOM      6  O   UNL     1       1.316   0.200   1.497  1.00  0.00    -0.460 OA
BRANCH   6   7
ATOM      7  C   UNL     1       1.052   0.161   0.177  1.00  0.00     0.339 C 
ATOM      8  O   UNL     1       0.327   0.918  -0.444  1.00  0.00    -0.246 OA
BRANCH   7   9
ATOM      9  C   UNL     1       1.832  -0.918  -0.463  1.00  0.00     0.080 A 
ATOM     10  C   UNL     1       1.855  -2.248  -0.036  1.00  0.00     0.103 A 
ATOM     11  C   UNL     1       2.603  -3.205  -0.756  1.00  0.00     0.032 A 
ATOM     12  C   UNL     1       3.300  -2.855  -1.919  1.00  0.00    -0.017 A 
ATOM     13  C   UNL     1       2.549  -0.562  -1.619  1.00  0.00     0.018 A 
ATOM     14  C   UNL     1       3.276  -1.520  -2.336  1.00  0.00     0.010 A 
BRANCH  10  15
ATOM     15  S   UNL     1       0.880  -2.890   1.295  1.00  0.00     0.264 S 
ATOM     16  O   UNL     1       1.707  -2.842   2.474  1.00  0.00    -0.201 OA
ATOM     17  O   UNL     1       0.320  -4.146   0.830  1.00  0.00    -0.201 OA
BRANCH  15  18
ATOM     18  N   UNL     1      -0.391  -1.883   1.567  1.00  0.00    -0.249 N 
ATOM     19  C   UNL     1      -1.583  -2.061  -0.624  1.00  0.00     0.115 C 
ATOM     20  C   UNL     1      -1.512  -1.572   0.793  1.00  0.00     0.230 C 
ATOM     21  O   UNL     1      -2.373  -0.860   1.287  1.00  0.00    -0.274 OA
ATOM     22  H   UNL     1      -0.355  -1.415   2.432  1.00  0.00     0.183 HD
ENDBRANCH  15  18
ENDBRANCH  10  15
BRANCH  12  23
ATOM     23  C   UNL     1       3.978  -3.876  -2.749  1.00  0.00    -0.011 A 
ATOM     24  C   UNL     1       5.382  -3.809  -3.110  1.00  0.00     0.027 A 
ATOM     25  C   UNL     1       3.229  -4.870  -3.260  1.00  0.00     0.080 A 
ATOM     26  C   UNL     1       5.907  -4.684  -3.977  1.00  0.00     0.095 A 
ATOM     27  C   UNL     1       3.805  -5.872  -4.199  1.00  0.00     0.255 A 
ATOM     28  N   UNL     1       5.137  -5.690  -4.532  1.00  0.00    -0.258 N 
ATOM     29  O   UNL     1       3.077  -6.765  -4.621  1.00  0.00    -0.269 OA
BRANCH  28  30
ATOM     30  C   UNL     1       5.696  -6.591  -5.507  1.00  0.00     0.451 C 
ATOM     31  F   UNL     1       5.635  -7.876  -5.079  1.00  0.00    -0.185 F 
ATOM     32  F   UNL     1       5.025  -6.512  -6.683  1.00  0.00    -0.185 F 
ENDBRANCH  28  30
ENDBRANCH  12  23
ENDBRANCH   7   9
ENDBRANCH   6   7
ENDBRANCH   5   6
ENDBRANCH   4   5
ENDBRANCH   3   4
ENDBRANCH   2   3
ENDBRANCH   1   2
BRANCH   1  33
ATOM     33  O   UNL     1       4.379   0.626   2.994  1.00  0.00    -0.376 OA
BRANCH  33  34
ATOM     34  C   UNL     1       4.680   1.637   3.944  1.00  0.00     0.202 C 
BRANCH  34  35
ATOM     35  C   UNL     1       5.979   2.428   3.753  1.00  0.00     0.261 C 
BRANCH  35  36
ATOM     36  O   UNL     1       6.065   3.105   2.486  1.00  0.00    -0.460 OA
BRANCH  36  37
ATOM     37  C   UNL     1       6.994   2.619   1.624  1.00  0.00     0.338 C 
ATOM     38  O   UNL     1       7.798   1.727   1.833  1.00  0.00    -0.246 OA
BRANCH  37  39
ATOM     39  C   UNL     1       6.757   3.179   0.274  1.00  0.00     0.060 A 
ATOM     40  C   UNL     1       6.610   2.282  -0.797  1.00  0.00     0.016 A 
ATOM     41  C   UNL     1       6.707   4.555   0.052  1.00  0.00     0.016 A 
ATOM     42  C   UNL     1       6.446   2.757  -2.098  1.00  0.00     0.010 A 
ATOM     43  C   UNL     1       6.580   5.030  -1.256  1.00  0.00     0.010 A 
ATOM     44  C   UNL     1       6.485   4.135  -2.338  1.00  0.00    -0.014 A 
BRANCH  44  45
ATOM     45  C   UNL     1       6.694   4.645  -3.715  1.00  0.00     0.031 A 
ATOM     46  C   UNL     1       8.113   4.846  -4.174  1.00  0.00     0.074 A 
ATOM     47  C   UNL     1       5.668   4.955  -4.526  1.00  0.00     0.049 A 
ATOM     48  N   UNL     1       8.560   5.431  -5.253  1.00  0.00    -0.248 NA
ATOM     49  C   UNL     1       9.168   4.320  -3.290  1.00  0.00     0.031 C 
ATOM     50  C   UNL     1       4.254   4.735  -4.232  1.00  0.00     0.029 A 
ATOM     51  N   UNL     1       5.668   5.548  -5.765  1.00  0.00    -0.354 N 
ATOM     52  C   UNL     1       9.946   5.364  -5.167  1.00  0.00     0.074 A 
ATOM     53  C   UNL     1      10.267   4.685  -3.932  1.00  0.00     0.031 C 
ATOM     54  C   UNL     1       3.519   5.216  -5.252  1.00  0.00     0.029 A 
ATOM     55  C   UNL     1       4.409   5.820  -6.244  1.00  0.00     0.049 A 
ATOM     56  H   UNL     1       6.492   5.758  -6.262  1.00  0.00     0.167 HD
ATOM     57  C   UNL     1      10.871   5.840  -6.031  1.00  0.00     0.031 A 
ATOM     58  C   UNL     1       4.022   6.517  -7.333  1.00  0.00     0.031 A 
ATOM     59  C   UNL     1      10.552   6.544  -7.241  1.00  0.00     0.049 A 
ATOM     60  C   UNL     1       5.068   7.127  -8.233  1.00  0.00     0.074 A 
ATOM     61  C   UNL     1      11.417   7.079  -8.178  1.00  0.00     0.029 A 
ATOM     62  N   UNL     1       9.265   6.819  -7.675  1.00  0.00    -0.354 N 
ATOM     63  N   UNL     1       6.376   7.063  -8.139  1.00  0.00    -0.248 NA
ATOM     64  C   UNL     1       4.588   7.910  -9.383  1.00  0.00     0.031 C 
ATOM     65  C   UNL     1      10.652   7.722  -9.155  1.00  0.00     0.029 A 
ATOM     66  C   UNL     1       9.311   7.535  -8.857  1.00  0.00     0.049 A 
ATOM     67  H   UNL     1       8.441   6.546  -7.211  1.00  0.00     0.167 HD
ATOM     68  C   UNL     1       6.871   7.766  -9.234  1.00  0.00     0.074 A 
ATOM     69  C   UNL     1       5.726   8.249  -9.976  1.00  0.00     0.031 C 
ATOM     70  C   UNL     1       8.159   7.988  -9.594  1.00  0.00     0.031 A 
BRANCH  57  71
ATOM     71  C   UNL     1      12.317   5.661  -5.661  1.00  0.00    -0.014 A 
ATOM     72  C   UNL     1      12.935   4.399  -5.730  1.00  0.00     0.010 A 
ATOM     73  C   UNL     1      13.071   6.775  -5.253  1.00  0.00     0.010 A 
ATOM     74  C   UNL     1      14.273   4.250  -5.359  1.00  0.00     0.020 A 
ATOM     75  C   UNL     1      14.417   6.634  -4.906  1.00  0.00     0.020 A 
ATOM     76  C   UNL     1      15.004   5.368  -4.944  1.00  0.00     0.054 A 
BRANCH  76  77
ATOM     77  S   UNL     1      16.743   5.147  -4.479  1.00  0.00     0.124 S 
ATOM     78  O   UNL     1      16.624   4.489  -3.181  1.00  0.00    -0.237 OA
ATOM     79  O   UNL     1      17.260   4.313  -5.561  1.00  0.00    -0.237 OA
ATOM     80  O   UNL     1      17.267   6.510  -4.442  1.00  0.00    -0.744 OA
ENDBRANCH  76  77
ENDBRANCH  57  71
BRANCH  58  81
ATOM     81  C   UNL     1       2.573   6.718  -7.615  1.00  0.00    -0.014 A 
ATOM     82  C   UNL     1       1.964   6.092  -8.716  1.00  0.00     0.010 A 
ATOM     83  C   UNL     1       1.796   7.549  -6.786  1.00  0.00     0.010 A 
ATOM     84  C   UNL     1       0.608   6.301  -8.990  1.00  0.00     0.020 A 
ATOM     85  C   UNL     1       0.435   7.740  -7.041  1.00  0.00     0.020 A 
ATOM     86  C   UNL     1      -0.148   7.122  -8.148  1.00  0.00     0.054 A 
BRANCH  86  87
ATOM     87  S   UNL     1      -1.917   7.336  -8.491  1.00  0.00     0.124 S 
ATOM     88  O   UNL     1      -1.897   8.224  -9.648  1.00  0.00    -0.237 OA
ATOM     89  O   UNL     1      -2.355   5.966  -8.751  1.00  0.00    -0.237 OA
ATOM     90  O   UNL     1      -2.435   7.923  -7.257  1.00  0.00    -0.744 OA
ENDBRANCH  86  87
ENDBRANCH  58  81
BRANCH  70  91
ATOM     91  C   UNL     1       8.421   8.732 -10.876  1.00  0.00    -0.014 A 
ATOM     92  C   UNL     1       8.277  10.127 -10.953  1.00  0.00     0.010 A 
ATOM     93  C   UNL     1       8.940   8.031 -11.981  1.00  0.00     0.010 A 
ATOM     94  C   UNL     1       8.647  10.809 -12.117  1.00  0.00     0.020 A 
ATOM     95  C   UNL     1       9.332   8.712 -13.136  1.00  0.00     0.020 A 
ATOM     96  C   UNL     1       9.180  10.098 -13.197  1.00  0.00     0.054 A 
BRANCH  96  97
ATOM     97  S   UNL     1       9.742  11.016 -14.658  1.00  0.00     0.124 S 
ATOM     98  O   UNL     1       8.479  11.385 -15.291  1.00  0.00    -0.237 OA
ATOM     99  O   UNL     1      10.498  12.120 -14.071  1.00  0.00    -0.237 OA
ATOM    100  O   UNL     1      10.546  10.040 -15.392  1.00  0.00    -0.744 OA
ENDBRANCH  96  97
ENDBRANCH  70  91
ENDBRANCH  44  45
ENDBRANCH  37  39
ENDBRANCH  36  37
ENDBRANCH  35  36
ENDBRANCH  34  35
ENDBRANCH  33  34
ENDBRANCH   1  33
TORSDOF 24
