REMARK SMILES CC(C)(C)c1ccc(C(=O)C[C@H](C(=O)OCCOCCOCCOC(=O)c2ccc(-c3c4nc(c(-c5ccc(S(=O)(=O)[O-])cc5)c5ccc([nH]5)c(-c5ccc(S(=O)(=O)[O-])cc5)c5nc(c(-c6ccc(S(=O)(=O)[O-])cc6)c6ccc3[nH]6)C=C5)C=C4)cc2)[NH+]2CCCC2)cc1
REMARK SMILES IDX 19 1 18 2 17 3 16 4 15 5 13 6 14 7 12 8 11 9 9 10 10 11 8 12
REMARK SMILES IDX 5 13 6 14 93 15 7 16 92 17 2 18 1 19 3 20 4 21 87 22 88 23
REMARK SMILES IDX 91 24 89 26 90 27 20 28 21 29 22 30 23 31 24 32 25 33 26 34
REMARK SMILES IDX 27 35 28 36 86 37 29 38 85 39 30 40 31 41 32 42 79 43 33 44
REMARK SMILES IDX 84 45 78 46 80 47 34 48 83 49 77 50 76 51 35 53 65 54 46 55
REMARK SMILES IDX 64 56 47 57 50 58 63 59 81 60 48 61 49 62 62 64 82 65 51 66
REMARK SMILES IDX 36 67 37 68 45 69 38 70 44 71 39 72 40 73 41 74 42 75 43 76
REMARK SMILES IDX 66 77 67 78 75 79 68 80 74 81 69 82 70 83 71 84 72 85 73 86
REMARK SMILES IDX 52 87 53 88 61 89 54 90 60 91 55 92 56 93 57 94 58 95 59 96
REMARK H PARENT 87 25 80 52 50 63
REMARK Flexibility Score: inf
ROOT
ATOM      1  C   UNL     1       1.886  -3.708   7.769  1.00  0.00     0.188 C 
ENDROOT
BRANCH   1   2
ATOM      2  O   UNL     1       0.508  -3.994   7.572  1.00  0.00    -0.376 OA
BRANCH   2   3
ATOM      3  C   UNL     1      -0.350  -2.862   7.442  1.00  0.00     0.202 C 
BRANCH   3   4
ATOM      4  C   UNL     1      -0.137  -2.062   6.153  1.00  0.00     0.261 C 
BRANCH   4   5
ATOM      5  O   UNL     1       1.155  -1.433   6.143  1.00  0.00    -0.459 OA
BRANCH   5   6
ATOM      6  C   UNL     1       1.285  -0.290   6.872  1.00  0.00     0.365 C 
ATOM      7  O   UNL     1       0.336   0.331   7.329  1.00  0.00    -0.245 OA
BRANCH   6   8
ATOM      8  C   UNL     1       2.791   0.003   7.104  1.00  0.00     0.302 C 
BRANCH   8   9
ATOM      9  C   UNL     1       3.461   0.379   5.774  1.00  0.00     0.158 C 
BRANCH   9  10
ATOM     10  C   UNL     1       4.969   0.191   5.652  1.00  0.00     0.169 C 
ATOM     11  O   UNL     1       5.467  -0.330   4.653  1.00  0.00    -0.294 OA
BRANCH  10  12
ATOM     12  C   UNL     1       5.880   0.841   6.619  1.00  0.00     0.018 A 
ATOM     13  C   UNL     1       7.422   2.313   8.471  1.00  0.00    -0.043 A 
ATOM     14  C   UNL     1       7.466   2.601   7.093  1.00  0.00     0.005 A 
ATOM     15  C   UNL     1       6.687   1.183   8.868  1.00  0.00     0.005 A 
ATOM     16  C   UNL     1       6.694   1.881   6.174  1.00  0.00     0.012 A 
ATOM     17  C   UNL     1       5.942   0.439   7.948  1.00  0.00     0.012 A 
BRANCH  13  18
ATOM     18  C   UNL     1       8.150   3.209   9.490  1.00  0.00    -0.013 C 
ATOM     19  C   UNL     1       9.656   2.897   9.455  1.00  0.00     0.016 C 
ATOM     20  C   UNL     1       7.648   3.013  10.941  1.00  0.00     0.016 C 
ATOM     21  C   UNL     1       7.932   4.704   9.156  1.00  0.00     0.016 C 
ENDBRANCH  13  18
ENDBRANCH  10  12
ENDBRANCH   9  10
ENDBRANCH   8   9
BRANCH   8  22
ATOM     22  N   UNL     1       3.021   0.954   8.209  1.00  0.00    -0.323 N 
ATOM     23  C   UNL     1       2.511   0.547   9.522  1.00  0.00     0.263 C 
ATOM     24  C   UNL     1       2.679   2.351   7.962  1.00  0.00     0.263 C 
ATOM     25  H   UNL     1       4.039   0.905   8.241  1.00  0.00     0.348 HD
ATOM     26  C   UNL     1       1.541   1.631   9.946  1.00  0.00     0.067 C 
ATOM     27  C   UNL     1       2.062   2.870   9.249  1.00  0.00     0.067 C 
ENDBRANCH   8  22
ENDBRANCH   6   8
ENDBRANCH   5   6
ENDBRANCH   4   5
ENDBRANCH   3   4
ENDBRANCH   2   3
ENDBRANCH   1   2
BRANCH   1  28
ATOM     28  C   UNL     1       2.789  -3.845   6.520  1.00  0.00     0.188 C 
BRANCH  28  29
ATOM     29  O   UNL     1       2.272  -4.357   5.301  1.00  0.00    -0.376 OA
BRANCH  29  30
ATOM     30  C   UNL     1       1.402  -5.477   5.322  1.00  0.00     0.202 C 
BRANCH  30  31
ATOM     31  C   UNL     1       1.870  -6.784   5.976  1.00  0.00     0.261 C 
BRANCH  31  32
ATOM     32  O   UNL     1       2.425  -6.640   7.293  1.00  0.00    -0.460 OA
BRANCH  32  33
ATOM     33  C   UNL     1       3.755  -6.870   7.378  1.00  0.00     0.338 C 
ATOM     34  O   UNL     1       4.505  -7.205   6.466  1.00  0.00    -0.246 OA
BRANCH  33  35
ATOM     35  C   UNL     1       4.263  -6.503   8.711  1.00  0.00     0.060 A 
ATOM     36  C   UNL     1       5.299  -5.562   8.779  1.00  0.00     0.016 A 
ATOM     37  C   UNL     1       3.816  -7.148   9.867  1.00  0.00     0.016 A 
ATOM     38  C   UNL     1       5.935  -5.307   9.991  1.00  0.00     0.010 A 
ATOM     39  C   UNL     1       4.469  -6.905  11.082  1.00  0.00     0.010 A 
ATOM     40  C   UNL     1       5.562  -6.021  11.138  1.00  0.00    -0.014 A 
BRANCH  40  41
ATOM     41  C   UNL     1       6.467  -5.997  12.314  1.00  0.00     0.031 A 
ATOM     42  C   UNL     1       7.483  -7.101  12.461  1.00  0.00     0.074 A 
ATOM     43  C   UNL     1       6.445  -4.981  13.195  1.00  0.00     0.049 A 
ATOM     44  N   UNL     1       8.409  -7.260  13.371  1.00  0.00    -0.248 NA
ATOM     45  C   UNL     1       7.451  -8.164  11.443  1.00  0.00     0.031 C 
ATOM     46  C   UNL     1       5.544  -3.831  13.141  1.00  0.00     0.029 A 
ATOM     47  N   UNL     1       7.216  -4.754  14.308  1.00  0.00    -0.354 N 
ATOM     48  C   UNL     1       9.069  -8.438  13.036  1.00  0.00     0.074 A 
ATOM     49  C   UNL     1       8.415  -8.970  11.861  1.00  0.00     0.031 C 
ATOM     50  C   UNL     1       5.815  -3.018  14.178  1.00  0.00     0.029 A 
ATOM     51  C   UNL     1       6.892  -3.599  14.978  1.00  0.00     0.049 A 
ATOM     52  H   UNL     1       7.934  -5.362  14.599  1.00  0.00     0.167 HD
ATOM     53  C   UNL     1      10.130  -9.022  13.642  1.00  0.00     0.031 A 
ATOM     54  C   UNL     1       7.401  -3.075  16.111  1.00  0.00     0.031 A 
ATOM     55  C   UNL     1      10.774  -8.504  14.820  1.00  0.00     0.049 A 
ATOM     56  C   UNL     1       8.541  -3.776  16.806  1.00  0.00     0.074 A 
ATOM     57  C   UNL     1      11.859  -9.021  15.506  1.00  0.00     0.029 A 
ATOM     58  N   UNL     1      10.387  -7.355  15.492  1.00  0.00    -0.354 N 
ATOM     59  N   UNL     1       9.168  -4.876  16.462  1.00  0.00    -0.248 NA
ATOM     60  C   UNL     1       9.051  -3.151  18.035  1.00  0.00     0.031 C 
ATOM     61  C   UNL     1      12.096  -8.212  16.623  1.00  0.00     0.029 A 
ATOM     62  C   UNL     1      11.197  -7.157  16.598  1.00  0.00     0.049 A 
ATOM     63  H   UNL     1       9.645  -6.766  15.223  1.00  0.00     0.167 HD
ATOM     64  C   UNL     1      10.166  -5.057  17.415  1.00  0.00     0.074 A 
ATOM     65  C   UNL     1      10.067  -3.947  18.340  1.00  0.00     0.031 C 
ATOM     66  C   UNL     1      11.085  -6.051  17.513  1.00  0.00     0.031 A 
BRANCH  53  67
ATOM     67  C   UNL     1      10.638 -10.312  13.055  1.00  0.00    -0.014 A 
ATOM     68  C   UNL     1      11.326 -10.335  11.829  1.00  0.00     0.010 A 
ATOM     69  C   UNL     1      10.443 -11.518  13.753  1.00  0.00     0.010 A 
ATOM     70  C   UNL     1      11.775 -11.545  11.292  1.00  0.00     0.020 A 
ATOM     71  C   UNL     1      10.914 -12.726  13.233  1.00  0.00     0.020 A 
ATOM     72  C   UNL     1      11.562 -12.734  11.996  1.00  0.00     0.054 A 
BRANCH  72  73
ATOM     73  S   UNL     1      12.169 -14.289  11.286  1.00  0.00     0.124 S 
ATOM     74  O   UNL     1      11.219 -14.514  10.199  1.00  0.00    -0.237 OA
ATOM     75  O   UNL     1      13.526 -13.944  10.871  1.00  0.00    -0.237 OA
ATOM     76  O   UNL     1      12.081 -15.234  12.396  1.00  0.00    -0.744 OA
ENDBRANCH  72  73
ENDBRANCH  53  67
BRANCH  54  77
ATOM     77  C   UNL     1       6.835  -1.816  16.668  1.00  0.00    -0.014 A 
ATOM     78  C   UNL     1       7.578  -0.623  16.652  1.00  0.00     0.010 A 
ATOM     79  C   UNL     1       5.544  -1.810  17.227  1.00  0.00     0.010 A 
ATOM     80  C   UNL     1       7.047   0.549  17.200  1.00  0.00     0.020 A 
ATOM     81  C   UNL     1       4.999  -0.635  17.751  1.00  0.00     0.020 A 
ATOM     82  C   UNL     1       5.759   0.536  17.744  1.00  0.00     0.054 A 
BRANCH  82  83
ATOM     83  S   UNL     1       5.068   2.081  18.397  1.00  0.00     0.124 S 
ATOM     84  O   UNL     1       5.799   2.236  19.650  1.00  0.00    -0.237 OA
ATOM     85  O   UNL     1       5.397   3.042  17.347  1.00  0.00    -0.237 OA
ATOM     86  O   UNL     1       3.643   1.786  18.534  1.00  0.00    -0.744 OA
ENDBRANCH  82  83
ENDBRANCH  54  77
BRANCH  66  87
ATOM     87  C   UNL     1      12.085  -5.962  18.638  1.00  0.00    -0.014 A 
ATOM     88  C   UNL     1      11.707  -6.176  19.975  1.00  0.00     0.010 A 
ATOM     89  C   UNL     1      13.434  -5.689  18.344  1.00  0.00     0.010 A 
ATOM     90  C   UNL     1      12.649  -6.071  21.002  1.00  0.00     0.020 A 
ATOM     91  C   UNL     1      14.385  -5.612  19.365  1.00  0.00     0.020 A 
ATOM     92  C   UNL     1      13.982  -5.782  20.691  1.00  0.00     0.054 A 
BRANCH  92  93
ATOM     93  S   UNL     1      15.191  -5.662  22.038  1.00  0.00     0.124 S 
ATOM     94  O   UNL     1      14.868  -4.362  22.619  1.00  0.00    -0.237 OA
ATOM     95  O   UNL     1      14.864  -6.819  22.868  1.00  0.00    -0.237 OA
ATOM     96  O   UNL     1      16.480  -5.738  21.355  1.00  0.00    -0.744 OA
ENDBRANCH  92  93
ENDBRANCH  66  87
ENDBRANCH  40  41
ENDBRANCH  33  35
ENDBRANCH  32  33
ENDBRANCH  31  32
ENDBRANCH  30  31
ENDBRANCH  29  30
ENDBRANCH  28  29
ENDBRANCH   1  28
TORSDOF 25
