REMARK SMILES O=C(OCCOCCOCCOC(=O)c1cncc(Nc2cccnc2)n1)c1ccc(-c2c3nc(c(-c4ccc(S(=O)(=O)[O-])cc4)c4ccc([nH]4)c(-c4ccc(S(=O)(=O)[O-])cc4)c4nc(c(-c5ccc(S(=O)(=O)[O-])cc5)c5ccc2[nH]5)C=C4)C=C3)cc1
REMARK SMILES IDX 7 1 6 2 5 3 4 4 3 5 2 6 1 7 28 8 29 9 87 10 30 11 86 12
REMARK SMILES IDX 31 13 32 14 33 15 80 16 34 17 85 18 79 19 81 20 35 21 84 22
REMARK SMILES IDX 78 23 77 24 36 26 66 27 47 28 65 29 48 30 51 31 64 32 82 33
REMARK SMILES IDX 49 34 50 35 63 37 83 38 52 39 37 40 38 41 46 42 39 43 45 44
REMARK SMILES IDX 40 45 41 46 42 47 43 48 44 49 67 50 68 51 76 52 69 53 75 54
REMARK SMILES IDX 70 55 71 56 72 57 73 58 74 59 53 60 54 61 62 62 55 63 61 64
REMARK SMILES IDX 56 65 57 66 58 67 59 68 60 69 8 70 9 71 10 72 11 73 12 74
REMARK SMILES IDX 13 75 14 76 15 77 16 78 27 79 17 80 19 81 18 82 20 83 21 85
REMARK SMILES IDX 22 86 26 87 23 88 25 89 24 90
REMARK H PARENT 81 25 51 36 20 84
REMARK Flexibility Score: inf
ROOT
ATOM      1  C   UNL     1       2.487   2.040   0.126  1.00  0.00     0.188 C 
ENDROOT
BRANCH   1   2
ATOM      2  O   UNL     1       3.816   1.561   0.366  1.00  0.00    -0.376 OA
BRANCH   2   3
ATOM      3  C   UNL     1       4.597   1.403  -0.823  1.00  0.00     0.202 C 
BRANCH   3   4
ATOM      4  C   UNL     1       4.375   0.078  -1.568  1.00  0.00     0.261 C 
BRANCH   4   5
ATOM      5  O   UNL     1       3.010  -0.372  -1.496  1.00  0.00    -0.460 OA
BRANCH   5   6
ATOM      6  C   UNL     1       2.468  -1.264  -0.625  1.00  0.00     0.338 C 
ATOM      7  O   UNL     1       1.280  -1.558  -0.749  1.00  0.00    -0.246 OA
BRANCH   6   8
ATOM      8  C   UNL     1       3.243  -1.938   0.463  1.00  0.00     0.060 A 
ATOM      9  C   UNL     1       4.393  -1.420   1.052  1.00  0.00     0.016 A 
ATOM     10  C   UNL     1       2.748  -3.160   0.955  1.00  0.00     0.016 A 
ATOM     11  C   UNL     1       5.120  -2.151   1.979  1.00  0.00     0.010 A 
ATOM     12  C   UNL     1       3.430  -3.865   1.956  1.00  0.00     0.010 A 
ATOM     13  C   UNL     1       4.649  -3.379   2.438  1.00  0.00    -0.014 A 
BRANCH  13  14
ATOM     14  C   UNL     1       5.528  -4.143   3.350  1.00  0.00     0.031 A 
ATOM     15  C   UNL     1       6.248  -5.348   2.823  1.00  0.00     0.074 A 
ATOM     16  C   UNL     1       5.818  -3.633   4.563  1.00  0.00     0.049 A 
ATOM     17  N   UNL     1       7.146  -6.090   3.413  1.00  0.00    -0.248 NA
ATOM     18  C   UNL     1       5.945  -5.753   1.439  1.00  0.00     0.031 C 
ATOM     19  C   UNL     1       5.250  -2.397   5.106  1.00  0.00     0.029 A 
ATOM     20  N   UNL     1       6.694  -4.044   5.531  1.00  0.00    -0.354 N 
ATOM     21  C   UNL     1       7.516  -7.046   2.475  1.00  0.00     0.074 A 
ATOM     22  C   UNL     1       6.729  -6.809   1.286  1.00  0.00     0.031 C 
ATOM     23  C   UNL     1       5.815  -2.134   6.294  1.00  0.00     0.029 A 
ATOM     24  C   UNL     1       6.745  -3.204   6.620  1.00  0.00     0.049 A 
ATOM     25  H   UNL     1       7.236  -4.863   5.456  1.00  0.00     0.167 HD
ATOM     26  C   UNL     1       8.438  -8.028   2.596  1.00  0.00     0.031 A 
ATOM     27  C   UNL     1       7.454  -3.297   7.761  1.00  0.00     0.031 A 
ATOM     28  C   UNL     1       9.190  -8.264   3.797  1.00  0.00     0.049 A 
ATOM     29  C   UNL     1       8.390  -4.463   7.910  1.00  0.00     0.074 A 
ATOM     30  C   UNL     1      10.076  -9.287   4.077  1.00  0.00     0.029 A 
ATOM     31  N   UNL     1       9.141  -7.453   4.923  1.00  0.00    -0.354 N 
ATOM     32  N   UNL     1       8.679  -5.399   7.035  1.00  0.00    -0.248 NA
ATOM     33  C   UNL     1       9.094  -4.591   9.191  1.00  0.00     0.031 C 
ATOM     34  C   UNL     1      10.534  -9.115   5.388  1.00  0.00     0.029 A 
ATOM     35  C   UNL     1       9.972  -7.958   5.906  1.00  0.00     0.049 A 
ATOM     36  H   UNL     1       8.594  -6.639   5.010  1.00  0.00     0.167 HD
ATOM     37  C   UNL     1       9.601  -6.228   7.660  1.00  0.00     0.074 A 
ATOM     38  C   UNL     1       9.849  -5.659   8.971  1.00  0.00     0.031 C 
ATOM     39  C   UNL     1      10.184  -7.363   7.201  1.00  0.00     0.031 A 
BRANCH  26  40
ATOM     40  C   UNL     1       8.624  -8.938   1.415  1.00  0.00    -0.014 A 
ATOM     41  C   UNL     1       9.309  -8.505   0.265  1.00  0.00     0.010 A 
ATOM     42  C   UNL     1       8.087 -10.237   1.444  1.00  0.00     0.010 A 
ATOM     43  C   UNL     1       9.421  -9.343  -0.849  1.00  0.00     0.020 A 
ATOM     44  C   UNL     1       8.214 -11.085   0.340  1.00  0.00     0.020 A 
ATOM     45  C   UNL     1       8.866 -10.626  -0.806  1.00  0.00     0.054 A 
BRANCH  45  46
ATOM     46  S   UNL     1       9.022 -11.692  -2.265  1.00  0.00     0.124 S 
ATOM     47  O   UNL     1       8.073 -11.077  -3.190  1.00  0.00    -0.237 OA
ATOM     48  O   UNL     1      10.431 -11.544  -2.622  1.00  0.00    -0.237 OA
ATOM     49  O   UNL     1       8.643 -13.014  -1.771  1.00  0.00    -0.744 OA
ENDBRANCH  45  46
ENDBRANCH  26  40
BRANCH  27  50
ATOM     50  C   UNL     1       7.258  -2.304   8.857  1.00  0.00    -0.014 A 
ATOM     51  C   UNL     1       8.299  -1.458   9.280  1.00  0.00     0.010 A 
ATOM     52  C   UNL     1       6.010  -2.215   9.504  1.00  0.00     0.010 A 
ATOM     53  C   UNL     1       8.104  -0.571  10.346  1.00  0.00     0.020 A 
ATOM     54  C   UNL     1       5.801  -1.308  10.546  1.00  0.00     0.020 A 
ATOM     55  C   UNL     1       6.856  -0.505  10.975  1.00  0.00     0.054 A 
BRANCH  55  56
ATOM     56  S   UNL     1       6.620   0.658  12.348  1.00  0.00     0.124 S 
ATOM     57  O   UNL     1       7.348   0.001  13.430  1.00  0.00    -0.237 OA
ATOM     58  O   UNL     1       7.224   1.884  11.832  1.00  0.00    -0.237 OA
ATOM     59  O   UNL     1       5.169   0.708  12.511  1.00  0.00    -0.744 OA
ENDBRANCH  55  56
ENDBRANCH  27  50
BRANCH  39  60
ATOM     60  C   UNL     1      11.150  -8.044   8.128  1.00  0.00    -0.014 A 
ATOM     61  C   UNL     1      10.692  -8.753   9.252  1.00  0.00     0.010 A 
ATOM     62  C   UNL     1      12.527  -7.997   7.851  1.00  0.00     0.010 A 
ATOM     63  C   UNL     1      11.602  -9.373  10.109  1.00  0.00     0.020 A 
ATOM     64  C   UNL     1      13.438  -8.638   8.692  1.00  0.00     0.020 A 
ATOM     65  C   UNL     1      12.970  -9.307   9.825  1.00  0.00     0.054 A 
BRANCH  65  66
ATOM     66  S   UNL     1      14.134 -10.143  10.935  1.00  0.00     0.124 S 
ATOM     67  O   UNL     1      14.197  -9.215  12.060  1.00  0.00    -0.237 OA
ATOM     68  O   UNL     1      13.466 -11.415  11.206  1.00  0.00    -0.237 OA
ATOM     69  O   UNL     1      15.355 -10.246  10.140  1.00  0.00    -0.744 OA
ENDBRANCH  65  66
ENDBRANCH  39  60
ENDBRANCH  13  14
ENDBRANCH   6   8
ENDBRANCH   5   6
ENDBRANCH   4   5
ENDBRANCH   3   4
ENDBRANCH   2   3
ENDBRANCH   1   2
BRANCH   1  70
ATOM     70  C   UNL     1       1.995   2.943   1.260  1.00  0.00     0.188 C 
BRANCH  70  71
ATOM     71  O   UNL     1       2.649   4.211   1.355  1.00  0.00    -0.376 OA
BRANCH  71  72
ATOM     72  C   UNL     1       4.043   4.193   1.649  1.00  0.00     0.202 C 
BRANCH  72  73
ATOM     73  C   UNL     1       4.441   3.820   3.081  1.00  0.00     0.261 C 
BRANCH  73  74
ATOM     74  O   UNL     1       3.978   2.532   3.524  1.00  0.00    -0.458 OA
BRANCH  74  75
ATOM     75  C   UNL     1       3.080   2.577   4.545  1.00  0.00     0.358 C 
ATOM     76  O   UNL     1       2.578   3.578   5.032  1.00  0.00    -0.244 OA
BRANCH  75  77
ATOM     77  C   UNL     1       2.870   1.241   5.128  1.00  0.00     0.169 A 
ATOM     78  C   UNL     1       3.350   1.055   6.414  1.00  0.00     0.147 A 
ATOM     79  N   UNL     1       2.086   0.330   4.473  1.00  0.00    -0.220 NA
ATOM     80  N   UNL     1       3.088  -0.066   7.112  1.00  0.00    -0.258 NA
ATOM     81  C   UNL     1       1.776  -0.783   5.186  1.00  0.00     0.149 A 
ATOM     82  C   UNL     1       2.297  -0.964   6.477  1.00  0.00     0.158 A 
BRANCH  81  83
ATOM     83  N   UNL     1       0.943  -1.739   4.590  1.00  0.00    -0.338 N 
ATOM     84  H   UNL     1       0.867  -1.673   3.611  1.00  0.00     0.168 HD
BRANCH  83  85
ATOM     85  C   UNL     1       0.202  -2.776   5.176  1.00  0.00     0.058 A 
ATOM     86  C   UNL     1      -0.422  -2.644   6.421  1.00  0.00     0.029 A 
ATOM     87  C   UNL     1       0.116  -4.032   4.578  1.00  0.00     0.137 A 
ATOM     88  C   UNL     1      -1.053  -3.734   7.019  1.00  0.00     0.022 A 
ATOM     89  N   UNL     1      -0.499  -5.112   5.125  1.00  0.00    -0.263 NA
ATOM     90  C   UNL     1      -1.053  -4.941   6.343  1.00  0.00     0.111 A 
ENDBRANCH  83  85
ENDBRANCH  81  83
ENDBRANCH  75  77
ENDBRANCH  74  75
ENDBRANCH  73  74
ENDBRANCH  72  73
ENDBRANCH  71  72
ENDBRANCH  70  71
ENDBRANCH   1  70
TORSDOF 22
