REMARK SMILES O=C(Cn1cc(-c2ccccc2CO)cn1)OCCOCCOCCOC(=O)c1ccc(-c2c3nc(c(-c4ccc(S(=O)(=O)[O-])cc4)c4ccc([nH]4)c(-c4ccc(S(=O)(=O)[O-])cc4)c4nc(c(-c5ccc(S(=O)(=O)[O-])cc5)c5ccc2[nH]5)C=C4)C=C3)cc1
REMARK SMILES IDX 21 1 20 2 19 3 18 4 17 5 2 6 1 7 3 8 4 9 5 10 16 11 6 12
REMARK SMILES IDX 15 13 7 14 8 15 12 16 9 17 11 18 10 19 13 20 14 21 22 23
REMARK SMILES IDX 23 24 24 25 25 26 26 27 27 28 28 29 29 30 30 31 88 32 31 33
REMARK SMILES IDX 87 34 32 35 33 36 34 37 81 38 35 39 86 40 80 41 82 42 36 43
REMARK SMILES IDX 85 44 79 45 78 46 37 48 67 49 48 50 66 51 49 52 52 53 65 54
REMARK SMILES IDX 83 55 50 56 51 57 64 59 84 60 53 61 38 62 39 63 47 64 40 65
REMARK SMILES IDX 46 66 41 67 42 68 43 69 44 70 45 71 68 72 69 73 77 74 70 75
REMARK SMILES IDX 76 76 71 77 72 78 73 79 74 80 75 81 54 82 55 83 63 84 56 85
REMARK SMILES IDX 62 86 57 87 58 88 59 89 60 90 61 91
REMARK H PARENT 14 22 82 47 52 58
REMARK Flexibility Score: inf
ROOT
ATOM      1  C   UNL     1       2.853   1.657  -1.199  1.00  0.00     0.188 C 
ENDROOT
BRANCH   1   2
ATOM      2  O   UNL     1       4.252   1.459  -1.115  1.00  0.00    -0.376 OA
BRANCH   2   3
ATOM      3  C   UNL     1       4.707   0.388  -0.302  1.00  0.00     0.202 C 
BRANCH   3   4
ATOM      4  C   UNL     1       4.130  -1.005  -0.574  1.00  0.00     0.261 C 
BRANCH   4   5
ATOM      5  O   UNL     1       2.697  -1.158  -0.441  1.00  0.00    -0.462 OA
BRANCH   5   6
ATOM      6  C   UNL     1       1.926  -1.072   0.664  1.00  0.00     0.327 C 
ATOM      7  O   UNL     1       0.731  -1.360   0.582  1.00  0.00    -0.250 OA
BRANCH   6   8
ATOM      8  C   UNL     1       2.457  -0.438   1.911  1.00  0.00     0.266 C 
BRANCH   8   9
ATOM      9  N   UNL     1       3.586  -1.105   2.516  1.00  0.00    -0.261 N 
ATOM     10  C   UNL     1       4.625  -0.489   3.158  1.00  0.00     0.118 A 
ATOM     11  N   UNL     1       3.613  -2.442   2.624  1.00  0.00    -0.180 NA
ATOM     12  C   UNL     1       5.290  -1.480   3.841  1.00  0.00     0.020 A 
ATOM     13  C   UNL     1       4.648  -2.671   3.434  1.00  0.00     0.143 A 
BRANCH  12  14
ATOM     14  C   UNL     1       6.384  -1.295   4.773  1.00  0.00    -0.010 A 
ATOM     15  C   UNL     1       7.532  -2.086   4.583  1.00  0.00     0.009 A 
ATOM     16  C   UNL     1       6.295  -0.458   5.906  1.00  0.00    -0.015 A 
ATOM     17  C   UNL     1       8.560  -2.094   5.525  1.00  0.00     0.001 A 
ATOM     18  C   UNL     1       7.334  -0.505   6.857  1.00  0.00     0.007 A 
ATOM     19  C   UNL     1       8.451  -1.319   6.672  1.00  0.00     0.000 A 
BRANCH  16  20
ATOM     20  C   UNL     1       5.123   0.440   6.221  1.00  0.00     0.192 C 
BRANCH  20  21
ATOM     21  O   UNL     1       4.167  -0.243   7.017  1.00  0.00    -0.392 OA
ATOM     22  H   UNL     1       3.837  -1.018   6.535  1.00  0.00     0.211 HD
ENDBRANCH  20  21
ENDBRANCH  16  20
ENDBRANCH  12  14
ENDBRANCH   8   9
ENDBRANCH   6   8
ENDBRANCH   5   6
ENDBRANCH   4   5
ENDBRANCH   3   4
ENDBRANCH   2   3
ENDBRANCH   1   2
BRANCH   1  23
ATOM     23  C   UNL     1       2.209   1.159  -2.505  1.00  0.00     0.188 C 
BRANCH  23  24
ATOM     24  O   UNL     1       2.965   0.373  -3.417  1.00  0.00    -0.376 OA
BRANCH  24  25
ATOM     25  C   UNL     1       4.250   0.793  -3.866  1.00  0.00     0.202 C 
BRANCH  25  26
ATOM     26  C   UNL     1       4.436   2.199  -4.425  1.00  0.00     0.261 C 
BRANCH  26  27
ATOM     27  O   UNL     1       4.393   3.186  -3.398  1.00  0.00    -0.460 OA
BRANCH  27  28
ATOM     28  C   UNL     1       3.304   3.982  -3.413  1.00  0.00     0.338 C 
ATOM     29  O   UNL     1       2.344   3.895  -4.157  1.00  0.00    -0.246 OA
BRANCH  28  30
ATOM     30  C   UNL     1       3.456   5.052  -2.414  1.00  0.00     0.060 A 
ATOM     31  C   UNL     1       2.424   5.991  -2.374  1.00  0.00     0.016 A 
ATOM     32  C   UNL     1       4.670   5.259  -1.743  1.00  0.00     0.016 A 
ATOM     33  C   UNL     1       2.712   7.254  -1.917  1.00  0.00     0.010 A 
ATOM     34  C   UNL     1       4.956   6.526  -1.276  1.00  0.00     0.010 A 
ATOM     35  C   UNL     1       4.016   7.531  -1.498  1.00  0.00    -0.014 A 
BRANCH  35  36
ATOM     36  C   UNL     1       4.397   8.931  -1.501  1.00  0.00     0.031 A 
ATOM     37  C   UNL     1       3.857   9.753  -0.406  1.00  0.00     0.074 A 
ATOM     38  C   UNL     1       5.188   9.434  -2.468  1.00  0.00     0.049 A 
ATOM     39  N   UNL     1       3.036  10.747  -0.484  1.00  0.00    -0.248 NA
ATOM     40  C   UNL     1       4.212   9.350   0.960  1.00  0.00     0.031 C 
ATOM     41  C   UNL     1       5.988   8.687  -3.446  1.00  0.00     0.029 A 
ATOM     42  N   UNL     1       5.533  10.730  -2.704  1.00  0.00    -0.354 N 
ATOM     43  C   UNL     1       2.925  11.232   0.812  1.00  0.00     0.074 A 
ATOM     44  C   UNL     1       3.541  10.252   1.673  1.00  0.00     0.031 C 
ATOM     45  C   UNL     1       6.897   9.520  -3.997  1.00  0.00     0.029 A 
ATOM     46  C   UNL     1       6.652  10.867  -3.510  1.00  0.00     0.049 A 
ATOM     47  H   UNL     1       5.035  11.496  -2.338  1.00  0.00     0.167 HD
ATOM     48  C   UNL     1       2.562  12.515   1.075  1.00  0.00     0.031 A 
ATOM     49  C   UNL     1       7.390  11.989  -3.683  1.00  0.00     0.031 A 
ATOM     50  C   UNL     1       1.901  13.148  -0.034  1.00  0.00     0.049 A 
ATOM     51  C   UNL     1       6.556  13.150  -3.292  1.00  0.00     0.074 A 
ATOM     52  C   UNL     1       0.750  12.897  -0.754  1.00  0.00     0.029 A 
ATOM     53  N   UNL     1       2.622  14.057  -0.770  1.00  0.00    -0.354 N 
ATOM     54  N   UNL     1       5.508  13.550  -3.956  1.00  0.00    -0.248 NA
ATOM     55  C   UNL     1       6.666  13.672  -1.938  1.00  0.00     0.031 C 
ATOM     56  C   UNL     1       1.024  13.347  -2.078  1.00  0.00     0.029 A 
ATOM     57  C   UNL     1       2.324  13.858  -2.095  1.00  0.00     0.049 A 
ATOM     58  H   UNL     1       3.243  14.732  -0.411  1.00  0.00     0.167 HD
ATOM     59  C   UNL     1       4.634  14.035  -2.994  1.00  0.00     0.074 A 
ATOM     60  C   UNL     1       5.451  14.207  -1.798  1.00  0.00     0.031 C 
ATOM     61  C   UNL     1       3.281  13.986  -3.177  1.00  0.00     0.031 A 
BRANCH  48  62
ATOM     62  C   UNL     1       3.173  13.295   2.211  1.00  0.00    -0.014 A 
ATOM     63  C   UNL     1       2.662  14.566   2.534  1.00  0.00     0.010 A 
ATOM     64  C   UNL     1       4.412  12.934   2.786  1.00  0.00     0.010 A 
ATOM     65  C   UNL     1       3.387  15.449   3.346  1.00  0.00     0.020 A 
ATOM     66  C   UNL     1       5.116  13.784   3.634  1.00  0.00     0.020 A 
ATOM     67  C   UNL     1       4.619  15.055   3.874  1.00  0.00     0.054 A 
BRANCH  67  68
ATOM     68  S   UNL     1       5.616  16.243   4.804  1.00  0.00     0.124 S 
ATOM     69  O   UNL     1       6.051  17.152   3.748  1.00  0.00    -0.237 OA
ATOM     70  O   UNL     1       4.651  16.787   5.754  1.00  0.00    -0.237 OA
ATOM     71  O   UNL     1       6.667  15.417   5.394  1.00  0.00    -0.744 OA
ENDBRANCH  67  68
ENDBRANCH  48  62
BRANCH  49  72
ATOM     72  C   UNL     1       8.862  12.060  -3.846  1.00  0.00    -0.014 A 
ATOM     73  C   UNL     1       9.491  13.249  -4.250  1.00  0.00     0.010 A 
ATOM     74  C   UNL     1       9.679  11.019  -3.355  1.00  0.00     0.010 A 
ATOM     75  C   UNL     1      10.881  13.408  -4.120  1.00  0.00     0.020 A 
ATOM     76  C   UNL     1      11.063  11.162  -3.237  1.00  0.00     0.020 A 
ATOM     77  C   UNL     1      11.656  12.367  -3.599  1.00  0.00     0.054 A 
BRANCH  77  78
ATOM     78  S   UNL     1      13.422  12.636  -3.278  1.00  0.00     0.124 S 
ATOM     79  O   UNL     1      13.980  12.675  -4.626  1.00  0.00    -0.237 OA
ATOM     80  O   UNL     1      13.424  13.905  -2.555  1.00  0.00    -0.237 OA
ATOM     81  O   UNL     1      13.808  11.473  -2.480  1.00  0.00    -0.744 OA
ENDBRANCH  77  78
ENDBRANCH  49  72
BRANCH  61  82
ATOM     82  C   UNL     1       2.757  13.748  -4.575  1.00  0.00    -0.014 A 
ATOM     83  C   UNL     1       3.036  12.581  -5.313  1.00  0.00     0.010 A 
ATOM     84  C   UNL     1       1.836  14.670  -5.106  1.00  0.00     0.010 A 
ATOM     85  C   UNL     1       2.432  12.356  -6.558  1.00  0.00     0.020 A 
ATOM     86  C   UNL     1       1.215  14.443  -6.338  1.00  0.00     0.020 A 
ATOM     87  C   UNL     1       1.523  13.290  -7.063  1.00  0.00     0.054 A 
BRANCH  87  88
ATOM     88  S   UNL     1       0.695  12.957  -8.644  1.00  0.00     0.124 S 
ATOM     89  O   UNL     1       1.771  13.150  -9.612  1.00  0.00    -0.237 OA
ATOM     90  O   UNL     1       0.230  11.581  -8.486  1.00  0.00    -0.237 OA
ATOM     91  O   UNL     1      -0.370  13.958  -8.697  1.00  0.00    -0.744 OA
ENDBRANCH  87  88
ENDBRANCH  61  82
ENDBRANCH  35  36
ENDBRANCH  28  30
ENDBRANCH  27  28
ENDBRANCH  26  27
ENDBRANCH  25  26
ENDBRANCH  24  25
ENDBRANCH  23  24
ENDBRANCH   1  23
TORSDOF 24
