REMARK SMILES Cc1cccc(Nc2ccccc2C(=O)OCCOCCOCCOC(=O)c2ccc(-c3c4nc(c(-c5ccc(S(=O)(=O)[O-])cc5)c5ccc([nH]5)c(-c5ccc(S(=O)(=O)[O-])cc5)c5nc(c(-c6ccc(S(=O)(=O)[O-])cc6)c6ccc3[nH]6)C=C5)C=C4)cc2)c1C
REMARK SMILES IDX 21 1 20 2 19 3 18 4 17 5 16 6 14 7 15 8 13 9 8 10 9 11 10 12
REMARK SMILES IDX 12 13 11 14 7 15 6 17 1 18 2 19 3 20 88 21 4 22 89 23 5 24
REMARK SMILES IDX 22 25 23 26 24 27 25 28 26 29 27 30 28 31 29 32 87 33 30 34
REMARK SMILES IDX 86 35 31 36 32 37 33 38 80 39 34 40 85 41 79 42 81 43 35 44
REMARK SMILES IDX 84 45 78 46 77 47 36 49 66 50 47 51 65 52 48 53 51 54 64 55
REMARK SMILES IDX 82 56 49 57 50 58 63 60 83 61 52 62 37 63 38 64 46 65 39 66
REMARK SMILES IDX 45 67 40 68 41 69 42 70 43 71 44 72 67 73 68 74 76 75 69 76
REMARK SMILES IDX 75 77 70 78 71 79 72 80 73 81 74 82 53 83 54 84 62 85 55 86
REMARK SMILES IDX 61 87 56 88 57 89 58 90 59 91 60 92
REMARK H PARENT 7 16 81 48 51 59
REMARK Flexibility Score: inf
ROOT
ATOM      1  C   UNL     1      -0.118  -3.727   3.569  1.00  0.00     0.188 C 
ENDROOT
BRANCH   1   2
ATOM      2  C   UNL     1       0.892  -2.869   4.370  1.00  0.00     0.188 C 
BRANCH   2   3
ATOM      3  O   UNL     1       0.308  -1.741   4.984  1.00  0.00    -0.376 OA
BRANCH   3   4
ATOM      4  C   UNL     1       0.437  -0.482   4.350  1.00  0.00     0.202 C 
BRANCH   4   5
ATOM      5  C   UNL     1       0.439  -0.306   2.822  1.00  0.00     0.261 C 
BRANCH   5   6
ATOM      6  O   UNL     1       0.572  -1.480   2.017  1.00  0.00    -0.460 OA
BRANCH   6   7
ATOM      7  C   UNL     1       1.799  -1.734   1.502  1.00  0.00     0.340 C 
ATOM      8  O   UNL     1       2.824  -1.133   1.789  1.00  0.00    -0.246 OA
BRANCH   7   9
ATOM      9  C   UNL     1       1.789  -2.976   0.673  1.00  0.00     0.083 A 
ATOM     10  C   UNL     1       0.805  -3.313  -0.284  1.00  0.00     0.053 A 
ATOM     11  C   UNL     1       0.926  -4.560  -0.935  1.00  0.00     0.027 A 
ATOM     12  C   UNL     1       1.982  -5.434  -0.666  1.00  0.00     0.002 A 
ATOM     13  C   UNL     1       2.849  -3.867   0.939  1.00  0.00     0.018 A 
ATOM     14  C   UNL     1       2.946  -5.087   0.272  1.00  0.00     0.001 A 
BRANCH  10  15
ATOM     15  N   UNL     1      -0.240  -2.480  -0.744  1.00  0.00    -0.355 N 
ATOM     16  H   UNL     1      -1.008  -2.963  -1.126  1.00  0.00     0.167 HD
BRANCH  15  17
ATOM     17  C   UNL     1      -0.373  -1.077  -0.750  1.00  0.00     0.042 A 
ATOM     18  C   UNL     1       1.810   2.014  -0.344  1.00  0.00     0.044 C 
ATOM     19  C   UNL     1       0.593   1.146  -0.522  1.00  0.00    -0.046 A 
ATOM     20  C   UNL     1      -0.662   1.643  -0.139  1.00  0.00     0.004 A 
ATOM     21  C   UNL     1       0.716  -0.198  -0.942  1.00  0.00    -0.025 A 
ATOM     22  C   UNL     1      -1.776   0.810  -0.115  1.00  0.00     0.002 A 
ATOM     23  C   UNL     1       2.006  -0.674  -1.567  1.00  0.00     0.047 C 
ATOM     24  C   UNL     1      -1.622  -0.547  -0.380  1.00  0.00     0.026 A 
ENDBRANCH  15  17
ENDBRANCH  10  15
ENDBRANCH   7   9
ENDBRANCH   6   7
ENDBRANCH   5   6
ENDBRANCH   4   5
ENDBRANCH   3   4
ENDBRANCH   2   3
ENDBRANCH   1   2
BRANCH   1  25
ATOM     25  O   UNL     1      -1.485  -3.348   3.489  1.00  0.00    -0.376 OA
BRANCH  25  26
ATOM     26  C   UNL     1      -2.154  -2.952   4.676  1.00  0.00     0.202 C 
BRANCH  26  27
ATOM     27  C   UNL     1      -2.061  -3.808   5.956  1.00  0.00     0.261 C 
BRANCH  27  28
ATOM     28  O   UNL     1      -0.761  -4.323   6.298  1.00  0.00    -0.460 OA
BRANCH  28  29
ATOM     29  C   UNL     1      -0.570  -5.650   6.084  1.00  0.00     0.338 C 
ATOM     30  O   UNL     1      -1.398  -6.454   5.679  1.00  0.00    -0.246 OA
BRANCH  29  31
ATOM     31  C   UNL     1       0.871  -5.972   6.202  1.00  0.00     0.060 A 
ATOM     32  C   UNL     1       1.550  -6.457   5.072  1.00  0.00     0.016 A 
ATOM     33  C   UNL     1       1.548  -5.821   7.412  1.00  0.00     0.016 A 
ATOM     34  C   UNL     1       2.900  -6.803   5.149  1.00  0.00     0.010 A 
ATOM     35  C   UNL     1       2.892  -6.206   7.499  1.00  0.00     0.010 A 
ATOM     36  C   UNL     1       3.566  -6.726   6.377  1.00  0.00    -0.014 A 
BRANCH  36  37
ATOM     37  C   UNL     1       4.891  -7.377   6.536  1.00  0.00     0.031 A 
ATOM     38  C   UNL     1       4.940  -8.755   7.140  1.00  0.00     0.074 A 
ATOM     39  C   UNL     1       6.028  -6.772   6.149  1.00  0.00     0.049 A 
ATOM     40  N   UNL     1       5.976  -9.496   7.437  1.00  0.00    -0.248 NA
ATOM     41  C   UNL     1       3.643  -9.377   7.455  1.00  0.00     0.031 C 
ATOM     42  C   UNL     1       6.116  -5.461   5.510  1.00  0.00     0.029 A 
ATOM     43  N   UNL     1       7.335  -7.183   6.258  1.00  0.00    -0.354 N 
ATOM     44  C   UNL     1       5.458 -10.659   7.997  1.00  0.00     0.074 A 
ATOM     45  C   UNL     1       4.019 -10.516   8.016  1.00  0.00     0.031 C 
ATOM     46  C   UNL     1       7.412  -5.164   5.305  1.00  0.00     0.029 A 
ATOM     47  C   UNL     1       8.245  -6.245   5.832  1.00  0.00     0.049 A 
ATOM     48  H   UNL     1       7.595  -8.066   6.608  1.00  0.00     0.167 HD
ATOM     49  C   UNL     1       6.121 -11.745   8.460  1.00  0.00     0.031 A 
ATOM     50  C   UNL     1       9.592  -6.242   5.891  1.00  0.00     0.031 A 
ATOM     51  C   UNL     1       7.554 -11.877   8.456  1.00  0.00     0.049 A 
ATOM     52  C   UNL     1      10.313  -7.435   6.467  1.00  0.00     0.074 A 
ATOM     53  C   UNL     1       8.319 -12.953   8.872  1.00  0.00     0.029 A 
ATOM     54  N   UNL     1       8.440 -10.897   8.034  1.00  0.00    -0.354 N 
ATOM     55  N   UNL     1       9.813  -8.545   6.956  1.00  0.00    -0.248 NA
ATOM     56  C   UNL     1      11.782  -7.378   6.490  1.00  0.00     0.031 C 
ATOM     57  C   UNL     1       9.667 -12.595   8.772  1.00  0.00     0.029 A 
ATOM     58  C   UNL     1       9.744 -11.327   8.216  1.00  0.00     0.049 A 
ATOM     59  H   UNL     1       8.181 -10.024   7.659  1.00  0.00     0.167 HD
ATOM     60  C   UNL     1      10.905  -9.328   7.321  1.00  0.00     0.074 A 
ATOM     61  C   UNL     1      12.092  -8.571   6.981  1.00  0.00     0.031 C 
ATOM     62  C   UNL     1      10.922 -10.563   7.883  1.00  0.00     0.031 A 
BRANCH  49  63
ATOM     63  C   UNL     1       5.300 -12.855   9.065  1.00  0.00    -0.014 A 
ATOM     64  C   UNL     1       4.451 -13.659   8.282  1.00  0.00     0.010 A 
ATOM     65  C   UNL     1       5.398 -13.109  10.446  1.00  0.00     0.010 A 
ATOM     66  C   UNL     1       3.681 -14.662   8.877  1.00  0.00     0.020 A 
ATOM     67  C   UNL     1       4.655 -14.133  11.039  1.00  0.00     0.020 A 
ATOM     68  C   UNL     1       3.786 -14.891  10.252  1.00  0.00     0.054 A 
BRANCH  68  69
ATOM     69  S   UNL     1       2.782 -16.206  10.995  1.00  0.00     0.124 S 
ATOM     70  O   UNL     1       1.438 -15.637  10.922  1.00  0.00    -0.237 OA
ATOM     71  O   UNL     1       3.033 -17.339  10.107  1.00  0.00    -0.237 OA
ATOM     72  O   UNL     1       3.328 -16.342  12.343  1.00  0.00    -0.744 OA
ENDBRANCH  68  69
ENDBRANCH  49  63
BRANCH  50  73
ATOM     73  C   UNL     1      10.348  -5.048   5.417  1.00  0.00    -0.014 A 
ATOM     74  C   UNL     1      11.143  -5.106   4.259  1.00  0.00     0.010 A 
ATOM     75  C   UNL     1      10.260  -3.833   6.122  1.00  0.00     0.010 A 
ATOM     76  C   UNL     1      11.836  -3.973   3.817  1.00  0.00     0.020 A 
ATOM     77  C   UNL     1      10.925  -2.691   5.668  1.00  0.00     0.020 A 
ATOM     78  C   UNL     1      11.715  -2.771   4.520  1.00  0.00     0.054 A 
BRANCH  78  79
ATOM     79  S   UNL     1      12.560  -1.296   3.883  1.00  0.00     0.124 S 
ATOM     80  O   UNL     1      13.960  -1.607   4.151  1.00  0.00    -0.237 OA
ATOM     81  O   UNL     1      12.170  -1.296   2.475  1.00  0.00    -0.237 OA
ATOM     82  O   UNL     1      11.997  -0.207   4.678  1.00  0.00    -0.744 OA
ENDBRANCH  78  79
ENDBRANCH  50  73
BRANCH  62  83
ATOM     83  C   UNL     1      12.266 -11.201   8.138  1.00  0.00    -0.014 A 
ATOM     84  C   UNL     1      13.129 -10.724   9.140  1.00  0.00     0.010 A 
ATOM     85  C   UNL     1      12.642 -12.339   7.400  1.00  0.00     0.010 A 
ATOM     86  C   UNL     1      14.357 -11.352   9.375  1.00  0.00     0.020 A 
ATOM     87  C   UNL     1      13.853 -12.989   7.654  1.00  0.00     0.020 A 
ATOM     88  C   UNL     1      14.710 -12.482   8.631  1.00  0.00     0.054 A 
BRANCH  88  89
ATOM     89  S   UNL     1      16.290 -13.301   8.982  1.00  0.00     0.124 S 
ATOM     90  O   UNL     1      17.255 -12.341   8.453  1.00  0.00    -0.237 OA
ATOM     91  O   UNL     1      16.266 -13.431  10.437  1.00  0.00    -0.237 OA
ATOM     92  O   UNL     1      16.200 -14.561   8.248  1.00  0.00    -0.744 OA
ENDBRANCH  88  89
ENDBRANCH  62  83
ENDBRANCH  36  37
ENDBRANCH  29  31
ENDBRANCH  28  29
ENDBRANCH  27  28
ENDBRANCH  26  27
ENDBRANCH  25  26
ENDBRANCH   1  25
TORSDOF 22
