REMARK SMILES O=C(OCCOCCOCCOC(=O)[C@@H]1[C@@H](C(=O)Nc2nc(-c3ccc(F)cc3)cs2)[C@H]2C=C[C@@H]1O2)c1ccc(-c2c3nc(c(-c4ccc(S(=O)(=O)[O-])cc4)c4ccc([nH]4)c(-c4ccc(S(=O)(=O)[O-])cc4)c4nc(c(-c5ccc(S(=O)(=O)[O-])cc5)c5ccc2[nH]5)C=C4)C=C3)cc1
REMARK SMILES IDX 7 1 6 2 5 3 4 4 3 5 2 6 1 7 37 8 38 9 96 10 39 11 95 12
REMARK SMILES IDX 40 13 41 14 42 15 89 16 43 17 94 18 88 19 90 20 44 21 93 22
REMARK SMILES IDX 87 23 86 24 45 26 75 27 56 28 74 29 57 30 60 31 73 32 91 33
REMARK SMILES IDX 58 34 59 35 72 37 92 38 61 39 46 40 47 41 55 42 48 43 54 44
REMARK SMILES IDX 49 45 50 46 51 47 52 48 53 49 76 50 77 51 85 52 78 53 84 54
REMARK SMILES IDX 79 55 80 56 81 57 82 58 83 59 62 60 63 61 71 62 64 63 70 64
REMARK SMILES IDX 65 65 66 66 67 67 68 68 69 69 8 70 9 71 10 72 11 73 12 74
REMARK SMILES IDX 13 75 14 76 15 77 16 78 35 79 32 80 34 81 36 82 33 83 17 84
REMARK SMILES IDX 18 85 19 86 20 88 21 89 31 90 22 91 30 92 23 93 24 94 29 95
REMARK SMILES IDX 25 96 28 97 26 98 27 99
REMARK H PARENT 90 25 60 36 19 87
REMARK Flexibility Score: inf
ROOT
ATOM      1  C   UNL     1       2.581  -1.631  -0.451  1.00  0.00     0.188 C 
ENDROOT
BRANCH   1   2
ATOM      2  O   UNL     1       3.562  -2.223   0.400  1.00  0.00    -0.376 OA
BRANCH   2   3
ATOM      3  C   UNL     1       4.724  -1.407   0.558  1.00  0.00     0.202 C 
BRANCH   3   4
ATOM      4  C   UNL     1       4.581  -0.236   1.546  1.00  0.00     0.261 C 
BRANCH   4   5
ATOM      5  O   UNL     1       3.293   0.411   1.579  1.00  0.00    -0.460 OA
BRANCH   5   6
ATOM      6  C   UNL     1       2.697   1.392   0.872  1.00  0.00     0.338 C 
ATOM      7  O   UNL     1       1.582   1.763   1.236  1.00  0.00    -0.246 OA
BRANCH   6   8
ATOM      8  C   UNL     1       3.272   2.024  -0.355  1.00  0.00     0.060 A 
ATOM      9  C   UNL     1       4.442   1.633  -1.006  1.00  0.00     0.016 A 
ATOM     10  C   UNL     1       2.551   3.104  -0.898  1.00  0.00     0.016 A 
ATOM     11  C   UNL     1       4.917   2.310  -2.130  1.00  0.00     0.010 A 
ATOM     12  C   UNL     1       3.018   3.795  -2.018  1.00  0.00     0.010 A 
ATOM     13  C   UNL     1       4.229   3.420  -2.612  1.00  0.00    -0.014 A 
BRANCH  13  14
ATOM     14  C   UNL     1       4.884   4.333  -3.570  1.00  0.00     0.031 A 
ATOM     15  C   UNL     1       5.530   5.549  -3.006  1.00  0.00     0.074 A 
ATOM     16  C   UNL     1       4.917   4.080  -4.887  1.00  0.00     0.049 A 
ATOM     17  N   UNL     1       6.065   6.552  -3.636  1.00  0.00    -0.248 NA
ATOM     18  C   UNL     1       5.602   5.634  -1.537  1.00  0.00     0.031 C 
ATOM     19  C   UNL     1       4.462   2.839  -5.476  1.00  0.00     0.029 A 
ATOM     20  N   UNL     1       5.319   4.816  -5.966  1.00  0.00    -0.354 N 
ATOM     21  C   UNL     1       6.520   7.403  -2.643  1.00  0.00     0.074 A 
ATOM     22  C   UNL     1       6.187   6.807  -1.369  1.00  0.00     0.031 C 
ATOM     23  C   UNL     1       4.511   2.912  -6.812  1.00  0.00     0.029 A 
ATOM     24  C   UNL     1       5.013   4.222  -7.173  1.00  0.00     0.049 A 
ATOM     25  H   UNL     1       5.780   5.683  -5.890  1.00  0.00     0.167 HD
ATOM     26  C   UNL     1       7.149   8.587  -2.800  1.00  0.00     0.031 A 
ATOM     27  C   UNL     1       5.102   4.689  -8.432  1.00  0.00     0.031 A 
ATOM     28  C   UNL     1       7.390   9.164  -4.093  1.00  0.00     0.049 A 
ATOM     29  C   UNL     1       5.694   6.053  -8.590  1.00  0.00     0.074 A 
ATOM     30  C   UNL     1       7.955  10.383  -4.403  1.00  0.00     0.029 A 
ATOM     31  N   UNL     1       7.048   8.555  -5.298  1.00  0.00    -0.354 N 
ATOM     32  N   UNL     1       6.103   6.866  -7.642  1.00  0.00    -0.248 NA
ATOM     33  C   UNL     1       5.868   6.561  -9.951  1.00  0.00     0.031 C 
ATOM     34  C   UNL     1       7.900  10.536  -5.793  1.00  0.00     0.029 A 
ATOM     35  C   UNL     1       7.368   9.382  -6.356  1.00  0.00     0.049 A 
ATOM     36  H   UNL     1       6.637   7.664  -5.383  1.00  0.00     0.167 HD
ATOM     37  C   UNL     1       6.622   7.971  -8.290  1.00  0.00     0.074 A 
ATOM     38  C   UNL     1       6.468   7.722  -9.714  1.00  0.00     0.031 C 
ATOM     39  C   UNL     1       7.189   9.082  -7.758  1.00  0.00     0.031 A 
BRANCH  26  40
ATOM     40  C   UNL     1       7.479   9.332  -1.539  1.00  0.00    -0.014 A 
ATOM     41  C   UNL     1       8.444   8.852  -0.632  1.00  0.00     0.010 A 
ATOM     42  C   UNL     1       6.723  10.466  -1.199  1.00  0.00     0.010 A 
ATOM     43  C   UNL     1       8.587   9.446   0.625  1.00  0.00     0.020 A 
ATOM     44  C   UNL     1       6.886  11.082   0.044  1.00  0.00     0.020 A 
ATOM     45  C   UNL     1       7.795  10.548   0.960  1.00  0.00     0.054 A 
BRANCH  45  46
ATOM     46  S   UNL     1       7.956  11.265   2.617  1.00  0.00     0.124 S 
ATOM     47  O   UNL     1       7.289  10.261   3.443  1.00  0.00    -0.237 OA
ATOM     48  O   UNL     1       9.403  11.355   2.787  1.00  0.00    -0.237 OA
ATOM     49  O   UNL     1       7.261  12.545   2.510  1.00  0.00    -0.744 OA
ENDBRANCH  45  46
ENDBRANCH  26  40
BRANCH  27  50
ATOM     50  C   UNL     1       4.635   3.853  -9.575  1.00  0.00    -0.014 A 
ATOM     51  C   UNL     1       5.548   3.264 -10.466  1.00  0.00     0.010 A 
ATOM     52  C   UNL     1       3.264   3.556  -9.722  1.00  0.00     0.010 A 
ATOM     53  C   UNL     1       5.103   2.401 -11.477  1.00  0.00     0.020 A 
ATOM     54  C   UNL     1       2.817   2.675 -10.715  1.00  0.00     0.020 A 
ATOM     55  C   UNL     1       3.741   2.106 -11.591  1.00  0.00     0.054 A 
BRANCH  55  56
ATOM     56  S   UNL     1       3.202   0.939 -12.875  1.00  0.00     0.124 S 
ATOM     57  O   UNL     1       3.452   1.696 -14.098  1.00  0.00    -0.237 OA
ATOM     58  O   UNL     1       4.085  -0.204 -12.651  1.00  0.00    -0.237 OA
ATOM     59  O   UNL     1       1.794   0.704 -12.563  1.00  0.00    -0.744 OA
ENDBRANCH  55  56
ENDBRANCH  27  50
BRANCH  39  60
ATOM     60  C   UNL     1       7.722  10.092  -8.726  1.00  0.00    -0.014 A 
ATOM     61  C   UNL     1       6.859  10.951  -9.426  1.00  0.00     0.010 A 
ATOM     62  C   UNL     1       9.114  10.253  -8.836  1.00  0.00     0.010 A 
ATOM     63  C   UNL     1       7.387  11.967 -10.221  1.00  0.00     0.020 A 
ATOM     64  C   UNL     1       9.643  11.285  -9.607  1.00  0.00     0.020 A 
ATOM     65  C   UNL     1       8.775  12.135 -10.295  1.00  0.00     0.054 A 
BRANCH  65  66
ATOM     66  S   UNL     1       9.430  13.534 -11.239  1.00  0.00     0.124 S 
ATOM     67  O   UNL     1       9.200  13.103 -12.616  1.00  0.00    -0.237 OA
ATOM     68  O   UNL     1       8.600  14.644 -10.779  1.00  0.00    -0.237 OA
ATOM     69  O   UNL     1      10.832  13.600 -10.832  1.00  0.00    -0.744 OA
ENDBRANCH  65  66
ENDBRANCH  39  60
ENDBRANCH  13  14
ENDBRANCH   6   8
ENDBRANCH   5   6
ENDBRANCH   4   5
ENDBRANCH   3   4
ENDBRANCH   2   3
ENDBRANCH   1   2
BRANCH   1  70
ATOM     70  C   UNL     1       1.473  -2.559  -0.969  1.00  0.00     0.188 C 
BRANCH  70  71
ATOM     71  O   UNL     1       1.644  -3.966  -1.011  1.00  0.00    -0.376 OA
BRANCH  71  72
ATOM     72  C   UNL     1       2.909  -4.495  -1.350  1.00  0.00     0.202 C 
BRANCH  72  73
ATOM     73  C   UNL     1       3.544  -4.103  -2.679  1.00  0.00     0.261 C 
BRANCH  73  74
ATOM     74  O   UNL     1       3.070  -2.912  -3.285  1.00  0.00    -0.463 OA
BRANCH  74  75
ATOM     75  C   UNL     1       2.267  -3.060  -4.362  1.00  0.00     0.312 C 
ATOM     76  O   UNL     1       1.733  -4.113  -4.697  1.00  0.00    -0.252 OA
BRANCH  75  77
ATOM     77  C   UNL     1       2.102  -1.776  -5.120  1.00  0.00     0.147 C 
ATOM     78  C   UNL     1       3.174  -0.695  -4.792  1.00  0.00     0.129 C 
ATOM     79  C   UNL     1       0.794  -1.098  -4.691  1.00  0.00     0.157 C 
ATOM     80  C   UNL     1       2.251   0.480  -4.392  1.00  0.00     0.155 C 
ATOM     81  C   UNL     1       0.438  -0.015  -5.663  1.00  0.00     0.004 C 
ATOM     82  O   UNL     1       1.276  -0.263  -3.601  1.00  0.00    -0.365 OA
ATOM     83  C   UNL     1       1.342   0.957  -5.483  1.00  0.00     0.004 C 
BRANCH  78  84
ATOM     84  C   UNL     1       4.080  -0.429  -5.981  1.00  0.00     0.233 C 
ATOM     85  O   UNL     1       3.609  -0.250  -7.106  1.00  0.00    -0.274 OA
ATOM     86  N   UNL     1       5.424  -0.249  -5.825  1.00  0.00    -0.302 N 
ATOM     87  H   UNL     1       5.859   0.339  -6.485  1.00  0.00     0.172 HD
BRANCH  86  88
ATOM     88  C   UNL     1       6.240  -0.781  -4.872  1.00  0.00     0.189 A 
ATOM     89  N   UNL     1       6.008  -1.760  -4.036  1.00  0.00    -0.220 NA
ATOM     90  S   UNL     1       7.819  -0.128  -4.855  1.00  0.00    -0.105 S 
ATOM     91  C   UNL     1       7.187  -2.081  -3.372  1.00  0.00     0.084 A 
ATOM     92  C   UNL     1       8.258  -1.250  -3.628  1.00  0.00     0.097 A 
BRANCH  91  93
ATOM     93  C   UNL     1       7.247  -3.238  -2.498  1.00  0.00     0.001 A 
ATOM     94  C   UNL     1       6.954  -4.506  -3.026  1.00  0.00     0.013 A 
ATOM     95  C   UNL     1       7.454  -3.094  -1.121  1.00  0.00     0.013 A 
ATOM     96  C   UNL     1       6.778  -5.600  -2.174  1.00  0.00     0.040 A 
ATOM     97  C   UNL     1       7.276  -4.190  -0.272  1.00  0.00     0.040 A 
ATOM     98  C   UNL     1       6.916  -5.425  -0.803  1.00  0.00     0.123 A 
ATOM     99  F   UNL     1       6.668  -6.451   0.021  1.00  0.00    -0.207 F 
ENDBRANCH  91  93
ENDBRANCH  86  88
ENDBRANCH  78  84
ENDBRANCH  75  77
ENDBRANCH  74  75
ENDBRANCH  73  74
ENDBRANCH  72  73
ENDBRANCH  71  72
ENDBRANCH  70  71
ENDBRANCH   1  70
TORSDOF 23
