REMARK SMILES CCC(CC)(CC)NC(=O)NC[C@@H]1CC[C@H](C(=O)OCCOCCOCCOC(=O)c2ccc(-c3c4nc(c(-c5ccc(S(=O)(=O)[O-])cc5)c5ccc([nH]5)c(-c5ccc(S(=O)(=O)[O-])cc5)c5nc(c(-c6ccc(S(=O)(=O)[O-])cc6)c6ccc3[nH]6)C=C5)C=C4)cc2)O1
REMARK SMILES IDX 23 1 22 2 21 3 20 4 19 5 17 6 18 7 16 8 13 9 14 10 91 11
REMARK SMILES IDX 15 12 12 13 11 14 8 15 9 16 10 18 3 20 2 21 1 22 4 23 5 24
REMARK SMILES IDX 6 25 7 26 24 27 25 28 26 29 27 30 28 31 29 32 30 33 31 34
REMARK SMILES IDX 32 35 90 36 33 37 89 38 34 39 35 40 36 41 83 42 37 43 88 44
REMARK SMILES IDX 82 45 84 46 38 47 87 48 81 49 80 50 39 52 69 53 50 54 68 55
REMARK SMILES IDX 51 56 54 57 67 58 85 59 52 60 53 61 66 63 86 64 55 65 40 66
REMARK SMILES IDX 41 67 49 68 42 69 48 70 43 71 44 72 45 73 46 74 47 75 70 76
REMARK SMILES IDX 71 77 79 78 72 79 78 80 73 81 74 82 75 83 76 84 77 85 56 86
REMARK SMILES IDX 57 87 65 88 58 89 64 90 59 91 60 92 61 93 62 94 63 95
REMARK H PARENT 8 17 11 19 84 51 54 62
REMARK Flexibility Score: inf
ROOT
ATOM      1  C   UNL     1       4.705   0.976  -4.093  1.00  0.00     0.188 C 
ENDROOT
BRANCH   1   2
ATOM      2  O   UNL     1       5.949   0.918  -3.441  1.00  0.00    -0.376 OA
BRANCH   2   3
ATOM      3  C   UNL     1       5.951   0.481  -2.087  1.00  0.00     0.202 C 
BRANCH   3   4
ATOM      4  C   UNL     1       4.704   0.608  -1.195  1.00  0.00     0.261 C 
BRANCH   4   5
ATOM      5  O   UNL     1       3.611  -0.303  -1.502  1.00  0.00    -0.461 OA
BRANCH   5   6
ATOM      6  C   UNL     1       2.433   0.277  -1.869  1.00  0.00     0.335 C 
ATOM      7  O   UNL     1       2.297   1.490  -2.027  1.00  0.00    -0.249 OA
BRANCH   6   8
ATOM      8  C   UNL     1       1.235  -0.687  -2.066  1.00  0.00     0.228 C 
ATOM      9  C   UNL     1       0.762  -2.099  -0.262  1.00  0.00     0.138 C 
ATOM     10  C   UNL     1       1.590  -2.890  -1.270  1.00  0.00     0.037 C 
ATOM     11  O   UNL     1       0.434  -0.865  -0.894  1.00  0.00    -0.361 OA
ATOM     12  C   UNL     1       1.455  -2.097  -2.550  1.00  0.00     0.047 C 
BRANCH   9  13
ATOM     13  C   UNL     1       1.403  -1.880   1.131  1.00  0.00     0.149 C 
BRANCH  13  14
ATOM     14  N   UNL     1       2.527  -0.953   1.181  1.00  0.00    -0.336 N 
ATOM     15  N   UNL     1       2.126   1.102   2.372  1.00  0.00    -0.333 N 
ATOM     16  C   UNL     1       2.879   0.150   1.835  1.00  0.00     0.315 C 
ATOM     17  H   UNL     1       2.728   1.786   2.746  1.00  0.00     0.165 HD
ATOM     18  O   UNL     1       4.100   0.341   1.932  1.00  0.00    -0.249 OA
ATOM     19  H   UNL     1       3.230  -1.222   0.547  1.00  0.00     0.165 HD
BRANCH  15  20
ATOM     20  C   UNL     1       0.721   1.540   2.630  1.00  0.00     0.041 C 
BRANCH  20  21
ATOM     21  C   UNL     1      -0.298   1.043   1.590  1.00  0.00     0.025 C 
ATOM     22  C   UNL     1       0.020   1.566   0.197  1.00  0.00     0.006 C 
ENDBRANCH  20  21
BRANCH  20  23
ATOM     23  C   UNL     1       0.712   3.128   2.574  1.00  0.00     0.025 C 
ATOM     24  C   UNL     1      -0.667   3.792   2.448  1.00  0.00     0.006 C 
ENDBRANCH  20  23
BRANCH  20  25
ATOM     25  C   UNL     1       0.331   1.153   4.088  1.00  0.00     0.025 C 
ATOM     26  C   UNL     1       0.802  -0.205   4.588  1.00  0.00     0.006 C 
ENDBRANCH  20  25
ENDBRANCH  15  20
ENDBRANCH  13  14
ENDBRANCH   9  13
ENDBRANCH   6   8
ENDBRANCH   5   6
ENDBRANCH   4   5
ENDBRANCH   3   4
ENDBRANCH   2   3
ENDBRANCH   1   2
BRANCH   1  27
ATOM     27  C   UNL     1       4.089  -0.361  -4.477  1.00  0.00     0.188 C 
BRANCH  27  28
ATOM     28  O   UNL     1       4.400  -1.544  -3.775  1.00  0.00    -0.376 OA
BRANCH  28  29
ATOM     29  C   UNL     1       5.522  -2.353  -4.088  1.00  0.00     0.202 C 
BRANCH  29  30
ATOM     30  C   UNL     1       6.117  -2.523  -5.501  1.00  0.00     0.261 C 
BRANCH  30  31
ATOM     31  O   UNL     1       5.490  -1.857  -6.596  1.00  0.00    -0.460 OA
BRANCH  31  32
ATOM     32  C   UNL     1       4.282  -2.337  -7.000  1.00  0.00     0.338 C 
ATOM     33  O   UNL     1       3.751  -3.361  -6.637  1.00  0.00    -0.246 OA
BRANCH  32  34
ATOM     34  C   UNL     1       3.610  -1.222  -7.736  1.00  0.00     0.060 A 
ATOM     35  C   UNL     1       2.323  -0.841  -7.324  1.00  0.00     0.016 A 
ATOM     36  C   UNL     1       4.293  -0.453  -8.682  1.00  0.00     0.016 A 
ATOM     37  C   UNL     1       1.719   0.304  -7.856  1.00  0.00     0.010 A 
ATOM     38  C   UNL     1       3.674   0.674  -9.236  1.00  0.00     0.010 A 
ATOM     39  C   UNL     1       2.379   1.054  -8.838  1.00  0.00    -0.014 A 
BRANCH  39  40
ATOM     40  C   UNL     1       1.680   2.141  -9.574  1.00  0.00     0.031 A 
ATOM     41  C   UNL     1       1.086   1.815 -10.918  1.00  0.00     0.074 A 
ATOM     42  C   UNL     1       1.603   3.398  -9.093  1.00  0.00     0.049 A 
ATOM     43  N   UNL     1       0.555   2.614 -11.806  1.00  0.00    -0.248 NA
ATOM     44  C   UNL     1       1.097   0.396 -11.315  1.00  0.00     0.031 C 
ATOM     45  C   UNL     1       2.081   3.841  -7.784  1.00  0.00     0.029 A 
ATOM     46  N   UNL     1       1.105   4.543  -9.671  1.00  0.00    -0.354 N 
ATOM     47  C   UNL     1       0.196   1.803 -12.876  1.00  0.00     0.074 A 
ATOM     48  C   UNL     1       0.569   0.450 -12.530  1.00  0.00     0.031 C 
ATOM     49  C   UNL     1       1.877   5.166  -7.670  1.00  0.00     0.029 A 
ATOM     50  C   UNL     1       1.298   5.677  -8.913  1.00  0.00     0.049 A 
ATOM     51  H   UNL     1       0.654   4.552 -10.546  1.00  0.00     0.167 HD
ATOM     52  C   UNL     1      -0.383   2.156 -14.047  1.00  0.00     0.031 A 
ATOM     53  C   UNL     1       1.076   6.977  -9.204  1.00  0.00     0.031 A 
ATOM     54  C   UNL     1      -0.756   3.501 -14.392  1.00  0.00     0.049 A 
ATOM     55  C   UNL     1       0.517   7.349 -10.559  1.00  0.00     0.074 A 
ATOM     56  C   UNL     1      -1.393   3.943 -15.539  1.00  0.00     0.029 A 
ATOM     57  N   UNL     1      -0.513   4.619 -13.612  1.00  0.00    -0.354 N 
ATOM     58  N   UNL     1       0.128   6.566 -11.537  1.00  0.00    -0.248 NA
ATOM     59  C   UNL     1       0.376   8.785 -10.853  1.00  0.00     0.031 C 
ATOM     60  C   UNL     1      -1.463   5.337 -15.489  1.00  0.00     0.029 A 
ATOM     61  C   UNL     1      -0.936   5.756 -14.278  1.00  0.00     0.049 A 
ATOM     62  H   UNL     1      -0.101   4.606 -12.718  1.00  0.00     0.167 HD
ATOM     63  C   UNL     1      -0.324   7.413 -12.547  1.00  0.00     0.074 A 
ATOM     64  C   UNL     1      -0.184   8.766 -12.055  1.00  0.00     0.031 C 
ATOM     65  C   UNL     1      -0.803   7.099 -13.776  1.00  0.00     0.031 A 
BRANCH  52  66
ATOM     66  C   UNL     1      -0.616   1.084 -15.077  1.00  0.00    -0.014 A 
ATOM     67  C   UNL     1      -1.641   0.135 -14.929  1.00  0.00     0.010 A 
ATOM     68  C   UNL     1       0.142   1.100 -16.263  1.00  0.00     0.010 A 
ATOM     69  C   UNL     1      -1.902  -0.783 -15.951  1.00  0.00     0.020 A 
ATOM     70  C   UNL     1      -0.133   0.201 -17.296  1.00  0.00     0.020 A 
ATOM     71  C   UNL     1      -1.152  -0.738 -17.131  1.00  0.00     0.054 A 
BRANCH  71  72
ATOM     72  S   UNL     1      -1.568  -1.889 -18.469  1.00  0.00     0.124 S 
ATOM     73  O   UNL     1      -1.136  -3.168 -17.912  1.00  0.00    -0.237 OA
ATOM     74  O   UNL     1      -3.013  -1.717 -18.599  1.00  0.00    -0.237 OA
ATOM     75  O   UNL     1      -0.782  -1.407 -19.602  1.00  0.00    -0.744 OA
ENDBRANCH  71  72
ENDBRANCH  52  66
BRANCH  53  76
ATOM     76  C   UNL     1       1.440   8.052  -8.233  1.00  0.00    -0.014 A 
ATOM     77  C   UNL     1       0.456   8.893  -7.684  1.00  0.00     0.010 A 
ATOM     78  C   UNL     1       2.790   8.289  -7.910  1.00  0.00     0.010 A 
ATOM     79  C   UNL     1       0.815   9.972  -6.868  1.00  0.00     0.020 A 
ATOM     80  C   UNL     1       3.150   9.343  -7.065  1.00  0.00     0.020 A 
ATOM     81  C   UNL     1       2.161  10.192  -6.567  1.00  0.00     0.054 A 
BRANCH  81  82
ATOM     82  S   UNL     1       2.604  11.596  -5.505  1.00  0.00     0.124 S 
ATOM     83  O   UNL     1       2.374  12.732  -6.393  1.00  0.00    -0.237 OA
ATOM     84  O   UNL     1       1.666  11.460  -4.394  1.00  0.00    -0.237 OA
ATOM     85  O   UNL     1       4.003  11.341  -5.166  1.00  0.00    -0.744 OA
ENDBRANCH  81  82
ENDBRANCH  53  76
BRANCH  65  86
ATOM     86  C   UNL     1      -1.240   8.227 -14.676  1.00  0.00    -0.014 A 
ATOM     87  C   UNL     1      -0.298   9.078 -15.282  1.00  0.00     0.010 A 
ATOM     88  C   UNL     1      -2.603   8.380 -14.994  1.00  0.00     0.010 A 
ATOM     89  C   UNL     1      -0.713  10.071 -16.174  1.00  0.00     0.020 A 
ATOM     90  C   UNL     1      -3.018   9.351 -15.909  1.00  0.00     0.020 A 
ATOM     91  C   UNL     1      -2.070  10.196 -16.488  1.00  0.00     0.054 A 
BRANCH  91  92
ATOM     92  S   UNL     1      -2.571  11.444 -17.706  1.00  0.00     0.124 S 
ATOM     93  O   UNL     1      -2.355  12.689 -16.974  1.00  0.00    -0.237 OA
ATOM     94  O   UNL     1      -1.649  11.198 -18.813  1.00  0.00    -0.237 OA
ATOM     95  O   UNL     1      -3.968  11.120 -17.983  1.00  0.00    -0.744 OA
ENDBRANCH  91  92
ENDBRANCH  65  86
ENDBRANCH  39  40
ENDBRANCH  32  34
ENDBRANCH  31  32
ENDBRANCH  30  31
ENDBRANCH  29  30
ENDBRANCH  28  29
ENDBRANCH  27  28
ENDBRANCH   1  27
TORSDOF 26
