REMARK SMILES C[C@@H]1c2ccccc2-c2ccc(C(=O)OCCOCCOCCOC(=O)c3ccc(-c4c5nc(c(-c6ccc(S(=O)(=O)[O-])cc6)c6ccc([nH]6)c(-c6ccc(S(=O)(=O)[O-])cc6)c6nc(c(-c7ccc(S(=O)(=O)[O-])cc7)c7ccc4[nH]7)C=C6)C=C5)cc3)cc21
REMARK SMILES IDX 21 1 20 2 19 3 18 4 17 5 16 6 15 7 13 8 14 9 12 10 1 11 2 12
REMARK SMILES IDX 3 13 88 14 4 15 8 16 9 17 87 18 5 19 7 20 10 21 6 22 11 23
REMARK SMILES IDX 22 24 23 25 24 26 25 27 26 28 27 29 28 30 86 31 29 32 85 33
REMARK SMILES IDX 30 34 31 35 32 36 79 37 33 38 84 39 78 40 80 41 34 42 83 43
REMARK SMILES IDX 77 44 76 45 35 47 65 48 46 49 64 50 47 51 50 52 63 53 81 54
REMARK SMILES IDX 48 55 49 56 62 58 82 59 51 60 36 61 37 62 45 63 38 64 44 65
REMARK SMILES IDX 39 66 40 67 41 68 42 69 43 70 66 71 67 72 75 73 68 74 74 75
REMARK SMILES IDX 69 76 70 77 71 78 72 79 73 80 52 81 53 82 61 83 54 84 60 85
REMARK SMILES IDX 55 86 56 87 57 88 58 89 59 90
REMARK H PARENT 80 46 50 57
REMARK Flexibility Score: inf
ROOT
ATOM      1  O   UNL     1      -5.516  -1.402   2.797  1.00  0.00    -0.376 OA
ENDROOT
BRANCH   1   2
ATOM      2  C   UNL     1      -5.155  -0.140   2.278  1.00  0.00     0.188 C 
BRANCH   2   3
ATOM      3  C   UNL     1      -6.134   0.657   1.390  1.00  0.00     0.188 C 
BRANCH   3   4
ATOM      4  O   UNL     1      -7.438   0.167   1.156  1.00  0.00    -0.376 OA
BRANCH   4   5
ATOM      5  C   UNL     1      -7.645  -1.050   0.461  1.00  0.00     0.202 C 
BRANCH   5   6
ATOM      6  C   UNL     1      -6.718  -1.574  -0.644  1.00  0.00     0.261 C 
BRANCH   6   7
ATOM      7  O   UNL     1      -5.317  -1.400  -0.415  1.00  0.00    -0.460 OA
BRANCH   7   8
ATOM      8  C   UNL     1      -4.697  -0.602  -1.328  1.00  0.00     0.338 C 
ATOM      9  O   UNL     1      -5.191  -0.095  -2.308  1.00  0.00    -0.246 OA
BRANCH   8  10
ATOM     10  C   UNL     1      -3.326  -0.282  -0.869  1.00  0.00     0.060 A 
ATOM     11  C   UNL     1      -0.100  -2.442   1.587  1.00  0.00     0.018 C 
ATOM     12  C   UNL     1       0.051  -1.763   0.231  1.00  0.00     0.047 C 
ATOM     13  C   UNL     1       1.192  -0.754   0.219  1.00  0.00    -0.033 A 
ATOM     14  C   UNL     1      -1.143  -0.886  -0.131  1.00  0.00    -0.032 A 
ATOM     15  C   UNL     1       2.552  -0.988   0.348  1.00  0.00     0.005 A 
ATOM     16  C   UNL     1       0.693   0.544  -0.023  1.00  0.00    -0.014 A 
ATOM     17  C   UNL     1      -0.735   0.465  -0.237  1.00  0.00    -0.014 A 
ATOM     18  C   UNL     1      -2.441  -1.275  -0.434  1.00  0.00     0.020 A 
ATOM     19  C   UNL     1       3.421   0.101   0.239  1.00  0.00     0.000 A 
ATOM     20  C   UNL     1       1.554   1.627  -0.112  1.00  0.00     0.009 A 
ATOM     21  C   UNL     1      -1.634   1.455  -0.597  1.00  0.00     0.010 A 
ATOM     22  C   UNL     1       2.926   1.397   0.019  1.00  0.00     0.001 A 
ATOM     23  C   UNL     1      -2.934   1.073  -0.928  1.00  0.00     0.016 A 
ENDBRANCH   8  10
ENDBRANCH   7   8
ENDBRANCH   6   7
ENDBRANCH   5   6
ENDBRANCH   4   5
ENDBRANCH   3   4
ENDBRANCH   2   3
ENDBRANCH   1   2
BRANCH   1  24
ATOM     24  C   UNL     1      -6.613  -1.531   3.683  1.00  0.00     0.202 C 
BRANCH  24  25
ATOM     25  C   UNL     1      -7.039  -0.461   4.700  1.00  0.00     0.261 C 
BRANCH  25  26
ATOM     26  O   UNL     1      -6.884   0.904   4.306  1.00  0.00    -0.460 OA
BRANCH  26  27
ATOM     27  C   UNL     1      -5.911   1.579   4.968  1.00  0.00     0.338 C 
ATOM     28  O   UNL     1      -5.157   1.144   5.820  1.00  0.00    -0.246 OA
BRANCH  27  29
ATOM     29  C   UNL     1      -5.774   2.922   4.380  1.00  0.00     0.060 A 
ATOM     30  C   UNL     1      -4.575   3.252   3.734  1.00  0.00     0.016 A 
ATOM     31  C   UNL     1      -6.795   3.863   4.516  1.00  0.00     0.016 A 
ATOM     32  C   UNL     1      -4.383   4.541   3.240  1.00  0.00     0.010 A 
ATOM     33  C   UNL     1      -6.591   5.160   4.041  1.00  0.00     0.010 A 
ATOM     34  C   UNL     1      -5.374   5.512   3.429  1.00  0.00    -0.014 A 
BRANCH  34  35
ATOM     35  C   UNL     1      -5.075   6.938   3.158  1.00  0.00     0.031 A 
ATOM     36  C   UNL     1      -4.662   7.813   4.310  1.00  0.00     0.074 A 
ATOM     37  C   UNL     1      -5.168   7.448   1.917  1.00  0.00     0.049 A 
ATOM     38  N   UNL     1      -4.425   9.098   4.330  1.00  0.00    -0.248 NA
ATOM     39  C   UNL     1      -4.497   7.147   5.613  1.00  0.00     0.031 C 
ATOM     40  C   UNL     1      -5.509   6.692   0.713  1.00  0.00     0.029 A 
ATOM     41  N   UNL     1      -4.994   8.734   1.472  1.00  0.00    -0.354 N 
ATOM     42  C   UNL     1      -4.098   9.399   5.648  1.00  0.00     0.074 A 
ATOM     43  C   UNL     1      -4.189   8.166   6.400  1.00  0.00     0.031 C 
ATOM     44  C   UNL     1      -5.534   7.534  -0.335  1.00  0.00     0.029 A 
ATOM     45  C   UNL     1      -5.249   8.891   0.131  1.00  0.00     0.049 A 
ATOM     46  H   UNL     1      -4.713   9.474   2.057  1.00  0.00     0.167 HD
ATOM     47  C   UNL     1      -3.752  10.593   6.183  1.00  0.00     0.031 A 
ATOM     48  C   UNL     1      -5.278  10.006  -0.627  1.00  0.00     0.031 A 
ATOM     49  C   UNL     1      -3.683  11.821   5.437  1.00  0.00     0.049 A 
ATOM     50  C   UNL     1      -4.971  11.339   0.008  1.00  0.00     0.074 A 
ATOM     51  C   UNL     1      -3.333  13.082   5.886  1.00  0.00     0.029 A 
ATOM     52  N   UNL     1      -3.981  11.944   4.088  1.00  0.00    -0.354 N 
ATOM     53  N   UNL     1      -4.643  11.607   1.250  1.00  0.00    -0.248 NA
ATOM     54  C   UNL     1      -5.035  12.521  -0.864  1.00  0.00     0.031 C 
ATOM     55  C   UNL     1      -3.477  13.979   4.822  1.00  0.00     0.029 A 
ATOM     56  C   UNL     1      -3.852  13.265   3.694  1.00  0.00     0.049 A 
ATOM     57  H   UNL     1      -4.246  11.202   3.498  1.00  0.00     0.167 HD
ATOM     58  C   UNL     1      -4.433  12.982   1.300  1.00  0.00     0.074 A 
ATOM     59  C   UNL     1      -4.659  13.488  -0.038  1.00  0.00     0.031 C 
ATOM     60  C   UNL     1      -4.080  13.755   2.358  1.00  0.00     0.031 A 
BRANCH  47  61
ATOM     61  C   UNL     1      -3.465  10.632   7.661  1.00  0.00    -0.014 A 
ATOM     62  C   UNL     1      -2.307  10.040   8.197  1.00  0.00     0.010 A 
ATOM     63  C   UNL     1      -4.359  11.291   8.524  1.00  0.00     0.010 A 
ATOM     64  C   UNL     1      -2.070  10.071   9.574  1.00  0.00     0.020 A 
ATOM     65  C   UNL     1      -4.111  11.349   9.898  1.00  0.00     0.020 A 
ATOM     66  C   UNL     1      -2.976  10.722  10.416  1.00  0.00     0.054 A 
BRANCH  66  67
ATOM     67  S   UNL     1      -2.636  10.759  12.197  1.00  0.00     0.124 S 
ATOM     68  O   UNL     1      -2.907   9.377  12.584  1.00  0.00    -0.237 OA
ATOM     69  O   UNL     1      -1.232  11.161  12.247  1.00  0.00    -0.237 OA
ATOM     70  O   UNL     1      -3.582  11.746  12.711  1.00  0.00    -0.744 OA
ENDBRANCH  66  67
ENDBRANCH  47  61
BRANCH  48  71
ATOM     71  C   UNL     1      -5.633   9.916  -2.070  1.00  0.00    -0.014 A 
ATOM     72  C   UNL     1      -4.668  10.164  -3.063  1.00  0.00     0.010 A 
ATOM     73  C   UNL     1      -6.943   9.583  -2.460  1.00  0.00     0.010 A 
ATOM     74  C   UNL     1      -5.011  10.095  -4.417  1.00  0.00     0.020 A 
ATOM     75  C   UNL     1      -7.283   9.485  -3.812  1.00  0.00     0.020 A 
ATOM     76  C   UNL     1      -6.316   9.752  -4.783  1.00  0.00     0.054 A 
BRANCH  76  77
ATOM     77  S   UNL     1      -6.723   9.616  -6.546  1.00  0.00     0.124 S 
ATOM     78  O   UNL     1      -6.732  11.014  -6.965  1.00  0.00    -0.237 OA
ATOM     79  O   UNL     1      -5.620   8.809  -7.062  1.00  0.00    -0.237 OA
ATOM     80  O   UNL     1      -8.025   8.953  -6.547  1.00  0.00    -0.744 OA
ENDBRANCH  76  77
ENDBRANCH  48  71
BRANCH  60  81
ATOM     81  C   UNL     1      -3.876  15.228   2.110  1.00  0.00    -0.014 A 
ATOM     82  C   UNL     1      -4.961  16.088   1.863  1.00  0.00     0.010 A 
ATOM     83  C   UNL     1      -2.579  15.769   2.188  1.00  0.00     0.010 A 
ATOM     84  C   UNL     1      -4.748  17.456   1.669  1.00  0.00     0.020 A 
ATOM     85  C   UNL     1      -2.365  17.140   2.024  1.00  0.00     0.020 A 
ATOM     86  C   UNL     1      -3.451  17.974   1.751  1.00  0.00     0.054 A 
BRANCH  86  87
ATOM     87  S   UNL     1      -3.207  19.759   1.540  1.00  0.00     0.124 S 
ATOM     88  O   UNL     1      -3.412  19.926   0.104  1.00  0.00    -0.237 OA
ATOM     89  O   UNL     1      -4.247  20.328   2.394  1.00  0.00    -0.237 OA
ATOM     90  O   UNL     1      -1.839  19.979   2.005  1.00  0.00    -0.744 OA
ENDBRANCH  86  87
ENDBRANCH  60  81
ENDBRANCH  34  35
ENDBRANCH  27  29
ENDBRANCH  26  27
ENDBRANCH  25  26
ENDBRANCH  24  25
ENDBRANCH   1  24
TORSDOF 20
