REMARK SMILES N#CC1=C(N)N2C(=O)[C@@H](CC(=O)OCCOCCOCCOC(=O)c3ccc(-c4c5nc(c(-c6ccc(S(=O)(=O)[O-])cc6)c6ccc([nH]6)c(-c6ccc(S(=O)(=O)[O-])cc6)c6nc(c(-c7ccc(S(=O)(=O)[O-])cc7)c7ccc4[nH]7)C=C6)C=C5)cc3)SC2=C(C#N)[C@H]1c1ccc(Cl)cc1
REMARK SMILES IDX 18 1 17 2 16 3 15 4 14 5 13 6 11 7 12 8 10 9 9 10 3 11 4 12
REMARK SMILES IDX 90 13 6 14 87 15 7 16 86 17 8 18 85 19 2 20 1 21 5 22 91 25
REMARK SMILES IDX 92 26 97 27 93 28 96 29 94 30 95 31 88 32 89 33 19 34 20 35
REMARK SMILES IDX 21 36 22 37 23 38 24 39 25 40 26 41 84 42 27 43 83 44 28 45
REMARK SMILES IDX 29 46 30 47 77 48 31 49 82 50 76 51 78 52 32 53 81 54 75 55
REMARK SMILES IDX 74 56 33 58 63 59 44 60 62 61 45 62 48 63 61 64 79 65 46 66
REMARK SMILES IDX 47 67 60 69 80 70 49 71 34 72 35 73 43 74 36 75 42 76 37 77
REMARK SMILES IDX 38 78 39 79 40 80 41 81 64 82 65 83 73 84 66 85 72 86 67 87
REMARK SMILES IDX 68 88 69 89 70 90 71 91 50 92 51 93 59 94 52 95 58 96 53 97
REMARK SMILES IDX 54 98 55 99 56 100 57 101
REMARK H PARENT 5 23 5 24 78 57 48 68
REMARK Flexibility Score: inf
ROOT
ATOM      1  C   UNL     1       6.158  -3.195  -1.845  1.00  0.00     0.188 C 
ENDROOT
BRANCH   1   2
ATOM      2  C   UNL     1       6.533  -2.984  -3.329  1.00  0.00     0.188 C 
BRANCH   2   3
ATOM      3  O   UNL     1       6.681  -4.130  -4.134  1.00  0.00    -0.376 OA
BRANCH   3   4
ATOM      4  C   UNL     1       7.351  -5.230  -3.536  1.00  0.00     0.202 C 
BRANCH   4   5
ATOM      5  C   UNL     1       8.687  -4.937  -2.796  1.00  0.00     0.261 C 
BRANCH   5   6
ATOM      6  O   UNL     1       8.632  -4.059  -1.609  1.00  0.00    -0.463 OA
BRANCH   6   7
ATOM      7  C   UNL     1       9.422  -2.954  -1.599  1.00  0.00     0.307 C 
ATOM      8  O   UNL     1      10.303  -2.789  -2.444  1.00  0.00    -0.252 OA
BRANCH   7   9
ATOM      9  C   UNL     1       9.074  -1.750  -0.664  1.00  0.00     0.147 C 
BRANCH   9  10
ATOM     10  C   UNL     1       8.328  -1.579   0.693  1.00  0.00     0.154 C 
ATOM     11  C   UNL     1       3.861   0.054  -0.027  1.00  0.00     0.083 C 
ATOM     12  C   UNL     1       4.580  -0.869   0.678  1.00  0.00     0.126 C 
ATOM     13  C   UNL     1       4.454   1.162  -1.249  1.00  0.00     0.107 C 
ATOM     14  N   UNL     1       5.978  -0.863   0.595  1.00  0.00    -0.258 N 
ATOM     15  C   UNL     1       5.884   1.436  -0.086  1.00  0.00     0.073 C 
ATOM     16  C   UNL     1       6.840  -1.936   0.915  1.00  0.00     0.247 C 
ATOM     17  C   UNL     1       6.547   0.380   0.454  1.00  0.00     0.099 C 
ATOM     18  O   UNL     1       6.481  -3.049   1.294  1.00  0.00    -0.273 OA
ATOM     19  S   UNL     1       8.201   0.323   1.009  1.00  0.00    -0.093 SA
BRANCH  11  20
ATOM     20  C   UNL     1       2.341   0.054  -0.027  1.00  0.00     0.100 C 
ATOM     21  N   UNL     1       1.080   0.054  -0.027  1.00  0.00    -0.193 NA
ENDBRANCH  11  20
BRANCH  12  22
ATOM     22  N   UNL     1       3.961  -1.840   1.420  1.00  0.00    -0.384 N 
ATOM     23  H   UNL     1       2.979  -1.856   1.488  1.00  0.00     0.158 HD
ATOM     24  H   UNL     1       4.498  -2.521   1.886  1.00  0.00     0.158 HD
ENDBRANCH  12  22
BRANCH  13  25
ATOM     25  C   UNL     1       4.514   1.070  -3.427  1.00  0.00    -0.034 A 
ATOM     26  C   UNL     1       5.760   0.714  -4.370  1.00  0.00     0.006 A 
ATOM     27  C   UNL     1       3.473   1.323  -4.529  1.00  0.00     0.006 A 
ATOM     28  C   UNL     1       5.895   0.685  -5.779  1.00  0.00     0.021 A 
ATOM     29  C   UNL     1       3.623   1.289  -5.955  1.00  0.00     0.021 A 
ATOM     30  C   UNL     1       4.821   0.989  -6.565  1.00  0.00     0.041 A 
ATOM     31  Cl  UNL     1       4.974   0.999  -8.271  1.00  0.00    -0.084 Cl
ENDBRANCH  13  25
BRANCH  15  32
ATOM     32  C   UNL     1       6.228   2.777   0.293  1.00  0.00     0.098 C 
ATOM     33  N   UNL     1       6.489   3.855   0.629  1.00  0.00    -0.193 NA
ENDBRANCH  15  32
ENDBRANCH   9  10
ENDBRANCH   7   9
ENDBRANCH   6   7
ENDBRANCH   5   6
ENDBRANCH   4   5
ENDBRANCH   3   4
ENDBRANCH   2   3
ENDBRANCH   1   2
BRANCH   1  34
ATOM     34  O   UNL     1       5.818  -4.494  -1.412  1.00  0.00    -0.376 OA
BRANCH  34  35
ATOM     35  C   UNL     1       4.436  -4.635  -1.102  1.00  0.00     0.202 C 
BRANCH  35  36
ATOM     36  C   UNL     1       3.547  -4.371  -2.328  1.00  0.00     0.261 C 
BRANCH  36  37
ATOM     37  O   UNL     1       3.814  -3.065  -2.918  1.00  0.00    -0.460 OA
BRANCH  37  38
ATOM     38  C   UNL     1       3.350  -2.043  -2.180  1.00  0.00     0.338 C 
ATOM     39  O   UNL     1       2.471  -2.207  -1.346  1.00  0.00    -0.246 OA
BRANCH  38  40
ATOM     40  C   UNL     1       4.001  -0.673  -2.357  1.00  0.00     0.060 A 
ATOM     41  C   UNL     1       5.720  -0.059  -2.200  1.00  0.00     0.016 A 
ATOM     42  C   UNL     1       2.692   0.532  -2.398  1.00  0.00     0.016 A 
ATOM     43  C   UNL     1       6.064   1.792  -2.304  1.00  0.00     0.010 A 
ATOM     44  C   UNL     1       2.995   2.288  -2.399  1.00  0.00     0.010 A 
ATOM     45  C   UNL     1       4.662   2.956  -2.423  1.00  0.00    -0.014 A 
BRANCH  45  46
ATOM     46  C   UNL     1       4.667   4.405  -2.833  1.00  0.00     0.031 A 
ATOM     47  C   UNL     1       3.549   5.357  -2.384  1.00  0.00     0.074 A 
ATOM     48  C   UNL     1       5.417   4.743  -3.902  1.00  0.00     0.049 A 
ATOM     49  N   UNL     1       3.142   6.477  -2.936  1.00  0.00    -0.248 NA
ATOM     50  C   UNL     1       2.745   4.977  -1.204  1.00  0.00     0.031 C 
ATOM     51  C   UNL     1       6.471   3.934  -4.498  1.00  0.00     0.029 A 
ATOM     52  N   UNL     1       5.340   5.821  -4.753  1.00  0.00    -0.354 N 
ATOM     53  C   UNL     1       2.057   6.921  -2.176  1.00  0.00     0.074 A 
ATOM     54  C   UNL     1       1.771   5.879  -1.219  1.00  0.00     0.031 C 
ATOM     55  C   UNL     1       6.862   4.456  -5.661  1.00  0.00     0.029 A 
ATOM     56  C   UNL     1       6.129   5.683  -5.875  1.00  0.00     0.049 A 
ATOM     57  H   UNL     1       4.778   6.610  -4.578  1.00  0.00     0.167 HD
ATOM     58  C   UNL     1       1.412   8.117  -2.211  1.00  0.00     0.031 A 
ATOM     59  C   UNL     1       6.292   6.454  -6.962  1.00  0.00     0.031 A 
ATOM     60  C   UNL     1       1.756   9.171  -3.130  1.00  0.00     0.049 A 
ATOM     61  C   UNL     1       5.609   7.779  -6.973  1.00  0.00     0.074 A 
ATOM     62  C   UNL     1       1.293  10.475  -3.170  1.00  0.00     0.029 A 
ATOM     63  N   UNL     1       2.675   9.042  -4.160  1.00  0.00    -0.354 N 
ATOM     64  N   UNL     1       4.699   8.234  -6.147  1.00  0.00    -0.248 NA
ATOM     65  C   UNL     1       6.041   8.732  -7.999  1.00  0.00     0.031 C 
ATOM     66  C   UNL     1       1.905  11.122  -4.249  1.00  0.00     0.029 A 
ATOM     67  C   UNL     1       2.788  10.238  -4.847  1.00  0.00     0.049 A 
ATOM     68  H   UNL     1       3.174   8.220  -4.372  1.00  0.00     0.167 HD
ATOM     69  C   UNL     1       4.501   9.556  -6.510  1.00  0.00     0.074 A 
ATOM     70  C   UNL     1       5.386   9.821  -7.628  1.00  0.00     0.031 C 
ATOM     71  C   UNL     1       3.674  10.474  -5.957  1.00  0.00     0.031 A 
BRANCH  58  72
ATOM     72  C   UNL     1       0.359   8.405  -1.156  1.00  0.00    -0.014 A 
ATOM     73  C   UNL     1       0.722   8.483   0.203  1.00  0.00     0.010 A 
ATOM     74  C   UNL     1      -0.973   8.700  -1.510  1.00  0.00     0.010 A 
ATOM     75  C   UNL     1      -0.221   8.802   1.185  1.00  0.00     0.020 A 
ATOM     76  C   UNL     1      -1.916   9.053  -0.531  1.00  0.00     0.020 A 
ATOM     77  C   UNL     1      -1.535   9.089   0.812  1.00  0.00     0.054 A 
BRANCH  77  78
ATOM     78  S   UNL     1      -2.716   9.552   2.111  1.00  0.00     0.124 S 
ATOM     79  O   UNL     1      -2.878   8.294   2.836  1.00  0.00    -0.237 OA
ATOM     80  O   UNL     1      -2.001  10.603   2.832  1.00  0.00    -0.237 OA
ATOM     81  O   UNL     1      -3.893   9.999   1.370  1.00  0.00    -0.744 OA
ENDBRANCH  77  78
ENDBRANCH  58  72
BRANCH  59  82
ATOM     82  C   UNL     1       7.254   6.049  -8.023  1.00  0.00    -0.014 A 
ATOM     83  C   UNL     1       8.504   6.685  -8.119  1.00  0.00     0.010 A 
ATOM     84  C   UNL     1       6.951   5.000  -8.911  1.00  0.00     0.010 A 
ATOM     85  C   UNL     1       9.402   6.335  -9.130  1.00  0.00     0.020 A 
ATOM     86  C   UNL     1       7.861   4.625  -9.905  1.00  0.00     0.020 A 
ATOM     87  C   UNL     1       9.070   5.315 -10.024  1.00  0.00     0.054 A 
BRANCH  87  88
ATOM     88  S   UNL     1      10.245   4.907 -11.345  1.00  0.00     0.124 S 
ATOM     89  O   UNL     1      10.181   6.100 -12.183  1.00  0.00    -0.237 OA
ATOM     90  O   UNL     1      11.491   4.718 -10.607  1.00  0.00    -0.237 OA
ATOM     91  O   UNL     1       9.688   3.694 -11.939  1.00  0.00    -0.744 OA
ENDBRANCH  87  88
ENDBRANCH  59  82
BRANCH  71  92
ATOM     92  C   UNL     1       3.722  11.856  -6.536  1.00  0.00    -0.014 A 
ATOM     93  C   UNL     1       3.226  12.119  -7.824  1.00  0.00     0.010 A 
ATOM     94  C   UNL     1       4.249  12.908  -5.766  1.00  0.00     0.010 A 
ATOM     95  C   UNL     1       3.288  13.409  -8.348  1.00  0.00     0.020 A 
ATOM     96  C   UNL     1       4.277  14.207  -6.272  1.00  0.00     0.020 A 
ATOM     97  C   UNL     1       3.808  14.445  -7.565  1.00  0.00     0.054 A 
BRANCH  97  98
ATOM     98  S   UNL     1       3.818  16.121  -8.251  1.00  0.00     0.124 S 
ATOM     99  O   UNL     1       4.867  16.029  -9.262  1.00  0.00    -0.237 OA
ATOM    100  O   UNL     1       2.458  16.261  -8.765  1.00  0.00    -0.237 OA
ATOM    101  O   UNL     1       4.134  16.964  -7.100  1.00  0.00    -0.744 OA
ENDBRANCH  97  98
ENDBRANCH  71  92
ENDBRANCH  45  46
ENDBRANCH  38  40
ENDBRANCH  37  38
ENDBRANCH  36  37
ENDBRANCH  35  36
ENDBRANCH  34  35
ENDBRANCH   1  34
TORSDOF 25
