REMARK SMILES COc1ccc(C(=O)N[C@H](C(=O)OCCOCCOCCOC(=O)c2ccc(-c3c4nc(c(-c5ccc(S(=O)(=O)[O-])cc5)c5ccc([nH]5)c(-c5ccc(S(=O)(=O)[O-])cc5)c5nc(c(-c6ccc(S(=O)(=O)[O-])cc6)c6ccc3[nH]6)C=C5)C=C4)cc2)C2=C(C)N=N[C@H]2C)c(F)c1F
REMARK SMILES IDX 17 1 16 2 15 3 14 4 13 5 11 6 12 7 10 8 9 9 7 10 8 11 6 13
REMARK SMILES IDX 3 14 4 15 94 16 5 17 92 18 95 19 93 20 2 21 1 22 85 23 86 24
REMARK SMILES IDX 90 25 87 26 88 27 89 28 91 29 18 30 19 31 20 32 21 33 22 34
REMARK SMILES IDX 23 35 24 36 25 37 26 38 84 39 27 40 83 41 28 42 29 43 30 44
REMARK SMILES IDX 77 45 31 46 82 47 76 48 78 49 32 50 81 51 75 52 74 53 33 55
REMARK SMILES IDX 63 56 44 57 62 58 45 59 48 60 61 61 79 62 46 63 47 64 60 66
REMARK SMILES IDX 80 67 49 68 34 69 35 70 43 71 36 72 42 73 37 74 38 75 39 76
REMARK SMILES IDX 40 77 41 78 64 79 65 80 73 81 66 82 72 83 67 84 68 85 69 86
REMARK SMILES IDX 70 87 71 88 50 89 51 90 59 91 52 92 58 93 53 94 54 95 55 96
REMARK SMILES IDX 56 97 57 98
REMARK H PARENT 9 12 78 54 48 65
REMARK Flexibility Score: inf
ROOT
ATOM      1  C   UNL     1       1.678  -2.156  -9.218  1.00  0.00     0.188 C 
ENDROOT
BRANCH   1   2
ATOM      2  O   UNL     1       3.086  -1.969  -9.220  1.00  0.00    -0.376 OA
BRANCH   2   3
ATOM      3  C   UNL     1       3.900  -2.728  -8.333  1.00  0.00     0.202 C 
BRANCH   3   4
ATOM      4  C   UNL     1       3.521  -2.819  -6.846  1.00  0.00     0.261 C 
BRANCH   4   5
ATOM      5  O   UNL     1       2.226  -3.393  -6.572  1.00  0.00    -0.461 OA
BRANCH   5   6
ATOM      6  C   UNL     1       1.299  -2.566  -6.021  1.00  0.00     0.333 C 
ATOM      7  O   UNL     1       1.514  -1.386  -5.756  1.00  0.00    -0.249 OA
BRANCH   6   8
ATOM      8  C   UNL     1      -0.097  -3.227  -5.753  1.00  0.00     0.223 C 
BRANCH   8   9
ATOM      9  N   UNL     1      -1.106  -2.337  -6.318  1.00  0.00    -0.335 N 
ATOM     10  C   UNL     1      -2.312  -1.868  -5.887  1.00  0.00     0.255 C 
ATOM     11  O   UNL     1      -2.915  -1.159  -6.696  1.00  0.00    -0.269 OA
ATOM     12  H   UNL     1      -0.862  -2.000  -7.211  1.00  0.00     0.165 HD
BRANCH  10  13
ATOM     13  C   UNL     1      -2.951  -2.147  -4.567  1.00  0.00     0.078 A 
ATOM     14  C   UNL     1      -4.317  -2.405  -2.112  1.00  0.00     0.157 A 
ATOM     15  C   UNL     1      -4.782  -1.507  -3.062  1.00  0.00     0.050 A 
ATOM     16  C   UNL     1      -3.207  -3.186  -2.387  1.00  0.00     0.201 A 
ATOM     17  C   UNL     1      -4.098  -1.376  -4.276  1.00  0.00     0.021 A 
ATOM     18  C   UNL     1      -2.566  -3.093  -3.616  1.00  0.00     0.175 A 
ATOM     19  F   UNL     1      -2.769  -4.080  -1.488  1.00  0.00    -0.200 F 
ATOM     20  F   UNL     1      -1.645  -4.032  -3.841  1.00  0.00    -0.203 F 
BRANCH  14  21
ATOM     21  O   UNL     1      -4.929  -2.509  -0.897  1.00  0.00    -0.494 OA
ATOM     22  C   UNL     1      -6.015  -3.431  -0.974  1.00  0.00     0.278 C 
ENDBRANCH  14  21
ENDBRANCH  10  13
ENDBRANCH   8   9
BRANCH   8  23
ATOM     23  C   UNL     1      -0.410  -4.633  -6.206  1.00  0.00     0.012 C 
ATOM     24  C   UNL     1       0.271  -5.760  -5.965  1.00  0.00     0.064 C 
ATOM     25  C   UNL     1      -1.556  -5.080  -7.088  1.00  0.00     0.156 C 
ATOM     26  C   UNL     1       1.491  -5.957  -5.139  1.00  0.00     0.069 C 
ATOM     27  N   UNL     1      -0.253  -6.856  -6.601  1.00  0.00    -0.160 NA
ATOM     28  N   UNL     1      -1.254  -6.528  -7.286  1.00  0.00    -0.181 NA
ATOM     29  C   UNL     1      -2.980  -5.029  -6.530  1.00  0.00     0.040 C 
ENDBRANCH   8  23
ENDBRANCH   6   8
ENDBRANCH   5   6
ENDBRANCH   4   5
ENDBRANCH   3   4
ENDBRANCH   2   3
ENDBRANCH   1   2
BRANCH   1  30
ATOM     30  C   UNL     1       1.117  -3.589  -9.217  1.00  0.00     0.188 C 
BRANCH  30  31
ATOM     31  O   UNL     1       2.099  -4.596  -9.174  1.00  0.00    -0.376 OA
BRANCH  31  32
ATOM     32  C   UNL     1       2.328  -5.340 -10.356  1.00  0.00     0.202 C 
BRANCH  32  33
ATOM     33  C   UNL     1       2.435  -4.643 -11.729  1.00  0.00     0.261 C 
BRANCH  33  34
ATOM     34  O   UNL     1       1.627  -3.475 -11.955  1.00  0.00    -0.460 OA
BRANCH  34  35
ATOM     35  C   UNL     1       0.336  -3.661 -12.316  1.00  0.00     0.338 C 
ATOM     36  O   UNL     1      -0.230  -4.733 -12.466  1.00  0.00    -0.246 OA
BRANCH  35  37
ATOM     37  C   UNL     1      -0.349  -2.346 -12.265  1.00  0.00     0.060 A 
ATOM     38  C   UNL     1      -1.401  -2.154 -11.354  1.00  0.00     0.016 A 
ATOM     39  C   UNL     1       0.058  -1.298 -13.093  1.00  0.00     0.016 A 
ATOM     40  C   UNL     1      -2.066  -0.925 -11.291  1.00  0.00     0.010 A 
ATOM     41  C   UNL     1      -0.628  -0.079 -13.049  1.00  0.00     0.010 A 
ATOM     42  C   UNL     1      -1.714   0.106 -12.172  1.00  0.00    -0.014 A 
BRANCH  42  43
ATOM     43  C   UNL     1      -2.597   1.291 -12.338  1.00  0.00     0.031 A 
ATOM     44  C   UNL     1      -3.574   1.292 -13.485  1.00  0.00     0.074 A 
ATOM     45  C   UNL     1      -2.537   2.349 -11.508  1.00  0.00     0.049 A 
ATOM     46  N   UNL     1      -4.374   2.241 -13.896  1.00  0.00    -0.248 NA
ATOM     47  C   UNL     1      -3.651   0.053 -14.278  1.00  0.00     0.031 C 
ATOM     48  C   UNL     1      -1.684   2.457 -10.327  1.00  0.00     0.029 A 
ATOM     49  N   UNL     1      -3.208   3.549 -11.548  1.00  0.00    -0.354 N 
ATOM     50  C   UNL     1      -5.037   1.721 -15.003  1.00  0.00     0.074 A 
ATOM     51  C   UNL     1      -4.527   0.384 -15.214  1.00  0.00     0.031 C 
ATOM     52  C   UNL     1      -1.870   3.664  -9.763  1.00  0.00     0.029 A 
ATOM     53  C   UNL     1      -2.825   4.430 -10.565  1.00  0.00     0.049 A 
ATOM     54  H   UNL     1      -3.899   3.757 -12.219  1.00  0.00     0.167 HD
ATOM     55  C   UNL     1      -5.987   2.302 -15.774  1.00  0.00     0.031 A 
ATOM     56  C   UNL     1      -3.181   5.714 -10.351  1.00  0.00     0.031 A 
ATOM     57  C   UNL     1      -6.481   3.638 -15.576  1.00  0.00     0.049 A 
ATOM     58  C   UNL     1      -4.175   6.373 -11.278  1.00  0.00     0.074 A 
ATOM     59  C   UNL     1      -7.449   4.312 -16.300  1.00  0.00     0.029 A 
ATOM     60  N   UNL     1      -6.042   4.508 -14.589  1.00  0.00    -0.354 N 
ATOM     61  N   UNL     1      -4.807   5.864 -12.310  1.00  0.00    -0.248 NA
ATOM     62  C   UNL     1      -4.509   7.779 -11.006  1.00  0.00     0.031 C 
ATOM     63  C   UNL     1      -7.548   5.611 -15.793  1.00  0.00     0.029 A 
ATOM     64  C   UNL     1      -6.697   5.722 -14.704  1.00  0.00     0.049 A 
ATOM     65  H   UNL     1      -5.364   4.293 -13.908  1.00  0.00     0.167 HD
ATOM     66  C   UNL     1      -5.638   6.876 -12.785  1.00  0.00     0.074 A 
ATOM     67  C   UNL     1      -5.437   8.021 -11.922  1.00  0.00     0.031 C 
ATOM     68  C   UNL     1      -6.495   6.856 -13.837  1.00  0.00     0.031 A 
BRANCH  55  69
ATOM     69  C   UNL     1      -6.523   1.505 -16.936  1.00  0.00    -0.014 A 
ATOM     70  C   UNL     1      -7.341   0.379 -16.736  1.00  0.00     0.010 A 
ATOM     71  C   UNL     1      -6.232   1.914 -18.250  1.00  0.00     0.010 A 
ATOM     72  C   UNL     1      -7.826  -0.346 -17.829  1.00  0.00     0.020 A 
ATOM     73  C   UNL     1      -6.741   1.212 -19.346  1.00  0.00     0.020 A 
ATOM     74  C   UNL     1      -7.522   0.076 -19.127  1.00  0.00     0.054 A 
BRANCH  74  75
ATOM     75  S   UNL     1      -8.187  -0.869 -20.525  1.00  0.00     0.124 S 
ATOM     76  O   UNL     1      -7.407  -2.102 -20.454  1.00  0.00    -0.237 OA
ATOM     77  O   UNL     1      -9.600  -1.000 -20.178  1.00  0.00    -0.237 OA
ATOM     78  O   UNL     1      -7.907  -0.022 -21.682  1.00  0.00    -0.744 OA
ENDBRANCH  74  75
ENDBRANCH  55  69
BRANCH  56  79
ATOM     79  C   UNL     1      -2.577   6.483  -9.225  1.00  0.00    -0.014 A 
ATOM     80  C   UNL     1      -3.362   6.901  -8.136  1.00  0.00     0.010 A 
ATOM     81  C   UNL     1      -1.210   6.819  -9.245  1.00  0.00     0.010 A 
ATOM     82  C   UNL     1      -2.799   7.654  -7.100  1.00  0.00     0.020 A 
ATOM     83  C   UNL     1      -0.636   7.544  -8.197  1.00  0.00     0.020 A 
ATOM     84  C   UNL     1      -1.437   7.968  -7.136  1.00  0.00     0.054 A 
BRANCH  84  85
ATOM     85  S   UNL     1      -0.719   8.905  -5.757  1.00  0.00     0.124 S 
ATOM     86  O   UNL     1      -1.290  10.232  -5.961  1.00  0.00    -0.237 OA
ATOM     87  O   UNL     1      -1.212   8.176  -4.591  1.00  0.00    -0.237 OA
ATOM     88  O   UNL     1       0.721   8.802  -5.985  1.00  0.00    -0.744 OA
ENDBRANCH  84  85
ENDBRANCH  56  79
BRANCH  68  89
ATOM     89  C   UNL     1      -7.325   8.089 -14.094  1.00  0.00    -0.014 A 
ATOM     90  C   UNL     1      -6.753   9.275 -14.587  1.00  0.00     0.010 A 
ATOM     91  C   UNL     1      -8.719   8.034 -13.900  1.00  0.00     0.010 A 
ATOM     92  C   UNL     1      -7.553  10.391 -14.850  1.00  0.00     0.020 A 
ATOM     93  C   UNL     1      -9.526   9.136 -14.193  1.00  0.00     0.020 A 
ATOM     94  C   UNL     1      -8.936  10.314 -14.654  1.00  0.00     0.054 A 
BRANCH  94  95
ATOM     95  S   UNL     1      -9.957  11.761 -15.047  1.00  0.00     0.124 S 
ATOM     96  O   UNL     1      -9.608  12.683 -13.971  1.00  0.00    -0.237 OA
ATOM     97  O   UNL     1      -9.480  12.136 -16.376  1.00  0.00    -0.237 OA
ATOM     98  O   UNL     1     -11.323  11.244 -15.005  1.00  0.00    -0.744 OA
ENDBRANCH  94  95
ENDBRANCH  68  89
ENDBRANCH  42  43
ENDBRANCH  35  37
ENDBRANCH  34  35
ENDBRANCH  33  34
ENDBRANCH  32  33
ENDBRANCH  31  32
ENDBRANCH  30  31
ENDBRANCH   1  30
TORSDOF 24
