REMARK SMILES COc1cccc(C(=O)N[C@H]2C=C[C@@H](C(=O)OCCOCCOCCOC(=O)c3ccc(-c4c5nc(c(-c6ccc(S(=O)(=O)[O-])cc6)c6ccc([nH]6)c(-c6ccc(S(=O)(=O)[O-])cc6)c6nc(c(-c7ccc(S(=O)(=O)[O-])cc7)c7ccc4[nH]7)C=C6)C=C5)cc3)C2)c1
REMARK SMILES IDX 21 1 20 2 19 3 18 4 17 5 15 6 16 7 14 8 11 9 12 10 89 11
REMARK SMILES IDX 13 12 10 13 8 14 9 15 7 17 3 18 4 19 90 20 5 21 6 22 2 23
REMARK SMILES IDX 1 24 22 25 23 26 24 27 25 28 26 29 27 30 28 31 29 32 30 33
REMARK SMILES IDX 88 34 31 35 87 36 32 37 33 38 34 39 81 40 35 41 86 42 80 43
REMARK SMILES IDX 82 44 36 45 85 46 79 47 78 48 37 50 67 51 48 52 66 53 49 54
REMARK SMILES IDX 52 55 65 56 83 57 50 58 51 59 64 61 84 62 53 63 38 64 39 65
REMARK SMILES IDX 47 66 40 67 46 68 41 69 42 70 43 71 44 72 45 73 68 74 69 75
REMARK SMILES IDX 77 76 70 77 76 78 71 79 72 80 73 81 74 82 75 83 54 84 55 85
REMARK SMILES IDX 63 86 56 87 62 88 57 89 58 90 59 91 60 92 61 93
REMARK H PARENT 10 16 82 49 52 60
REMARK Flexibility Score: inf
ROOT
ATOM      1  C   UNL     1       5.487   4.276  -0.893  1.00  0.00     0.188 C 
ENDROOT
BRANCH   1   2
ATOM      2  O   UNL     1       6.648   5.095  -0.939  1.00  0.00    -0.376 OA
BRANCH   2   3
ATOM      3  C   UNL     1       7.834   4.572  -1.528  1.00  0.00     0.202 C 
BRANCH   3   4
ATOM      4  C   UNL     1       8.338   3.181  -1.101  1.00  0.00     0.261 C 
BRANCH   4   5
ATOM      5  O   UNL     1       7.359   2.119  -1.159  1.00  0.00    -0.463 OA
BRANCH   5   6
ATOM      6  C   UNL     1       7.240   1.350  -0.046  1.00  0.00     0.312 C 
ATOM      7  O   UNL     1       7.927   1.495   0.962  1.00  0.00    -0.252 OA
BRANCH   6   8
ATOM      8  C   UNL     1       6.158   0.266  -0.120  1.00  0.00     0.124 C 
ATOM      9  C   UNL     1       5.048  -1.399  -1.544  1.00  0.00     0.106 C 
ATOM     10  C   UNL     1       6.235  -1.979  -0.855  1.00  0.00    -0.006 C 
ATOM     11  C   UNL     1       5.300   0.104  -1.377  1.00  0.00     0.048 C 
ATOM     12  C   UNL     1       6.809  -1.087  -0.037  1.00  0.00    -0.014 C 
BRANCH   9  13
ATOM     13  N   UNL     1       5.017  -1.760  -2.941  1.00  0.00    -0.346 N 
ATOM     14  C   UNL     1       3.984  -1.931  -3.831  1.00  0.00     0.251 C 
ATOM     15  O   UNL     1       4.288  -2.146  -5.007  1.00  0.00    -0.269 OA
ATOM     16  H   UNL     1       5.908  -1.915  -3.331  1.00  0.00     0.164 HD
BRANCH  14  17
ATOM     17  C   UNL     1       2.536  -1.945  -3.452  1.00  0.00     0.043 A 
ATOM     18  C   UNL     1       0.642  -1.456  -2.003  1.00  0.00     0.119 A 
ATOM     19  C   UNL     1      -0.184  -2.229  -2.820  1.00  0.00     0.046 A 
ATOM     20  C   UNL     1       1.986  -1.281  -2.349  1.00  0.00     0.060 A 
ATOM     21  C   UNL     1       0.321  -2.816  -3.976  1.00  0.00     0.005 A 
ATOM     22  C   UNL     1       1.675  -2.682  -4.284  1.00  0.00     0.014 A 
BRANCH  18  23
ATOM     23  O   UNL     1       0.025  -0.947  -0.894  1.00  0.00    -0.497 OA
ATOM     24  C   UNL     1       0.772  -0.066  -0.066  1.00  0.00     0.278 C 
ENDBRANCH  18  23
ENDBRANCH  14  17
ENDBRANCH   9  13
ENDBRANCH   6   8
ENDBRANCH   5   6
ENDBRANCH   4   5
ENDBRANCH   3   4
ENDBRANCH   2   3
ENDBRANCH   1   2
BRANCH   1  25
ATOM     25  C   UNL     1       5.076   3.502  -2.156  1.00  0.00     0.188 C 
BRANCH  25  26
ATOM     26  O   UNL     1       5.973   3.610  -3.235  1.00  0.00    -0.376 OA
BRANCH  26  27
ATOM     27  C   UNL     1       5.539   4.295  -4.396  1.00  0.00     0.202 C 
BRANCH  27  28
ATOM     28  C   UNL     1       4.857   5.673  -4.280  1.00  0.00     0.261 C 
BRANCH  28  29
ATOM     29  O   UNL     1       3.958   5.880  -3.179  1.00  0.00    -0.460 OA
BRANCH  29  30
ATOM     30  C   UNL     1       2.709   5.374  -3.293  1.00  0.00     0.338 C 
ATOM     31  O   UNL     1       2.264   4.738  -4.239  1.00  0.00    -0.246 OA
BRANCH  30  32
ATOM     32  C   UNL     1       2.039   5.507  -1.980  1.00  0.00     0.060 A 
ATOM     33  C   UNL     1       1.670   4.347  -1.280  1.00  0.00     0.016 A 
ATOM     34  C   UNL     1       1.781   6.766  -1.436  1.00  0.00     0.016 A 
ATOM     35  C   UNL     1       1.022   4.446  -0.046  1.00  0.00     0.010 A 
ATOM     36  C   UNL     1       1.109   6.863  -0.212  1.00  0.00     0.010 A 
ATOM     37  C   UNL     1       0.701   5.705   0.476  1.00  0.00    -0.014 A 
BRANCH  37  38
ATOM     38  C   UNL     1      -0.220   5.818   1.636  1.00  0.00     0.031 A 
ATOM     39  C   UNL     1      -1.671   6.121   1.371  1.00  0.00     0.074 A 
ATOM     40  C   UNL     1       0.212   5.651   2.900  1.00  0.00     0.049 A 
ATOM     41  N   UNL     1      -2.644   6.331   2.219  1.00  0.00    -0.248 NA
ATOM     42  C   UNL     1      -2.077   6.198  -0.043  1.00  0.00     0.031 C 
ATOM     43  C   UNL     1       1.578   5.307   3.291  1.00  0.00     0.029 A 
ATOM     44  N   UNL     1      -0.462   5.760   4.092  1.00  0.00    -0.354 N 
ATOM     45  C   UNL     1      -3.772   6.580   1.445  1.00  0.00     0.074 A 
ATOM     46  C   UNL     1      -3.357   6.520   0.060  1.00  0.00     0.031 C 
ATOM     47  C   UNL     1       1.644   5.245   4.634  1.00  0.00     0.029 A 
ATOM     48  C   UNL     1       0.338   5.585   5.197  1.00  0.00     0.049 A 
ATOM     49  H   UNL     1      -1.427   5.947   4.150  1.00  0.00     0.167 HD
ATOM     50  C   UNL     1      -5.040   6.834   1.848  1.00  0.00     0.031 A 
ATOM     51  C   UNL     1       0.055   5.711   6.510  1.00  0.00     0.031 A 
ATOM     52  C   UNL     1      -5.448   6.911   3.226  1.00  0.00     0.049 A 
ATOM     53  C   UNL     1      -1.345   6.078   6.936  1.00  0.00     0.074 A 
ATOM     54  C   UNL     1      -6.712   7.150   3.735  1.00  0.00     0.029 A 
ATOM     55  N   UNL     1      -4.601   6.761   4.314  1.00  0.00    -0.354 N 
ATOM     56  N   UNL     1      -2.407   6.288   6.192  1.00  0.00    -0.248 NA
ATOM     57  C   UNL     1      -1.587   6.218   8.379  1.00  0.00     0.031 C 
ATOM     58  C   UNL     1      -6.617   7.211   5.129  1.00  0.00     0.029 A 
ATOM     59  C   UNL     1      -5.309   6.933   5.491  1.00  0.00     0.049 A 
ATOM     60  H   UNL     1      -3.639   6.562   4.257  1.00  0.00     0.167 HD
ATOM     61  C   UNL     1      -3.447   6.550   7.080  1.00  0.00     0.074 A 
ATOM     62  C   UNL     1      -2.891   6.457   8.414  1.00  0.00     0.031 C 
ATOM     63  C   UNL     1      -4.746   6.837   6.815  1.00  0.00     0.031 A 
BRANCH  50  64
ATOM     64  C   UNL     1      -6.073   7.088   0.781  1.00  0.00    -0.014 A 
ATOM     65  C   UNL     1      -6.524   6.056  -0.062  1.00  0.00     0.010 A 
ATOM     66  C   UNL     1      -6.632   8.372   0.649  1.00  0.00     0.010 A 
ATOM     67  C   UNL     1      -7.487   6.313  -1.041  1.00  0.00     0.020 A 
ATOM     68  C   UNL     1      -7.619   8.626  -0.308  1.00  0.00     0.020 A 
ATOM     69  C   UNL     1      -8.029   7.597  -1.157  1.00  0.00     0.054 A 
BRANCH  69  70
ATOM     70  S   UNL     1      -9.299   7.893  -2.418  1.00  0.00     0.124 S 
ATOM     71  O   UNL     1      -8.522   7.814  -3.652  1.00  0.00    -0.237 OA
ATOM     72  O   UNL     1     -10.234   6.793  -2.193  1.00  0.00    -0.237 OA
ATOM     73  O   UNL     1      -9.812   9.220  -2.090  1.00  0.00    -0.744 OA
ENDBRANCH  69  70
ENDBRANCH  50  64
BRANCH  51  74
ATOM     74  C   UNL     1       1.126   5.511   7.529  1.00  0.00    -0.014 A 
ATOM     75  C   UNL     1       1.077   4.425   8.421  1.00  0.00     0.010 A 
ATOM     76  C   UNL     1       2.194   6.422   7.624  1.00  0.00     0.010 A 
ATOM     77  C   UNL     1       2.065   4.264   9.398  1.00  0.00     0.020 A 
ATOM     78  C   UNL     1       3.201   6.247   8.578  1.00  0.00     0.020 A 
ATOM     79  C   UNL     1       3.123   5.174   9.467  1.00  0.00     0.054 A 
BRANCH  79  80
ATOM     80  S   UNL     1       4.418   4.915  10.712  1.00  0.00     0.124 S 
ATOM     81  O   UNL     1       3.720   5.246  11.950  1.00  0.00    -0.237 OA
ATOM     82  O   UNL     1       4.751   3.505  10.529  1.00  0.00    -0.237 OA
ATOM     83  O   UNL     1       5.466   5.853  10.315  1.00  0.00    -0.744 OA
ENDBRANCH  79  80
ENDBRANCH  51  74
BRANCH  63  84
ATOM     84  C   UNL     1      -5.677   7.026   7.988  1.00  0.00    -0.014 A 
ATOM     85  C   UNL     1      -5.589   8.153   8.824  1.00  0.00     0.010 A 
ATOM     86  C   UNL     1      -6.695   6.082   8.221  1.00  0.00     0.010 A 
ATOM     87  C   UNL     1      -6.477   8.312   9.892  1.00  0.00     0.020 A 
ATOM     88  C   UNL     1      -7.605   6.254   9.266  1.00  0.00     0.020 A 
ATOM     89  C   UNL     1      -7.481   7.361  10.106  1.00  0.00     0.054 A 
BRANCH  89  90
ATOM     90  S   UNL     1      -8.643   7.611  11.476  1.00  0.00     0.124 S 
ATOM     91  O   UNL     1      -7.803   7.346  12.641  1.00  0.00    -0.237 OA
ATOM     92  O   UNL     1      -9.051   9.003  11.299  1.00  0.00    -0.237 OA
ATOM     93  O   UNL     1      -9.691   6.624  11.227  1.00  0.00    -0.744 OA
ENDBRANCH  89  90
ENDBRANCH  63  84
ENDBRANCH  37  38
ENDBRANCH  30  32
ENDBRANCH  29  30
ENDBRANCH  28  29
ENDBRANCH  27  28
ENDBRANCH  26  27
ENDBRANCH  25  26
ENDBRANCH   1  25
TORSDOF 23
