REMARK SMILES O=C(/C=C\c1ccc([N+](=O)[O-])cc1)OCCOCCOCCOC(=O)c1ccc(-c2c3nc(c(-c4ccc(S(=O)(=O)[O-])cc4)c4ccc([nH]4)c(-c4ccc(S(=O)(=O)[O-])cc4)c4nc(c(-c5ccc(S(=O)(=O)[O-])cc5)c5ccc2[nH]5)C=C4)C=C3)cc1
REMARK SMILES IDX 19 1 18 2 17 3 16 4 15 5 14 6 2 7 1 8 3 9 4 10 5 11 6 12
REMARK SMILES IDX 13 13 7 14 12 15 8 16 9 17 10 18 11 19 20 20 21 21 22 22
REMARK SMILES IDX 23 23 24 24 25 25 26 26 27 27 85 28 28 29 84 30 29 31 30 32
REMARK SMILES IDX 31 33 78 34 32 35 83 36 77 37 79 38 33 39 82 40 76 41 75 42
REMARK SMILES IDX 34 44 64 45 45 46 63 47 46 48 49 49 62 50 80 51 47 52 48 53
REMARK SMILES IDX 61 55 81 56 50 57 35 58 36 59 44 60 37 61 43 62 38 63 39 64
REMARK SMILES IDX 40 65 41 66 42 67 65 68 66 69 74 70 67 71 73 72 68 73 69 74
REMARK SMILES IDX 70 75 71 76 72 77 51 78 52 79 60 80 53 81 59 82 54 83 55 84
REMARK SMILES IDX 56 85 57 86 58 87
REMARK H PARENT 79 43 49 54
REMARK Flexibility Score: inf
ROOT
ATOM      1  C   UNL     1       1.419  -2.486  -1.889  1.00  0.00     0.188 C 
ENDROOT
BRANCH   1   2
ATOM      2  C   UNL     1       1.334  -0.952  -1.745  1.00  0.00     0.188 C 
BRANCH   2   3
ATOM      3  O   UNL     1       2.556  -0.242  -1.918  1.00  0.00    -0.376 OA
BRANCH   3   4
ATOM      4  C   UNL     1       3.558  -0.485  -0.933  1.00  0.00     0.202 C 
BRANCH   4   5
ATOM      5  C   UNL     1       3.069  -0.632   0.523  1.00  0.00     0.261 C 
BRANCH   5   6
ATOM      6  O   UNL     1       2.442   0.535   1.050  1.00  0.00    -0.460 OA
BRANCH   6   7
ATOM      7  C   UNL     1       3.008   1.748   1.123  1.00  0.00     0.330 C 
ATOM      8  O   UNL     1       2.303   2.717   1.403  1.00  0.00    -0.247 OA
BRANCH   7   9
ATOM      9  C   UNL     1       4.424   2.003   0.769  1.00  0.00     0.094 C 
ATOM     10  C   UNL     1       5.673   1.508   0.892  1.00  0.00     0.015 C 
BRANCH  10  11
ATOM     11  C   UNL     1       6.359   0.360   1.524  1.00  0.00    -0.025 A 
ATOM     12  C   UNL     1       7.385   0.657   2.434  1.00  0.00     0.015 A 
ATOM     13  C   UNL     1       6.213  -0.983   1.159  1.00  0.00     0.015 A 
ATOM     14  C   UNL     1       8.150  -0.354   3.035  1.00  0.00     0.086 A 
ATOM     15  C   UNL     1       6.901  -2.015   1.809  1.00  0.00     0.086 A 
ATOM     16  C   UNL     1       7.869  -1.693   2.755  1.00  0.00     0.269 A 
BRANCH  16  17
ATOM     17  N   UNL     1       8.607  -2.764   3.432  1.00  0.00     0.062 N 
ATOM     18  O   UNL     1       9.574  -2.443   4.137  1.00  0.00    -0.258 OA
ATOM     19  O   UNL     1       8.217  -3.929   3.262  1.00  0.00    -0.258 OA
ENDBRANCH  16  17
ENDBRANCH  10  11
ENDBRANCH   7   9
ENDBRANCH   6   7
ENDBRANCH   5   6
ENDBRANCH   4   5
ENDBRANCH   3   4
ENDBRANCH   2   3
ENDBRANCH   1   2
BRANCH   1  20
ATOM     20  O   UNL     1       2.506  -3.018  -1.151  1.00  0.00    -0.376 OA
BRANCH  20  21
ATOM     21  C   UNL     1       3.499  -3.809  -1.790  1.00  0.00     0.202 C 
BRANCH  21  22
ATOM     22  C   UNL     1       4.050  -3.543  -3.209  1.00  0.00     0.261 C 
BRANCH  22  23
ATOM     23  O   UNL     1       3.656  -2.331  -3.851  1.00  0.00    -0.460 OA
BRANCH  23  24
ATOM     24  C   UNL     1       2.806  -2.483  -4.898  1.00  0.00     0.338 C 
ATOM     25  O   UNL     1       2.299  -3.521  -5.295  1.00  0.00    -0.246 OA
BRANCH  24  26
ATOM     26  C   UNL     1       2.438  -1.154  -5.398  1.00  0.00     0.060 A 
ATOM     27  C   UNL     1       1.158  -0.666  -5.115  1.00  0.00     0.016 A 
ATOM     28  C   UNL     1       3.342  -0.406  -6.149  1.00  0.00     0.016 A 
ATOM     29  C   UNL     1       0.802   0.619  -5.511  1.00  0.00     0.010 A 
ATOM     30  C   UNL     1       2.960   0.857  -6.603  1.00  0.00     0.010 A 
ATOM     31  C   UNL     1       1.694   1.375  -6.277  1.00  0.00    -0.014 A 
BRANCH  31  32
ATOM     32  C   UNL     1       1.244   2.644  -6.885  1.00  0.00     0.031 A 
ATOM     33  C   UNL     1       0.560   2.584  -8.219  1.00  0.00     0.074 A 
ATOM     34  C   UNL     1       1.468   3.819  -6.270  1.00  0.00     0.049 A 
ATOM     35  N   UNL     1       0.186   3.562  -8.997  1.00  0.00    -0.248 NA
ATOM     36  C   UNL     1       0.261   1.241  -8.748  1.00  0.00     0.031 C 
ATOM     37  C   UNL     1       2.065   3.982  -4.944  1.00  0.00     0.029 A 
ATOM     38  N   UNL     1       1.238   5.103  -6.696  1.00  0.00    -0.354 N 
ATOM     39  C   UNL     1      -0.377   2.957 -10.113  1.00  0.00     0.074 A 
ATOM     40  C   UNL     1      -0.299   1.527  -9.914  1.00  0.00     0.031 C 
ATOM     41  C   UNL     1       2.191   5.295  -4.682  1.00  0.00     0.029 A 
ATOM     42  C   UNL     1       1.722   6.061  -5.835  1.00  0.00     0.049 A 
ATOM     43  H   UNL     1       0.772   5.317  -7.536  1.00  0.00     0.167 HD
ATOM     44  C   UNL     1      -0.897   3.546 -11.212  1.00  0.00     0.031 A 
ATOM     45  C   UNL     1       1.815   7.398  -5.989  1.00  0.00     0.031 A 
ATOM     46  C   UNL     1      -0.945   4.969 -11.408  1.00  0.00     0.049 A 
ATOM     47  C   UNL     1       1.311   8.020  -7.270  1.00  0.00     0.074 A 
ATOM     48  C   UNL     1      -1.477   5.668 -12.475  1.00  0.00     0.029 A 
ATOM     49  N   UNL     1      -0.425   5.906 -10.530  1.00  0.00    -0.354 N 
ATOM     50  N   UNL     1       0.730   7.442  -8.296  1.00  0.00    -0.248 NA
ATOM     51  C   UNL     1       1.478   9.473  -7.417  1.00  0.00     0.031 C 
ATOM     52  C   UNL     1      -1.210   7.025 -12.279  1.00  0.00     0.029 A 
ATOM     53  C   UNL     1      -0.577   7.177 -11.055  1.00  0.00     0.049 A 
ATOM     54  H   UNL     1      -0.009   5.699  -9.662  1.00  0.00     0.167 HD
ATOM     55  C   UNL     1       0.446   8.463  -9.197  1.00  0.00     0.074 A 
ATOM     56  C   UNL     1       0.893   9.697  -8.585  1.00  0.00     0.031 C 
ATOM     57  C   UNL     1      -0.127   8.391 -10.424  1.00  0.00     0.031 A 
BRANCH  44  58
ATOM     58  C   UNL     1      -1.406   2.662 -12.315  1.00  0.00    -0.014 A 
ATOM     59  C   UNL     1      -2.615   1.957 -12.189  1.00  0.00     0.010 A 
ATOM     60  C   UNL     1      -0.702   2.609 -13.532  1.00  0.00     0.010 A 
ATOM     61  C   UNL     1      -3.110   1.212 -13.263  1.00  0.00     0.020 A 
ATOM     62  C   UNL     1      -1.206   1.886 -14.615  1.00  0.00     0.020 A 
ATOM     63  C   UNL     1      -2.407   1.190 -14.472  1.00  0.00     0.054 A 
BRANCH  63  64
ATOM     64  S   UNL     1      -3.119   0.286 -15.874  1.00  0.00     0.124 S 
ATOM     65  O   UNL     1      -2.975  -1.102 -15.443  1.00  0.00    -0.237 OA
ATOM     66  O   UNL     1      -4.489   0.792 -15.915  1.00  0.00    -0.237 OA
ATOM     67  O   UNL     1      -2.279   0.677 -17.003  1.00  0.00    -0.744 OA
ENDBRANCH  63  64
ENDBRANCH  44  58
BRANCH  45  68
ATOM     68  C   UNL     1       2.478   8.238  -4.951  1.00  0.00    -0.014 A 
ATOM     69  C   UNL     1       1.762   9.223  -4.247  1.00  0.00     0.010 A 
ATOM     70  C   UNL     1       3.856   8.094  -4.701  1.00  0.00     0.010 A 
ATOM     71  C   UNL     1       2.417  10.071  -3.347  1.00  0.00     0.020 A 
ATOM     72  C   UNL     1       4.508   8.916  -3.778  1.00  0.00     0.020 A 
ATOM     73  C   UNL     1       3.788   9.914  -3.121  1.00  0.00     0.054 A 
BRANCH  73  74
ATOM     74  S   UNL     1       4.618  11.021  -1.947  1.00  0.00     0.124 S 
ATOM     75  O   UNL     1       4.654  12.277  -2.688  1.00  0.00    -0.237 OA
ATOM     76  O   UNL     1       3.722  10.989  -0.795  1.00  0.00    -0.237 OA
ATOM     77  O   UNL     1       5.915  10.381  -1.735  1.00  0.00    -0.744 OA
ENDBRANCH  73  74
ENDBRANCH  45  68
BRANCH  57  78
ATOM     78  C   UNL     1      -0.325   9.677 -11.182  1.00  0.00    -0.014 A 
ATOM     79  C   UNL     1       0.766  10.363 -11.744  1.00  0.00     0.010 A 
ATOM     80  C   UNL     1      -1.628  10.159 -11.406  1.00  0.00     0.010 A 
ATOM     81  C   UNL     1       0.558  11.520 -12.500  1.00  0.00     0.020 A 
ATOM     82  C   UNL     1      -1.842  11.296 -12.189  1.00  0.00     0.020 A 
ATOM     83  C   UNL     1      -0.745  11.976 -12.722  1.00  0.00     0.054 A 
BRANCH  83  84
ATOM     84  S   UNL     1      -0.989  13.442 -13.761  1.00  0.00     0.124 S 
ATOM     85  O   UNL     1      -0.488  14.511 -12.901  1.00  0.00    -0.237 OA
ATOM     86  O   UNL     1      -0.169  13.142 -14.933  1.00  0.00    -0.237 OA
ATOM     87  O   UNL     1      -2.429  13.461 -14.003  1.00  0.00    -0.744 OA
ENDBRANCH  83  84
ENDBRANCH  57  78
ENDBRANCH  31  32
ENDBRANCH  24  26
ENDBRANCH  23  24
ENDBRANCH  22  23
ENDBRANCH  21  22
ENDBRANCH  20  21
ENDBRANCH   1  20
TORSDOF 22
