REMARK SMILES C[C@@](NC(=O)CCOC1CC[NH2+]CC1)(C(=O)OCCOCCOCCOC(=O)c1ccc(-c2c3nc(c(-c4ccc(S(=O)(=O)[O-])cc4)c4ccc([nH]4)c(-c4ccc(S(=O)(=O)[O-])cc4)c4nc(c(-c5ccc(S(=O)(=O)[O-])cc5)c5ccc2[nH]5)C=C4)C=C3)cc1)C(F)(F)F
REMARK SMILES IDX 21 1 20 2 19 3 18 4 17 5 15 6 16 7 2 8 1 9 3 10 4 11 5 13
REMARK SMILES IDX 6 14 7 15 8 16 9 17 10 18 14 19 11 20 13 21 12 22 89 25
REMARK SMILES IDX 90 26 91 27 92 28 22 29 23 30 24 31 25 32 26 33 27 34 28 35
REMARK SMILES IDX 29 36 30 37 88 38 31 39 87 40 32 41 33 42 34 43 81 44 35 45
REMARK SMILES IDX 86 46 80 47 82 48 36 49 85 50 79 51 78 52 37 54 67 55 48 56
REMARK SMILES IDX 66 57 49 58 52 59 65 60 83 61 50 62 51 63 64 65 84 66 53 67
REMARK SMILES IDX 38 68 39 69 47 70 40 71 46 72 41 73 42 74 43 75 44 76 45 77
REMARK SMILES IDX 68 78 69 79 77 80 70 81 76 82 71 83 72 84 73 85 74 86 75 87
REMARK SMILES IDX 54 88 55 89 63 90 56 91 62 92 57 93 58 94 59 95 60 96 61 97
REMARK H PARENT 3 12 12 23 12 24 82 53 52 64
REMARK Flexibility Score: inf
ROOT
ATOM      1  C   UNL     1      -2.541  -0.058   2.653  1.00  0.00     0.188 C 
ENDROOT
BRANCH   1   2
ATOM      2  O   UNL     1      -3.849   0.231   2.195  1.00  0.00    -0.376 OA
BRANCH   2   3
ATOM      3  C   UNL     1      -3.946   1.020   1.018  1.00  0.00     0.202 C 
BRANCH   3   4
ATOM      4  C   UNL     1      -2.941   2.170   0.886  1.00  0.00     0.261 C 
BRANCH   4   5
ATOM      5  O   UNL     1      -1.648   1.666   0.483  1.00  0.00    -0.461 OA
BRANCH   5   6
ATOM      6  C   UNL     1      -0.443   2.023   1.008  1.00  0.00     0.341 C 
ATOM      7  O   UNL     1      -0.353   2.488   2.134  1.00  0.00    -0.249 OA
BRANCH   6   8
ATOM      8  C   UNL     1       0.791   1.722  -0.021  1.00  0.00     0.231 C 
ATOM      9  C   UNL     1       1.319   0.268   0.140  1.00  0.00     0.058 C 
BRANCH   8  10
ATOM     10  N   UNL     1       0.833   2.111  -1.780  1.00  0.00    -0.333 N 
ATOM     11  C   UNL     1      -0.003   2.550  -3.390  1.00  0.00     0.223 C 
ATOM     12  H   UNL     1       1.790   2.072  -2.010  1.00  0.00     0.164 HD
ATOM     13  O   UNL     1       0.586   2.943  -4.435  1.00  0.00    -0.275 OA
BRANCH  11  14
ATOM     14  C   UNL     1      -1.624   2.615  -3.771  1.00  0.00     0.128 C 
BRANCH  14  15
ATOM     15  C   UNL     1      -2.415   1.356  -3.648  1.00  0.00     0.170 C 
BRANCH  15  16
ATOM     16  O   UNL     1      -2.307   0.983  -2.309  1.00  0.00    -0.377 OA
BRANCH  16  17
ATOM     17  C   UNL     1      -0.987   1.310  -1.893  1.00  0.00     0.129 C 
ATOM     18  C   UNL     1      -0.753   3.272  -1.496  1.00  0.00     0.093 C 
ATOM     19  C   UNL     1       0.386   0.434  -2.958  1.00  0.00     0.093 C 
ATOM     20  C   UNL     1       0.879   4.130  -2.150  1.00  0.00     0.263 C 
ATOM     21  C   UNL     1       1.982   1.380  -3.399  1.00  0.00     0.263 C 
ATOM     22  N   UNL     1       2.277   3.148  -2.898  1.00  0.00    -0.346 N 
ATOM     23  H   UNL     1       3.034   3.141  -2.215  1.00  0.00     0.346 HD
ATOM     24  H   UNL     1       2.459   3.623  -3.782  1.00  0.00     0.346 HD
ENDBRANCH  16  17
ENDBRANCH  15  16
ENDBRANCH  14  15
ENDBRANCH  11  14
ENDBRANCH   8  10
BRANCH   8  25
ATOM     25  C   UNL     1       1.915   2.570   0.682  1.00  0.00     0.422 C 
ATOM     26  F   UNL     1       2.182   2.138   1.937  1.00  0.00    -0.168 F 
ATOM     27  F   UNL     1       3.079   2.461  -0.005  1.00  0.00    -0.168 F 
ATOM     28  F   UNL     1       1.609   3.881   0.747  1.00  0.00    -0.168 F 
ENDBRANCH   8  25
ENDBRANCH   6   8
ENDBRANCH   5   6
ENDBRANCH   4   5
ENDBRANCH   3   4
ENDBRANCH   2   3
ENDBRANCH   1   2
BRANCH   1  29
ATOM     29  C   UNL     1      -1.637  -0.929   1.758  1.00  0.00     0.188 C 
BRANCH  29  30
ATOM     30  O   UNL     1      -2.142  -1.562   0.606  1.00  0.00    -0.376 OA
BRANCH  30  31
ATOM     31  C   UNL     1      -3.213  -2.478   0.751  1.00  0.00     0.202 C 
BRANCH  31  32
ATOM     32  C   UNL     1      -3.360  -3.404   1.982  1.00  0.00     0.261 C 
BRANCH  32  33
ATOM     33  O   UNL     1      -2.973  -2.863   3.258  1.00  0.00    -0.460 OA
BRANCH  33  34
ATOM     34  C   UNL     1      -1.806  -3.319   3.784  1.00  0.00     0.338 C 
ATOM     35  O   UNL     1      -1.108  -4.223   3.324  1.00  0.00    -0.246 OA
BRANCH  34  36
ATOM     36  C   UNL     1      -1.316  -2.364   4.814  1.00  0.00     0.060 A 
ATOM     37  C   UNL     1      -0.032  -1.809   4.652  1.00  0.00     0.016 A 
ATOM     38  C   UNL     1      -2.125  -1.936   5.869  1.00  0.00     0.016 A 
ATOM     39  C   UNL     1       0.457  -0.863   5.556  1.00  0.00     0.010 A 
ATOM     40  C   UNL     1      -1.621  -1.012   6.796  1.00  0.00     0.010 A 
ATOM     41  C   UNL     1      -0.310  -0.510   6.672  1.00  0.00    -0.014 A 
BRANCH  41  42
ATOM     42  C   UNL     1       0.373   0.082   7.855  1.00  0.00     0.031 A 
ATOM     43  C   UNL     1       0.873  -0.884   8.903  1.00  0.00     0.074 A 
ATOM     44  C   UNL     1       0.595   1.401   8.004  1.00  0.00     0.049 A 
ATOM     45  N   UNL     1       1.487  -0.649  10.033  1.00  0.00    -0.248 NA
ATOM     46  C   UNL     1       0.642  -2.315   8.632  1.00  0.00     0.031 C 
ATOM     47  C   UNL     1       0.236   2.444   7.046  1.00  0.00     0.029 A 
ATOM     48  N   UNL     1       1.191   2.086   9.038  1.00  0.00    -0.354 N 
ATOM     49  C   UNL     1       1.700  -1.897  10.610  1.00  0.00     0.074 A 
ATOM     50  C   UNL     1       1.123  -2.882   9.724  1.00  0.00     0.031 C 
ATOM     51  C   UNL     1       0.616   3.639   7.540  1.00  0.00     0.029 A 
ATOM     52  C   UNL     1       1.219   3.450   8.861  1.00  0.00     0.049 A 
ATOM     53  H   UNL     1       1.563   1.641   9.834  1.00  0.00     0.167 HD
ATOM     54  C   UNL     1       2.324  -2.206  11.770  1.00  0.00     0.031 A 
ATOM     55  C   UNL     1       1.669   4.430   9.674  1.00  0.00     0.031 A 
ATOM     56  C   UNL     1       2.885  -1.233  12.666  1.00  0.00     0.049 A 
ATOM     57  C   UNL     1       2.278   4.069  11.010  1.00  0.00     0.074 A 
ATOM     58  C   UNL     1       3.547  -1.448  13.861  1.00  0.00     0.029 A 
ATOM     59  N   UNL     1       2.838   0.138  12.473  1.00  0.00    -0.354 N 
ATOM     60  N   UNL     1       2.494   2.884  11.531  1.00  0.00    -0.248 NA
ATOM     61  C   UNL     1       2.715   5.185  11.864  1.00  0.00     0.031 C 
ATOM     62  C   UNL     1       3.840  -0.203  14.426  1.00  0.00     0.029 A 
ATOM     63  C   UNL     1       3.430   0.785  13.544  1.00  0.00     0.049 A 
ATOM     64  H   UNL     1       2.443   0.586  11.691  1.00  0.00     0.167 HD
ATOM     65  C   UNL     1       3.130   3.112  12.750  1.00  0.00     0.074 A 
ATOM     66  C   UNL     1       3.269   4.546  12.886  1.00  0.00     0.031 C 
ATOM     67  C   UNL     1       3.567   2.215  13.670  1.00  0.00     0.031 A 
BRANCH  54  68
ATOM     68  C   UNL     1       2.375  -3.661  12.158  1.00  0.00    -0.014 A 
ATOM     69  C   UNL     1       3.161  -4.586  11.446  1.00  0.00     0.010 A 
ATOM     70  C   UNL     1       1.621  -4.107  13.258  1.00  0.00     0.010 A 
ATOM     71  C   UNL     1       3.152  -5.938  11.797  1.00  0.00     0.020 A 
ATOM     72  C   UNL     1       1.637  -5.452  13.634  1.00  0.00     0.020 A 
ATOM     73  C   UNL     1       2.388  -6.363  12.888  1.00  0.00     0.054 A 
BRANCH  73  74
ATOM     74  S   UNL     1       2.402  -8.121  13.329  1.00  0.00     0.124 S 
ATOM     75  O   UNL     1       1.631  -8.712  12.237  1.00  0.00    -0.237 OA
ATOM     76  O   UNL     1       3.828  -8.438  13.333  1.00  0.00    -0.237 OA
ATOM     77  O   UNL     1       1.755  -8.157  14.638  1.00  0.00    -0.744 OA
ENDBRANCH  73  74
ENDBRANCH  54  68
BRANCH  55  78
ATOM     78  C   UNL     1       1.563   5.861   9.263  1.00  0.00    -0.014 A 
ATOM     79  C   UNL     1       2.718   6.620   8.998  1.00  0.00     0.010 A 
ATOM     80  C   UNL     1       0.305   6.485   9.166  1.00  0.00     0.010 A 
ATOM     81  C   UNL     1       2.619   7.974   8.660  1.00  0.00     0.020 A 
ATOM     82  C   UNL     1       0.201   7.831   8.800  1.00  0.00     0.020 A 
ATOM     83  C   UNL     1       1.360   8.571   8.559  1.00  0.00     0.054 A 
BRANCH  83  84
ATOM     84  S   UNL     1       1.254  10.316   8.069  1.00  0.00     0.124 S 
ATOM     85  O   UNL     1       1.761  10.998   9.255  1.00  0.00    -0.237 OA
ATOM     86  O   UNL     1       2.118  10.365   6.892  1.00  0.00    -0.237 OA
ATOM     87  O   UNL     1      -0.169  10.509   7.796  1.00  0.00    -0.744 OA
ENDBRANCH  83  84
ENDBRANCH  55  78
BRANCH  67  88
ATOM     88  C   UNL     1       4.289   2.744  14.884  1.00  0.00    -0.014 A 
ATOM     89  C   UNL     1       3.620   3.466  15.889  1.00  0.00     0.010 A 
ATOM     90  C   UNL     1       5.660   2.465  15.046  1.00  0.00     0.010 A 
ATOM     91  C   UNL     1       4.317   3.935  17.007  1.00  0.00     0.020 A 
ATOM     92  C   UNL     1       6.353   2.903  16.177  1.00  0.00     0.020 A 
ATOM     93  C   UNL     1       5.680   3.652  17.143  1.00  0.00     0.054 A 
BRANCH  93  94
ATOM     94  S   UNL     1       6.555   4.250  18.615  1.00  0.00     0.124 S 
ATOM     95  O   UNL     1       6.644   5.684  18.355  1.00  0.00    -0.237 OA
ATOM     96  O   UNL     1       5.658   3.863  19.701  1.00  0.00    -0.237 OA
ATOM     97  O   UNL     1       7.827   3.531  18.579  1.00  0.00    -0.744 OA
ENDBRANCH  93  94
ENDBRANCH  67  88
ENDBRANCH  41  42
ENDBRANCH  34  36
ENDBRANCH  33  34
ENDBRANCH  32  33
ENDBRANCH  31  32
ENDBRANCH  30  31
ENDBRANCH  29  30
ENDBRANCH   1  29
TORSDOF 26
