REMARK SMILES CCc1ccc2[nH]c(C(=O)c3cc(C)ccn3)c(CC(=O)OCCOCCOCCOC(=O)c3ccc(-c4c5nc(c(-c6ccc(S(=O)(=O)[O-])cc6)c6ccc([nH]6)c(-c6ccc(S(=O)(=O)[O-])cc6)c6nc(c(-c7ccc(S(=O)(=O)[O-])cc7)c7ccc4[nH]7)C=C6)C=C5)cc3)c2c1
REMARK SMILES IDX 26 1 25 2 24 3 23 4 22 5 20 6 21 7 19 8 18 9 3 10 4 11 95 12
REMARK SMILES IDX 5 13 94 14 6 15 7 16 8 17 2 19 1 20 9 21 10 22 11 23 12 24
REMARK SMILES IDX 17 25 13 26 16 27 14 28 15 29 27 30 28 31 29 32 30 33 31 34
REMARK SMILES IDX 32 35 33 36 34 37 35 38 93 39 36 40 92 41 37 42 38 43 39 44
REMARK SMILES IDX 86 45 40 46 91 47 85 48 87 49 41 50 90 51 84 52 83 53 42 55
REMARK SMILES IDX 72 56 53 57 71 58 54 59 57 60 70 61 88 62 55 63 56 64 69 66
REMARK SMILES IDX 89 67 58 68 43 69 44 70 52 71 45 72 51 73 46 74 47 75 48 76
REMARK SMILES IDX 49 77 50 78 73 79 74 80 82 81 75 82 81 83 76 84 77 85 78 86
REMARK SMILES IDX 79 87 80 88 59 89 60 90 68 91 61 92 67 93 62 94 63 95 64 96
REMARK SMILES IDX 65 97 66 98
REMARK H PARENT 7 18 87 54 57 65
REMARK Flexibility Score: inf
ROOT
ATOM      1  C   UNL     1       2.876  -3.273   7.465  1.00  0.00     0.188 C 
ENDROOT
BRANCH   1   2
ATOM      2  O   UNL     1       2.362  -2.208   8.263  1.00  0.00    -0.376 OA
BRANCH   2   3
ATOM      3  C   UNL     1       1.274  -1.451   7.748  1.00  0.00     0.202 C 
BRANCH   3   4
ATOM      4  C   UNL     1       1.536  -0.720   6.426  1.00  0.00     0.261 C 
BRANCH   4   5
ATOM      5  O   UNL     1       1.891  -1.638   5.370  1.00  0.00    -0.463 OA
BRANCH   5   6
ATOM      6  C   UNL     1       2.849  -1.230   4.497  1.00  0.00     0.310 C 
ATOM      7  O   UNL     1       3.210  -0.062   4.391  1.00  0.00    -0.252 OA
BRANCH   6   8
ATOM      8  C   UNL     1       3.558  -2.381   3.789  1.00  0.00     0.161 C 
BRANCH   8   9
ATOM      9  C   UNL     1       2.708  -3.450   3.140  1.00  0.00     0.000 A 
ATOM     10  C   UNL     1       0.526  -2.197   0.252  1.00  0.00    -0.048 A 
ATOM     11  C   UNL     1       0.054  -3.467  -0.113  1.00  0.00     0.006 A 
ATOM     12  C   UNL     1       1.344  -2.072   1.387  1.00  0.00     0.014 A 
ATOM     13  C   UNL     1       0.386  -4.616   0.612  1.00  0.00     0.027 A 
ATOM     14  C   UNL     1       1.752  -3.222   2.095  1.00  0.00     0.004 A 
ATOM     15  C   UNL     1       1.256  -4.457   1.692  1.00  0.00     0.046 A 
ATOM     16  N   UNL     1       1.817  -5.399   2.517  1.00  0.00    -0.352 N 
ATOM     17  C   UNL     1       2.868  -4.843   3.214  1.00  0.00     0.093 A 
ATOM     18  H   UNL     1       1.515  -6.332   2.598  1.00  0.00     0.167 HD
BRANCH  10  19
ATOM     19  C   UNL     1       0.181  -1.027  -0.642  1.00  0.00     0.032 C 
ATOM     20  C   UNL     1       0.719   0.335  -0.223  1.00  0.00     0.009 C 
ENDBRANCH  10  19
BRANCH  17  21
ATOM     21  C   UNL     1       3.948  -5.627   3.797  1.00  0.00     0.227 C 
ATOM     22  O   UNL     1       5.028  -5.139   4.116  1.00  0.00    -0.285 OA
BRANCH  21  23
ATOM     23  C   UNL     1       3.769  -7.099   3.975  1.00  0.00     0.113 A 
ATOM     24  C   UNL     1       4.343  -7.995   3.077  1.00  0.00     0.036 A 
ATOM     25  N   UNL     1       3.081  -7.474   5.084  1.00  0.00    -0.253 NA
ATOM     26  C   UNL     1       4.235  -9.364   3.348  1.00  0.00    -0.047 A 
ATOM     27  C   UNL     1       3.059  -8.798   5.355  1.00  0.00     0.112 A 
ATOM     28  C   UNL     1       4.784 -10.408   2.420  1.00  0.00     0.044 C 
ATOM     29  C   UNL     1       3.617  -9.764   4.535  1.00  0.00     0.023 A 
ENDBRANCH  21  23
ENDBRANCH  17  21
ENDBRANCH   8   9
ENDBRANCH   6   8
ENDBRANCH   5   6
ENDBRANCH   4   5
ENDBRANCH   3   4
ENDBRANCH   2   3
ENDBRANCH   1   2
BRANCH   1  30
ATOM     30  C   UNL     1       1.880  -4.177   6.704  1.00  0.00     0.188 C 
BRANCH  30  31
ATOM     31  O   UNL     1       0.610  -4.286   7.335  1.00  0.00    -0.376 OA
BRANCH  31  32
ATOM     32  C   UNL     1       0.315  -5.584   7.831  1.00  0.00     0.202 C 
BRANCH  32  33
ATOM     33  C   UNL     1       1.147  -5.928   9.065  1.00  0.00     0.261 C 
BRANCH  33  34
ATOM     34  O   UNL     1       2.555  -6.008   8.751  1.00  0.00    -0.460 OA
BRANCH  34  35
ATOM     35  C   UNL     1       3.093  -7.227   8.580  1.00  0.00     0.338 C 
ATOM     36  O   UNL     1       2.505  -8.301   8.714  1.00  0.00    -0.246 OA
BRANCH  35  37
ATOM     37  C   UNL     1       4.537  -7.127   8.253  1.00  0.00     0.060 A 
ATOM     38  C   UNL     1       5.027  -6.274   7.258  1.00  0.00     0.016 A 
ATOM     39  C   UNL     1       5.421  -7.992   8.894  1.00  0.00     0.016 A 
ATOM     40  C   UNL     1       6.371  -6.324   6.866  1.00  0.00     0.010 A 
ATOM     41  C   UNL     1       6.778  -7.994   8.548  1.00  0.00     0.010 A 
ATOM     42  C   UNL     1       7.269  -7.176   7.513  1.00  0.00    -0.014 A 
BRANCH  42  43
ATOM     43  C   UNL     1       8.708  -7.259   7.125  1.00  0.00     0.031 A 
ATOM     44  C   UNL     1       9.287  -8.576   6.674  1.00  0.00     0.074 A 
ATOM     45  C   UNL     1       9.521  -6.189   7.228  1.00  0.00     0.049 A 
ATOM     46  N   UNL     1      10.540  -8.943   6.582  1.00  0.00    -0.248 NA
ATOM     47  C   UNL     1       8.326  -9.620   6.283  1.00  0.00     0.031 C 
ATOM     48  C   UNL     1       9.105  -4.826   7.559  1.00  0.00     0.029 A 
ATOM     49  N   UNL     1      10.887  -6.091   7.088  1.00  0.00    -0.354 N 
ATOM     50  C   UNL     1      10.519 -10.276   6.187  1.00  0.00     0.074 A 
ATOM     51  C   UNL     1       9.127 -10.649   6.043  1.00  0.00     0.031 C 
ATOM     52  C   UNL     1      10.187  -4.033   7.604  1.00  0.00     0.029 A 
ATOM     53  C   UNL     1      11.382  -4.844   7.396  1.00  0.00     0.049 A 
ATOM     54  H   UNL     1      11.455  -6.840   6.795  1.00  0.00     0.167 HD
ATOM     55  C   UNL     1      11.564 -11.114   5.981  1.00  0.00     0.031 A 
ATOM     56  C   UNL     1      12.648  -4.410   7.559  1.00  0.00     0.031 A 
ATOM     57  C   UNL     1      12.949 -10.732   6.096  1.00  0.00     0.049 A 
ATOM     58  C   UNL     1      13.791  -5.380   7.410  1.00  0.00     0.074 A 
ATOM     59  C   UNL     1      14.075 -11.512   5.891  1.00  0.00     0.029 A 
ATOM     60  N   UNL     1      13.399  -9.468   6.442  1.00  0.00    -0.354 N 
ATOM     61  N   UNL     1      13.759  -6.650   7.087  1.00  0.00    -0.248 NA
ATOM     62  C   UNL     1      15.142  -4.857   7.665  1.00  0.00     0.031 C 
ATOM     63  C   UNL     1      15.205 -10.735   6.168  1.00  0.00     0.029 A 
ATOM     64  C   UNL     1      14.784  -9.454   6.484  1.00  0.00     0.049 A 
ATOM     65  H   UNL     1      12.821  -8.694   6.630  1.00  0.00     0.167 HD
ATOM     66  C   UNL     1      15.086  -7.070   7.075  1.00  0.00     0.074 A 
ATOM     67  C   UNL     1      15.895  -5.918   7.409  1.00  0.00     0.031 C 
ATOM     68  C   UNL     1      15.586  -8.303   6.811  1.00  0.00     0.031 A 
BRANCH  55  69
ATOM     69  C   UNL     1      11.260 -12.556   5.666  1.00  0.00    -0.014 A 
ATOM     70  C   UNL     1      10.771 -12.954   4.410  1.00  0.00     0.010 A 
ATOM     71  C   UNL     1      11.535 -13.540   6.636  1.00  0.00     0.010 A 
ATOM     72  C   UNL     1      10.533 -14.306   4.142  1.00  0.00     0.020 A 
ATOM     73  C   UNL     1      11.323 -14.893   6.363  1.00  0.00     0.020 A 
ATOM     74  C   UNL     1      10.808 -15.266   5.122  1.00  0.00     0.054 A 
BRANCH  74  75
ATOM     75  S   UNL     1      10.508 -17.014   4.738  1.00  0.00     0.124 S 
ATOM     76  O   UNL     1       9.049 -17.078   4.754  1.00  0.00    -0.237 OA
ATOM     77  O   UNL     1      11.128 -17.165   3.424  1.00  0.00    -0.237 OA
ATOM     78  O   UNL     1      11.175 -17.728   5.824  1.00  0.00    -0.744 OA
ENDBRANCH  74  75
ENDBRANCH  55  69
BRANCH  56  79
ATOM     79  C   UNL     1      12.907  -2.998   7.959  1.00  0.00    -0.014 A 
ATOM     80  C   UNL     1      13.549  -2.110   7.079  1.00  0.00     0.010 A 
ATOM     81  C   UNL     1      12.524  -2.538   9.234  1.00  0.00     0.010 A 
ATOM     82  C   UNL     1      13.821  -0.796   7.472  1.00  0.00     0.020 A 
ATOM     83  C   UNL     1      12.764  -1.216   9.618  1.00  0.00     0.020 A 
ATOM     84  C   UNL     1      13.425  -0.357   8.739  1.00  0.00     0.054 A 
BRANCH  84  85
ATOM     85  S   UNL     1      13.754   1.362   9.215  1.00  0.00     0.124 S 
ATOM     86  O   UNL     1      15.189   1.334   9.479  1.00  0.00    -0.237 OA
ATOM     87  O   UNL     1      13.343   2.105   8.026  1.00  0.00    -0.237 OA
ATOM     88  O   UNL     1      12.905   1.560  10.388  1.00  0.00    -0.744 OA
ENDBRANCH  84  85
ENDBRANCH  56  79
BRANCH  68  89
ATOM     89  C   UNL     1      17.084  -8.463   6.824  1.00  0.00    -0.014 A 
ATOM     90  C   UNL     1      17.813  -8.454   8.026  1.00  0.00     0.010 A 
ATOM     91  C   UNL     1      17.768  -8.673   5.612  1.00  0.00     0.010 A 
ATOM     92  C   UNL     1      19.201  -8.619   8.013  1.00  0.00     0.020 A 
ATOM     93  C   UNL     1      19.152  -8.866   5.596  1.00  0.00     0.020 A 
ATOM     94  C   UNL     1      19.862  -8.823   6.797  1.00  0.00     0.054 A 
BRANCH  94  95
ATOM     95  S   UNL     1      21.659  -9.077   6.809  1.00  0.00     0.124 S 
ATOM     96  O   UNL     1      22.155  -7.729   7.073  1.00  0.00    -0.237 OA
ATOM     97  O   UNL     1      21.841 -10.037   7.894  1.00  0.00    -0.237 OA
ATOM     98  O   UNL     1      21.945  -9.595   5.473  1.00  0.00    -0.744 OA
ENDBRANCH  94  95
ENDBRANCH  68  89
ENDBRANCH  42  43
ENDBRANCH  35  37
ENDBRANCH  34  35
ENDBRANCH  33  34
ENDBRANCH  32  33
ENDBRANCH  31  32
ENDBRANCH  30  31
ENDBRANCH   1  30
TORSDOF 24
