REMARK SMILES C[C@@H](C(=O)OCCOCCOCCOC(=O)c1ccc(-c2c3nc(c(-c4ccc(S(=O)(=O)[O-])cc4)c4ccc([nH]4)c(-c4ccc(S(=O)(=O)[O-])cc4)c4nc(c(-c5ccc(S(=O)(=O)[O-])cc5)c5ccc2[nH]5)C=C4)C=C3)cc1)c1ccc2c3cc(Cl)ccc3n(C(=O)c3cocn3)c2c1
REMARK SMILES IDX 9 1 8 2 7 3 6 4 5 5 3 6 4 7 2 8 1 9 77 10 78 11 97 12 79 13
REMARK SMILES IDX 96 14 80 15 88 16 81 17 87 18 82 19 86 20 83 21 85 22 84 23
REMARK SMILES IDX 89 24 90 25 91 26 92 27 95 28 93 29 94 30 10 31 11 32 12 33
REMARK SMILES IDX 13 34 14 35 15 36 16 37 17 38 18 39 76 40 19 41 75 42 20 43
REMARK SMILES IDX 21 44 22 45 69 46 23 47 74 48 68 49 70 50 24 51 73 52 67 53
REMARK SMILES IDX 66 54 25 56 55 57 36 58 54 59 37 60 40 61 53 62 71 63 38 64
REMARK SMILES IDX 39 65 52 67 72 68 41 69 26 70 27 71 35 72 28 73 34 74 29 75
REMARK SMILES IDX 30 76 31 77 32 78 33 79 56 80 57 81 65 82 58 83 64 84 59 85
REMARK SMILES IDX 60 86 61 87 62 88 63 89 42 90 43 91 51 92 44 93 50 94 45 95
REMARK SMILES IDX 46 96 47 97 48 98 49 99
REMARK H PARENT 70 55 40 66
REMARK Flexibility Score: inf
ROOT
ATOM      1  C   UNL     1       0.305  -1.767   3.567  1.00  0.00     0.188 C 
ENDROOT
BRANCH   1   2
ATOM      2  O   UNL     1       1.125  -2.643   4.339  1.00  0.00    -0.376 OA
BRANCH   2   3
ATOM      3  C   UNL     1       2.339  -3.115   3.751  1.00  0.00     0.202 C 
BRANCH   3   4
ATOM      4  C   UNL     1       2.269  -3.645   2.313  1.00  0.00     0.261 C 
BRANCH   4   5
ATOM      5  O   UNL     1       1.940  -2.607   1.370  1.00  0.00    -0.463 OA
BRANCH   5   6
ATOM      6  C   UNL     1       1.522  -3.041   0.153  1.00  0.00     0.313 C 
ATOM      7  O   UNL     1       1.587  -4.209  -0.217  1.00  0.00    -0.252 OA
BRANCH   6   8
ATOM      8  C   UNL     1       0.895  -1.929  -0.695  1.00  0.00     0.126 C 
ATOM      9  C   UNL     1       1.801  -0.691  -0.753  1.00  0.00     0.025 C 
BRANCH   8  10
ATOM     10  C   UNL     1      -0.591  -1.668  -0.409  1.00  0.00    -0.032 A 
ATOM     11  C   UNL     1      -1.182  -0.415  -0.619  1.00  0.00     0.005 A 
ATOM     12  C   UNL     1      -1.431  -2.742  -0.055  1.00  0.00     0.032 A 
ATOM     13  C   UNL     1      -2.573  -0.237  -0.550  1.00  0.00     0.011 A 
ATOM     14  C   UNL     1      -2.829  -2.554   0.042  1.00  0.00     0.058 A 
ATOM     15  C   UNL     1      -3.411  -1.333  -0.263  1.00  0.00     0.008 A 
ATOM     16  N   UNL     1      -3.850  -3.458   0.384  1.00  0.00    -0.274 N 
ATOM     17  C   UNL     1      -4.821  -1.522  -0.264  1.00  0.00     0.009 A 
ATOM     18  C   UNL     1      -5.083  -2.854   0.093  1.00  0.00     0.057 A 
ATOM     19  C   UNL     1      -5.894  -0.653  -0.570  1.00  0.00     0.031 A 
ATOM     20  C   UNL     1      -6.413  -3.312   0.180  1.00  0.00     0.029 A 
ATOM     21  C   UNL     1      -7.199  -1.132  -0.534  1.00  0.00     0.041 A 
ATOM     22  C   UNL     1      -7.453  -2.444  -0.176  1.00  0.00     0.023 A 
ATOM     23  Cl  UNL     1      -8.503  -0.088  -0.947  1.00  0.00    -0.084 Cl
BRANCH  16  24
ATOM     24  C   UNL     1      -3.589  -4.728   0.969  1.00  0.00     0.284 C 
ATOM     25  O   UNL     1      -2.577  -4.775   1.670  1.00  0.00    -0.266 OA
BRANCH  24  26
ATOM     26  C   UNL     1      -4.378  -5.937   0.765  1.00  0.00     0.167 A 
ATOM     27  C   UNL     1      -5.180  -6.281  -0.300  1.00  0.00     0.231 A 
ATOM     28  N   UNL     1      -4.295  -7.026   1.624  1.00  0.00    -0.211 NA
ATOM     29  O   UNL     1      -5.621  -7.553  -0.113  1.00  0.00    -0.451 OA
ATOM     30  C   UNL     1      -5.086  -7.924   1.079  1.00  0.00     0.308 A 
ENDBRANCH  24  26
ENDBRANCH  16  24
ENDBRANCH   8  10
ENDBRANCH   6   8
ENDBRANCH   5   6
ENDBRANCH   4   5
ENDBRANCH   3   4
ENDBRANCH   2   3
ENDBRANCH   1   2
BRANCH   1  31
ATOM     31  C   UNL     1       0.964  -0.498   3.004  1.00  0.00     0.188 C 
BRANCH  31  32
ATOM     32  O   UNL     1       2.324  -0.343   3.369  1.00  0.00    -0.376 OA
BRANCH  32  33
ATOM     33  C   UNL     1       2.656   0.771   4.184  1.00  0.00     0.202 C 
BRANCH  33  34
ATOM     34  C   UNL     1       1.978   0.860   5.559  1.00  0.00     0.261 C 
BRANCH  34  35
ATOM     35  O   UNL     1       0.541   0.880   5.549  1.00  0.00    -0.460 OA
BRANCH  35  36
ATOM     36  C   UNL     1      -0.060   1.950   4.973  1.00  0.00     0.338 C 
ATOM     37  O   UNL     1       0.482   2.925   4.492  1.00  0.00    -0.246 OA
BRANCH  36  38
ATOM     38  C   UNL     1      -1.493   1.609   4.827  1.00  0.00     0.060 A 
ATOM     39  C   UNL     1      -2.064   1.604   3.547  1.00  0.00     0.016 A 
ATOM     40  C   UNL     1      -2.254   1.257   5.944  1.00  0.00     0.016 A 
ATOM     41  C   UNL     1      -3.407   1.258   3.384  1.00  0.00     0.010 A 
ATOM     42  C   UNL     1      -3.603   0.936   5.782  1.00  0.00     0.010 A 
ATOM     43  C   UNL     1      -4.192   0.958   4.506  1.00  0.00    -0.014 A 
BRANCH  43  44
ATOM     44  C   UNL     1      -5.666   0.861   4.376  1.00  0.00     0.031 A 
ATOM     45  C   UNL     1      -6.476   2.110   4.593  1.00  0.00     0.074 A 
ATOM     46  C   UNL     1      -6.272  -0.306   4.090  1.00  0.00     0.049 A 
ATOM     47  N   UNL     1      -7.771   2.275   4.558  1.00  0.00    -0.248 NA
ATOM     48  C   UNL     1      -5.718   3.337   4.898  1.00  0.00     0.031 C 
ATOM     49  C   UNL     1      -5.588  -1.572   3.836  1.00  0.00     0.029 A 
ATOM     50  N   UNL     1      -7.605  -0.614   3.968  1.00  0.00    -0.354 N 
ATOM     51  C   UNL     1      -7.987   3.615   4.860  1.00  0.00     0.074 A 
ATOM     52  C   UNL     1      -6.691   4.218   5.077  1.00  0.00     0.031 C 
ATOM     53  C   UNL     1      -6.508  -2.519   3.579  1.00  0.00     0.029 A 
ATOM     54  C   UNL     1      -7.846  -1.935   3.667  1.00  0.00     0.049 A 
ATOM     55  H   UNL     1      -8.322   0.050   4.085  1.00  0.00     0.167 HD
ATOM     56  C   UNL     1      -9.160   4.281   4.960  1.00  0.00     0.031 A 
ATOM     57  C   UNL     1      -9.015  -2.589   3.483  1.00  0.00     0.031 A 
ATOM     58  C   UNL     1     -10.448   3.675   4.763  1.00  0.00     0.049 A 
ATOM     59  C   UNL     1     -10.308  -1.817   3.617  1.00  0.00     0.074 A 
ATOM     60  C   UNL     1     -11.697   4.263   4.849  1.00  0.00     0.029 A 
ATOM     61  N   UNL     1     -10.651   2.341   4.449  1.00  0.00    -0.354 N 
ATOM     62  N   UNL     1     -10.491  -0.537   3.843  1.00  0.00    -0.248 NA
ATOM     63  C   UNL     1     -11.556  -2.582   3.467  1.00  0.00     0.031 C 
ATOM     64  C   UNL     1     -12.659   3.270   4.636  1.00  0.00     0.029 A 
ATOM     65  C   UNL     1     -12.007   2.078   4.365  1.00  0.00     0.049 A 
ATOM     66  H   UNL     1      -9.937   1.678   4.307  1.00  0.00     0.167 HD
ATOM     67  C   UNL     1     -11.870  -0.342   3.836  1.00  0.00     0.074 A 
ATOM     68  C   UNL     1     -12.472  -1.627   3.550  1.00  0.00     0.031 C 
ATOM     69  C   UNL     1     -12.580   0.792   4.060  1.00  0.00     0.031 A 
BRANCH  56  70
ATOM     70  C   UNL     1      -9.099   5.729   5.362  1.00  0.00    -0.014 A 
ATOM     71  C   UNL     1      -8.655   6.719   4.467  1.00  0.00     0.010 A 
ATOM     72  C   UNL     1      -9.507   6.104   6.654  1.00  0.00     0.010 A 
ATOM     73  C   UNL     1      -8.585   8.055   4.872  1.00  0.00     0.020 A 
ATOM     74  C   UNL     1      -9.461   7.442   7.055  1.00  0.00     0.020 A 
ATOM     75  C   UNL     1      -8.983   8.407   6.165  1.00  0.00     0.054 A 
BRANCH  75  76
ATOM     76  S   UNL     1      -8.895  10.149   6.663  1.00  0.00     0.124 S 
ATOM     77  O   UNL     1      -7.458  10.335   6.849  1.00  0.00    -0.237 OA
ATOM     78  O   UNL     1      -9.474  10.841   5.514  1.00  0.00    -0.237 OA
ATOM     79  O   UNL     1      -9.693  10.201   7.885  1.00  0.00    -0.744 OA
ENDBRANCH  75  76
ENDBRANCH  56  70
BRANCH  57  80
ATOM     80  C   UNL     1      -9.030  -4.035   3.102  1.00  0.00    -0.014 A 
ATOM     81  C   UNL     1      -9.577  -4.434   1.868  1.00  0.00     0.010 A 
ATOM     82  C   UNL     1      -8.503  -5.026   3.950  1.00  0.00     0.010 A 
ATOM     83  C   UNL     1      -9.573  -5.774   1.475  1.00  0.00     0.020 A 
ATOM     84  C   UNL     1      -8.479  -6.369   3.555  1.00  0.00     0.020 A 
ATOM     85  C   UNL     1      -9.018  -6.735   2.320  1.00  0.00     0.054 A 
BRANCH  85  86
ATOM     86  S   UNL     1      -8.954  -8.460   1.762  1.00  0.00     0.124 S 
ATOM     87  O   UNL     1     -10.292  -8.937   2.093  1.00  0.00    -0.237 OA
ATOM     88  O   UNL     1      -8.665  -8.325   0.337  1.00  0.00    -0.237 OA
ATOM     89  O   UNL     1      -7.864  -9.031   2.552  1.00  0.00    -0.744 OA
ENDBRANCH  85  86
ENDBRANCH  57  80
BRANCH  69  90
ATOM     90  C   UNL     1     -14.082   0.701   3.983  1.00  0.00    -0.014 A 
ATOM     91  C   UNL     1     -14.821   0.051   4.987  1.00  0.00     0.010 A 
ATOM     92  C   UNL     1     -14.766   1.331   2.926  1.00  0.00     0.010 A 
ATOM     93  C   UNL     1     -16.216   0.002   4.918  1.00  0.00     0.020 A 
ATOM     94  C   UNL     1     -16.162   1.308   2.869  1.00  0.00     0.020 A 
ATOM     95  C   UNL     1     -16.878   0.630   3.858  1.00  0.00     0.054 A 
BRANCH  95  96
ATOM     96  S   UNL     1     -18.691   0.593   3.816  1.00  0.00     0.124 S 
ATOM     97  O   UNL     1     -18.955  -0.776   3.380  1.00  0.00    -0.237 OA
ATOM     98  O   UNL     1     -19.052   0.892   5.199  1.00  0.00    -0.237 OA
ATOM     99  O   UNL     1     -19.036   1.633   2.850  1.00  0.00    -0.744 OA
ENDBRANCH  95  96
ENDBRANCH  69  90
ENDBRANCH  43  44
ENDBRANCH  36  38
ENDBRANCH  35  36
ENDBRANCH  34  35
ENDBRANCH  33  34
ENDBRANCH  32  33
ENDBRANCH  31  32
ENDBRANCH   1  31
TORSDOF 23
