REMARK SMILES COC(CNS(=O)(=O)c1ccc(Cl)c(C(=O)OCCOCCOCCOC(=O)c2ccc(-c3c4nc(c(-c5ccc(S(=O)(=O)[O-])cc5)c5ccc([nH]5)c(-c5ccc(S(=O)(=O)[O-])cc5)c5nc(c(-c6ccc(S(=O)(=O)[O-])cc6)c6ccc3[nH]6)C=C5)C=C4)cc2)c1Cl)OC
REMARK SMILES IDX 21 1 20 2 19 3 18 4 17 5 15 6 16 7 14 8 9 9 10 10 89 11
REMARK SMILES IDX 11 12 90 13 12 14 13 15 6 16 7 17 8 18 5 19 4 21 3 22 2 23
REMARK SMILES IDX 1 24 91 25 92 26 22 27 23 28 24 29 25 30 26 31 27 32 28 33
REMARK SMILES IDX 29 34 30 35 88 36 31 37 87 38 32 39 33 40 34 41 81 42 35 43
REMARK SMILES IDX 86 44 80 45 82 46 36 47 85 48 79 49 78 50 37 52 67 53 48 54
REMARK SMILES IDX 66 55 49 56 52 57 65 58 83 59 50 60 51 61 64 63 84 64 53 65
REMARK SMILES IDX 38 66 39 67 47 68 40 69 46 70 41 71 42 72 43 73 44 74 45 75
REMARK SMILES IDX 68 76 69 77 77 78 70 79 76 80 71 81 72 82 73 83 74 84 75 85
REMARK SMILES IDX 54 86 55 87 63 88 56 89 62 90 57 91 58 92 59 93 60 94 61 95
REMARK H PARENT 5 20 82 51 52 62
REMARK Flexibility Score: inf
ROOT
ATOM      1  C   UNL     1       3.957  -0.049  -6.749  1.00  0.00     0.188 C 
ENDROOT
BRANCH   1   2
ATOM      2  O   UNL     1       4.159  -0.531  -8.073  1.00  0.00    -0.376 OA
BRANCH   2   3
ATOM      3  C   UNL     1       2.970  -0.760  -8.820  1.00  0.00     0.202 C 
BRANCH   3   4
ATOM      4  C   UNL     1       2.350   0.520  -9.379  1.00  0.00     0.261 C 
BRANCH   4   5
ATOM      5  O   UNL     1       2.159   1.507  -8.352  1.00  0.00    -0.460 OA
BRANCH   5   6
ATOM      6  C   UNL     1       0.897   1.854  -8.040  1.00  0.00     0.341 C 
ATOM      7  O   UNL     1      -0.134   1.387  -8.491  1.00  0.00    -0.246 OA
BRANCH   6   8
ATOM      8  C   UNL     1       0.948   2.920  -7.021  1.00  0.00     0.098 A 
ATOM      9  C   UNL     1       0.358   3.744  -4.817  1.00  0.00     0.102 A 
ATOM     10  C   UNL     1       0.873   5.005  -5.177  1.00  0.00     0.025 A 
ATOM     11  C   UNL     1       0.441   2.679  -5.726  1.00  0.00     0.077 A 
ATOM     12  C   UNL     1       1.409   5.221  -6.446  1.00  0.00     0.023 A 
ATOM     13  Cl  UNL     1       0.025   1.058  -5.311  1.00  0.00    -0.082 Cl
ATOM     14  C   UNL     1       1.418   4.189  -7.382  1.00  0.00     0.057 A 
ATOM     15  Cl  UNL     1       1.969   4.570  -8.975  1.00  0.00    -0.083 Cl
BRANCH   9  16
ATOM     16  S   UNL     1      -0.629   3.714  -3.330  1.00  0.00     0.242 S 
ATOM     17  O   UNL     1      -2.004   3.477  -3.738  1.00  0.00    -0.207 OA
ATOM     18  O   UNL     1      -0.273   4.887  -2.578  1.00  0.00    -0.207 OA
BRANCH  16  19
ATOM     19  N   UNL     1      -0.094   2.462  -2.369  1.00  0.00    -0.206 NA
ATOM     20  H   UNL     1       0.790   2.137  -2.762  1.00  0.00     0.141 HD
BRANCH  19  21
ATOM     21  C   UNL     1      -0.971   1.263  -2.205  1.00  0.00     0.161 C 
BRANCH  21  22
ATOM     22  C   UNL     1      -0.190  -0.011  -1.768  1.00  0.00     0.263 C 
BRANCH  22  23
ATOM     23  O   UNL     1      -0.475  -0.459  -0.446  1.00  0.00    -0.355 OA
ATOM     24  C   UNL     1      -0.176   0.403   0.629  1.00  0.00     0.198 C 
ENDBRANCH  22  23
BRANCH  22  25
ATOM     25  O   UNL     1       1.185  -0.046  -2.165  1.00  0.00    -0.355 OA
ATOM     26  C   UNL     1       2.079   0.787  -1.458  1.00  0.00     0.198 C 
ENDBRANCH  22  25
ENDBRANCH  21  22
ENDBRANCH  19  21
ENDBRANCH  16  19
ENDBRANCH   9  16
ENDBRANCH   6   8
ENDBRANCH   5   6
ENDBRANCH   4   5
ENDBRANCH   3   4
ENDBRANCH   2   3
ENDBRANCH   1   2
BRANCH   1  27
ATOM     27  C   UNL     1       4.511   1.367  -6.479  1.00  0.00     0.188 C 
BRANCH  27  28
ATOM     28  O   UNL     1       5.431   1.999  -7.361  1.00  0.00    -0.376 OA
BRANCH  28  29
ATOM     29  C   UNL     1       6.366   1.219  -8.087  1.00  0.00     0.202 C 
BRANCH  29  30
ATOM     30  C   UNL     1       7.424   0.424  -7.311  1.00  0.00     0.261 C 
BRANCH  30  31
ATOM     31  O   UNL     1       6.949  -0.222  -6.120  1.00  0.00    -0.460 OA
BRANCH  31  32
ATOM     32  C   UNL     1       7.310   0.393  -4.966  1.00  0.00     0.338 C 
ATOM     33  O   UNL     1       8.011   1.386  -4.858  1.00  0.00    -0.246 OA
BRANCH  32  34
ATOM     34  C   UNL     1       6.609  -0.207  -3.809  1.00  0.00     0.060 A 
ATOM     35  C   UNL     1       6.060   0.678  -2.877  1.00  0.00     0.016 A 
ATOM     36  C   UNL     1       6.537  -1.587  -3.588  1.00  0.00     0.016 A 
ATOM     37  C   UNL     1       5.475   0.188  -1.711  1.00  0.00     0.010 A 
ATOM     38  C   UNL     1       5.962  -2.077  -2.401  1.00  0.00     0.010 A 
ATOM     39  C   UNL     1       5.444  -1.191  -1.444  1.00  0.00    -0.014 A 
BRANCH  39  40
ATOM     40  C   UNL     1       5.019  -1.631  -0.083  1.00  0.00     0.031 A 
ATOM     41  C   UNL     1       5.919  -1.298   1.078  1.00  0.00     0.074 A 
ATOM     42  C   UNL     1       3.822  -2.207   0.151  1.00  0.00     0.049 A 
ATOM     43  N   UNL     1       5.667  -1.327   2.361  1.00  0.00    -0.248 NA
ATOM     44  C   UNL     1       7.282  -0.858   0.737  1.00  0.00     0.031 C 
ATOM     45  C   UNL     1       2.839  -2.551  -0.872  1.00  0.00     0.029 A 
ATOM     46  N   UNL     1       3.192  -2.519   1.337  1.00  0.00    -0.354 N 
ATOM     47  C   UNL     1       6.845  -0.928   2.982  1.00  0.00     0.074 A 
ATOM     48  C   UNL     1       7.799  -0.629   1.934  1.00  0.00     0.031 C 
ATOM     49  C   UNL     1       1.698  -2.931  -0.270  1.00  0.00     0.029 A 
ATOM     50  C   UNL     1       1.873  -2.892   1.180  1.00  0.00     0.049 A 
ATOM     51  H   UNL     1       3.641  -2.479   2.213  1.00  0.00     0.167 HD
ATOM     52  C   UNL     1       7.129  -0.857   4.303  1.00  0.00     0.031 A 
ATOM     53  C   UNL     1       0.906  -3.125   2.097  1.00  0.00     0.031 A 
ATOM     54  C   UNL     1       6.221  -1.229   5.352  1.00  0.00     0.049 A 
ATOM     55  C   UNL     1       1.246  -3.016   3.566  1.00  0.00     0.074 A 
ATOM     56  C   UNL     1       6.452  -1.270   6.716  1.00  0.00     0.029 A 
ATOM     57  N   UNL     1       4.915  -1.648   5.154  1.00  0.00    -0.354 N 
ATOM     58  N   UNL     1       2.345  -2.581   4.134  1.00  0.00    -0.248 NA
ATOM     59  C   UNL     1       0.205  -3.438   4.518  1.00  0.00     0.031 C 
ATOM     60  C   UNL     1       5.300  -1.764   7.339  1.00  0.00     0.029 A 
ATOM     61  C   UNL     1       4.335  -1.974   6.367  1.00  0.00     0.049 A 
ATOM     62  H   UNL     1       4.467  -1.706   4.279  1.00  0.00     0.167 HD
ATOM     63  C   UNL     1       2.128  -2.685   5.506  1.00  0.00     0.074 A 
ATOM     64  C   UNL     1       0.772  -3.159   5.683  1.00  0.00     0.031 C 
ATOM     65  C   UNL     1       2.983  -2.442   6.530  1.00  0.00     0.031 A 
BRANCH  52  66
ATOM     66  C   UNL     1       8.531  -0.464   4.672  1.00  0.00    -0.014 A 
ATOM     67  C   UNL     1       8.960   0.873   4.601  1.00  0.00     0.010 A 
ATOM     68  C   UNL     1       9.437  -1.461   5.076  1.00  0.00     0.010 A 
ATOM     69  C   UNL     1      10.288   1.199   4.889  1.00  0.00     0.020 A 
ATOM     70  C   UNL     1      10.758  -1.136   5.384  1.00  0.00     0.020 A 
ATOM     71  C   UNL     1      11.181   0.190   5.268  1.00  0.00     0.054 A 
BRANCH  71  72
ATOM     72  S   UNL     1      12.904   0.633   5.622  1.00  0.00     0.124 S 
ATOM     73  O   UNL     1      13.441   0.840   4.279  1.00  0.00    -0.237 OA
ATOM     74  O   UNL     1      12.766   1.837   6.436  1.00  0.00    -0.237 OA
ATOM     75  O   UNL     1      13.423  -0.536   6.327  1.00  0.00    -0.744 OA
ENDBRANCH  71  72
ENDBRANCH  52  66
BRANCH  53  76
ATOM     76  C   UNL     1      -0.500  -3.435   1.685  1.00  0.00    -0.014 A 
ATOM     77  C   UNL     1      -1.551  -2.579   2.069  1.00  0.00     0.010 A 
ATOM     78  C   UNL     1      -0.817  -4.590   0.949  1.00  0.00     0.010 A 
ATOM     79  C   UNL     1      -2.876  -2.857   1.723  1.00  0.00     0.020 A 
ATOM     80  C   UNL     1      -2.140  -4.865   0.581  1.00  0.00     0.020 A 
ATOM     81  C   UNL     1      -3.163  -4.000   0.977  1.00  0.00     0.054 A 
BRANCH  81  82
ATOM     82  S   UNL     1      -4.884  -4.322   0.502  1.00  0.00     0.124 S 
ATOM     83  O   UNL     1      -5.462  -4.792   1.757  1.00  0.00    -0.237 OA
ATOM     84  O   UNL     1      -5.340  -3.010   0.049  1.00  0.00    -0.237 OA
ATOM     85  O   UNL     1      -4.764  -5.329  -0.550  1.00  0.00    -0.744 OA
ENDBRANCH  81  82
ENDBRANCH  53  76
BRANCH  65  86
ATOM     86  C   UNL     1       2.490  -2.699   7.931  1.00  0.00    -0.014 A 
ATOM     87  C   UNL     1       2.268  -4.012   8.387  1.00  0.00     0.010 A 
ATOM     88  C   UNL     1       2.305  -1.627   8.822  1.00  0.00     0.010 A 
ATOM     89  C   UNL     1       1.835  -4.245   9.695  1.00  0.00     0.020 A 
ATOM     90  C   UNL     1       1.897  -1.858  10.140  1.00  0.00     0.020 A 
ATOM     91  C   UNL     1       1.650  -3.166  10.563  1.00  0.00     0.054 A 
BRANCH  91  92
ATOM     92  S   UNL     1       1.131  -3.497  12.270  1.00  0.00     0.124 S 
ATOM     93  O   UNL     1      -0.289  -3.790  12.104  1.00  0.00    -0.237 OA
ATOM     94  O   UNL     1       1.968  -4.634  12.647  1.00  0.00    -0.237 OA
ATOM     95  O   UNL     1       1.434  -2.250  12.970  1.00  0.00    -0.744 OA
ENDBRANCH  91  92
ENDBRANCH  65  86
ENDBRANCH  39  40
ENDBRANCH  32  34
ENDBRANCH  31  32
ENDBRANCH  30  31
ENDBRANCH  29  30
ENDBRANCH  28  29
ENDBRANCH  27  28
ENDBRANCH   1  27
TORSDOF 26
