REMARK SMILES CCC[C@H](CNC(=O)N1C[C@H]2CCC[N@H+]2C[C@@H]1C)C(=O)OCCOCCOCCOC(=O)c1ccc(-c2c3nc(c(-c4ccc(S(=O)(=O)[O-])cc4)c4ccc([nH]4)c(-c4ccc(S(=O)(=O)[O-])cc4)c4nc(c(-c5ccc(S(=O)(=O)[O-])cc5)c5ccc2[nH]5)C=C4)C=C3)cc1
REMARK SMILES IDX 25 1 24 2 23 3 22 4 21 5 19 6 20 7 4 8 3 9 2 10 1 11 5 12
REMARK SMILES IDX 6 13 7 14 8 16 9 17 10 18 17 19 11 20 16 21 18 22 12 23
REMARK SMILES IDX 15 24 13 25 14 26 26 28 27 29 28 30 29 31 30 32 31 33 32 34
REMARK SMILES IDX 33 35 34 36 92 37 35 38 91 39 36 40 37 41 38 42 85 43 39 44
REMARK SMILES IDX 90 45 84 46 86 47 40 48 89 49 83 50 82 51 41 53 71 54 52 55
REMARK SMILES IDX 70 56 53 57 56 58 69 59 87 60 54 61 55 62 68 64 88 65 57 66
REMARK SMILES IDX 42 67 43 68 51 69 44 70 50 71 45 72 46 73 47 74 48 75 49 76
REMARK SMILES IDX 72 77 73 78 81 79 74 80 80 81 75 82 76 83 77 84 78 85 79 86
REMARK SMILES IDX 58 87 59 88 67 89 60 90 66 91 61 92 62 93 63 94 64 95 65 96
REMARK H PARENT 6 15 15 27 86 52 56 63
REMARK Flexibility Score: inf
ROOT
ATOM      1  C   UNL     1       2.919  -4.749  -2.047  1.00  0.00     0.188 C 
ENDROOT
BRANCH   1   2
ATOM      2  O   UNL     1       2.967  -5.912  -2.858  1.00  0.00    -0.376 OA
BRANCH   2   3
ATOM      3  C   UNL     1       2.154  -5.956  -4.029  1.00  0.00     0.202 C 
BRANCH   3   4
ATOM      4  C   UNL     1       0.669  -5.550  -3.938  1.00  0.00     0.261 C 
BRANCH   4   5
ATOM      5  O   UNL     1       0.419  -4.203  -3.467  1.00  0.00    -0.463 OA
BRANCH   5   6
ATOM      6  C   UNL     1      -0.313  -4.104  -2.329  1.00  0.00     0.310 C 
ATOM      7  O   UNL     1      -0.790  -5.082  -1.765  1.00  0.00    -0.252 OA
BRANCH   6   8
ATOM      8  C   UNL     1      -0.373  -2.700  -1.712  1.00  0.00     0.118 C 
BRANCH   8   9
ATOM      9  C   UNL     1      -1.792  -2.401  -1.184  1.00  0.00     0.017 C 
BRANCH   9  10
ATOM     10  C   UNL     1      -2.257  -3.242   0.018  1.00  0.00    -0.002 C 
ATOM     11  C   UNL     1      -1.428  -3.028   1.275  1.00  0.00     0.004 C 
ENDBRANCH   9  10
ENDBRANCH   8   9
BRANCH   8  12
ATOM     12  C   UNL     1       0.225  -1.532  -2.537  1.00  0.00     0.133 C 
BRANCH  12  13
ATOM     13  N   UNL     1      -0.694  -0.710  -3.295  1.00  0.00    -0.337 N 
ATOM     14  C   UNL     1      -1.247   0.496  -3.028  1.00  0.00     0.318 C 
ATOM     15  H   UNL     1      -0.965  -1.096  -4.159  1.00  0.00     0.165 HD
ATOM     16  O   UNL     1      -2.223   0.827  -3.705  1.00  0.00    -0.249 OA
BRANCH  14  17
ATOM     17  N   UNL     1      -0.801   1.246  -1.973  1.00  0.00    -0.311 N 
ATOM     18  C   UNL     1      -1.819   1.954  -1.207  1.00  0.00     0.186 C 
ATOM     19  C   UNL     1       0.596   1.709  -1.740  1.00  0.00     0.139 C 
ATOM     20  C   UNL     1      -1.727   3.474  -1.395  1.00  0.00     0.204 C 
ATOM     21  C   UNL     1       0.648   3.041  -0.900  1.00  0.00     0.287 C 
ATOM     22  C   UNL     1       1.421   1.856  -3.021  1.00  0.00     0.037 C 
ATOM     23  C   UNL     1      -2.635   4.213  -0.414  1.00  0.00     0.073 C 
ATOM     24  N   UNL     1      -0.373   4.054  -1.223  1.00  0.00    -0.329 N 
ATOM     25  C   UNL     1      -1.915   5.523  -0.179  1.00  0.00     0.068 C 
ATOM     26  C   UNL     1      -0.456   5.104  -0.195  1.00  0.00     0.262 C 
ATOM     27  H   UNL     1      -0.068   4.457  -2.109  1.00  0.00     0.348 HD
ENDBRANCH  14  17
ENDBRANCH  12  13
ENDBRANCH   8  12
ENDBRANCH   6   8
ENDBRANCH   5   6
ENDBRANCH   4   5
ENDBRANCH   3   4
ENDBRANCH   2   3
ENDBRANCH   1   2
BRANCH   1  28
ATOM     28  C   UNL     1       3.171  -3.397  -2.722  1.00  0.00     0.188 C 
BRANCH  28  29
ATOM     29  O   UNL     1       2.939  -3.387  -4.113  1.00  0.00    -0.376 OA
BRANCH  29  30
ATOM     30  C   UNL     1       3.927  -2.871  -4.996  1.00  0.00     0.202 C 
BRANCH  30  31
ATOM     31  C   UNL     1       5.398  -3.330  -4.877  1.00  0.00     0.261 C 
BRANCH  31  32
ATOM     32  O   UNL     1       6.016  -3.262  -3.580  1.00  0.00    -0.460 OA
BRANCH  32  33
ATOM     33  C   UNL     1       6.131  -2.039  -3.005  1.00  0.00     0.338 C 
ATOM     34  O   UNL     1       5.872  -0.966  -3.528  1.00  0.00    -0.246 OA
BRANCH  33  35
ATOM     35  C   UNL     1       6.312  -2.247  -1.542  1.00  0.00     0.060 A 
ATOM     36  C   UNL     1       5.416  -1.617  -0.662  1.00  0.00     0.016 A 
ATOM     37  C   UNL     1       7.281  -3.119  -1.042  1.00  0.00     0.016 A 
ATOM     38  C   UNL     1       5.511  -1.827   0.717  1.00  0.00     0.010 A 
ATOM     39  C   UNL     1       7.392  -3.307   0.342  1.00  0.00     0.010 A 
ATOM     40  C   UNL     1       6.531  -2.638   1.231  1.00  0.00    -0.014 A 
BRANCH  40  41
ATOM     41  C   UNL     1       6.843  -2.615   2.684  1.00  0.00     0.031 A 
ATOM     42  C   UNL     1       7.967  -1.726   3.148  1.00  0.00     0.074 A 
ATOM     43  C   UNL     1       6.158  -3.351   3.580  1.00  0.00     0.049 A 
ATOM     44  N   UNL     1       8.482  -1.590   4.342  1.00  0.00    -0.248 NA
ATOM     45  C   UNL     1       8.597  -0.879   2.120  1.00  0.00     0.031 C 
ATOM     46  C   UNL     1       5.016  -4.212   3.279  1.00  0.00     0.029 A 
ATOM     47  N   UNL     1       6.341  -3.497   4.935  1.00  0.00    -0.354 N 
ATOM     48  C   UNL     1       9.507  -0.660   4.205  1.00  0.00     0.074 A 
ATOM     49  C   UNL     1       9.556  -0.282   2.811  1.00  0.00     0.031 C 
ATOM     50  C   UNL     1       4.611  -4.810   4.415  1.00  0.00     0.029 A 
ATOM     51  C   UNL     1       5.487  -4.407   5.515  1.00  0.00     0.049 A 
ATOM     52  H   UNL     1       7.021  -2.998   5.443  1.00  0.00     0.167 HD
ATOM     53  C   UNL     1      10.336  -0.164   5.154  1.00  0.00     0.031 A 
ATOM     54  C   UNL     1       5.438  -4.882   6.777  1.00  0.00     0.031 A 
ATOM     55  C   UNL     1      10.299  -0.549   6.539  1.00  0.00     0.049 A 
ATOM     56  C   UNL     1       6.425  -4.375   7.802  1.00  0.00     0.074 A 
ATOM     57  C   UNL     1      11.086  -0.087   7.579  1.00  0.00     0.029 A 
ATOM     58  N   UNL     1       9.440  -1.495   7.077  1.00  0.00    -0.354 N 
ATOM     59  N   UNL     1       7.371  -3.476   7.664  1.00  0.00    -0.248 NA
ATOM     60  C   UNL     1       6.331  -4.942   9.156  1.00  0.00     0.031 C 
ATOM     61  C   UNL     1      10.751  -0.803   8.732  1.00  0.00     0.029 A 
ATOM     62  C   UNL     1       9.700  -1.655   8.427  1.00  0.00     0.049 A 
ATOM     63  H   UNL     1       8.748  -1.981   6.573  1.00  0.00     0.167 HD
ATOM     64  C   UNL     1       7.962  -3.349   8.920  1.00  0.00     0.074 A 
ATOM     65  C   UNL     1       7.257  -4.251   9.806  1.00  0.00     0.031 C 
ATOM     66  C   UNL     1       8.992  -2.553   9.304  1.00  0.00     0.031 A 
BRANCH  53  67
ATOM     67  C   UNL     1      11.388   0.821   4.714  1.00  0.00    -0.014 A 
ATOM     68  C   UNL     1      11.049   2.123   4.303  1.00  0.00     0.010 A 
ATOM     69  C   UNL     1      12.743   0.446   4.752  1.00  0.00     0.010 A 
ATOM     70  C   UNL     1      12.044   3.019   3.904  1.00  0.00     0.020 A 
ATOM     71  C   UNL     1      13.744   1.349   4.384  1.00  0.00     0.020 A 
ATOM     72  C   UNL     1      13.386   2.626   3.948  1.00  0.00     0.054 A 
BRANCH  72  73
ATOM     73  S   UNL     1      14.657   3.821   3.453  1.00  0.00     0.124 S 
ATOM     74  O   UNL     1      14.447   3.903   2.010  1.00  0.00    -0.237 OA
ATOM     75  O   UNL     1      14.285   5.013   4.210  1.00  0.00    -0.237 OA
ATOM     76  O   UNL     1      15.908   3.188   3.865  1.00  0.00    -0.744 OA
ENDBRANCH  72  73
ENDBRANCH  53  67
BRANCH  54  77
ATOM     77  C   UNL     1       4.437  -5.924   7.147  1.00  0.00    -0.014 A 
ATOM     78  C   UNL     1       3.396  -5.638   8.048  1.00  0.00     0.010 A 
ATOM     79  C   UNL     1       4.533  -7.221   6.610  1.00  0.00     0.010 A 
ATOM     80  C   UNL     1       2.482  -6.631   8.417  1.00  0.00     0.020 A 
ATOM     81  C   UNL     1       3.603  -8.208   6.950  1.00  0.00     0.020 A 
ATOM     82  C   UNL     1       2.589  -7.909   7.861  1.00  0.00     0.054 A 
BRANCH  82  83
ATOM     83  S   UNL     1       1.361  -9.166   8.315  1.00  0.00     0.124 S 
ATOM     84  O   UNL     1       1.724  -9.461   9.697  1.00  0.00    -0.237 OA
ATOM     85  O   UNL     1       0.100  -8.452   8.130  1.00  0.00    -0.237 OA
ATOM     86  O   UNL     1       1.604 -10.244   7.359  1.00  0.00    -0.744 OA
ENDBRANCH  82  83
ENDBRANCH  54  77
BRANCH  66  87
ATOM     87  C   UNL     1       9.398  -2.578  10.757  1.00  0.00    -0.014 A 
ATOM     88  C   UNL     1      10.046  -3.690  11.323  1.00  0.00     0.010 A 
ATOM     89  C   UNL     1       9.184  -1.435  11.552  1.00  0.00     0.010 A 
ATOM     90  C   UNL     1      10.441  -3.671  12.664  1.00  0.00     0.020 A 
ATOM     91  C   UNL     1       9.607  -1.401  12.883  1.00  0.00     0.020 A 
ATOM     92  C   UNL     1      10.221  -2.526  13.435  1.00  0.00     0.054 A 
BRANCH  92  93
ATOM     93  S   UNL     1      10.783  -2.512  15.160  1.00  0.00     0.124 S 
ATOM     94  O   UNL     1       9.836  -3.423  15.797  1.00  0.00    -0.237 OA
ATOM     95  O   UNL     1      12.155  -3.004  15.053  1.00  0.00    -0.237 OA
ATOM     96  O   UNL     1      10.659  -1.110  15.555  1.00  0.00    -0.744 OA
ENDBRANCH  92  93
ENDBRANCH  66  87
ENDBRANCH  40  41
ENDBRANCH  33  35
ENDBRANCH  32  33
ENDBRANCH  31  32
ENDBRANCH  30  31
ENDBRANCH  29  30
ENDBRANCH  28  29
ENDBRANCH   1  28
TORSDOF 25
