REMARK SMILES CCn1nc(-c2cccnc2)c2cc(C(=O)OCCOCCOCCOC(=O)c3ccc(-c4c5nc(c(-c6ccc(S(=O)(=O)[O-])cc6)c6ccc([nH]6)c(-c6ccc(S(=O)(=O)[O-])cc6)c6nc(c(-c7ccc(S(=O)(=O)[O-])cc7)c7ccc4[nH]7)C=C6)C=C5)cc3)sc21
REMARK SMILES IDX 22 1 21 2 20 3 19 4 18 5 17 6 15 7 16 8 14 9 3 10 4 11 90 12
REMARK SMILES IDX 5 13 12 14 89 15 13 16 2 17 1 18 6 19 7 20 11 21 8 22 10 23
REMARK SMILES IDX 9 24 23 25 24 26 25 27 26 28 27 29 28 30 29 31 30 32 88 33
REMARK SMILES IDX 31 34 87 35 32 36 33 37 34 38 81 39 35 40 86 41 80 42 82 43
REMARK SMILES IDX 36 44 85 45 79 46 78 47 37 49 67 50 48 51 66 52 49 53 52 54
REMARK SMILES IDX 65 55 83 56 50 57 51 58 64 60 84 61 53 62 38 63 39 64 47 65
REMARK SMILES IDX 40 66 46 67 41 68 42 69 43 70 44 71 45 72 68 73 69 74 77 75
REMARK SMILES IDX 70 76 76 77 71 78 72 79 73 80 74 81 75 82 54 83 55 84 63 85
REMARK SMILES IDX 56 86 62 87 57 88 58 89 59 90 60 91 61 92
REMARK H PARENT 82 48 52 59
REMARK Flexibility Score: inf
ROOT
ATOM      1  C   UNL     1       2.347   0.761  -5.091  1.00  0.00     0.188 C 
ENDROOT
BRANCH   1   2
ATOM      2  C   UNL     1       3.312   1.756  -5.781  1.00  0.00     0.188 C 
BRANCH   2   3
ATOM      3  O   UNL     1       4.485   1.320  -6.460  1.00  0.00    -0.376 OA
BRANCH   3   4
ATOM      4  C   UNL     1       5.180   0.161  -6.028  1.00  0.00     0.202 C 
BRANCH   4   5
ATOM      5  C   UNL     1       5.748   0.118  -4.600  1.00  0.00     0.261 C 
BRANCH   5   6
ATOM      6  O   UNL     1       4.869   0.579  -3.565  1.00  0.00    -0.459 OA
BRANCH   6   7
ATOM      7  C   UNL     1       5.078   1.836  -3.079  1.00  0.00     0.348 C 
ATOM      8  O   UNL     1       6.002   2.570  -3.413  1.00  0.00    -0.245 OA
BRANCH   7   9
ATOM      9  C   UNL     1       3.978   2.236  -2.215  1.00  0.00     0.115 A 
ATOM     10  N   UNL     1       0.996   2.334   0.083  1.00  0.00    -0.254 N 
ATOM     11  N   UNL     1       0.573   3.632   0.157  1.00  0.00    -0.171 NA
ATOM     12  C   UNL     1       2.082   2.221  -0.715  1.00  0.00     0.122 A 
ATOM     13  C   UNL     1       1.393   4.321  -0.672  1.00  0.00     0.103 A 
ATOM     14  C   UNL     1       2.330   3.439  -1.208  1.00  0.00     0.040 A 
ATOM     15  S   UNL     1       3.160   1.060  -1.213  1.00  0.00    -0.109 S 
ATOM     16  C   UNL     1       3.428   3.516  -2.065  1.00  0.00     0.040 A 
BRANCH  10  17
ATOM     17  C   UNL     1       0.298   1.352   0.886  1.00  0.00     0.142 C 
ATOM     18  C   UNL     1       0.465  -0.106   0.492  1.00  0.00     0.029 C 
ENDBRANCH  10  17
BRANCH  13  19
ATOM     19  C   UNL     1       1.242   5.754  -0.820  1.00  0.00     0.021 A 
ATOM     20  C   UNL     1       1.556   6.608   0.240  1.00  0.00     0.013 A 
ATOM     21  C   UNL     1       0.723   6.323  -1.975  1.00  0.00     0.121 A 
ATOM     22  C   UNL     1       1.349   7.979   0.108  1.00  0.00     0.021 A 
ATOM     23  N   UNL     1       0.518   7.656  -2.134  1.00  0.00    -0.264 NA
ATOM     24  C   UNL     1       0.830   8.450  -1.087  1.00  0.00     0.111 A 
ENDBRANCH  13  19
ENDBRANCH   7   9
ENDBRANCH   6   7
ENDBRANCH   5   6
ENDBRANCH   4   5
ENDBRANCH   3   4
ENDBRANCH   2   3
ENDBRANCH   1   2
BRANCH   1  25
ATOM     25  O   UNL     1       2.746  -0.598  -5.148  1.00  0.00    -0.376 OA
BRANCH  25  26
ATOM     26  C   UNL     1       1.903  -1.499  -5.852  1.00  0.00     0.202 C 
BRANCH  26  27
ATOM     27  C   UNL     1       1.758  -1.308  -7.361  1.00  0.00     0.261 C 
BRANCH  27  28
ATOM     28  O   UNL     1       1.769   0.040  -7.796  1.00  0.00    -0.460 OA
BRANCH  28  29
ATOM     29  C   UNL     1       0.602   0.698  -7.657  1.00  0.00     0.338 C 
ATOM     30  O   UNL     1      -0.354   0.355  -6.983  1.00  0.00    -0.246 OA
BRANCH  29  31
ATOM     31  C   UNL     1       0.629   1.869  -8.540  1.00  0.00     0.060 A 
ATOM     32  C   UNL     1      -0.424   2.775  -8.421  1.00  0.00     0.016 A 
ATOM     33  C   UNL     1       1.495   1.865  -9.646  1.00  0.00     0.016 A 
ATOM     34  C   UNL     1      -0.770   3.506  -9.532  1.00  0.00     0.010 A 
ATOM     35  C   UNL     1       1.136   2.579 -10.761  1.00  0.00     0.010 A 
ATOM     36  C   UNL     1      -0.051   3.303 -10.714  1.00  0.00    -0.014 A 
BRANCH  36  37
ATOM     37  C   UNL     1      -0.612   3.840 -11.929  1.00  0.00     0.031 A 
ATOM     38  C   UNL     1      -0.415   5.288 -12.098  1.00  0.00     0.074 A 
ATOM     39  C   UNL     1      -1.201   3.054 -12.847  1.00  0.00     0.049 A 
ATOM     40  N   UNL     1      -1.312   6.213 -12.073  1.00  0.00    -0.248 NA
ATOM     41  C   UNL     1       0.971   5.774 -12.154  1.00  0.00     0.031 C 
ATOM     42  C   UNL     1      -1.191   1.591 -12.931  1.00  0.00     0.029 A 
ATOM     43  N   UNL     1      -1.833   3.426 -13.988  1.00  0.00    -0.354 N 
ATOM     44  C   UNL     1      -0.625   7.396 -12.304  1.00  0.00     0.074 A 
ATOM     45  C   UNL     1       0.778   7.092 -12.163  1.00  0.00     0.031 C 
ATOM     46  C   UNL     1      -1.561   1.224 -14.179  1.00  0.00     0.029 A 
ATOM     47  C   UNL     1      -1.946   2.412 -14.926  1.00  0.00     0.049 A 
ATOM     48  H   UNL     1      -2.180   4.336 -14.137  1.00  0.00     0.167 HD
ATOM     49  C   UNL     1      -1.232   8.489 -12.835  1.00  0.00     0.031 A 
ATOM     50  C   UNL     1      -2.216   2.577 -16.245  1.00  0.00     0.031 A 
ATOM     51  C   UNL     1      -2.666   8.411 -12.765  1.00  0.00     0.049 A 
ATOM     52  C   UNL     1      -2.846   3.916 -16.403  1.00  0.00     0.074 A 
ATOM     53  C   UNL     1      -3.569   8.268 -11.728  1.00  0.00     0.029 A 
ATOM     54  N   UNL     1      -3.347   8.062 -13.910  1.00  0.00    -0.354 N 
ATOM     55  N   UNL     1      -4.020   4.222 -15.921  1.00  0.00    -0.248 NA
ATOM     56  C   UNL     1      -1.984   5.055 -16.692  1.00  0.00     0.031 C 
ATOM     57  C   UNL     1      -4.572   7.390 -12.231  1.00  0.00     0.029 A 
ATOM     58  C   UNL     1      -4.259   7.095 -13.559  1.00  0.00     0.049 A 
ATOM     59  H   UNL     1      -3.207   8.435 -14.810  1.00  0.00     0.167 HD
ATOM     60  C   UNL     1      -3.892   5.523 -15.452  1.00  0.00     0.074 A 
ATOM     61  C   UNL     1      -2.649   6.016 -16.042  1.00  0.00     0.031 C 
ATOM     62  C   UNL     1      -4.648   5.988 -14.411  1.00  0.00     0.031 A 
BRANCH  49  63
ATOM     63  C   UNL     1      -0.504   9.440 -13.740  1.00  0.00    -0.014 A 
ATOM     64  C   UNL     1      -1.097  10.665 -14.089  1.00  0.00     0.010 A 
ATOM     65  C   UNL     1       0.652   9.053 -14.454  1.00  0.00     0.010 A 
ATOM     66  C   UNL     1      -0.567  11.451 -15.122  1.00  0.00     0.020 A 
ATOM     67  C   UNL     1       1.216   9.850 -15.446  1.00  0.00     0.020 A 
ATOM     68  C   UNL     1       0.583  11.032 -15.796  1.00  0.00     0.054 A 
BRANCH  68  69
ATOM     69  S   UNL     1       1.213  12.009 -17.181  1.00  0.00     0.124 S 
ATOM     70  O   UNL     1       0.170  11.814 -18.183  1.00  0.00    -0.237 OA
ATOM     71  O   UNL     1       1.298  13.348 -16.604  1.00  0.00    -0.237 OA
ATOM     72  O   UNL     1       2.499  11.384 -17.483  1.00  0.00    -0.744 OA
ENDBRANCH  68  69
ENDBRANCH  49  63
BRANCH  50  73
ATOM     73  C   UNL     1      -1.610   1.816 -17.369  1.00  0.00    -0.014 A 
ATOM     74  C   UNL     1      -2.083   1.960 -18.686  1.00  0.00     0.010 A 
ATOM     75  C   UNL     1      -0.389   1.131 -17.189  1.00  0.00     0.010 A 
ATOM     76  C   UNL     1      -1.335   1.486 -19.779  1.00  0.00     0.020 A 
ATOM     77  C   UNL     1       0.354   0.645 -18.268  1.00  0.00     0.020 A 
ATOM     78  C   UNL     1      -0.111   0.846 -19.563  1.00  0.00     0.054 A 
BRANCH  78  79
ATOM     79  S   UNL     1       0.932   0.391 -20.979  1.00  0.00     0.124 S 
ATOM     80  O   UNL     1       0.190  -0.720 -21.566  1.00  0.00    -0.237 OA
ATOM     81  O   UNL     1       0.956   1.623 -21.763  1.00  0.00    -0.237 OA
ATOM     82  O   UNL     1       2.208   0.028 -20.363  1.00  0.00    -0.744 OA
ENDBRANCH  78  79
ENDBRANCH  50  73
BRANCH  62  83
ATOM     83  C   UNL     1      -5.821   5.156 -13.932  1.00  0.00    -0.014 A 
ATOM     84  C   UNL     1      -5.698   3.832 -13.466  1.00  0.00     0.010 A 
ATOM     85  C   UNL     1      -7.066   5.797 -13.793  1.00  0.00     0.010 A 
ATOM     86  C   UNL     1      -6.795   3.161 -12.903  1.00  0.00     0.020 A 
ATOM     87  C   UNL     1      -8.157   5.142 -13.215  1.00  0.00     0.020 A 
ATOM     88  C   UNL     1      -8.020   3.823 -12.781  1.00  0.00     0.054 A 
BRANCH  88  89
ATOM     89  S   UNL     1      -9.421   2.969 -12.005  1.00  0.00     0.124 S 
ATOM     90  O   UNL     1      -9.756   1.946 -12.992  1.00  0.00    -0.237 OA
ATOM     91  O   UNL     1      -8.850   2.473 -10.755  1.00  0.00    -0.237 OA
ATOM     92  O   UNL     1     -10.424   4.021 -11.841  1.00  0.00    -0.744 OA
ENDBRANCH  88  89
ENDBRANCH  62  83
ENDBRANCH  36  37
ENDBRANCH  29  31
ENDBRANCH  28  29
ENDBRANCH  27  28
ENDBRANCH  26  27
ENDBRANCH  25  26
ENDBRANCH   1  25
TORSDOF 22
