REMARK SMILES Cc1cccc(CC(=O)N2CCC3(CCC(=O)N([C@H](C)C(=O)OCCOCCOCCOC(=O)c4ccc(-c5c6nc(c(-c7ccc(S(=O)(=O)[O-])cc7)c7ccc([nH]7)c(-c7ccc(S(=O)(=O)[O-])cc7)c7nc(c(-c8ccc(S(=O)(=O)[O-])cc8)c8ccc5[nH]8)C=C7)C=C6)cc4)C3)CC2)c1
REMARK SMILES IDX 27 1 26 2 25 3 24 4 23 5 21 6 22 7 19 8 20 9 18 10 8 11 9 12
REMARK SMILES IDX 10 13 11 14 97 15 12 16 96 17 13 18 14 19 95 20 15 21 16 22
REMARK SMILES IDX 17 23 7 24 6 25 1 26 2 27 3 28 98 29 4 30 5 31 28 32 29 33
REMARK SMILES IDX 30 34 31 35 32 36 33 37 34 38 35 39 36 40 94 41 37 42 93 43
REMARK SMILES IDX 38 44 39 45 40 46 87 47 41 48 92 49 86 50 88 51 42 52 91 53
REMARK SMILES IDX 85 54 84 55 43 57 73 58 54 59 72 60 55 61 58 62 71 63 89 64
REMARK SMILES IDX 56 65 57 66 70 68 90 69 59 70 44 71 45 72 53 73 46 74 52 75
REMARK SMILES IDX 47 76 48 77 49 78 50 79 51 80 74 81 75 82 83 83 76 84 82 85
REMARK SMILES IDX 77 86 78 87 79 88 80 89 81 90 60 91 61 92 69 93 62 94 68 95
REMARK SMILES IDX 63 96 64 97 65 98 66 99 67 100
REMARK H PARENT 88 56 58 67
REMARK Flexibility Score: inf
ROOT
ATOM      1  C   UNL     1      -3.957   5.711  -6.646  1.00  0.00     0.188 C 
ENDROOT
BRANCH   1   2
ATOM      2  O   UNL     1      -4.383   6.833  -7.381  1.00  0.00    -0.376 OA
BRANCH   2   3
ATOM      3  C   UNL     1      -3.973   7.418  -8.614  1.00  0.00     0.202 C 
BRANCH   3   4
ATOM      4  C   UNL     1      -2.574   8.277  -9.180  1.00  0.00     0.261 C 
BRANCH   4   5
ATOM      5  O   UNL     1      -1.150   8.968  -8.276  1.00  0.00    -0.462 OA
BRANCH   5   6
ATOM      6  C   UNL     1       0.130   8.850  -7.531  1.00  0.00     0.328 C 
ATOM      7  O   UNL     1       0.557   9.803  -6.858  1.00  0.00    -0.250 OA
BRANCH   6   8
ATOM      8  C   UNL     1       1.305   7.653  -7.409  1.00  0.00     0.192 C 
ATOM      9  C   UNL     1       1.568   6.164  -7.090  1.00  0.00     0.044 C 
BRANCH   8  10
ATOM     10  N   UNL     1       2.477   8.072  -8.187  1.00  0.00    -0.329 N 
ATOM     11  C   UNL     1       8.206   5.190  -6.984  1.00  0.00     0.226 C 
ATOM     12  O   UNL     1       8.362   3.998  -6.690  1.00  0.00    -0.275 OA
ATOM     13  N   UNL     1       7.198   5.576  -7.845  1.00  0.00    -0.342 N 
ATOM     14  C   UNL     1       5.968   4.804  -7.858  1.00  0.00     0.120 C 
ATOM     15  C   UNL     1       7.157   6.791  -8.647  1.00  0.00     0.120 C 
ATOM     16  C   UNL     1       4.806   5.705  -7.422  1.00  0.00     0.030 C 
ATOM     17  C   UNL     1       6.128   7.731  -8.072  1.00  0.00     0.030 C 
ATOM     18  C   UNL     1       4.756   7.066  -8.191  1.00  0.00    -0.008 C 
ATOM     19  C   UNL     1       4.490   6.787  -9.711  1.00  0.00     0.019 C 
ATOM     20  C   UNL     1       3.771   8.107  -7.568  1.00  0.00     0.127 C 
ATOM     21  C   UNL     1       3.028   6.637 -10.018  1.00  0.00     0.101 C 
ATOM     22  C   UNL     1       2.522   7.968  -9.555  1.00  0.00     0.223 C 
ATOM     23  O   UNL     1       2.615   8.960 -10.272  1.00  0.00    -0.275 OA
BRANCH  11  24
ATOM     24  C   UNL     1       8.956   6.254  -6.185  1.00  0.00     0.135 C 
BRANCH  24  25
ATOM     25  C   UNL     1       9.517   7.434  -6.934  1.00  0.00    -0.038 A 
ATOM     26  C   UNL     1       8.708  11.153  -7.262  1.00  0.00     0.044 C 
ATOM     27  C   UNL     1       9.314   9.798  -7.502  1.00  0.00    -0.051 A 
ATOM     28  C   UNL     1      10.104   9.575  -8.635  1.00  0.00     0.003 A 
ATOM     29  C   UNL     1       9.046   8.729  -6.640  1.00  0.00     0.007 A 
ATOM     30  C   UNL     1      10.633   8.308  -8.896  1.00  0.00     0.001 A 
ATOM     31  C   UNL     1      10.361   7.241  -8.038  1.00  0.00     0.004 A 
ENDBRANCH  24  25
ENDBRANCH  11  24
ENDBRANCH   8  10
ENDBRANCH   6   8
ENDBRANCH   5   6
ENDBRANCH   4   5
ENDBRANCH   3   4
ENDBRANCH   2   3
ENDBRANCH   1   2
BRANCH   1  32
ATOM     32  C   UNL     1      -3.911   4.278  -7.200  1.00  0.00     0.188 C 
BRANCH  32  33
ATOM     33  O   UNL     1      -5.178   3.729  -7.447  1.00  0.00    -0.376 OA
BRANCH  33  34
ATOM     34  C   UNL     1      -6.033   4.151  -6.398  1.00  0.00     0.202 C 
BRANCH  34  35
ATOM     35  C   UNL     1      -5.547   4.003  -4.866  1.00  0.00     0.261 C 
BRANCH  35  36
ATOM     36  O   UNL     1      -4.065   3.782  -4.239  1.00  0.00    -0.460 OA
BRANCH  36  37
ATOM     37  C   UNL     1      -2.797   3.635  -3.767  1.00  0.00     0.338 C 
ATOM     38  O   UNL     1      -2.481   3.111  -2.702  1.00  0.00    -0.246 OA
BRANCH  37  39
ATOM     39  C   UNL     1      -1.570   4.070  -4.443  1.00  0.00     0.060 A 
ATOM     40  C   UNL     1      -0.841   5.153  -3.957  1.00  0.00     0.016 A 
ATOM     41  C   UNL     1      -1.273   3.593  -5.681  1.00  0.00     0.016 A 
ATOM     42  C   UNL     1      -0.640   6.181  -4.843  1.00  0.00     0.010 A 
ATOM     43  C   UNL     1      -1.054   4.591  -6.580  1.00  0.00     0.010 A 
ATOM     44  C   UNL     1      -1.017   5.925  -6.158  1.00  0.00    -0.014 A 
BRANCH  44  45
ATOM     45  C   UNL     1      -1.482   6.946  -7.120  1.00  0.00     0.031 A 
ATOM     46  C   UNL     1      -0.822   6.589  -8.756  1.00  0.00     0.074 A 
ATOM     47  C   UNL     1      -2.305   8.029  -6.518  1.00  0.00     0.049 A 
ATOM     48  N   UNL     1      -0.223   7.528  -9.447  1.00  0.00    -0.248 NA
ATOM     49  C   UNL     1      -0.628   5.389  -9.604  1.00  0.00     0.031 C 
ATOM     50  C   UNL     1      -3.059   9.337  -7.031  1.00  0.00     0.029 A 
ATOM     51  N   UNL     1      -2.751   8.156  -5.198  1.00  0.00    -0.354 N 
ATOM     52  C   UNL     1      -0.081   7.327 -10.764  1.00  0.00     0.074 A 
ATOM     53  C   UNL     1      -0.168   5.885 -10.788  1.00  0.00     0.031 C 
ATOM     54  C   UNL     1      -3.708  10.036  -6.110  1.00  0.00     0.029 A 
ATOM     55  C   UNL     1      -3.202   9.473  -4.930  1.00  0.00     0.049 A 
ATOM     56  H   UNL     1      -2.752   7.424  -4.540  1.00  0.00     0.167 HD
ATOM     57  C   UNL     1       0.068   8.436 -11.571  1.00  0.00     0.031 A 
ATOM     58  C   UNL     1      -2.551  10.212  -4.017  1.00  0.00     0.031 A 
ATOM     59  C   UNL     1      -0.298   9.796 -10.932  1.00  0.00     0.049 A 
ATOM     60  C   UNL     1      -1.532  11.188  -4.854  1.00  0.00     0.074 A 
ATOM     61  C   UNL     1      -1.436  10.597 -11.023  1.00  0.00     0.029 A 
ATOM     62  N   UNL     1       0.456  10.450  -9.914  1.00  0.00    -0.354 N 
ATOM     63  N   UNL     1      -1.428  11.243  -6.195  1.00  0.00    -0.248 NA
ATOM     64  C   UNL     1      -0.744  12.294  -4.301  1.00  0.00     0.031 C 
ATOM     65  C   UNL     1      -1.462  11.536  -9.923  1.00  0.00     0.029 A 
ATOM     66  C   UNL     1      -0.307  11.411  -9.163  1.00  0.00     0.049 A 
ATOM     67  H   UNL     1       1.407  10.262  -9.741  1.00  0.00     0.167 HD
ATOM     68  C   UNL     1      -0.432  12.113  -6.650  1.00  0.00     0.074 A 
ATOM     69  C   UNL     1      -0.163  12.838  -5.399  1.00  0.00     0.031 C 
ATOM     70  C   UNL     1       0.221  12.133  -7.914  1.00  0.00     0.031 A 
BRANCH  57  71
ATOM     71  C   UNL     1       0.343   8.255 -13.055  1.00  0.00    -0.014 A 
ATOM     72  C   UNL     1      -0.069   9.220 -13.993  1.00  0.00     0.010 A 
ATOM     73  C   UNL     1       1.053   7.147 -13.574  1.00  0.00     0.010 A 
ATOM     74  C   UNL     1       0.119   9.039 -15.376  1.00  0.00     0.020 A 
ATOM     75  C   UNL     1       1.238   6.947 -14.954  1.00  0.00     0.020 A 
ATOM     76  C   UNL     1       0.744   7.886 -15.852  1.00  0.00     0.054 A 
BRANCH  76  77
ATOM     77  S   UNL     1       0.851   7.613 -17.645  1.00  0.00     0.124 S 
ATOM     78  O   UNL     1      -0.553   7.650 -18.048  1.00  0.00    -0.237 OA
ATOM     79  O   UNL     1       1.665   8.738 -18.095  1.00  0.00    -0.237 OA
ATOM     80  O   UNL     1       1.487   6.301 -17.760  1.00  0.00    -0.744 OA
ENDBRANCH  76  77
ENDBRANCH  57  71
BRANCH  58  81
ATOM     81  C   UNL     1      -2.833   9.286  -2.780  1.00  0.00    -0.014 A 
ATOM     82  C   UNL     1      -4.256   9.085  -2.578  1.00  0.00     0.010 A 
ATOM     83  C   UNL     1      -2.069   8.174  -2.336  1.00  0.00     0.010 A 
ATOM     84  C   UNL     1      -4.850   7.860  -2.184  1.00  0.00     0.020 A 
ATOM     85  C   UNL     1      -2.683   6.942  -1.824  1.00  0.00     0.020 A 
ATOM     86  C   UNL     1      -4.078   6.787  -1.773  1.00  0.00     0.054 A 
BRANCH  86  87
ATOM     87  S   UNL     1      -5.052   5.337  -1.120  1.00  0.00     0.124 S 
ATOM     88  O   UNL     1      -5.268   5.733   0.267  1.00  0.00    -0.237 OA
ATOM     89  O   UNL     1      -6.251   5.344  -1.962  1.00  0.00    -0.237 OA
ATOM     90  O   UNL     1      -4.225   4.160  -1.279  1.00  0.00    -0.744 OA
ENDBRANCH  86  87
ENDBRANCH  58  81
BRANCH  70  91
ATOM     91  C   UNL     1       1.579  12.857  -8.086  1.00  0.00    -0.014 A 
ATOM     92  C   UNL     1       2.418  13.198  -7.009  1.00  0.00     0.010 A 
ATOM     93  C   UNL     1       2.102  13.143  -9.372  1.00  0.00     0.010 A 
ATOM     94  C   UNL     1       3.573  13.975  -7.174  1.00  0.00     0.020 A 
ATOM     95  C   UNL     1       3.306  13.848  -9.560  1.00  0.00     0.020 A 
ATOM     96  C   UNL     1       3.995  14.325  -8.451  1.00  0.00     0.054 A 
BRANCH  96  97
ATOM     97  S   UNL     1       5.445  15.396  -8.617  1.00  0.00     0.124 S 
ATOM     98  O   UNL     1       4.920  16.686  -8.172  1.00  0.00    -0.237 OA
ATOM     99  O   UNL     1       6.412  14.774  -7.713  1.00  0.00    -0.237 OA
ATOM    100  O   UNL     1       5.786  15.318 -10.034  1.00  0.00    -0.744 OA
ENDBRANCH  96  97
ENDBRANCH  70  91
ENDBRANCH  44  45
ENDBRANCH  37  39
ENDBRANCH  36  37
ENDBRANCH  35  36
ENDBRANCH  34  35
ENDBRANCH  33  34
ENDBRANCH  32  33
ENDBRANCH   1  32
TORSDOF 23
