REMARK SMILES C/C(=N\NC(N)=O)c1nnn(-c2ccc(C(=O)OCCOCCOCCOC(=O)c3ccc(-c4c5nc(c(-c6ccc(S(=O)(=O)[O-])cc6)c6ccc([nH]6)c(-c6ccc(S(=O)(=O)[O-])cc6)c6nc(c(-c7ccc(S(=O)(=O)[O-])cc7)c7ccc4[nH]7)C=C6)C=C5)cc3)cc2)c1C
REMARK SMILES IDX 22 1 21 2 20 3 19 4 18 5 16 6 17 7 15 8 12 9 13 10 91 11
REMARK SMILES IDX 14 12 90 13 11 14 8 15 9 16 92 17 10 18 93 19 2 20 1 21 3 22
REMARK SMILES IDX 4 23 5 24 6 26 7 27 23 30 24 31 25 32 26 33 27 34 28 35
REMARK SMILES IDX 29 36 30 37 31 38 89 39 32 40 88 41 33 42 34 43 35 44 82 45
REMARK SMILES IDX 36 46 87 47 81 48 83 49 37 50 86 51 80 52 79 53 38 55 68 56
REMARK SMILES IDX 49 57 67 58 50 59 53 60 66 61 84 62 51 63 52 64 65 66 85 67
REMARK SMILES IDX 54 68 39 69 40 70 48 71 41 72 47 73 42 74 43 75 44 76 45 77
REMARK SMILES IDX 46 78 69 79 70 80 78 81 71 82 77 83 72 84 73 85 74 86 75 87
REMARK SMILES IDX 76 88 55 89 56 90 64 91 57 92 63 93 58 94 59 95 60 96 61 97
REMARK SMILES IDX 62 98
REMARK H PARENT 4 25 6 28 6 29 83 54 53 65
REMARK Flexibility Score: inf
ROOT
ATOM      1  C   UNL     1       6.897   7.633  -5.704  1.00  0.00     0.188 C 
ENDROOT
BRANCH   1   2
ATOM      2  O   UNL     1       8.173   8.238  -5.564  1.00  0.00    -0.376 OA
BRANCH   2   3
ATOM      3  C   UNL     1       9.298   7.472  -5.157  1.00  0.00     0.202 C 
BRANCH   3   4
ATOM      4  C   UNL     1       9.227   6.461  -3.996  1.00  0.00     0.261 C 
BRANCH   4   5
ATOM      5  O   UNL     1       8.072   5.615  -3.971  1.00  0.00    -0.460 OA
BRANCH   5   6
ATOM      6  C   UNL     1       7.164   5.875  -3.006  1.00  0.00     0.338 C 
ATOM      7  O   UNL     1       7.269   6.680  -2.093  1.00  0.00    -0.246 OA
BRANCH   6   8
ATOM      8  C   UNL     1       5.915   5.126  -3.276  1.00  0.00     0.060 A 
ATOM      9  C   UNL     1       3.545   3.707  -3.474  1.00  0.00     0.067 A 
ATOM     10  C   UNL     1       3.489   5.061  -3.136  1.00  0.00     0.029 A 
ATOM     11  C   UNL     1       4.750   3.104  -3.861  1.00  0.00     0.029 A 
ATOM     12  C   UNL     1       4.689   5.761  -3.012  1.00  0.00     0.018 A 
ATOM     13  C   UNL     1       5.941   3.818  -3.770  1.00  0.00     0.018 A 
BRANCH   9  14
ATOM     14  N   UNL     1       2.450   2.881  -3.150  1.00  0.00    -0.217 N 
ATOM     15  C   UNL     1       1.161   1.444  -2.142  1.00  0.00     0.132 A 
ATOM     16  N   UNL     1       0.392   2.240  -2.952  1.00  0.00    -0.128 NA
ATOM     17  C   UNL     1       2.476   1.857  -2.215  1.00  0.00     0.071 A 
ATOM     18  N   UNL     1       1.175   3.177  -3.476  1.00  0.00    -0.061 NA
ATOM     19  C   UNL     1       3.675   1.481  -1.426  1.00  0.00     0.069 C 
BRANCH  15  20
ATOM     20  C   UNL     1       0.601   0.444  -1.247  1.00  0.00     0.087 C 
ATOM     21  C   UNL     1       0.718   0.716   0.233  1.00  0.00     0.071 C 
ATOM     22  N   UNL     1       0.033  -0.569  -1.831  1.00  0.00    -0.174 NA
BRANCH  22  23
ATOM     23  N   UNL     1      -0.480  -1.627  -1.134  1.00  0.00    -0.229 N 
ATOM     24  C   UNL     1       0.129  -2.302  -0.098  1.00  0.00     0.332 C 
ATOM     25  H   UNL     1      -1.375  -1.938  -1.399  1.00  0.00     0.195 HD
ATOM     26  N   UNL     1      -0.626  -3.342   0.356  1.00  0.00    -0.350 N 
ATOM     27  O   UNL     1       1.209  -2.059   0.421  1.00  0.00    -0.247 OA
ATOM     28  H   UNL     1      -1.496  -3.539  -0.061  1.00  0.00     0.161 HD
ATOM     29  H   UNL     1      -0.301  -3.897   1.102  1.00  0.00     0.161 HD
ENDBRANCH  22  23
ENDBRANCH  15  20
ENDBRANCH   9  14
ENDBRANCH   6   8
ENDBRANCH   5   6
ENDBRANCH   4   5
ENDBRANCH   3   4
ENDBRANCH   2   3
ENDBRANCH   1   2
BRANCH   1  30
ATOM     30  C   UNL     1       6.724   6.300  -6.471  1.00  0.00     0.188 C 
BRANCH  30  31
ATOM     31  O   UNL     1       7.903   5.548  -6.659  1.00  0.00    -0.376 OA
BRANCH  31  32
ATOM     32  C   UNL     1       8.608   5.544  -7.890  1.00  0.00     0.202 C 
BRANCH  32  33
ATOM     33  C   UNL     1       8.648   6.710  -8.879  1.00  0.00     0.261 C 
BRANCH  33  34
ATOM     34  O   UNL     1       7.780   7.785  -8.602  1.00  0.00    -0.460 OA
BRANCH  34  35
ATOM     35  C   UNL     1       6.564   7.659  -9.170  1.00  0.00     0.338 C 
ATOM     36  O   UNL     1       6.101   6.660  -9.694  1.00  0.00    -0.246 OA
BRANCH  35  37
ATOM     37  C   UNL     1       5.886   8.953  -9.107  1.00  0.00     0.060 A 
ATOM     38  C   UNL     1       4.546   8.963  -9.494  1.00  0.00     0.016 A 
ATOM     39  C   UNL     1       6.667  10.117  -9.041  1.00  0.00     0.016 A 
ATOM     40  C   UNL     1       4.076  10.094 -10.111  1.00  0.00     0.010 A 
ATOM     41  C   UNL     1       6.202  11.239  -9.675  1.00  0.00     0.010 A 
ATOM     42  C   UNL     1       4.963  11.159 -10.300  1.00  0.00    -0.014 A 
BRANCH  42  43
ATOM     43  C   UNL     1       4.570  12.181 -11.236  1.00  0.00     0.031 A 
ATOM     44  C   UNL     1       3.602  13.142 -10.687  1.00  0.00     0.074 A 
ATOM     45  C   UNL     1       5.101  12.254 -12.469  1.00  0.00     0.049 A 
ATOM     46  N   UNL     1       2.351  13.251 -10.976  1.00  0.00    -0.248 NA
ATOM     47  C   UNL     1       4.045  13.957  -9.547  1.00  0.00     0.031 C 
ATOM     48  C   UNL     1       6.268  11.547 -13.007  1.00  0.00     0.029 A 
ATOM     49  N   UNL     1       4.758  13.092 -13.476  1.00  0.00    -0.354 N 
ATOM     50  C   UNL     1       1.885  14.295 -10.191  1.00  0.00     0.074 A 
ATOM     51  C   UNL     1       2.904  14.550  -9.203  1.00  0.00     0.031 C 
ATOM     52  C   UNL     1       6.674  12.169 -14.138  1.00  0.00     0.029 A 
ATOM     53  C   UNL     1       5.718  13.215 -14.467  1.00  0.00     0.049 A 
ATOM     54  H   UNL     1       3.899  13.573 -13.502  1.00  0.00     0.167 HD
ATOM     55  C   UNL     1       0.813  15.045 -10.561  1.00  0.00     0.031 A 
ATOM     56  C   UNL     1       5.754  14.181 -15.418  1.00  0.00     0.031 A 
ATOM     57  C   UNL     1       0.057  14.422 -11.614  1.00  0.00     0.049 A 
ATOM     58  C   UNL     1       4.386  14.759 -15.508  1.00  0.00     0.074 A 
ATOM     59  C   UNL     1      -0.642  13.237 -11.732  1.00  0.00     0.029 A 
ATOM     60  N   UNL     1       0.284  14.865 -12.897  1.00  0.00    -0.354 N 
ATOM     61  N   UNL     1       3.349  14.094 -15.939  1.00  0.00    -0.248 NA
ATOM     62  C   UNL     1       4.076  15.924 -14.690  1.00  0.00     0.031 C 
ATOM     63  C   UNL     1      -0.404  12.799 -13.066  1.00  0.00     0.029 A 
ATOM     64  C   UNL     1       0.382  13.762 -13.705  1.00  0.00     0.049 A 
ATOM     65  H   UNL     1       0.362  15.804 -13.182  1.00  0.00     0.167 HD
ATOM     66  C   UNL     1       2.297  14.496 -15.125  1.00  0.00     0.074 A 
ATOM     67  C   UNL     1       2.784  15.691 -14.441  1.00  0.00     0.031 C 
ATOM     68  C   UNL     1       1.238  13.672 -14.872  1.00  0.00     0.031 A 
BRANCH  55  69
ATOM     69  C   UNL     1       0.697  16.510 -10.241  1.00  0.00    -0.014 A 
ATOM     70  C   UNL     1      -0.489  17.188 -10.574  1.00  0.00     0.010 A 
ATOM     71  C   UNL     1       1.808  17.298  -9.873  1.00  0.00     0.010 A 
ATOM     72  C   UNL     1      -0.537  18.587 -10.599  1.00  0.00     0.020 A 
ATOM     73  C   UNL     1       1.758  18.689  -9.846  1.00  0.00     0.020 A 
ATOM     74  C   UNL     1       0.594  19.326 -10.248  1.00  0.00     0.054 A 
BRANCH  74  75
ATOM     75  S   UNL     1       0.564  21.127 -10.400  1.00  0.00     0.124 S 
ATOM     76  O   UNL     1       0.465  21.302 -11.845  1.00  0.00    -0.237 OA
ATOM     77  O   UNL     1      -0.626  21.482  -9.632  1.00  0.00    -0.237 OA
ATOM     78  O   UNL     1       1.832  21.541  -9.803  1.00  0.00    -0.744 OA
ENDBRANCH  74  75
ENDBRANCH  55  69
BRANCH  56  79
ATOM     79  C   UNL     1       6.958  14.866 -15.953  1.00  0.00    -0.014 A 
ATOM     80  C   UNL     1       6.881  15.682 -17.096  1.00  0.00     0.010 A 
ATOM     81  C   UNL     1       8.136  14.935 -15.178  1.00  0.00     0.010 A 
ATOM     82  C   UNL     1       7.918  16.575 -17.418  1.00  0.00     0.020 A 
ATOM     83  C   UNL     1       9.176  15.816 -15.496  1.00  0.00     0.020 A 
ATOM     84  C   UNL     1       9.052  16.650 -16.603  1.00  0.00     0.054 A 
BRANCH  84  85
ATOM     85  S   UNL     1      10.303  17.929 -16.924  1.00  0.00     0.124 S 
ATOM     86  O   UNL     1      10.930  17.449 -18.152  1.00  0.00    -0.237 OA
ATOM     87  O   UNL     1       9.496  19.138 -17.055  1.00  0.00    -0.237 OA
ATOM     88  O   UNL     1      11.154  17.883 -15.735  1.00  0.00    -0.744 OA
ENDBRANCH  84  85
ENDBRANCH  56  79
BRANCH  68  89
ATOM     89  C   UNL     1       1.075  12.423 -15.708  1.00  0.00    -0.014 A 
ATOM     90  C   UNL     1       1.989  11.351 -15.688  1.00  0.00     0.010 A 
ATOM     91  C   UNL     1      -0.151  12.249 -16.375  1.00  0.00     0.010 A 
ATOM     92  C   UNL     1       1.679  10.136 -16.320  1.00  0.00     0.020 A 
ATOM     93  C   UNL     1      -0.471  11.038 -16.991  1.00  0.00     0.020 A 
ATOM     94  C   UNL     1       0.445   9.986 -16.962  1.00  0.00     0.054 A 
BRANCH  94  95
ATOM     95  S   UNL     1       0.004   8.382 -17.692  1.00  0.00     0.124 S 
ATOM     96  O   UNL     1       0.879   8.314 -18.859  1.00  0.00    -0.237 OA
ATOM     97  O   UNL     1       0.312   7.439 -16.619  1.00  0.00    -0.237 OA
ATOM     98  O   UNL     1      -1.420   8.517 -17.993  1.00  0.00    -0.744 OA
ENDBRANCH  94  95
ENDBRANCH  68  89
ENDBRANCH  42  43
ENDBRANCH  35  37
ENDBRANCH  34  35
ENDBRANCH  33  34
ENDBRANCH  32  33
ENDBRANCH  31  32
ENDBRANCH  30  31
ENDBRANCH   1  30
TORSDOF 23
