REMARK SMILES [NH3+][C@]1(C(=O)OCCOCCOCCOC(=O)c2ccc(-c3c4nc(c(-c5ccc(S(=O)(=O)[O-])cc5)c5ccc([nH]5)c(-c5ccc(S(=O)(=O)[O-])cc5)c5nc(c(-c6ccc(S(=O)(=O)[O-])cc6)c6ccc3[nH]6)C=C5)C=C4)cc2)CC[C@@H](Sc2ccc(Cl)c(Cl)c2)C1
REMARK SMILES IDX 10 1 9 2 8 3 7 4 6 5 5 6 3 7 4 8 2 9 77 10 89 11 78 12 79 13
REMARK SMILES IDX 1 14 80 18 81 19 82 20 88 21 83 22 86 23 84 24 87 25 85 26
REMARK SMILES IDX 11 27 12 28 13 29 14 30 15 31 16 32 17 33 18 34 76 35 19 36
REMARK SMILES IDX 75 37 20 38 21 39 22 40 69 41 23 42 74 43 68 44 70 45 24 46
REMARK SMILES IDX 73 47 67 48 66 49 25 51 55 52 36 53 54 54 37 55 40 56 53 57
REMARK SMILES IDX 71 58 38 59 39 60 52 62 72 63 41 64 26 65 27 66 35 67 28 68
REMARK SMILES IDX 34 69 29 70 30 71 31 72 32 73 33 74 56 75 57 76 65 77 58 78
REMARK SMILES IDX 64 79 59 80 60 81 61 82 62 83 63 84 42 85 43 86 51 87 44 88
REMARK SMILES IDX 50 89 45 90 46 91 47 92 48 93 49 94
REMARK H PARENT 1 15 1 16 1 17 70 50 40 61
REMARK Flexibility Score: inf
ROOT
ATOM      1  C   UNL     1       1.575   2.920   1.470  1.00  0.00     0.188 C 
ENDROOT
BRANCH   1   2
ATOM      2  C   UNL     1       2.196   1.566   1.166  1.00  0.00     0.188 C 
BRANCH   2   3
ATOM      3  O   UNL     1       2.289   0.696   2.286  1.00  0.00    -0.376 OA
BRANCH   3   4
ATOM      4  C   UNL     1       3.284  -0.313   2.118  1.00  0.00     0.202 C 
BRANCH   4   5
ATOM      5  C   UNL     1       3.195  -1.290   0.919  1.00  0.00     0.261 C 
BRANCH   5   6
ATOM      6  O   UNL     1       2.666  -0.767  -0.319  1.00  0.00    -0.459 OA
BRANCH   6   7
ATOM      7  C   UNL     1       1.389  -1.177  -0.618  1.00  0.00     0.368 C 
ATOM      8  O   UNL     1       0.717  -1.889   0.118  1.00  0.00    -0.245 OA
BRANCH   7   9
ATOM      9  C   UNL     1       0.923  -0.676  -2.019  1.00  0.00     0.193 C 
ATOM     10  C   UNL     1      -0.433  -1.308  -2.384  1.00  0.00     0.082 C 
ATOM     11  C   UNL     1       0.682   0.847  -2.104  1.00  0.00     0.095 C 
ATOM     12  C   UNL     1      -1.160  -0.280  -3.232  1.00  0.00     0.022 C 
ATOM     13  C   UNL     1      -0.722   1.059  -2.670  1.00  0.00     0.059 C 
BRANCH   9  14
ATOM     14  N   UNL     1       1.920  -1.049  -3.056  1.00  0.00    -0.343 N 
ATOM     15  H   UNL     1       1.603  -0.716  -3.967  1.00  0.00     0.345 HD
ATOM     16  H   UNL     1       2.020  -2.064  -3.081  1.00  0.00     0.345 HD
ATOM     17  H   UNL     1       2.819  -0.624  -2.832  1.00  0.00     0.345 HD
ENDBRANCH   9  14
BRANCH  13  18
ATOM     18  S   UNL     1      -1.913   1.834  -1.503  1.00  0.00    -0.122 SA
BRANCH  18  19
ATOM     19  C   UNL     1      -1.991   0.756  -0.084  1.00  0.00     0.009 A 
ATOM     20  C   UNL     1      -2.786  -0.383  -0.064  1.00  0.00     0.017 A 
ATOM     21  C   UNL     1      -1.425   1.174   1.119  1.00  0.00     0.037 A 
ATOM     22  C   UNL     1      -3.029  -1.066   1.140  1.00  0.00     0.023 A 
ATOM     23  C   UNL     1      -1.633   0.485   2.323  1.00  0.00     0.060 A 
ATOM     24  C   UNL     1      -2.485  -0.613   2.340  1.00  0.00     0.059 A 
ATOM     25  Cl  UNL     1      -0.857   1.048   3.762  1.00  0.00    -0.083 Cl
ATOM     26  Cl  UNL     1      -2.978  -1.379   3.807  1.00  0.00    -0.083 Cl
ENDBRANCH  18  19
ENDBRANCH  13  18
ENDBRANCH   7   9
ENDBRANCH   6   7
ENDBRANCH   5   6
ENDBRANCH   4   5
ENDBRANCH   3   4
ENDBRANCH   2   3
ENDBRANCH   1   2
BRANCH   1  27
ATOM     27  O   UNL     1       2.449   3.788   2.172  1.00  0.00    -0.376 OA
BRANCH  27  28
ATOM     28  C   UNL     1       2.042   3.944   3.537  1.00  0.00     0.202 C 
BRANCH  28  29
ATOM     29  C   UNL     1       0.833   4.891   3.728  1.00  0.00     0.261 C 
BRANCH  29  30
ATOM     30  O   UNL     1      -0.468   4.293   3.451  1.00  0.00    -0.460 OA
BRANCH  30  31
ATOM     31  C   UNL     1      -1.190   4.826   2.415  1.00  0.00     0.338 C 
ATOM     32  O   UNL     1      -0.793   5.685   1.664  1.00  0.00    -0.246 OA
BRANCH  31  33
ATOM     33  C   UNL     1      -2.533   4.159   2.230  1.00  0.00     0.060 A 
ATOM     34  C   UNL     1      -3.126   4.220   0.958  1.00  0.00     0.016 A 
ATOM     35  C   UNL     1      -3.224   3.481   3.239  1.00  0.00     0.016 A 
ATOM     36  C   UNL     1      -4.366   3.599   0.689  1.00  0.00     0.010 A 
ATOM     37  C   UNL     1      -4.469   2.860   2.971  1.00  0.00     0.010 A 
ATOM     38  C   UNL     1      -5.066   2.920   1.696  1.00  0.00    -0.014 A 
BRANCH  38  39
ATOM     39  C   UNL     1      -6.500   2.506   1.498  1.00  0.00     0.031 A 
ATOM     40  C   UNL     1      -7.560   3.551   1.666  1.00  0.00     0.074 A 
ATOM     41  C   UNL     1      -6.919   1.271   1.146  1.00  0.00     0.049 A 
ATOM     42  N   UNL     1      -8.844   3.453   1.442  1.00  0.00    -0.248 NA
ATOM     43  C   UNL     1      -7.108   4.888   2.074  1.00  0.00     0.031 C 
ATOM     44  C   UNL     1      -6.042   0.196   0.743  1.00  0.00     0.029 A 
ATOM     45  N   UNL     1      -8.172   0.700   1.059  1.00  0.00    -0.354 N 
ATOM     46  C   UNL     1      -9.342   4.734   1.591  1.00  0.00     0.074 A 
ATOM     47  C   UNL     1      -8.237   5.576   2.002  1.00  0.00     0.031 C 
ATOM     48  C   UNL     1      -6.739  -0.939   0.568  1.00  0.00     0.029 A 
ATOM     49  C   UNL     1      -8.150  -0.657   0.802  1.00  0.00     0.049 A 
ATOM     50  H   UNL     1      -9.005   1.213   1.170  1.00  0.00     0.167 HD
ATOM     51  C   UNL     1     -10.599   5.180   1.371  1.00  0.00     0.031 A 
ATOM     52  C   UNL     1      -9.140  -1.574   0.732  1.00  0.00     0.031 A 
ATOM     53  C   UNL     1     -11.727   4.342   1.070  1.00  0.00     0.049 A 
ATOM     54  C   UNL     1     -10.566  -1.095   0.747  1.00  0.00     0.074 A 
ATOM     55  C   UNL     1     -13.047   4.715   0.891  1.00  0.00     0.029 A 
ATOM     56  N   UNL     1     -11.682   2.961   0.948  1.00  0.00    -0.354 N 
ATOM     57  N   UNL     1     -11.009   0.137   0.824  1.00  0.00    -0.248 NA
ATOM     58  C   UNL     1     -11.621  -2.107   0.585  1.00  0.00     0.031 C 
ATOM     59  C   UNL     1     -13.813   3.554   0.736  1.00  0.00     0.029 A 
ATOM     60  C   UNL     1     -12.961   2.462   0.752  1.00  0.00     0.049 A 
ATOM     61  H   UNL     1     -10.864   2.416   0.993  1.00  0.00     0.167 HD
ATOM     62  C   UNL     1     -12.384   0.056   0.650  1.00  0.00     0.074 A 
ATOM     63  C   UNL     1     -12.704  -1.347   0.479  1.00  0.00     0.031 C 
ATOM     64  C   UNL     1     -13.289   1.065   0.603  1.00  0.00     0.031 A 
BRANCH  51  65
ATOM     65  C   UNL     1     -10.798   6.659   1.505  1.00  0.00    -0.014 A 
ATOM     66  C   UNL     1     -10.308   7.538   0.521  1.00  0.00     0.010 A 
ATOM     67  C   UNL     1     -11.435   7.175   2.644  1.00  0.00     0.010 A 
ATOM     68  C   UNL     1     -10.415   8.918   0.699  1.00  0.00     0.020 A 
ATOM     69  C   UNL     1     -11.562   8.554   2.813  1.00  0.00     0.020 A 
ATOM     70  C   UNL     1     -11.034   9.416   1.849  1.00  0.00     0.054 A 
BRANCH  70  71
ATOM     71  S   UNL     1     -11.149  11.212   2.064  1.00  0.00     0.124 S 
ATOM     72  O   UNL     1      -9.766  11.566   2.375  1.00  0.00    -0.237 OA
ATOM     73  O   UNL     1     -11.635  11.660   0.762  1.00  0.00    -0.237 OA
ATOM     74  O   UNL     1     -12.094  11.368   3.167  1.00  0.00    -0.744 OA
ENDBRANCH  70  71
ENDBRANCH  51  65
BRANCH  52  75
ATOM     75  C   UNL     1      -8.830  -3.029   0.585  1.00  0.00    -0.014 A 
ATOM     76  C   UNL     1      -9.070  -3.708  -0.622  1.00  0.00     0.010 A 
ATOM     77  C   UNL     1      -8.310  -3.754   1.676  1.00  0.00     0.010 A 
ATOM     78  C   UNL     1      -8.806  -5.080  -0.735  1.00  0.00     0.020 A 
ATOM     79  C   UNL     1      -8.029  -5.122   1.562  1.00  0.00     0.020 A 
ATOM     80  C   UNL     1      -8.283  -5.779   0.357  1.00  0.00     0.054 A 
BRANCH  80  81
ATOM     81  S   UNL     1      -7.893  -7.543   0.162  1.00  0.00     0.124 S 
ATOM     82  O   UNL     1      -9.220  -8.145   0.083  1.00  0.00    -0.237 OA
ATOM     83  O   UNL     1      -7.117  -7.556  -1.076  1.00  0.00    -0.237 OA
ATOM     84  O   UNL     1      -7.132  -7.862   1.368  1.00  0.00    -0.744 OA
ENDBRANCH  80  81
ENDBRANCH  52  75
BRANCH  64  85
ATOM     85  C   UNL     1     -14.724   0.696   0.338  1.00  0.00    -0.014 A 
ATOM     86  C   UNL     1     -15.497   0.031   1.306  1.00  0.00     0.010 A 
ATOM     87  C   UNL     1     -15.319   1.055  -0.885  1.00  0.00     0.010 A 
ATOM     88  C   UNL     1     -16.828  -0.300   1.042  1.00  0.00     0.020 A 
ATOM     89  C   UNL     1     -16.658   0.751  -1.143  1.00  0.00     0.020 A 
ATOM     90  C   UNL     1     -17.400   0.060  -0.183  1.00  0.00     0.054 A 
BRANCH  90  91
ATOM     91  S   UNL     1     -19.140  -0.350  -0.489  1.00  0.00     0.124 S 
ATOM     92  O   UNL     1     -19.072  -1.785  -0.752  1.00  0.00    -0.237 OA
ATOM     93  O   UNL     1     -19.785   0.029   0.766  1.00  0.00    -0.237 OA
ATOM     94  O   UNL     1     -19.494   0.479  -1.639  1.00  0.00    -0.744 OA
ENDBRANCH  90  91
ENDBRANCH  64  85
ENDBRANCH  38  39
ENDBRANCH  31  33
ENDBRANCH  30  31
ENDBRANCH  29  30
ENDBRANCH  28  29
ENDBRANCH  27  28
ENDBRANCH   1  27
TORSDOF 23
