REMARK SMILES Cc1cn2c(=O)cc(CSc3ccccc3C(=O)OCCOCCOCCOC(=O)c3ccc(-c4c5nc(c(-c6ccc(S(=O)(=O)[O-])cc6)c6ccc([nH]6)c(-c6ccc(S(=O)(=O)[O-])cc6)c6nc(c(-c7ccc(S(=O)(=O)[O-])cc7)c7ccc4[nH]7)C=C6)C=C5)cc3)nc2s1
REMARK SMILES IDX 23 1 22 2 21 3 20 4 19 5 17 6 18 7 16 8 11 9 12 10 13 11
REMARK SMILES IDX 15 12 14 13 10 14 9 15 8 16 1 17 2 18 3 19 93 20 4 21 92 22
REMARK SMILES IDX 5 23 91 24 6 25 7 26 24 27 25 28 26 29 27 30 28 31 29 32
REMARK SMILES IDX 30 33 31 34 32 35 90 36 33 37 89 38 34 39 35 40 36 41 83 42
REMARK SMILES IDX 37 43 88 44 82 45 84 46 38 47 87 48 81 49 80 50 39 52 69 53
REMARK SMILES IDX 50 54 68 55 51 56 54 57 67 58 85 59 52 60 53 61 66 63 86 64
REMARK SMILES IDX 55 65 40 66 41 67 49 68 42 69 48 70 43 71 44 72 45 73 46 74
REMARK SMILES IDX 47 75 70 76 71 77 79 78 72 79 78 80 73 81 74 82 75 83 76 84
REMARK SMILES IDX 77 85 56 86 57 87 65 88 58 89 64 90 59 91 60 92 61 93 62 94
REMARK SMILES IDX 63 95
REMARK H PARENT 84 51 54 62
REMARK Flexibility Score: inf
ROOT
ATOM      1  C   UNL     1       3.888   3.273   2.364  1.00  0.00     0.188 C 
ENDROOT
BRANCH   1   2
ATOM      2  O   UNL     1       2.721   2.658   1.833  1.00  0.00    -0.376 OA
BRANCH   2   3
ATOM      3  C   UNL     1       2.264   3.062   0.561  1.00  0.00     0.202 C 
BRANCH   3   4
ATOM      4  C   UNL     1       1.490   4.380   0.564  1.00  0.00     0.261 C 
BRANCH   4   5
ATOM      5  O   UNL     1       1.525   5.130   1.781  1.00  0.00    -0.460 OA
BRANCH   5   6
ATOM      6  C   UNL     1       1.027   4.612   2.921  1.00  0.00     0.339 C 
ATOM      7  O   UNL     1       0.577   3.504   3.129  1.00  0.00    -0.246 OA
BRANCH   6   8
ATOM      8  C   UNL     1       1.182   5.625   3.976  1.00  0.00     0.073 A 
ATOM      9  C   UNL     1       0.839   6.973   3.779  1.00  0.00     0.022 A 
ATOM     10  C   UNL     1       1.251   7.889   4.759  1.00  0.00     0.016 A 
ATOM     11  C   UNL     1       1.902   7.463   5.927  1.00  0.00     0.001 A 
ATOM     12  C   UNL     1       1.778   5.186   5.173  1.00  0.00     0.017 A 
ATOM     13  C   UNL     1       2.139   6.109   6.149  1.00  0.00     0.001 A 
BRANCH   9  14
ATOM     14  S   UNL     1       0.052   7.625   2.294  1.00  0.00    -0.119 SA
BRANCH  14  15
ATOM     15  C   UNL     1      -1.687   7.040   2.381  1.00  0.00     0.131 C 
BRANCH  15  16
ATOM     16  C   UNL     1      -1.912   5.538   2.310  1.00  0.00     0.059 A 
ATOM     17  C   UNL     1      -0.513   0.029   0.216  1.00  0.00     0.058 C 
ATOM     18  C   UNL     1      -1.222   1.247   0.702  1.00  0.00     0.022 A 
ATOM     19  C   UNL     1      -1.574   1.516   1.968  1.00  0.00     0.111 A 
ATOM     20  S   UNL     1      -1.576   2.611  -0.342  1.00  0.00    -0.102 S 
ATOM     21  N   UNL     1      -1.952   2.828   2.177  1.00  0.00    -0.258 N 
ATOM     22  C   UNL     1      -1.851   3.637   1.072  1.00  0.00     0.197 A 
ATOM     23  C   UNL     1      -2.252   3.373   3.399  1.00  0.00     0.258 A 
ATOM     24  N   UNL     1      -1.864   4.933   1.062  1.00  0.00    -0.224 NA
ATOM     25  O   UNL     1      -2.538   2.752   4.420  1.00  0.00    -0.269 OA
ATOM     26  C   UNL     1      -2.187   4.854   3.435  1.00  0.00     0.097 A 
ENDBRANCH  15  16
ENDBRANCH  14  15
ENDBRANCH   9  14
ENDBRANCH   6   8
ENDBRANCH   5   6
ENDBRANCH   4   5
ENDBRANCH   3   4
ENDBRANCH   2   3
ENDBRANCH   1   2
BRANCH   1  27
ATOM     27  C   UNL     1       4.358   4.693   1.948  1.00  0.00     0.188 C 
BRANCH  27  28
ATOM     28  O   UNL     1       4.094   5.062   0.595  1.00  0.00    -0.376 OA
BRANCH  28  29
ATOM     29  C   UNL     1       5.189   5.240  -0.290  1.00  0.00     0.202 C 
BRANCH  29  30
ATOM     30  C   UNL     1       5.617   3.930  -0.954  1.00  0.00     0.261 C 
BRANCH  30  31
ATOM     31  O   UNL     1       5.910   2.914  -0.003  1.00  0.00    -0.460 OA
BRANCH  31  32
ATOM     32  C   UNL     1       6.917   3.239   0.832  1.00  0.00     0.338 C 
ATOM     33  O   UNL     1       7.592   4.252   0.825  1.00  0.00    -0.246 OA
BRANCH  32  34
ATOM     34  C   UNL     1       7.080   2.178   1.817  1.00  0.00     0.060 A 
ATOM     35  C   UNL     1       7.686   2.535   3.024  1.00  0.00     0.016 A 
ATOM     36  C   UNL     1       6.894   0.853   1.410  1.00  0.00     0.016 A 
ATOM     37  C   UNL     1       8.401   1.569   3.679  1.00  0.00     0.010 A 
ATOM     38  C   UNL     1       7.632  -0.106   2.047  1.00  0.00     0.010 A 
ATOM     39  C   UNL     1       8.475   0.311   3.077  1.00  0.00    -0.014 A 
BRANCH  39  40
ATOM     40  C   UNL     1       9.680  -0.439   3.328  1.00  0.00     0.031 A 
ATOM     41  C   UNL     1       9.607  -1.441   4.392  1.00  0.00     0.074 A 
ATOM     42  C   UNL     1      10.758  -0.252   2.545  1.00  0.00     0.049 A 
ATOM     43  N   UNL     1      10.211  -1.418   5.530  1.00  0.00    -0.248 NA
ATOM     44  C   UNL     1       8.661  -2.548   4.209  1.00  0.00     0.031 C 
ATOM     45  C   UNL     1      10.836   0.480   1.274  1.00  0.00     0.029 A 
ATOM     46  N   UNL     1      11.993  -0.799   2.666  1.00  0.00    -0.354 N 
ATOM     47  C   UNL     1       9.855  -2.604   6.149  1.00  0.00     0.074 A 
ATOM     48  C   UNL     1       8.777  -3.174   5.378  1.00  0.00     0.031 C 
ATOM     49  C   UNL     1      11.974   0.127   0.637  1.00  0.00     0.029 A 
ATOM     50  C   UNL     1      12.741  -0.757   1.500  1.00  0.00     0.049 A 
ATOM     51  H   UNL     1      12.327  -1.190   3.505  1.00  0.00     0.167 HD
ATOM     52  C   UNL     1      10.615  -3.176   7.117  1.00  0.00     0.031 A 
ATOM     53  C   UNL     1      13.841  -1.505   1.241  1.00  0.00     0.031 A 
ATOM     54  C   UNL     1      11.631  -2.302   7.629  1.00  0.00     0.049 A 
ATOM     55  C   UNL     1      14.373  -1.965   2.554  1.00  0.00     0.074 A 
ATOM     56  C   UNL     1      11.616  -1.083   8.277  1.00  0.00     0.029 A 
ATOM     57  N   UNL     1      12.911  -2.468   7.151  1.00  0.00    -0.354 N 
ATOM     58  N   UNL     1      14.876  -1.165   3.455  1.00  0.00    -0.248 NA
ATOM     59  C   UNL     1      13.963  -3.271   3.055  1.00  0.00     0.031 C 
ATOM     60  C   UNL     1      12.756  -0.384   7.787  1.00  0.00     0.029 A 
ATOM     61  C   UNL     1      13.415  -1.219   6.881  1.00  0.00     0.049 A 
ATOM     62  H   UNL     1      13.379  -3.325   7.025  1.00  0.00     0.167 HD
ATOM     63  C   UNL     1      14.484  -1.696   4.678  1.00  0.00     0.074 A 
ATOM     64  C   UNL     1      14.026  -3.047   4.371  1.00  0.00     0.031 C 
ATOM     65  C   UNL     1      14.304  -0.904   5.777  1.00  0.00     0.031 A 
BRANCH  52  66
ATOM     66  C   UNL     1      10.628  -4.656   7.322  1.00  0.00    -0.014 A 
ATOM     67  C   UNL     1      11.052  -5.194   8.545  1.00  0.00     0.010 A 
ATOM     68  C   UNL     1      10.427  -5.546   6.242  1.00  0.00     0.010 A 
ATOM     69  C   UNL     1      11.267  -6.571   8.679  1.00  0.00     0.020 A 
ATOM     70  C   UNL     1      10.588  -6.920   6.380  1.00  0.00     0.020 A 
ATOM     71  C   UNL     1      11.034  -7.422   7.594  1.00  0.00     0.054 A 
BRANCH  71  72
ATOM     72  S   UNL     1      11.405  -9.184   7.754  1.00  0.00     0.124 S 
ATOM     73  O   UNL     1      12.846  -9.167   7.987  1.00  0.00    -0.237 OA
ATOM     74  O   UNL     1      10.581  -9.571   8.896  1.00  0.00    -0.237 OA
ATOM     75  O   UNL     1      10.986  -9.742   6.470  1.00  0.00    -0.744 OA
ENDBRANCH  71  72
ENDBRANCH  52  66
BRANCH  53  76
ATOM     76  C   UNL     1      14.210  -2.111  -0.066  1.00  0.00    -0.014 A 
ATOM     77  C   UNL     1      15.427  -2.798  -0.225  1.00  0.00     0.010 A 
ATOM     78  C   UNL     1      13.263  -2.226  -1.108  1.00  0.00     0.010 A 
ATOM     79  C   UNL     1      15.660  -3.610  -1.349  1.00  0.00     0.020 A 
ATOM     80  C   UNL     1      13.493  -3.015  -2.239  1.00  0.00     0.020 A 
ATOM     81  C   UNL     1      14.680  -3.729  -2.339  1.00  0.00     0.054 A 
BRANCH  81  82
ATOM     82  S   UNL     1      14.929  -4.889  -3.712  1.00  0.00     0.124 S 
ATOM     83  O   UNL     1      16.179  -4.418  -4.301  1.00  0.00    -0.237 OA
ATOM     84  O   UNL     1      14.998  -6.173  -3.021  1.00  0.00    -0.237 OA
ATOM     85  O   UNL     1      13.743  -4.698  -4.546  1.00  0.00    -0.744 OA
ENDBRANCH  81  82
ENDBRANCH  53  76
BRANCH  65  86
ATOM     86  C   UNL     1      14.802   0.524   5.723  1.00  0.00    -0.014 A 
ATOM     87  C   UNL     1      14.256   1.485   4.849  1.00  0.00     0.010 A 
ATOM     88  C   UNL     1      15.695   0.955   6.721  1.00  0.00     0.010 A 
ATOM     89  C   UNL     1      14.591   2.841   4.974  1.00  0.00     0.020 A 
ATOM     90  C   UNL     1      16.022   2.308   6.860  1.00  0.00     0.020 A 
ATOM     91  C   UNL     1      15.461   3.246   5.990  1.00  0.00     0.054 A 
BRANCH  91  92
ATOM     92  S   UNL     1      15.806   5.016   6.204  1.00  0.00     0.124 S 
ATOM     93  O   UNL     1      16.409   5.384   4.926  1.00  0.00    -0.237 OA
ATOM     94  O   UNL     1      14.477   5.570   6.456  1.00  0.00    -0.237 OA
ATOM     95  O   UNL     1      16.714   5.060   7.350  1.00  0.00    -0.744 OA
ENDBRANCH  91  92
ENDBRANCH  65  86
ENDBRANCH  39  40
ENDBRANCH  32  34
ENDBRANCH  31  32
ENDBRANCH  30  31
ENDBRANCH  29  30
ENDBRANCH  28  29
ENDBRANCH  27  28
ENDBRANCH   1  27
TORSDOF 23
