REMARK SMILES CCCCCC[C@H]1OCC[C@H]1C(=O)OCCOCCOCCOC(=O)c1ccc(-c2c3nc(c(-c4ccc(S(=O)(=O)[O-])cc4)c4ccc([nH]4)c(-c4ccc(S(=O)(=O)[O-])cc4)c4nc(c(-c5ccc(S(=O)(=O)[O-])cc5)c5ccc2[nH]5)C=C4)C=C3)cc1
REMARK SMILES IDX 18 1 17 2 16 3 15 4 14 5 12 6 13 7 11 8 7 9 8 10 9 11 10 12
REMARK SMILES IDX 6 13 5 14 4 15 3 16 2 17 1 18 19 19 20 20 21 21 22 22 23 23
REMARK SMILES IDX 24 24 25 25 26 26 27 27 85 28 28 29 84 30 29 31 30 32 31 33
REMARK SMILES IDX 78 34 32 35 83 36 77 37 79 38 33 39 82 40 76 41 75 42 34 44
REMARK SMILES IDX 64 45 45 46 63 47 46 48 49 49 62 50 80 51 47 52 48 53 61 55
REMARK SMILES IDX 81 56 50 57 35 58 36 59 44 60 37 61 43 62 38 63 39 64 40 65
REMARK SMILES IDX 41 66 42 67 65 68 66 69 74 70 67 71 73 72 68 73 69 74 70 75
REMARK SMILES IDX 71 76 72 77 51 78 52 79 60 80 53 81 59 82 54 83 55 84 56 85
REMARK SMILES IDX 57 86 58 87
REMARK H PARENT 79 43 49 54
REMARK Flexibility Score: inf
ROOT
ATOM      1  C   UNL     1       1.932  -3.642  -0.406  1.00  0.00     0.188 C 
ENDROOT
BRANCH   1   2
ATOM      2  O   UNL     1       2.220  -4.809  -1.164  1.00  0.00    -0.376 OA
BRANCH   2   3
ATOM      3  C   UNL     1       1.396  -5.940  -0.910  1.00  0.00     0.202 C 
BRANCH   3   4
ATOM      4  C   UNL     1       1.445  -6.519   0.514  1.00  0.00     0.261 C 
BRANCH   4   5
ATOM      5  O   UNL     1       0.860  -5.679   1.551  1.00  0.00    -0.463 OA
BRANCH   5   6
ATOM      6  C   UNL     1       1.602  -5.571   2.685  1.00  0.00     0.311 C 
ATOM      7  O   UNL     1       2.740  -6.029   2.789  1.00  0.00    -0.252 OA
BRANCH   6   8
ATOM      8  C   UNL     1       0.935  -4.943   3.906  1.00  0.00     0.130 C 
ATOM      9  C   UNL     1      -0.429  -4.268   3.915  1.00  0.00     0.132 C 
ATOM     10  O   UNL     1      -1.387  -5.349   3.877  1.00  0.00    -0.377 OA
ATOM     11  C   UNL     1      -0.764  -6.510   4.442  1.00  0.00     0.161 C 
ATOM     12  C   UNL     1       0.632  -6.094   4.864  1.00  0.00     0.046 C 
BRANCH   9  13
ATOM     13  C   UNL     1      -0.837  -3.214   2.903  1.00  0.00     0.033 C 
BRANCH  13  14
ATOM     14  C   UNL     1      -0.158  -1.829   2.937  1.00  0.00     0.003 C 
BRANCH  14  15
ATOM     15  C   UNL     1       1.373  -1.779   2.889  1.00  0.00     0.000 C 
BRANCH  15  16
ATOM     16  C   UNL     1       2.013  -0.530   2.234  1.00  0.00    -0.000 C 
BRANCH  16  17
ATOM     17  C   UNL     1       1.739  -0.306   0.747  1.00  0.00    -0.003 C 
ATOM     18  C   UNL     1       2.546   0.817   0.112  1.00  0.00     0.004 C 
ENDBRANCH  16  17
ENDBRANCH  15  16
ENDBRANCH  14  15
ENDBRANCH  13  14
ENDBRANCH   9  13
ENDBRANCH   6   8
ENDBRANCH   5   6
ENDBRANCH   4   5
ENDBRANCH   3   4
ENDBRANCH   2   3
ENDBRANCH   1   2
BRANCH   1  19
ATOM     19  C   UNL     1       0.450  -3.256  -0.293  1.00  0.00     0.188 C 
BRANCH  19  20
ATOM     20  O   UNL     1      -0.098  -2.528  -1.393  1.00  0.00    -0.376 OA
BRANCH  20  21
ATOM     21  C   UNL     1      -1.511  -2.316  -1.172  1.00  0.00     0.202 C 
BRANCH  21  22
ATOM     22  C   UNL     1      -1.949  -0.913  -1.599  1.00  0.00     0.261 C 
BRANCH  22  23
ATOM     23  O   UNL     1      -1.451   0.115  -0.713  1.00  0.00    -0.460 OA
BRANCH  23  24
ATOM     24  C   UNL     1      -2.160   0.357   0.426  1.00  0.00     0.338 C 
ATOM     25  O   UNL     1      -3.172  -0.215   0.767  1.00  0.00    -0.246 OA
BRANCH  24  26
ATOM     26  C   UNL     1      -1.410   1.334   1.282  1.00  0.00     0.060 A 
ATOM     27  C   UNL     1      -1.553   1.264   2.675  1.00  0.00     0.016 A 
ATOM     28  C   UNL     1      -0.491   2.240   0.739  1.00  0.00     0.016 A 
ATOM     29  C   UNL     1      -0.744   2.044   3.516  1.00  0.00     0.010 A 
ATOM     30  C   UNL     1       0.323   3.015   1.580  1.00  0.00     0.010 A 
ATOM     31  C   UNL     1       0.202   2.928   2.976  1.00  0.00    -0.014 A 
BRANCH  31  32
ATOM     32  C   UNL     1       0.817   3.971   3.845  1.00  0.00     0.031 A 
ATOM     33  C   UNL     1       0.058   5.267   3.956  1.00  0.00     0.074 A 
ATOM     34  C   UNL     1       1.961   3.813   4.543  1.00  0.00     0.049 A 
ATOM     35  N   UNL     1       0.257   6.282   4.754  1.00  0.00    -0.248 NA
ATOM     36  C   UNL     1      -1.091   5.428   3.046  1.00  0.00     0.031 C 
ATOM     37  C   UNL     1       2.825   2.636   4.536  1.00  0.00     0.029 A 
ATOM     38  N   UNL     1       2.593   4.672   5.417  1.00  0.00    -0.354 N 
ATOM     39  C   UNL     1      -0.770   7.173   4.477  1.00  0.00     0.074 A 
ATOM     40  C   UNL     1      -1.543   6.621   3.389  1.00  0.00     0.031 C 
ATOM     41  C   UNL     1       3.864   2.838   5.369  1.00  0.00     0.029 A 
ATOM     42  C   UNL     1       3.744   4.161   5.976  1.00  0.00     0.049 A 
ATOM     43  H   UNL     1       2.252   5.572   5.623  1.00  0.00     0.167 HD
ATOM     44  C   UNL     1      -1.077   8.339   5.088  1.00  0.00     0.031 A 
ATOM     45  C   UNL     1       4.592   4.691   6.884  1.00  0.00     0.031 A 
ATOM     46  C   UNL     1      -0.283   8.946   6.113  1.00  0.00     0.049 A 
ATOM     47  C   UNL     1       4.292   6.048   7.477  1.00  0.00     0.074 A 
ATOM     48  C   UNL     1      -0.492  10.146   6.766  1.00  0.00     0.029 A 
ATOM     49  N   UNL     1       0.892   8.410   6.614  1.00  0.00    -0.354 N 
ATOM     50  N   UNL     1       3.263   6.835   7.267  1.00  0.00    -0.248 NA
ATOM     51  C   UNL     1       5.260   6.576   8.453  1.00  0.00     0.031 C 
ATOM     52  C   UNL     1       0.586  10.360   7.632  1.00  0.00     0.029 A 
ATOM     53  C   UNL     1       1.434   9.265   7.555  1.00  0.00     0.049 A 
ATOM     54  H   UNL     1       1.282   7.548   6.341  1.00  0.00     0.167 HD
ATOM     55  C   UNL     1       3.439   7.926   8.116  1.00  0.00     0.074 A 
ATOM     56  C   UNL     1       4.667   7.695   8.846  1.00  0.00     0.031 C 
ATOM     57  C   UNL     1       2.651   9.017   8.282  1.00  0.00     0.031 A 
BRANCH  44  58
ATOM     58  C   UNL     1      -2.329   9.019   4.620  1.00  0.00    -0.014 A 
ATOM     59  C   UNL     1      -3.590   8.487   4.948  1.00  0.00     0.010 A 
ATOM     60  C   UNL     1      -2.247  10.153   3.797  1.00  0.00     0.010 A 
ATOM     61  C   UNL     1      -4.750   9.050   4.417  1.00  0.00     0.020 A 
ATOM     62  C   UNL     1      -3.409  10.733   3.284  1.00  0.00     0.020 A 
ATOM     63  C   UNL     1      -4.651  10.164   3.579  1.00  0.00     0.054 A 
BRANCH  63  64
ATOM     64  S   UNL     1      -6.171  10.866   2.886  1.00  0.00     0.124 S 
ATOM     65  O   UNL     1      -6.510   9.887   1.856  1.00  0.00    -0.237 OA
ATOM     66  O   UNL     1      -7.065  10.899   4.040  1.00  0.00    -0.237 OA
ATOM     67  O   UNL     1      -5.752  12.174   2.389  1.00  0.00    -0.744 OA
ENDBRANCH  63  64
ENDBRANCH  44  58
BRANCH  45  68
ATOM     68  C   UNL     1       5.807   3.946   7.333  1.00  0.00    -0.014 A 
ATOM     69  C   UNL     1       5.898   3.451   8.648  1.00  0.00     0.010 A 
ATOM     70  C   UNL     1       6.913   3.799   6.477  1.00  0.00     0.010 A 
ATOM     71  C   UNL     1       7.082   2.863   9.110  1.00  0.00     0.020 A 
ATOM     72  C   UNL     1       8.090   3.190   6.927  1.00  0.00     0.020 A 
ATOM     73  C   UNL     1       8.174   2.742   8.247  1.00  0.00     0.054 A 
BRANCH  73  74
ATOM     74  S   UNL     1       9.699   1.972   8.863  1.00  0.00     0.124 S 
ATOM     75  O   UNL     1      10.252   3.025   9.709  1.00  0.00    -0.237 OA
ATOM     76  O   UNL     1       9.197   0.794   9.566  1.00  0.00    -0.237 OA
ATOM     77  O   UNL     1      10.453   1.687   7.645  1.00  0.00    -0.744 OA
ENDBRANCH  73  74
ENDBRANCH  45  68
BRANCH  57  78
ATOM     78  C   UNL     1       3.056  10.024   9.326  1.00  0.00    -0.014 A 
ATOM     79  C   UNL     1       4.160  10.874   9.138  1.00  0.00     0.010 A 
ATOM     80  C   UNL     1       2.276  10.160  10.490  1.00  0.00     0.010 A 
ATOM     81  C   UNL     1       4.498  11.817  10.114  1.00  0.00     0.020 A 
ATOM     82  C   UNL     1       2.594  11.120  11.453  1.00  0.00     0.020 A 
ATOM     83  C   UNL     1       3.714  11.931  11.267  1.00  0.00     0.054 A 
BRANCH  83  84
ATOM     84  S   UNL     1       4.147  13.187  12.502  1.00  0.00     0.124 S 
ATOM     85  O   UNL     1       5.278  12.563  13.184  1.00  0.00    -0.237 OA
ATOM     86  O   UNL     1       4.472  14.351  11.681  1.00  0.00    -0.237 OA
ATOM     87  O   UNL     1       2.932  13.317  13.303  1.00  0.00    -0.744 OA
ENDBRANCH  83  84
ENDBRANCH  57  78
ENDBRANCH  31  32
ENDBRANCH  24  26
ENDBRANCH  23  24
ENDBRANCH  22  23
ENDBRANCH  21  22
ENDBRANCH  20  21
ENDBRANCH  19  20
ENDBRANCH   1  19
TORSDOF 25
