REMARK SMILES O=C(OCCOCCOCCOC(=O)[C@H]1CCCN(c2cc(-c3ccccn3)nc(-c3ccccc3F)n2)C1)c1ccc(-c2c3nc(c(-c4ccc(S(=O)(=O)[O-])cc4)c4ccc([nH]4)c(-c4ccc(S(=O)(=O)[O-])cc4)c4nc(c(-c5ccc(S(=O)(=O)[O-])cc5)c5ccc2[nH]5)C=C4)C=C3)cc1
REMARK SMILES IDX 7 1 6 2 5 3 4 4 3 5 2 6 1 7 40 8 41 9 99 10 42 11 98 12
REMARK SMILES IDX 43 13 44 14 45 15 92 16 46 17 97 18 91 19 93 20 47 21 96 22
REMARK SMILES IDX 90 23 89 24 48 26 78 27 59 28 77 29 60 30 63 31 76 32 94 33
REMARK SMILES IDX 61 34 62 35 75 37 95 38 64 39 49 40 50 41 58 42 51 43 57 44
REMARK SMILES IDX 52 45 53 46 54 47 55 48 56 49 79 50 80 51 88 52 81 53 87 54
REMARK SMILES IDX 82 55 83 56 84 57 85 58 86 59 65 60 66 61 74 62 67 63 73 64
REMARK SMILES IDX 68 65 69 66 70 67 71 68 72 69 8 70 9 71 10 72 11 73 12 74
REMARK SMILES IDX 13 75 14 76 15 77 16 78 39 79 17 80 19 81 18 82 20 83 21 84
REMARK SMILES IDX 38 85 22 86 30 87 29 88 23 89 24 90 28 91 25 92 27 93 26 94
REMARK SMILES IDX 31 95 32 96 36 97 33 98 35 99 37 100 34 101
REMARK H PARENT 93 25 63 36
REMARK Flexibility Score: inf
ROOT
ATOM      1  C   UNL     1      -0.781   5.394   0.421  1.00  0.00     0.188 C 
ENDROOT
BRANCH   1   2
ATOM      2  O   UNL     1      -0.568   6.436   1.376  1.00  0.00    -0.376 OA
BRANCH   2   3
ATOM      3  C   UNL     1      -1.257   7.658   1.084  1.00  0.00     0.202 C 
BRANCH   3   4
ATOM      4  C   UNL     1      -0.821   8.422  -0.184  1.00  0.00     0.261 C 
BRANCH   4   5
ATOM      5  O   UNL     1      -0.248   7.594  -1.211  1.00  0.00    -0.460 OA
BRANCH   5   6
ATOM      6  C   UNL     1       1.063   7.345  -1.464  1.00  0.00     0.338 C 
ATOM      7  O   UNL     1       1.356   6.741  -2.494  1.00  0.00    -0.246 OA
BRANCH   6   8
ATOM      8  C   UNL     1       2.170   7.744  -0.542  1.00  0.00     0.060 A 
ATOM      9  C   UNL     1       2.004   8.028   0.811  1.00  0.00     0.016 A 
ATOM     10  C   UNL     1       3.476   7.773  -1.059  1.00  0.00     0.016 A 
ATOM     11  C   UNL     1       3.056   8.440   1.608  1.00  0.00     0.010 A 
ATOM     12  C   UNL     1       4.560   8.130  -0.248  1.00  0.00     0.010 A 
ATOM     13  C   UNL     1       4.340   8.500   1.082  1.00  0.00    -0.014 A 
BRANCH  13  14
ATOM     14  C   UNL     1       5.385   9.098   1.929  1.00  0.00     0.031 A 
ATOM     15  C   UNL     1       5.823  10.493   1.619  1.00  0.00     0.074 A 
ATOM     16  C   UNL     1       5.781   8.469   3.050  1.00  0.00     0.049 A 
ATOM     17  N   UNL     1       6.718  11.223   2.221  1.00  0.00    -0.248 NA
ATOM     18  C   UNL     1       5.143  11.166   0.497  1.00  0.00     0.031 C 
ATOM     19  C   UNL     1       5.257   7.183   3.512  1.00  0.00     0.029 A 
ATOM     20  N   UNL     1       6.668   8.832   4.026  1.00  0.00    -0.354 N 
ATOM     21  C   UNL     1       6.728  12.432   1.539  1.00  0.00     0.074 A 
ATOM     22  C   UNL     1       5.761  12.336   0.470  1.00  0.00     0.031 C 
ATOM     23  C   UNL     1       5.809   6.883   4.697  1.00  0.00     0.029 A 
ATOM     24  C   UNL     1       6.803   7.891   5.019  1.00  0.00     0.049 A 
ATOM     25  H   UNL     1       7.161   9.684   4.019  1.00  0.00     0.167 HD
ATOM     26  C   UNL     1       7.489  13.519   1.791  1.00  0.00     0.031 A 
ATOM     27  C   UNL     1       7.669   7.825   6.046  1.00  0.00     0.031 A 
ATOM     28  C   UNL     1       8.457  13.562   2.851  1.00  0.00     0.049 A 
ATOM     29  C   UNL     1       8.621   8.973   6.208  1.00  0.00     0.074 A 
ATOM     30  C   UNL     1       9.346  14.569   3.170  1.00  0.00     0.029 A 
ATOM     31  N   UNL     1       8.662  12.535   3.766  1.00  0.00    -0.354 N 
ATOM     32  N   UNL     1       8.681  10.084   5.510  1.00  0.00    -0.248 NA
ATOM     33  C   UNL     1       9.612   8.872   7.282  1.00  0.00     0.031 C 
ATOM     34  C   UNL     1      10.132  14.124   4.238  1.00  0.00     0.029 A 
ATOM     35  C   UNL     1       9.683  12.871   4.634  1.00  0.00     0.049 A 
ATOM     36  H   UNL     1       8.153  11.692   3.792  1.00  0.00     0.167 HD
ATOM     37  C   UNL     1       9.700  10.832   6.078  1.00  0.00     0.074 A 
ATOM     38  C   UNL     1      10.217  10.049   7.186  1.00  0.00     0.031 C 
ATOM     39  C   UNL     1      10.164  12.056   5.723  1.00  0.00     0.031 A 
BRANCH  26  40
ATOM     40  C   UNL     1       7.356  14.678   0.843  1.00  0.00    -0.014 A 
ATOM     41  C   UNL     1       6.202  15.482   0.813  1.00  0.00     0.010 A 
ATOM     42  C   UNL     1       8.395  14.938  -0.068  1.00  0.00     0.010 A 
ATOM     43  C   UNL     1       6.072  16.497  -0.140  1.00  0.00     0.020 A 
ATOM     44  C   UNL     1       8.282  15.969  -1.004  1.00  0.00     0.020 A 
ATOM     45  C   UNL     1       7.112  16.731  -1.045  1.00  0.00     0.054 A 
BRANCH  45  46
ATOM     46  S   UNL     1       6.921  18.056  -2.267  1.00  0.00     0.124 S 
ATOM     47  O   UNL     1       5.917  17.494  -3.167  1.00  0.00    -0.237 OA
ATOM     48  O   UNL     1       6.472  19.181  -1.450  1.00  0.00    -0.237 OA
ATOM     49  O   UNL     1       8.258  18.199  -2.838  1.00  0.00    -0.744 OA
ENDBRANCH  45  46
ENDBRANCH  26  40
BRANCH  27  50
ATOM     50  C   UNL     1       7.720   6.618   6.922  1.00  0.00    -0.014 A 
ATOM     51  C   UNL     1       7.404   6.689   8.289  1.00  0.00     0.010 A 
ATOM     52  C   UNL     1       8.089   5.370   6.377  1.00  0.00     0.010 A 
ATOM     53  C   UNL     1       7.473   5.546   9.095  1.00  0.00     0.020 A 
ATOM     54  C   UNL     1       8.130   4.220   7.172  1.00  0.00     0.020 A 
ATOM     55  C   UNL     1       7.833   4.318   8.531  1.00  0.00     0.054 A 
BRANCH  55  56
ATOM     56  S   UNL     1       7.881   2.844   9.588  1.00  0.00     0.124 S 
ATOM     57  O   UNL     1       9.050   3.104  10.421  1.00  0.00    -0.237 OA
ATOM     58  O   UNL     1       6.590   2.906  10.268  1.00  0.00    -0.237 OA
ATOM     59  O   UNL     1       8.021   1.745   8.635  1.00  0.00    -0.744 OA
ENDBRANCH  55  56
ENDBRANCH  27  50
BRANCH  39  60
ATOM     60  C   UNL     1      11.255  12.633   6.576  1.00  0.00    -0.014 A 
ATOM     61  C   UNL     1      12.565  12.129   6.524  1.00  0.00     0.010 A 
ATOM     62  C   UNL     1      10.966  13.739   7.395  1.00  0.00     0.010 A 
ATOM     63  C   UNL     1      13.567  12.708   7.303  1.00  0.00     0.020 A 
ATOM     64  C   UNL     1      11.972  14.342   8.147  1.00  0.00     0.020 A 
ATOM     65  C   UNL     1      13.264  13.814   8.106  1.00  0.00     0.054 A 
BRANCH  65  66
ATOM     66  S   UNL     1      14.595  14.584   9.061  1.00  0.00     0.124 S 
ATOM     67  O   UNL     1      14.817  13.601  10.118  1.00  0.00    -0.237 OA
ATOM     68  O   UNL     1      15.667  14.702   8.076  1.00  0.00    -0.237 OA
ATOM     69  O   UNL     1      14.018  15.852   9.500  1.00  0.00    -0.744 OA
ENDBRANCH  65  66
ENDBRANCH  39  60
ENDBRANCH  13  14
ENDBRANCH   6   8
ENDBRANCH   5   6
ENDBRANCH   4   5
ENDBRANCH   3   4
ENDBRANCH   2   3
ENDBRANCH   1   2
BRANCH   1  70
ATOM     70  C   UNL     1      -0.902   4.002   1.041  1.00  0.00     0.188 C 
BRANCH  70  71
ATOM     71  O   UNL     1      -1.974   3.768   1.950  1.00  0.00    -0.376 OA
BRANCH  71  72
ATOM     72  C   UNL     1      -2.184   4.722   2.983  1.00  0.00     0.202 C 
BRANCH  72  73
ATOM     73  C   UNL     1      -1.110   4.899   4.071  1.00  0.00     0.261 C 
BRANCH  73  74
ATOM     74  O   UNL     1       0.240   4.670   3.648  1.00  0.00    -0.463 OA
BRANCH  74  75
ATOM     75  C   UNL     1       0.721   3.425   3.918  1.00  0.00     0.310 C 
ATOM     76  O   UNL     1       0.096   2.558   4.528  1.00  0.00    -0.252 OA
BRANCH  75  77
ATOM     77  C   UNL     1       2.102   3.229   3.324  1.00  0.00     0.118 C 
ATOM     78  C   UNL     1       3.154   4.026   4.107  1.00  0.00     0.019 C 
ATOM     79  C   UNL     1       2.378   1.722   3.282  1.00  0.00     0.133 C 
ATOM     80  C   UNL     1       4.590   3.570   3.821  1.00  0.00     0.022 C 
ATOM     81  N   UNL     1       3.787   1.479   3.030  1.00  0.00    -0.356 N 
ATOM     82  C   UNL     1       4.736   2.061   3.956  1.00  0.00     0.118 C 
BRANCH  81  83
ATOM     83  C   UNL     1       4.130   0.414   2.242  1.00  0.00     0.133 A 
ATOM     84  C   UNL     1       4.551  -0.778   2.784  1.00  0.00     0.077 A 
ATOM     85  N   UNL     1       4.023   0.588   0.918  1.00  0.00    -0.211 NA
ATOM     86  C   UNL     1       4.841  -1.802   1.902  1.00  0.00     0.095 A 
ATOM     87  C   UNL     1       4.360  -0.444   0.131  1.00  0.00     0.165 A 
ATOM     88  N   UNL     1       4.751  -1.651   0.563  1.00  0.00    -0.226 NA
BRANCH  86  89
ATOM     89  C   UNL     1       5.247  -3.126   2.390  1.00  0.00     0.089 A 
ATOM     90  C   UNL     1       4.403  -3.895   3.193  1.00  0.00     0.030 A 
ATOM     91  N   UNL     1       6.496  -3.540   2.053  1.00  0.00    -0.255 NA
ATOM     92  C   UNL     1       4.853  -5.125   3.666  1.00  0.00     0.004 A 
ATOM     93  C   UNL     1       6.907  -4.733   2.530  1.00  0.00     0.112 A 
ATOM     94  C   UNL     1       6.132  -5.552   3.333  1.00  0.00     0.020 A 
ENDBRANCH  86  89
BRANCH  87  95
ATOM     95  C   UNL     1       4.384  -0.191  -1.305  1.00  0.00     0.055 A 
ATOM     96  C   UNL     1       5.128   0.883  -1.833  1.00  0.00     0.015 A 
ATOM     97  C   UNL     1       3.674  -0.993  -2.202  1.00  0.00     0.134 A 
ATOM     98  C   UNL     1       5.172   1.125  -3.209  1.00  0.00     0.001 A 
ATOM     99  C   UNL     1       3.705  -0.752  -3.576  1.00  0.00     0.040 A 
ATOM    100  F   UNL     1       2.913  -2.005  -1.758  1.00  0.00    -0.206 F 
ATOM    101  C   UNL     1       4.460   0.305  -4.082  1.00  0.00     0.003 A 
ENDBRANCH  87  95
ENDBRANCH  81  83
ENDBRANCH  75  77
ENDBRANCH  74  75
ENDBRANCH  73  74
ENDBRANCH  72  73
ENDBRANCH  71  72
ENDBRANCH  70  71
ENDBRANCH   1  70
TORSDOF 23
