REMARK SMILES CC(C)N1C[C@@H](C(=O)N2CCC(C(=O)OCCOCCOCCOC(=O)c3ccc(-c4c5nc(c(-c6ccc(S(=O)(=O)[O-])cc6)c6ccc([nH]6)c(-c6ccc(S(=O)(=O)[O-])cc6)c6nc(c(-c7ccc(S(=O)(=O)[O-])cc7)c7ccc4[nH]7)C=C6)C=C5)cc3)CC2)CC1=O
REMARK SMILES IDX 20 1 19 2 18 3 17 4 16 5 15 6 13 7 14 8 12 9 7 10 8 11 9 12
REMARK SMILES IDX 10 13 88 14 11 15 87 16 6 17 4 18 5 19 90 20 89 21 91 22
REMARK SMILES IDX 2 23 1 24 3 25 21 26 22 27 23 28 24 29 25 30 26 31 27 32
REMARK SMILES IDX 28 33 86 34 29 35 85 36 30 37 31 38 32 39 79 40 33 41 84 42
REMARK SMILES IDX 78 43 80 44 34 45 83 46 77 47 76 48 35 50 65 51 46 52 64 53
REMARK SMILES IDX 47 54 50 55 63 56 81 57 48 58 49 59 62 61 82 62 51 63 36 64
REMARK SMILES IDX 37 65 45 66 38 67 44 68 39 69 40 70 41 71 42 72 43 73 66 74
REMARK SMILES IDX 67 75 75 76 68 77 74 78 69 79 70 80 71 81 72 82 73 83 52 84
REMARK SMILES IDX 53 85 61 86 54 87 60 88 55 89 56 90 57 91 58 92 59 93
REMARK H PARENT 80 49 50 60
REMARK Flexibility Score: inf
ROOT
ATOM      1  C   UNL     1      -7.971  -5.120   6.737  1.00  0.00     0.188 C 
ENDROOT
BRANCH   1   2
ATOM      2  C   UNL     1      -8.080  -3.888   7.634  1.00  0.00     0.188 C 
BRANCH   2   3
ATOM      3  O   UNL     1      -9.400  -3.447   7.929  1.00  0.00    -0.376 OA
BRANCH   3   4
ATOM      4  C   UNL     1     -10.248  -3.147   6.822  1.00  0.00     0.202 C 
BRANCH   4   5
ATOM      5  C   UNL     1      -9.780  -2.043   5.860  1.00  0.00     0.261 C 
BRANCH   5   6
ATOM      6  O   UNL     1      -8.469  -2.245   5.291  1.00  0.00    -0.463 OA
BRANCH   6   7
ATOM      7  C   UNL     1      -7.521  -1.355   5.684  1.00  0.00     0.309 C 
ATOM      8  O   UNL     1      -7.730  -0.405   6.432  1.00  0.00    -0.252 OA
BRANCH   7   9
ATOM      9  C   UNL     1      -6.121  -1.660   5.173  1.00  0.00     0.103 C 
ATOM     10  C   UNL     1      -4.100  -1.567   1.702  1.00  0.00     0.227 C 
ATOM     11  O   UNL     1      -4.802  -2.302   0.998  1.00  0.00    -0.274 OA
ATOM     12  N   UNL     1      -4.129  -1.674   3.081  1.00  0.00    -0.342 N 
ATOM     13  C   UNL     1      -4.539  -2.944   3.674  1.00  0.00     0.120 C 
ATOM     14  C   UNL     1      -4.173  -0.554   4.009  1.00  0.00     0.120 C 
ATOM     15  C   UNL     1      -5.957  -2.872   4.244  1.00  0.00     0.037 C 
ATOM     16  C   UNL     1      -5.604  -0.380   4.502  1.00  0.00     0.037 C 
BRANCH  10  17
ATOM     17  C   UNL     1      -3.040  -0.715   1.016  1.00  0.00     0.107 C 
ATOM     18  N   UNL     1      -0.825  -0.000   1.291  1.00  0.00    -0.339 N 
ATOM     19  C   UNL     1      -1.659  -1.157   1.472  1.00  0.00     0.133 C 
ATOM     20  C   UNL     1      -1.556   1.146   1.032  1.00  0.00     0.223 C 
ATOM     21  C   UNL     1      -3.026   0.804   1.091  1.00  0.00     0.115 C 
ATOM     22  O   UNL     1      -1.116   2.264   0.812  1.00  0.00    -0.275 OA
BRANCH  18  23
ATOM     23  C   UNL     1       0.633  -0.109   1.342  1.00  0.00     0.078 C 
ATOM     24  C   UNL     1       1.237   0.011  -0.053  1.00  0.00     0.031 C 
ATOM     25  C   UNL     1       1.258   0.887   2.316  1.00  0.00     0.031 C 
ENDBRANCH  18  23
ENDBRANCH  10  17
ENDBRANCH   7   9
ENDBRANCH   6   7
ENDBRANCH   5   6
ENDBRANCH   4   5
ENDBRANCH   3   4
ENDBRANCH   2   3
ENDBRANCH   1   2
BRANCH   1  26
ATOM     26  O   UNL     1      -8.826  -5.143   5.608  1.00  0.00    -0.376 OA
BRANCH  26  27
ATOM     27  C   UNL     1      -9.030  -6.401   4.962  1.00  0.00     0.202 C 
BRANCH  27  28
ATOM     28  C   UNL     1      -9.324  -7.653   5.827  1.00  0.00     0.261 C 
BRANCH  28  29
ATOM     29  O   UNL     1      -8.385  -7.982   6.876  1.00  0.00    -0.460 OA
BRANCH  29  30
ATOM     30  C   UNL     1      -7.067  -8.039   6.560  1.00  0.00     0.338 C 
ATOM     31  O   UNL     1      -6.607  -8.084   5.437  1.00  0.00    -0.246 OA
BRANCH  30  32
ATOM     32  C   UNL     1      -6.260  -7.739   7.787  1.00  0.00     0.060 A 
ATOM     33  C   UNL     1      -5.138  -6.907   7.644  1.00  0.00     0.016 A 
ATOM     34  C   UNL     1      -6.619  -8.184   9.063  1.00  0.00     0.016 A 
ATOM     35  C   UNL     1      -4.354  -6.560   8.752  1.00  0.00     0.010 A 
ATOM     36  C   UNL     1      -5.820  -7.854  10.171  1.00  0.00     0.010 A 
ATOM     37  C   UNL     1      -4.660  -7.069  10.020  1.00  0.00    -0.014 A 
BRANCH  37  38
ATOM     38  C   UNL     1      -3.664  -6.972  11.127  1.00  0.00     0.031 A 
ATOM     39  C   UNL     1      -2.784  -8.170  11.394  1.00  0.00     0.074 A 
ATOM     40  C   UNL     1      -3.499  -5.858  11.867  1.00  0.00     0.049 A 
ATOM     41  N   UNL     1      -1.889  -8.357  12.330  1.00  0.00    -0.248 NA
ATOM     42  C   UNL     1      -2.937  -9.310  10.473  1.00  0.00     0.031 C 
ATOM     43  C   UNL     1      -4.223  -4.601  11.689  1.00  0.00     0.029 A 
ATOM     44  N   UNL     1      -2.661  -5.612  12.932  1.00  0.00    -0.354 N 
ATOM     45  C   UNL     1      -1.379  -9.634  12.118  1.00  0.00     0.074 A 
ATOM     46  C   UNL     1      -2.088 -10.188  10.985  1.00  0.00     0.031 C 
ATOM     47  C   UNL     1      -3.807  -3.721  12.619  1.00  0.00     0.029 A 
ATOM     48  C   UNL     1      -2.816  -4.361  13.486  1.00  0.00     0.049 A 
ATOM     49  H   UNL     1      -2.011  -6.270  13.267  1.00  0.00     0.167 HD
ATOM     50  C   UNL     1      -0.405 -10.289  12.793  1.00  0.00     0.031 A 
ATOM     51  C   UNL     1      -2.246  -3.804  14.577  1.00  0.00     0.031 A 
ATOM     52  C   UNL     1       0.292  -9.756  13.933  1.00  0.00     0.049 A 
ATOM     53  C   UNL     1      -1.242  -4.596  15.384  1.00  0.00     0.074 A 
ATOM     54  C   UNL     1       1.289 -10.353  14.687  1.00  0.00     0.029 A 
ATOM     55  N   UNL     1       0.067  -8.507  14.489  1.00  0.00    -0.354 N 
ATOM     56  N   UNL     1      -0.767  -5.799  15.164  1.00  0.00    -0.248 NA
ATOM     57  C   UNL     1      -0.692  -3.948  16.586  1.00  0.00     0.031 C 
ATOM     58  C   UNL     1       1.622  -9.490  15.735  1.00  0.00     0.029 A 
ATOM     59  C   UNL     1       0.887  -8.325  15.590  1.00  0.00     0.049 A 
ATOM     60  H   UNL     1      -0.581  -7.847  14.151  1.00  0.00     0.167 HD
ATOM     61  C   UNL     1       0.162  -6.033  16.177  1.00  0.00     0.074 A 
ATOM     62  C   UNL     1       0.193  -4.844  17.000  1.00  0.00     0.031 C 
ATOM     63  C   UNL     1       0.923  -7.133  16.401  1.00  0.00     0.031 A 
BRANCH  50  64
ATOM     64  C   UNL     1      -0.053 -11.679  12.329  1.00  0.00    -0.014 A 
ATOM     65  C   UNL     1       0.615 -11.892  11.109  1.00  0.00     0.010 A 
ATOM     66  C   UNL     1      -0.359 -12.785  13.143  1.00  0.00     0.010 A 
ATOM     67  C   UNL     1       0.935 -13.187  10.695  1.00  0.00     0.020 A 
ATOM     68  C   UNL     1      -0.011 -14.080  12.748  1.00  0.00     0.020 A 
ATOM     69  C   UNL     1       0.620 -14.273  11.517  1.00  0.00     0.054 A 
BRANCH  69  70
ATOM     70  S   UNL     1       1.071 -15.940  10.963  1.00  0.00     0.124 S 
ATOM     71  O   UNL     1       0.139 -16.151   9.858  1.00  0.00    -0.237 OA
ATOM     72  O   UNL     1       2.471 -15.780  10.580  1.00  0.00    -0.237 OA
ATOM     73  O   UNL     1       0.839 -16.773  12.140  1.00  0.00    -0.744 OA
ENDBRANCH  69  70
ENDBRANCH  50  64
BRANCH  51  74
ATOM     74  C   UNL     1      -2.627  -2.426  15.011  1.00  0.00    -0.014 A 
ATOM     75  C   UNL     1      -1.688  -1.379  14.992  1.00  0.00     0.010 A 
ATOM     76  C   UNL     1      -3.922  -2.166  15.495  1.00  0.00     0.010 A 
ATOM     77  C   UNL     1      -2.027  -0.109  15.473  1.00  0.00     0.020 A 
ATOM     78  C   UNL     1      -4.277  -0.890  15.944  1.00  0.00     0.020 A 
ATOM     79  C   UNL     1      -3.321   0.128  15.944  1.00  0.00     0.054 A 
BRANCH  79  80
ATOM     80  S   UNL     1      -3.748   1.791  16.533  1.00  0.00     0.124 S 
ATOM     81  O   UNL     1      -3.010   1.868  17.789  1.00  0.00    -0.237 OA
ATOM     82  O   UNL     1      -3.254   2.642  15.453  1.00  0.00    -0.237 OA
ATOM     83  O   UNL     1      -5.203   1.744  16.664  1.00  0.00    -0.744 OA
ENDBRANCH  79  80
ENDBRANCH  51  74
BRANCH  63  84
ATOM     84  C   UNL     1       1.902  -7.095  17.550  1.00  0.00    -0.014 A 
ATOM     85  C   UNL     1       1.471  -7.119  18.888  1.00  0.00     0.010 A 
ATOM     86  C   UNL     1       3.284  -7.097  17.280  1.00  0.00     0.010 A 
ATOM     87  C   UNL     1       2.402  -7.111  19.933  1.00  0.00     0.020 A 
ATOM     88  C   UNL     1       4.218  -7.122  18.320  1.00  0.00     0.020 A 
ATOM     89  C   UNL     1       3.770  -7.114  19.642  1.00  0.00     0.054 A 
BRANCH  89  90
ATOM     90  S   UNL     1       4.956  -7.149  21.015  1.00  0.00     0.124 S 
ATOM     91  O   UNL     1       4.824  -5.803  21.565  1.00  0.00    -0.237 OA
ATOM     92  O   UNL     1       4.439  -8.226  21.856  1.00  0.00    -0.237 OA
ATOM     93  O   UNL     1       6.233  -7.433  20.364  1.00  0.00    -0.744 OA
ENDBRANCH  89  90
ENDBRANCH  63  84
ENDBRANCH  37  38
ENDBRANCH  30  32
ENDBRANCH  29  30
ENDBRANCH  28  29
ENDBRANCH  27  28
ENDBRANCH  26  27
ENDBRANCH   1  26
TORSDOF 22
