REMARK SMILES CCn1nc(C(=O)OCCOCCOCCOC(=O)c2ccc(-c3c4nc(c(-c5ccc(S(=O)(=O)[O-])cc5)c5ccc([nH]5)c(-c5ccc(S(=O)(=O)[O-])cc5)c5nc(c(-c6ccc(S(=O)(=O)[O-])cc6)c6ccc3[nH]6)C=C5)C=C4)cc2)c2c1CC[C@H]([NH2+]Cc1nn(CC)c3ccccc13)C2
REMARK SMILES IDX 12 1 11 2 10 3 9 4 8 5 6 6 7 7 5 8 3 9 4 10 81 11 80 12
REMARK SMILES IDX 82 13 98 14 83 15 84 16 2 17 1 18 85 19 86 22 87 23 88 24
REMARK SMILES IDX 97 25 89 26 92 27 96 28 93 29 95 30 94 31 90 32 91 33 13 34
REMARK SMILES IDX 14 35 15 36 16 37 17 38 18 39 19 40 20 41 21 42 79 43 22 44
REMARK SMILES IDX 78 45 23 46 24 47 25 48 72 49 26 50 77 51 71 52 73 53 27 54
REMARK SMILES IDX 76 55 70 56 69 57 28 59 58 60 39 61 57 62 40 63 43 64 56 65
REMARK SMILES IDX 74 66 41 67 42 68 55 70 75 71 44 72 29 73 30 74 38 75 31 76
REMARK SMILES IDX 37 77 32 78 33 79 34 80 35 81 36 82 59 83 60 84 68 85 61 86
REMARK SMILES IDX 67 87 62 88 63 89 64 90 65 91 66 92 45 93 46 94 54 95 47 96
REMARK SMILES IDX 53 97 48 98 49 99 50 100 51 101 52 102
REMARK H PARENT 85 20 85 21 73 58 43 69
REMARK Flexibility Score: inf
ROOT
ATOM      1  C   UNL     1      -1.393   6.108  -2.951  1.00  0.00     0.188 C 
ENDROOT
BRANCH   1   2
ATOM      2  O   UNL     1      -1.232   7.498  -3.198  1.00  0.00    -0.376 OA
BRANCH   2   3
ATOM      3  C   UNL     1      -0.010   7.911  -3.802  1.00  0.00     0.202 C 
BRANCH   3   4
ATOM      4  C   UNL     1       1.293   7.371  -3.191  1.00  0.00     0.261 C 
BRANCH   4   5
ATOM      5  O   UNL     1       1.407   5.932  -3.236  1.00  0.00    -0.458 OA
BRANCH   5   6
ATOM      6  C   UNL     1       1.777   5.327  -2.054  1.00  0.00     0.359 C 
ATOM      7  O   UNL     1       2.180   5.945  -1.094  1.00  0.00    -0.244 OA
BRANCH   6   8
ATOM      8  C   UNL     1       1.543   3.853  -2.038  1.00  0.00     0.174 A 
ATOM      9  N   UNL     1       1.161   1.931  -1.138  1.00  0.00    -0.269 N 
ATOM     10  N   UNL     1       1.383   3.229  -0.849  1.00  0.00    -0.165 NA
ATOM     11  C   UNL     1       1.368   1.666  -2.458  1.00  0.00     0.043 A 
ATOM     12  C   UNL     1       1.430   2.891  -3.086  1.00  0.00     0.014 A 
ATOM     13  C   UNL     1       1.528   0.371  -3.160  1.00  0.00     0.062 C 
ATOM     14  C   UNL     1       1.429   2.998  -4.569  1.00  0.00     0.105 C 
ATOM     15  C   UNL     1       2.462   0.608  -4.369  1.00  0.00     0.072 C 
ATOM     16  C   UNL     1       1.992   1.752  -5.314  1.00  0.00     0.187 C 
BRANCH   9  17
ATOM     17  C   UNL     1       0.589   1.107  -0.088  1.00  0.00     0.141 C 
ATOM     18  C   UNL     1       1.052  -0.335  -0.011  1.00  0.00     0.029 C 
ENDBRANCH   9  17
BRANCH  16  19
ATOM     19  N   UNL     1       3.049   1.992  -6.315  1.00  0.00    -0.338 N 
ATOM     20  H   UNL     1       3.155   1.139  -6.864  1.00  0.00     0.346 HD
ATOM     21  H   UNL     1       3.874   2.256  -5.776  1.00  0.00     0.346 HD
BRANCH  19  22
ATOM     22  C   UNL     1       2.829   3.100  -7.250  1.00  0.00     0.320 C 
BRANCH  22  23
ATOM     23  C   UNL     1       3.312   4.462  -6.795  1.00  0.00     0.124 A 
ATOM     24  N   UNL     1       2.934   5.522  -7.532  1.00  0.00    -0.171 NA
ATOM     25  C   UNL     1       4.038   4.881  -5.628  1.00  0.00     0.029 A 
ATOM     26  N   UNL     1       3.282   6.590  -6.791  1.00  0.00    -0.265 N 
ATOM     27  C   UNL     1       3.981   6.274  -5.652  1.00  0.00     0.069 A 
ATOM     28  C   UNL     1       4.627   4.263  -4.500  1.00  0.00     0.012 A 
ATOM     29  C   UNL     1       4.490   7.070  -4.612  1.00  0.00     0.028 A 
ATOM     30  C   UNL     1       5.080   5.044  -3.430  1.00  0.00     0.001 A 
ATOM     31  C   UNL     1       5.009   6.429  -3.486  1.00  0.00     0.002 A 
BRANCH  26  32
ATOM     32  C   UNL     1       2.723   7.888  -7.128  1.00  0.00     0.141 C 
ATOM     33  C   UNL     1       3.760   8.911  -7.558  1.00  0.00     0.029 C 
ENDBRANCH  26  32
ENDBRANCH  22  23
ENDBRANCH  19  22
ENDBRANCH  16  19
ENDBRANCH   6   8
ENDBRANCH   5   6
ENDBRANCH   4   5
ENDBRANCH   3   4
ENDBRANCH   2   3
ENDBRANCH   1   2
BRANCH   1  34
ATOM     34  C   UNL     1      -1.266   5.135  -4.142  1.00  0.00     0.188 C 
BRANCH  34  35
ATOM     35  O   UNL     1      -0.498   5.613  -5.248  1.00  0.00    -0.376 OA
BRANCH  35  36
ATOM     36  C   UNL     1      -1.024   5.344  -6.552  1.00  0.00     0.202 C 
BRANCH  36  37
ATOM     37  C   UNL     1      -1.987   6.421  -7.071  1.00  0.00     0.261 C 
BRANCH  37  38
ATOM     38  O   UNL     1      -2.884   6.870  -6.069  1.00  0.00    -0.460 OA
BRANCH  38  39
ATOM     39  C   UNL     1      -3.773   5.947  -5.655  1.00  0.00     0.338 C 
ATOM     40  O   UNL     1      -3.974   4.850  -6.144  1.00  0.00    -0.246 OA
BRANCH  39  41
ATOM     41  C   UNL     1      -4.386   6.439  -4.415  1.00  0.00     0.060 A 
ATOM     42  C   UNL     1      -5.170   5.541  -3.684  1.00  0.00     0.016 A 
ATOM     43  C   UNL     1      -4.305   7.801  -4.089  1.00  0.00     0.016 A 
ATOM     44  C   UNL     1      -6.118   6.061  -2.841  1.00  0.00     0.010 A 
ATOM     45  C   UNL     1      -5.259   8.326  -3.262  1.00  0.00     0.010 A 
ATOM     46  C   UNL     1      -6.238   7.451  -2.802  1.00  0.00    -0.014 A 
BRANCH  46  47
ATOM     47  C   UNL     1      -7.580   7.966  -2.667  1.00  0.00     0.031 A 
ATOM     48  C   UNL     1      -7.958   8.397  -1.321  1.00  0.00     0.074 A 
ATOM     49  C   UNL     1      -8.336   8.103  -3.775  1.00  0.00     0.049 A 
ATOM     50  N   UNL     1      -8.749   7.795  -0.500  1.00  0.00    -0.248 NA
ATOM     51  C   UNL     1      -7.229   9.538  -0.752  1.00  0.00     0.031 C 
ATOM     52  C   UNL     1      -7.909   8.013  -5.180  1.00  0.00     0.029 A 
ATOM     53  N   UNL     1      -9.627   8.492  -3.877  1.00  0.00    -0.354 N 
ATOM     54  C   UNL     1      -8.771   8.599   0.630  1.00  0.00     0.074 A 
ATOM     55  C   UNL     1      -7.645   9.491   0.512  1.00  0.00     0.031 C 
ATOM     56  C   UNL     1      -8.848   8.587  -5.963  1.00  0.00     0.029 A 
ATOM     57  C   UNL     1      -9.975   8.970  -5.131  1.00  0.00     0.049 A 
ATOM     58  H   UNL     1     -10.264   8.440  -3.128  1.00  0.00     0.167 HD
ATOM     59  C   UNL     1      -9.861   8.670   1.440  1.00  0.00     0.031 A 
ATOM     60  C   UNL     1     -11.050   9.749  -5.410  1.00  0.00     0.031 A 
ATOM     61  C   UNL     1     -10.823   7.643   1.132  1.00  0.00     0.049 A 
ATOM     62  C   UNL     1     -11.999   9.600  -4.271  1.00  0.00     0.074 A 
ATOM     63  C   UNL     1     -10.805   6.263   1.157  1.00  0.00     0.029 A 
ATOM     64  N   UNL     1     -11.889   8.003   0.336  1.00  0.00    -0.354 N 
ATOM     65  N   UNL     1     -12.607   8.481  -3.978  1.00  0.00    -0.248 NA
ATOM     66  C   UNL     1     -11.909  10.552  -3.170  1.00  0.00     0.031 C 
ATOM     67  C   UNL     1     -11.588   5.859   0.039  1.00  0.00     0.029 A 
ATOM     68  C   UNL     1     -12.085   7.006  -0.587  1.00  0.00     0.049 A 
ATOM     69  H   UNL     1     -12.416   8.831   0.415  1.00  0.00     0.167 HD
ATOM     70  C   UNL     1     -12.601   8.412  -2.589  1.00  0.00     0.074 A 
ATOM     71  C   UNL     1     -12.253   9.761  -2.148  1.00  0.00     0.031 C 
ATOM     72  C   UNL     1     -12.589   7.212  -1.934  1.00  0.00     0.031 A 
BRANCH  59  73
ATOM     73  C   UNL     1     -10.222   9.897   2.233  1.00  0.00    -0.014 A 
ATOM     74  C   UNL     1     -11.302   9.830   3.131  1.00  0.00     0.010 A 
ATOM     75  C   UNL     1      -9.701  11.178   1.950  1.00  0.00     0.010 A 
ATOM     76  C   UNL     1     -11.874  10.994   3.660  1.00  0.00     0.020 A 
ATOM     77  C   UNL     1     -10.227  12.338   2.511  1.00  0.00     0.020 A 
ATOM     78  C   UNL     1     -11.341  12.241   3.330  1.00  0.00     0.054 A 
BRANCH  78  79
ATOM     79  S   UNL     1     -12.166  13.744   3.898  1.00  0.00     0.124 S 
ATOM     80  O   UNL     1     -13.411  13.704   3.137  1.00  0.00    -0.237 OA
ATOM     81  O   UNL     1     -12.290  13.508   5.333  1.00  0.00    -0.237 OA
ATOM     82  O   UNL     1     -11.236  14.807   3.523  1.00  0.00    -0.744 OA
ENDBRANCH  78  79
ENDBRANCH  59  73
BRANCH  60  83
ATOM     83  C   UNL     1     -11.066  10.890  -6.365  1.00  0.00    -0.014 A 
ATOM     84  C   UNL     1     -12.268  11.524  -6.724  1.00  0.00     0.010 A 
ATOM     85  C   UNL     1      -9.861  11.521  -6.748  1.00  0.00     0.010 A 
ATOM     86  C   UNL     1     -12.261  12.764  -7.391  1.00  0.00     0.020 A 
ATOM     87  C   UNL     1      -9.844  12.745  -7.424  1.00  0.00     0.020 A 
ATOM     88  C   UNL     1     -11.047  13.374  -7.722  1.00  0.00     0.054 A 
BRANCH  88  89
ATOM     89  S   UNL     1     -11.038  15.048  -8.427  1.00  0.00     0.124 S 
ATOM     90  O   UNL     1     -11.552  14.821  -9.774  1.00  0.00    -0.237 OA
ATOM     91  O   UNL     1     -11.926  15.776  -7.524  1.00  0.00    -0.237 OA
ATOM     92  O   UNL     1      -9.632  15.444  -8.358  1.00  0.00    -0.744 OA
ENDBRANCH  88  89
ENDBRANCH  60  83
BRANCH  72  93
ATOM     93  C   UNL     1     -12.860   5.952  -2.729  1.00  0.00    -0.014 A 
ATOM     94  C   UNL     1     -12.014   5.494  -3.759  1.00  0.00     0.010 A 
ATOM     95  C   UNL     1     -13.888   5.104  -2.281  1.00  0.00     0.010 A 
ATOM     96  C   UNL     1     -12.197   4.224  -4.327  1.00  0.00     0.020 A 
ATOM     97  C   UNL     1     -14.065   3.831  -2.830  1.00  0.00     0.020 A 
ATOM     98  C   UNL     1     -13.220   3.397  -3.853  1.00  0.00     0.054 A 
BRANCH  98  99
ATOM     99  S   UNL     1     -13.393   1.718  -4.524  1.00  0.00     0.124 S 
ATOM    100  O   UNL     1     -13.908   1.966  -5.868  1.00  0.00    -0.237 OA
ATOM    101  O   UNL     1     -12.028   1.198  -4.460  1.00  0.00    -0.237 OA
ATOM    102  O   UNL     1     -14.334   1.073  -3.610  1.00  0.00    -0.744 OA
ENDBRANCH  98  99
ENDBRANCH  72  93
ENDBRANCH  46  47
ENDBRANCH  39  41
ENDBRANCH  38  39
ENDBRANCH  37  38
ENDBRANCH  36  37
ENDBRANCH  35  36
ENDBRANCH  34  35
ENDBRANCH   1  34
TORSDOF 25
