REMARK SMILES CO[C@H]1CCC[C@H]1NC(=O)N[C@](C)(C(=O)OCCOCCOCCOC(=O)c1ccc(-c2c3nc(c(-c4ccc(S(=O)(=O)[O-])cc4)c4ccc([nH]4)c(-c4ccc(S(=O)(=O)[O-])cc4)c4nc(c(-c5ccc(S(=O)(=O)[O-])cc5)c5ccc2[nH]5)C=C4)C=C3)cc1)C(F)(F)F
REMARK SMILES IDX 20 1 19 2 18 3 17 4 16 5 14 6 15 7 12 8 13 9 11 10 8 11 9 12
REMARK SMILES IDX 10 14 7 16 3 17 4 18 5 19 6 20 2 21 1 22 88 23 89 24 90 25
REMARK SMILES IDX 91 26 21 27 22 28 23 29 24 30 25 31 26 32 27 33 28 34 29 35
REMARK SMILES IDX 87 36 30 37 86 38 31 39 32 40 33 41 80 42 34 43 85 44 79 45
REMARK SMILES IDX 81 46 35 47 84 48 78 49 77 50 36 52 66 53 47 54 65 55 48 56
REMARK SMILES IDX 51 57 64 58 82 59 49 60 50 61 63 63 83 64 52 65 37 66 38 67
REMARK SMILES IDX 46 68 39 69 45 70 40 71 41 72 42 73 43 74 44 75 67 76 68 77
REMARK SMILES IDX 76 78 69 79 75 80 70 81 71 82 72 83 73 84 74 85 53 86 54 87
REMARK SMILES IDX 62 88 55 89 61 90 56 91 57 92 58 93 59 94 60 95
REMARK H PARENT 8 13 11 15 81 51 51 62
REMARK Flexibility Score: inf
ROOT
ATOM      1  C   UNL     1       1.335   1.346  -2.320  1.00  0.00     0.188 C 
ENDROOT
BRANCH   1   2
ATOM      2  O   UNL     1       1.635   1.913  -3.592  1.00  0.00    -0.376 OA
BRANCH   2   3
ATOM      3  C   UNL     1       2.752   1.353  -4.293  1.00  0.00     0.202 C 
BRANCH   3   4
ATOM      4  C   UNL     1       4.105   1.432  -3.565  1.00  0.00     0.261 C 
BRANCH   4   5
ATOM      5  O   UNL     1       4.094   0.582  -2.402  1.00  0.00    -0.461 OA
BRANCH   5   6
ATOM      6  C   UNL     1       4.984   0.845  -1.404  1.00  0.00     0.341 C 
ATOM      7  O   UNL     1       5.919   1.631  -1.503  1.00  0.00    -0.249 OA
BRANCH   6   8
ATOM      8  C   UNL     1       4.634   0.064  -0.120  1.00  0.00     0.232 C 
ATOM      9  C   UNL     1       4.137  -1.341  -0.543  1.00  0.00     0.058 C 
BRANCH   8  10
ATOM     10  N   UNL     1       5.885  -0.098   0.679  1.00  0.00    -0.315 N 
ATOM     11  N   UNL     1       5.369  -1.485   2.544  1.00  0.00    -0.333 N 
ATOM     12  C   UNL     1       6.208  -0.740   1.810  1.00  0.00     0.316 C 
ATOM     13  H   UNL     1       5.844  -1.968   3.258  1.00  0.00     0.165 HD
ATOM     14  O   UNL     1       7.382  -0.664   2.180  1.00  0.00    -0.249 OA
ATOM     15  H   UNL     1       6.650   0.379   0.284  1.00  0.00     0.166 HD
BRANCH  11  16
ATOM     16  C   UNL     1       3.943  -1.768   2.562  1.00  0.00     0.112 C 
ATOM     17  C   UNL     1       3.545  -3.232   2.276  1.00  0.00     0.140 C 
ATOM     18  C   UNL     1       2.051  -3.178   2.599  1.00  0.00     0.034 C 
ATOM     19  C   UNL     1       1.938  -2.246   3.811  1.00  0.00     0.005 C 
ATOM     20  C   UNL     1       3.281  -1.516   3.918  1.00  0.00     0.028 C 
BRANCH  17  21
ATOM     21  O   UNL     1       4.255  -4.125   3.139  1.00  0.00    -0.379 OA
ATOM     22  C   UNL     1       3.961  -5.493   2.878  1.00  0.00     0.195 C 
ENDBRANCH  17  21
ENDBRANCH  11  16
ENDBRANCH   8  10
BRANCH   8  23
ATOM     23  C   UNL     1       3.595   0.976   0.584  1.00  0.00     0.422 C 
ATOM     24  F   UNL     1       2.329   0.521   0.408  1.00  0.00    -0.168 F 
ATOM     25  F   UNL     1       3.785   1.042   1.924  1.00  0.00    -0.168 F 
ATOM     26  F   UNL     1       3.616   2.254   0.145  1.00  0.00    -0.168 F 
ENDBRANCH   8  23
ENDBRANCH   6   8
ENDBRANCH   5   6
ENDBRANCH   4   5
ENDBRANCH   3   4
ENDBRANCH   2   3
ENDBRANCH   1   2
BRANCH   1  27
ATOM     27  C   UNL     1       0.749  -0.068  -2.340  1.00  0.00     0.188 C 
BRANCH  27  28
ATOM     28  O   UNL     1       1.433  -0.992  -3.182  1.00  0.00    -0.376 OA
BRANCH  28  29
ATOM     29  C   UNL     1       0.895  -2.322  -3.196  1.00  0.00     0.202 C 
BRANCH  29  30
ATOM     30  C   UNL     1      -0.601  -2.437  -3.558  1.00  0.00     0.261 C 
BRANCH  30  31
ATOM     31  O   UNL     1      -1.492  -1.853  -2.584  1.00  0.00    -0.460 OA
BRANCH  31  32
ATOM     32  C   UNL     1      -1.387  -2.312  -1.315  1.00  0.00     0.338 C 
ATOM     33  O   UNL     1      -0.808  -3.327  -0.963  1.00  0.00    -0.246 OA
BRANCH  32  34
ATOM     34  C   UNL     1      -1.857  -1.256  -0.380  1.00  0.00     0.060 A 
ATOM     35  C   UNL     1      -1.168  -1.115   0.831  1.00  0.00     0.016 A 
ATOM     36  C   UNL     1      -2.907  -0.384  -0.684  1.00  0.00     0.016 A 
ATOM     37  C   UNL     1      -1.558  -0.152   1.761  1.00  0.00     0.010 A 
ATOM     38  C   UNL     1      -3.302   0.582   0.252  1.00  0.00     0.010 A 
ATOM     39  C   UNL     1      -2.655   0.676   1.497  1.00  0.00    -0.014 A 
BRANCH  39  40
ATOM     40  C   UNL     1      -3.224   1.491   2.601  1.00  0.00     0.031 A 
ATOM     41  C   UNL     1      -4.407   0.947   3.361  1.00  0.00     0.074 A 
ATOM     42  C   UNL     1      -2.667   2.655   2.983  1.00  0.00     0.049 A 
ATOM     43  N   UNL     1      -5.019   1.440   4.407  1.00  0.00    -0.248 NA
ATOM     44  C   UNL     1      -4.968  -0.326   2.879  1.00  0.00     0.031 C 
ATOM     45  C   UNL     1      -1.500   3.283   2.366  1.00  0.00     0.029 A 
ATOM     46  N   UNL     1      -3.011   3.513   4.000  1.00  0.00    -0.354 N 
ATOM     47  C   UNL     1      -6.029   0.536   4.714  1.00  0.00     0.074 A 
ATOM     48  C   UNL     1      -5.974  -0.514   3.720  1.00  0.00     0.031 C 
ATOM     49  C   UNL     1      -1.223   4.426   3.020  1.00  0.00     0.029 A 
ATOM     50  C   UNL     1      -2.201   4.620   4.090  1.00  0.00     0.049 A 
ATOM     51  H   UNL     1      -3.768   3.350   4.608  1.00  0.00     0.167 HD
ATOM     52  C   UNL     1      -6.918   0.564   5.735  1.00  0.00     0.031 A 
ATOM     53  C   UNL     1      -2.245   5.671   4.934  1.00  0.00     0.031 A 
ATOM     54  C   UNL     1      -6.999   1.612   6.716  1.00  0.00     0.049 A 
ATOM     55  C   UNL     1      -3.292   5.718   6.019  1.00  0.00     0.074 A 
ATOM     56  C   UNL     1      -7.866   1.719   7.790  1.00  0.00     0.029 A 
ATOM     57  N   UNL     1      -6.196   2.741   6.738  1.00  0.00    -0.354 N 
ATOM     58  N   UNL     1      -4.218   4.836   6.314  1.00  0.00    -0.248 NA
ATOM     59  C   UNL     1      -3.286   6.899   6.895  1.00  0.00     0.031 C 
ATOM     60  C   UNL     1      -7.622   2.939   8.431  1.00  0.00     0.029 A 
ATOM     61  C   UNL     1      -6.563   3.563   7.791  1.00  0.00     0.049 A 
ATOM     62  H   UNL     1      -5.470   2.931   6.100  1.00  0.00     0.167 HD
ATOM     63  C   UNL     1      -4.884   5.345   7.427  1.00  0.00     0.074 A 
ATOM     64  C   UNL     1      -4.244   6.599   7.761  1.00  0.00     0.031 C 
ATOM     65  C   UNL     1      -5.930   4.816   8.112  1.00  0.00     0.031 A 
BRANCH  52  66
ATOM     66  C   UNL     1      -7.901  -0.572   5.820  1.00  0.00    -0.014 A 
ATOM     67  C   UNL     1      -7.492  -1.859   6.215  1.00  0.00     0.010 A 
ATOM     68  C   UNL     1      -9.256  -0.344   5.521  1.00  0.00     0.010 A 
ATOM     69  C   UNL     1      -8.414  -2.907   6.270  1.00  0.00     0.020 A 
ATOM     70  C   UNL     1     -10.186  -1.383   5.600  1.00  0.00     0.020 A 
ATOM     71  C   UNL     1      -9.755  -2.663   5.957  1.00  0.00     0.054 A 
BRANCH  71  72
ATOM     72  S   UNL     1     -10.934  -4.038   6.048  1.00  0.00     0.124 S 
ATOM     73  O   UNL     1     -10.578  -4.816   4.864  1.00  0.00    -0.237 OA
ATOM     74  O   UNL     1     -10.606  -4.658   7.329  1.00  0.00    -0.237 OA
ATOM     75  O   UNL     1     -12.238  -3.381   5.992  1.00  0.00    -0.744 OA
ENDBRANCH  71  72
ENDBRANCH  52  66
BRANCH  53  76
ATOM     76  C   UNL     1      -1.268   6.787   4.788  1.00  0.00    -0.014 A 
ATOM     77  C   UNL     1      -0.271   7.004   5.755  1.00  0.00     0.010 A 
ATOM     78  C   UNL     1      -1.353   7.658   3.687  1.00  0.00     0.010 A 
ATOM     79  C   UNL     1       0.609   8.085   5.635  1.00  0.00     0.020 A 
ATOM     80  C   UNL     1      -0.458   8.723   3.549  1.00  0.00     0.020 A 
ATOM     81  C   UNL     1       0.510   8.937   4.532  1.00  0.00     0.054 A 
BRANCH  81  82
ATOM     82  S   UNL     1       1.687  10.309   4.372  1.00  0.00     0.124 S 
ATOM     83  O   UNL     1       1.193  11.250   5.372  1.00  0.00    -0.237 OA
ATOM     84  O   UNL     1       2.963   9.668   4.681  1.00  0.00    -0.237 OA
ATOM     85  O   UNL     1       1.531  10.732   2.982  1.00  0.00    -0.744 OA
ENDBRANCH  81  82
ENDBRANCH  53  76
BRANCH  65  86
ATOM     86  C   UNL     1      -6.429   5.578   9.315  1.00  0.00    -0.014 A 
ATOM     87  C   UNL     1      -7.118   6.797   9.177  1.00  0.00     0.010 A 
ATOM     88  C   UNL     1      -6.224   5.053  10.604  1.00  0.00     0.010 A 
ATOM     89  C   UNL     1      -7.545   7.501  10.307  1.00  0.00     0.020 A 
ATOM     90  C   UNL     1      -6.677   5.739  11.735  1.00  0.00     0.020 A 
ATOM     91  C   UNL     1      -7.315   6.971  11.580  1.00  0.00     0.054 A 
BRANCH  91  92
ATOM     92  S   UNL     1      -7.882   7.897  13.033  1.00  0.00     0.124 S 
ATOM     93  O   UNL     1      -6.887   8.963  13.121  1.00  0.00    -0.237 OA
ATOM     94  O   UNL     1      -9.224   8.322  12.641  1.00  0.00    -0.237 OA
ATOM     95  O   UNL     1      -7.838   6.912  14.111  1.00  0.00    -0.744 OA
ENDBRANCH  91  92
ENDBRANCH  65  86
ENDBRANCH  39  40
ENDBRANCH  32  34
ENDBRANCH  31  32
ENDBRANCH  30  31
ENDBRANCH  29  30
ENDBRANCH  28  29
ENDBRANCH  27  28
ENDBRANCH   1  27
TORSDOF 24
