REMARK SMILES Cc1cc(C(=O)Nc2ccn(C)n2)sc1/C=C/C(=O)OCCOCCOCCOC(=O)c1ccc(-c2c3nc(c(-c4ccc(S(=O)(=O)[O-])cc4)c4ccc([nH]4)c(-c4ccc(S(=O)(=O)[O-])cc4)c4nc(c(-c5ccc(S(=O)(=O)[O-])cc5)c5ccc2[nH]5)C=C4)C=C3)cc1
REMARK SMILES IDX 24 1 23 2 22 3 21 4 20 5 18 6 19 7 17 8 16 9 15 10 1 11 2 12
REMARK SMILES IDX 3 13 4 14 14 15 5 16 6 17 7 18 8 20 9 21 13 22 10 23 11 24
REMARK SMILES IDX 12 25 25 26 26 27 27 28 28 29 29 30 30 31 31 32 32 33 33 34
REMARK SMILES IDX 91 35 34 36 90 37 35 38 36 39 37 40 84 41 38 42 89 43 83 44
REMARK SMILES IDX 85 45 39 46 88 47 82 48 81 49 40 51 70 52 51 53 69 54 52 55
REMARK SMILES IDX 55 56 68 57 86 58 53 59 54 60 67 62 87 63 56 64 41 65 42 66
REMARK SMILES IDX 50 67 43 68 49 69 44 70 45 71 46 72 47 73 48 74 71 75 72 76
REMARK SMILES IDX 80 77 73 78 79 79 74 80 75 81 76 82 77 83 78 84 57 85 58 86
REMARK SMILES IDX 66 87 59 88 65 89 60 90 61 91 62 92 63 93 64 94
REMARK H PARENT 7 19 85 50 55 61
REMARK Flexibility Score: inf
ROOT
ATOM      1  C   UNL     1      -0.961  -6.013   1.256  1.00  0.00     0.188 C 
ENDROOT
BRANCH   1   2
ATOM      2  O   UNL     1      -0.605  -7.342   0.894  1.00  0.00    -0.376 OA
BRANCH   2   3
ATOM      3  C   UNL     1       0.646  -7.596   0.271  1.00  0.00     0.202 C 
BRANCH   3   4
ATOM      4  C   UNL     1       1.097  -6.773  -0.946  1.00  0.00     0.261 C 
BRANCH   4   5
ATOM      5  O   UNL     1       0.978  -5.347  -0.811  1.00  0.00    -0.460 OA
BRANCH   5   6
ATOM      6  C   UNL     1       0.128  -4.761  -1.689  1.00  0.00     0.330 C 
ATOM      7  O   UNL     1      -0.508  -5.325  -2.567  1.00  0.00    -0.247 OA
BRANCH   6   8
ATOM      8  C   UNL     1      -0.074  -3.325  -1.415  1.00  0.00     0.095 C 
ATOM      9  C   UNL     1       0.808  -2.500  -0.827  1.00  0.00     0.027 C 
BRANCH   9  10
ATOM     10  C   UNL     1       0.537  -1.111  -0.566  1.00  0.00     0.031 A 
ATOM     11  C   UNL     1       2.840  -0.270   0.237  1.00  0.00     0.046 C 
ATOM     12  C   UNL     1       1.377  -0.130  -0.041  1.00  0.00    -0.032 A 
ATOM     13  C   UNL     1       0.668   1.100   0.213  1.00  0.00     0.029 A 
ATOM     14  C   UNL     1      -0.663   1.064  -0.156  1.00  0.00     0.093 A 
ATOM     15  S   UNL     1      -0.981  -0.399  -0.966  1.00  0.00    -0.130 S 
BRANCH  14  16
ATOM     16  C   UNL     1      -1.617   2.175  -0.091  1.00  0.00     0.266 C 
ATOM     17  O   UNL     1      -1.220   3.342   0.001  1.00  0.00    -0.268 OA
ATOM     18  N   UNL     1      -2.970   1.981  -0.245  1.00  0.00    -0.304 N 
ATOM     19  H   UNL     1      -3.464   2.756  -0.599  1.00  0.00     0.171 HD
BRANCH  18  20
ATOM     20  C   UNL     1      -3.736   0.876   0.017  1.00  0.00     0.154 A 
ATOM     21  C   UNL     1      -3.552  -0.137   0.986  1.00  0.00     0.068 A 
ATOM     22  N   UNL     1      -4.848   0.675  -0.691  1.00  0.00    -0.155 NA
ATOM     23  C   UNL     1      -4.545  -1.055   0.735  1.00  0.00     0.110 A 
ATOM     24  N   UNL     1      -5.245  -0.560  -0.327  1.00  0.00    -0.274 N 
ATOM     25  C   UNL     1      -6.244  -1.252  -1.106  1.00  0.00     0.173 C 
ENDBRANCH  18  20
ENDBRANCH  14  16
ENDBRANCH   9  10
ENDBRANCH   6   8
ENDBRANCH   5   6
ENDBRANCH   4   5
ENDBRANCH   3   4
ENDBRANCH   2   3
ENDBRANCH   1   2
BRANCH   1  26
ATOM     26  C   UNL     1       0.037  -5.139   2.044  1.00  0.00     0.188 C 
BRANCH  26  27
ATOM     27  O   UNL     1       1.310  -5.718   2.214  1.00  0.00    -0.376 OA
BRANCH  27  28
ATOM     28  C   UNL     1       1.635  -6.370   3.430  1.00  0.00     0.202 C 
BRANCH  28  29
ATOM     29  C   UNL     1       0.629  -7.097   4.346  1.00  0.00     0.261 C 
BRANCH  29  30
ATOM     30  O   UNL     1      -0.763  -6.830   4.176  1.00  0.00    -0.460 OA
BRANCH  30  31
ATOM     31  C   UNL     1      -1.302  -5.891   4.979  1.00  0.00     0.338 C 
ATOM     32  O   UNL     1      -0.706  -5.174   5.782  1.00  0.00    -0.246 OA
BRANCH  31  33
ATOM     33  C   UNL     1      -2.721  -5.738   4.629  1.00  0.00     0.060 A 
ATOM     34  C   UNL     1      -3.150  -4.534   4.059  1.00  0.00     0.016 A 
ATOM     35  C   UNL     1      -3.630  -6.771   4.880  1.00  0.00     0.016 A 
ATOM     36  C   UNL     1      -4.499  -4.351   3.755  1.00  0.00     0.010 A 
ATOM     37  C   UNL     1      -4.983  -6.579   4.587  1.00  0.00     0.010 A 
ATOM     38  C   UNL     1      -5.427  -5.360   4.045  1.00  0.00    -0.014 A 
BRANCH  38  39
ATOM     39  C   UNL     1      -6.879  -5.083   3.930  1.00  0.00     0.031 A 
ATOM     40  C   UNL     1      -7.637  -4.685   5.167  1.00  0.00     0.074 A 
ATOM     41  C   UNL     1      -7.512  -5.172   2.747  1.00  0.00     0.049 A 
ATOM     42  N   UNL     1      -8.912  -4.437   5.312  1.00  0.00    -0.248 NA
ATOM     43  C   UNL     1      -6.849  -4.548   6.403  1.00  0.00     0.031 C 
ATOM     44  C   UNL     1      -6.883  -5.512   1.471  1.00  0.00     0.029 A 
ATOM     45  N   UNL     1      -8.837  -4.994   2.433  1.00  0.00    -0.354 N 
ATOM     46  C   UNL     1      -9.083  -4.119   6.655  1.00  0.00     0.074 A 
ATOM     47  C   UNL     1      -7.786  -4.232   7.285  1.00  0.00     0.031 C 
ATOM     48  C   UNL     1      -7.827  -5.533   0.513  1.00  0.00     0.029 A 
ATOM     49  C   UNL     1      -9.129  -5.242   1.113  1.00  0.00     0.049 A 
ATOM     50  H   UNL     1      -9.514  -4.714   3.090  1.00  0.00     0.167 HD
ATOM     51  C   UNL     1     -10.216  -3.762   7.304  1.00  0.00     0.031 A 
ATOM     52  C   UNL     1     -10.313  -5.260   0.469  1.00  0.00     0.031 A 
ATOM     53  C   UNL     1     -11.510  -3.676   6.683  1.00  0.00     0.049 A 
ATOM     54  C   UNL     1     -11.575  -4.942   1.231  1.00  0.00     0.074 A 
ATOM     55  C   UNL     1     -12.717  -3.316   7.255  1.00  0.00     0.029 A 
ATOM     56  N   UNL     1     -11.768  -3.964   5.351  1.00  0.00    -0.354 N 
ATOM     57  N   UNL     1     -11.717  -4.616   2.494  1.00  0.00    -0.248 NA
ATOM     58  C   UNL     1     -12.836  -4.986   0.476  1.00  0.00     0.031 C 
ATOM     59  C   UNL     1     -13.715  -3.442   6.283  1.00  0.00     0.029 A 
ATOM     60  C   UNL     1     -13.120  -3.816   5.089  1.00  0.00     0.049 A 
ATOM     61  H   UNL     1     -11.091  -4.234   4.690  1.00  0.00     0.167 HD
ATOM     62  C   UNL     1     -13.078  -4.388   2.677  1.00  0.00     0.074 A 
ATOM     63  C   UNL     1     -13.714  -4.601   1.394  1.00  0.00     0.031 C 
ATOM     64  C   UNL     1     -13.740  -4.030   3.806  1.00  0.00     0.031 A 
BRANCH  51  65
ATOM     65  C   UNL     1     -10.106  -3.473   8.778  1.00  0.00    -0.014 A 
ATOM     66  C   UNL     1      -9.462  -2.314   9.247  1.00  0.00     0.010 A 
ATOM     67  C   UNL     1     -10.679  -4.362   9.706  1.00  0.00     0.010 A 
ATOM     68  C   UNL     1      -9.357  -2.070  10.619  1.00  0.00     0.020 A 
ATOM     69  C   UNL     1     -10.600  -4.108  11.078  1.00  0.00     0.020 A 
ATOM     70  C   UNL     1      -9.923  -2.972  11.526  1.00  0.00     0.054 A 
BRANCH  70  71
ATOM     71  S   UNL     1      -9.784  -2.623  13.300  1.00  0.00     0.124 S 
ATOM     72  O   UNL     1      -8.373  -2.903  13.552  1.00  0.00    -0.237 OA
ATOM     73  O   UNL     1     -10.170  -1.217  13.382  1.00  0.00    -0.237 OA
ATOM     74  O   UNL     1     -10.723  -3.561  13.913  1.00  0.00    -0.744 OA
ENDBRANCH  70  71
ENDBRANCH  51  65
BRANCH  52  75
ATOM     75  C   UNL     1     -10.369  -5.613  -0.976  1.00  0.00    -0.014 A 
ATOM     76  C   UNL     1     -10.698  -4.644  -1.940  1.00  0.00     0.010 A 
ATOM     77  C   UNL     1     -10.095  -6.928  -1.395  1.00  0.00     0.010 A 
ATOM     78  C   UNL     1     -10.764  -4.987  -3.294  1.00  0.00     0.020 A 
ATOM     79  C   UNL     1     -10.134  -7.268  -2.750  1.00  0.00     0.020 A 
ATOM     80  C   UNL     1     -10.478  -6.296  -3.690  1.00  0.00     0.054 A 
BRANCH  80  81
ATOM     81  S   UNL     1     -10.517  -6.703  -5.458  1.00  0.00     0.124 S 
ATOM     82  O   UNL     1     -11.949  -6.702  -5.738  1.00  0.00    -0.237 OA
ATOM     83  O   UNL     1      -9.755  -5.605  -6.047  1.00  0.00    -0.237 OA
ATOM     84  O   UNL     1      -9.865  -8.009  -5.522  1.00  0.00    -0.744 OA
ENDBRANCH  80  81
ENDBRANCH  52  75
BRANCH  64  85
ATOM     85  C   UNL     1     -15.226  -3.803   3.702  1.00  0.00    -0.014 A 
ATOM     86  C   UNL     1     -16.123  -4.874   3.544  1.00  0.00     0.010 A 
ATOM     87  C   UNL     1     -15.736  -2.497   3.829  1.00  0.00     0.010 A 
ATOM     88  C   UNL     1     -17.500  -4.640   3.484  1.00  0.00     0.020 A 
ATOM     89  C   UNL     1     -17.113  -2.262   3.798  1.00  0.00     0.020 A 
ATOM     90  C   UNL     1     -17.986  -3.335   3.611  1.00  0.00     0.054 A 
BRANCH  90  91
ATOM     91  S   UNL     1     -19.780  -3.063   3.576  1.00  0.00     0.124 S 
ATOM     92  O   UNL     1     -20.088  -3.255   2.162  1.00  0.00    -0.237 OA
ATOM     93  O   UNL     1     -20.280  -4.100   4.475  1.00  0.00    -0.237 OA
ATOM     94  O   UNL     1     -19.933  -1.695   4.067  1.00  0.00    -0.744 OA
ENDBRANCH  90  91
ENDBRANCH  64  85
ENDBRANCH  38  39
ENDBRANCH  31  33
ENDBRANCH  30  31
ENDBRANCH  29  30
ENDBRANCH  28  29
ENDBRANCH  27  28
ENDBRANCH  26  27
ENDBRANCH   1  26
TORSDOF 23
