REMARK SMILES CC1(C)C[C@@](Cc2ccccc2)(C(=O)OCCOCCOCCOC(=O)c2ccc(-c3c4nc(c(-c5ccc(S(=O)(=O)[O-])cc5)c5ccc([nH]5)c(-c5ccc(S(=O)(=O)[O-])cc5)c5nc(c(-c6ccc(S(=O)(=O)[O-])cc6)c6ccc3[nH]6)C=C5)C=C4)cc2)CCO1
REMARK SMILES IDX 20 1 19 2 18 3 17 4 16 5 15 6 13 7 14 8 5 9 1 10 2 11 3 12
REMARK SMILES IDX 4 13 89 14 88 15 87 16 6 17 7 18 8 19 12 20 9 21 11 22 10 23
REMARK SMILES IDX 21 24 22 25 23 26 24 27 25 28 26 29 27 30 28 31 86 32 29 33
REMARK SMILES IDX 85 34 30 35 31 36 32 37 79 38 33 39 84 40 78 41 80 42 34 43
REMARK SMILES IDX 83 44 77 45 76 46 35 48 65 49 46 50 64 51 47 52 50 53 63 54
REMARK SMILES IDX 81 55 48 56 49 57 62 59 82 60 51 61 36 62 37 63 45 64 38 65
REMARK SMILES IDX 44 66 39 67 40 68 41 69 42 70 43 71 66 72 67 73 75 74 68 75
REMARK SMILES IDX 74 76 69 77 70 78 71 79 72 80 73 81 52 82 53 83 61 84 54 85
REMARK SMILES IDX 60 86 55 87 56 88 57 89 58 90 59 91
REMARK H PARENT 80 47 50 58
REMARK Flexibility Score: inf
ROOT
ATOM      1  C   UNL     1      -0.255   2.492  -0.776  1.00  0.00     0.188 C 
ENDROOT
BRANCH   1   2
ATOM      2  C   UNL     1       0.736   1.938  -1.806  1.00  0.00     0.188 C 
BRANCH   2   3
ATOM      3  O   UNL     1       0.427   2.139  -3.182  1.00  0.00    -0.376 OA
BRANCH   3   4
ATOM      4  C   UNL     1      -0.921   1.961  -3.603  1.00  0.00     0.202 C 
BRANCH   4   5
ATOM      5  C   UNL     1      -1.446   0.529  -3.562  1.00  0.00     0.261 C 
BRANCH   5   6
ATOM      6  O   UNL     1      -1.884   0.162  -2.236  1.00  0.00    -0.463 OA
BRANCH   6   7
ATOM      7  C   UNL     1      -1.211  -0.834  -1.618  1.00  0.00     0.312 C 
ATOM      8  O   UNL     1      -0.248  -1.376  -2.143  1.00  0.00    -0.252 OA
BRANCH   7   9
ATOM      9  C   UNL     1      -1.800  -1.253  -0.249  1.00  0.00     0.077 C 
ATOM     10  C   UNL     1       1.550  -1.074   0.438  1.00  0.00     0.042 C 
ATOM     11  C   UNL     1       0.363  -1.617   1.242  1.00  0.00     0.064 C 
ATOM     12  C   UNL     1       0.723  -1.481   2.735  1.00  0.00     0.042 C 
ATOM     13  C   UNL     1      -0.949  -0.837   0.978  1.00  0.00     0.054 C 
ATOM     14  O   UNL     1       0.185  -3.022   1.063  1.00  0.00    -0.376 OA
ATOM     15  C   UNL     1      -0.429  -3.429  -0.147  1.00  0.00     0.162 C 
ATOM     16  C   UNL     1      -1.821  -2.808  -0.288  1.00  0.00     0.047 C 
BRANCH   9  17
ATOM     17  C   UNL     1      -3.290  -0.755  -0.069  1.00  0.00     0.054 C 
BRANCH  17  18
ATOM     18  C   UNL     1      -3.564   0.694   0.320  1.00  0.00    -0.047 A 
ATOM     19  C   UNL     1      -3.602   1.090   1.667  1.00  0.00     0.004 A 
ATOM     20  C   UNL     1      -3.819   1.674  -0.652  1.00  0.00     0.004 A 
ATOM     21  C   UNL     1      -3.821   2.427   2.021  1.00  0.00     0.000 A 
ATOM     22  C   UNL     1      -4.008   3.014  -0.302  1.00  0.00     0.000 A 
ATOM     23  C   UNL     1      -4.001   3.393   1.035  1.00  0.00     0.000 A 
ENDBRANCH  17  18
ENDBRANCH   9  17
ENDBRANCH   7   9
ENDBRANCH   6   7
ENDBRANCH   5   6
ENDBRANCH   4   5
ENDBRANCH   3   4
ENDBRANCH   2   3
ENDBRANCH   1   2
BRANCH   1  24
ATOM     24  O   UNL     1      -0.904   3.716  -1.095  1.00  0.00    -0.376 OA
BRANCH  24  25
ATOM     25  C   UNL     1      -0.083   4.803  -1.492  1.00  0.00     0.202 C 
BRANCH  25  26
ATOM     26  C   UNL     1       0.394   5.642  -0.313  1.00  0.00     0.261 C 
BRANCH  26  27
ATOM     27  O   UNL     1       1.408   4.937   0.419  1.00  0.00    -0.460 OA
BRANCH  27  28
ATOM     28  C   UNL     1       1.023   4.435   1.619  1.00  0.00     0.338 C 
ATOM     29  O   UNL     1      -0.053   4.574   2.166  1.00  0.00    -0.246 OA
BRANCH  28  30
ATOM     30  C   UNL     1       2.083   3.530   2.119  1.00  0.00     0.060 A 
ATOM     31  C   UNL     1       1.690   2.389   2.829  1.00  0.00     0.016 A 
ATOM     32  C   UNL     1       3.440   3.805   1.921  1.00  0.00     0.016 A 
ATOM     33  C   UNL     1       2.655   1.549   3.382  1.00  0.00     0.010 A 
ATOM     34  C   UNL     1       4.404   2.960   2.474  1.00  0.00     0.010 A 
ATOM     35  C   UNL     1       4.014   1.845   3.231  1.00  0.00    -0.014 A 
BRANCH  35  36
ATOM     36  C   UNL     1       5.010   1.110   4.042  1.00  0.00     0.031 A 
ATOM     37  C   UNL     1       5.421   1.701   5.360  1.00  0.00     0.074 A 
ATOM     38  C   UNL     1       5.510  -0.070   3.637  1.00  0.00     0.049 A 
ATOM     39  N   UNL     1       6.303   1.271   6.221  1.00  0.00    -0.248 NA
ATOM     40  C   UNL     1       4.742   2.946   5.757  1.00  0.00     0.031 C 
ATOM     41  C   UNL     1       5.137  -0.770   2.410  1.00  0.00     0.029 A 
ATOM     42  N   UNL     1       6.445  -0.888   4.221  1.00  0.00    -0.354 N 
ATOM     43  C   UNL     1       6.291   2.193   7.260  1.00  0.00     0.074 A 
ATOM     44  C   UNL     1       5.334   3.220   6.909  1.00  0.00     0.031 C 
ATOM     45  C   UNL     1       5.839  -1.914   2.330  1.00  0.00     0.029 A 
ATOM     46  C   UNL     1       6.746  -2.002   3.473  1.00  0.00     0.049 A 
ATOM     47  H   UNL     1       6.861  -0.695   5.092  1.00  0.00     0.167 HD
ATOM     48  C   UNL     1       7.013   2.186   8.405  1.00  0.00     0.031 A 
ATOM     49  C   UNL     1       7.670  -2.963   3.676  1.00  0.00     0.031 A 
ATOM     50  C   UNL     1       7.992   1.184   8.727  1.00  0.00     0.049 A 
ATOM     51  C   UNL     1       8.537  -2.895   4.909  1.00  0.00     0.074 A 
ATOM     52  C   UNL     1       8.799   1.099   9.847  1.00  0.00     0.029 A 
ATOM     53  N   UNL     1       8.307   0.098   7.922  1.00  0.00    -0.354 N 
ATOM     54  N   UNL     1       8.520  -2.016   5.884  1.00  0.00    -0.248 NA
ATOM     55  C   UNL     1       9.547  -3.950   5.071  1.00  0.00     0.031 C 
ATOM     56  C   UNL     1       9.647  -0.003   9.689  1.00  0.00     0.029 A 
ATOM     57  C   UNL     1       9.315  -0.648   8.508  1.00  0.00     0.049 A 
ATOM     58  H   UNL     1       7.877  -0.110   7.062  1.00  0.00     0.167 HD
ATOM     59  C   UNL     1       9.495  -2.429   6.788  1.00  0.00     0.074 A 
ATOM     60  C   UNL     1      10.071  -3.645   6.250  1.00  0.00     0.031 C 
ATOM     61  C   UNL     1       9.878  -1.857   7.958  1.00  0.00     0.031 A 
BRANCH  48  62
ATOM     62  C   UNL     1       6.803   3.334   9.356  1.00  0.00    -0.014 A 
ATOM     63  C   UNL     1       5.601   3.480  10.073  1.00  0.00     0.010 A 
ATOM     64  C   UNL     1       7.827   4.282   9.535  1.00  0.00     0.010 A 
ATOM     65  C   UNL     1       5.411   4.577  10.916  1.00  0.00     0.020 A 
ATOM     66  C   UNL     1       7.652   5.363  10.402  1.00  0.00     0.020 A 
ATOM     67  C   UNL     1       6.437   5.514  11.073  1.00  0.00     0.054 A 
BRANCH  67  68
ATOM     68  S   UNL     1       6.165   6.924  12.180  1.00  0.00     0.124 S 
ATOM     69  O   UNL     1       5.194   7.715  11.427  1.00  0.00    -0.237 OA
ATOM     70  O   UNL     1       5.653   6.286  13.389  1.00  0.00    -0.237 OA
ATOM     71  O   UNL     1       7.490   7.526  12.309  1.00  0.00    -0.744 OA
ENDBRANCH  67  68
ENDBRANCH  48  62
BRANCH  49  72
ATOM     72  C   UNL     1       7.857  -4.047   2.669  1.00  0.00    -0.014 A 
ATOM     73  C   UNL     1       7.560  -5.386   2.979  1.00  0.00     0.010 A 
ATOM     74  C   UNL     1       8.350  -3.740   1.387  1.00  0.00     0.010 A 
ATOM     75  C   UNL     1       7.769  -6.397   2.034  1.00  0.00     0.020 A 
ATOM     76  C   UNL     1       8.530  -4.742   0.429  1.00  0.00     0.020 A 
ATOM     77  C   UNL     1       8.250  -6.067   0.763  1.00  0.00     0.054 A 
BRANCH  77  78
ATOM     78  S   UNL     1       8.471  -7.389  -0.461  1.00  0.00     0.124 S 
ATOM     79  O   UNL     1       9.625  -8.107   0.070  1.00  0.00    -0.237 OA
ATOM     80  O   UNL     1       7.196  -8.099  -0.392  1.00  0.00    -0.237 OA
ATOM     81  O   UNL     1       8.705  -6.665  -1.709  1.00  0.00    -0.744 OA
ENDBRANCH  77  78
ENDBRANCH  49  72
BRANCH  61  82
ATOM     82  C   UNL     1      10.941  -2.560   8.765  1.00  0.00    -0.014 A 
ATOM     83  C   UNL     1      12.280  -2.605   8.340  1.00  0.00     0.010 A 
ATOM     84  C   UNL     1      10.598  -3.132  10.004  1.00  0.00     0.010 A 
ATOM     85  C   UNL     1      13.249  -3.242   9.122  1.00  0.00     0.020 A 
ATOM     86  C   UNL     1      11.569  -3.739  10.805  1.00  0.00     0.020 A 
ATOM     87  C   UNL     1      12.887  -3.804  10.350  1.00  0.00     0.054 A 
BRANCH  87  88
ATOM     88  S   UNL     1      14.170  -4.588  11.365  1.00  0.00     0.124 S 
ATOM     89  O   UNL     1      14.450  -5.807  10.612  1.00  0.00    -0.237 OA
ATOM     90  O   UNL     1      15.235  -3.588  11.362  1.00  0.00    -0.237 OA
ATOM     91  O   UNL     1      13.517  -4.790  12.656  1.00  0.00    -0.744 OA
ENDBRANCH  87  88
ENDBRANCH  61  82
ENDBRANCH  35  36
ENDBRANCH  28  30
ENDBRANCH  27  28
ENDBRANCH  26  27
ENDBRANCH  25  26
ENDBRANCH  24  25
ENDBRANCH   1  24
TORSDOF 22
