REMARK SMILES C[C@H]1CN(c2ccc(C(=O)OCCOCCOCCOC(=O)c3ccc(-c4c5nc(c(-c6ccc(S(=O)(=O)[O-])cc6)c6ccc([nH]6)c(-c6ccc(S(=O)(=O)[O-])cc6)c6nc(c(-c7ccc(S(=O)(=O)[O-])cc7)c7ccc4[nH]7)C=C6)C=C5)cc3)cc2[N+](=O)[O-])C[C@@H]1C
REMARK SMILES IDX 16 1 15 2 14 3 13 4 12 5 11 6 9 7 10 8 8 9 5 10 6 11 84 12
REMARK SMILES IDX 7 13 83 14 4 15 1 16 2 17 3 18 89 19 88 20 90 21 85 22 86 23
REMARK SMILES IDX 87 24 17 25 18 26 19 27 20 28 21 29 22 30 23 31 24 32 82 33
REMARK SMILES IDX 25 34 81 35 26 36 27 37 28 38 75 39 29 40 80 41 74 42 76 43
REMARK SMILES IDX 30 44 79 45 73 46 72 47 31 49 61 50 42 51 60 52 43 53 46 54
REMARK SMILES IDX 59 55 77 56 44 57 45 58 58 60 78 61 47 62 32 63 33 64 41 65
REMARK SMILES IDX 34 66 40 67 35 68 36 69 37 70 38 71 39 72 62 73 63 74 71 75
REMARK SMILES IDX 64 76 70 77 65 78 66 79 67 80 68 81 69 82 48 83 49 84 57 85
REMARK SMILES IDX 50 86 56 87 51 88 52 89 53 90 54 91 55 92
REMARK H PARENT 76 48 46 59
REMARK Flexibility Score: inf
ROOT
ATOM      1  C   UNL     1       0.462  10.280   0.523  1.00  0.00     0.188 C 
ENDROOT
BRANCH   1   2
ATOM      2  C   UNL     1       1.371  10.578   1.735  1.00  0.00     0.188 C 
BRANCH   2   3
ATOM      3  O   UNL     1       2.254  11.694   1.700  1.00  0.00    -0.376 OA
BRANCH   3   4
ATOM      4  C   UNL     1       3.030  11.954   0.538  1.00  0.00     0.202 C 
BRANCH   4   5
ATOM      5  C   UNL     1       3.910  10.844  -0.055  1.00  0.00     0.261 C 
BRANCH   5   6
ATOM      6  O   UNL     1       3.241   9.591  -0.274  1.00  0.00    -0.460 OA
BRANCH   6   7
ATOM      7  C   UNL     1       3.673   8.563   0.491  1.00  0.00     0.338 C 
ATOM      8  O   UNL     1       4.603   8.580   1.290  1.00  0.00    -0.246 OA
BRANCH   7   9
ATOM      9  C   UNL     1       2.772   7.399   0.358  1.00  0.00     0.067 A 
ATOM     10  C   UNL     1       1.214   5.027   0.210  1.00  0.00     0.116 A 
ATOM     11  C   UNL     1       1.652   5.537   1.443  1.00  0.00     0.034 A 
ATOM     12  C   UNL     1       1.512   5.798  -0.935  1.00  0.00     0.293 A 
ATOM     13  C   UNL     1       2.432   6.696   1.518  1.00  0.00     0.018 A 
ATOM     14  C   UNL     1       2.281   6.978  -0.876  1.00  0.00     0.103 A 
BRANCH  10  15
ATOM     15  N   UNL     1       0.664   3.766   0.154  1.00  0.00    -0.365 N 
ATOM     16  C   UNL     1      -0.247   1.220  -1.380  1.00  0.00     0.010 C 
ATOM     17  C   UNL     1       0.621   1.433  -0.137  1.00  0.00     0.010 C 
ATOM     18  C   UNL     1       1.515   2.664  -0.289  1.00  0.00     0.120 C 
ATOM     19  C   UNL     1      -0.227   1.774   1.102  1.00  0.00     0.010 C 
ATOM     20  C   UNL     1      -0.444   3.299   0.992  1.00  0.00     0.120 C 
ATOM     21  C   UNL     1       0.497   1.415   2.403  1.00  0.00     0.010 C 
ENDBRANCH  10  15
BRANCH  12  22
ATOM     22  N   UNL     1       1.034   5.388  -2.255  1.00  0.00     0.065 N 
ATOM     23  O   UNL     1       1.829   5.510  -3.200  1.00  0.00    -0.258 OA
ATOM     24  O   UNL     1      -0.137   4.998  -2.370  1.00  0.00    -0.258 OA
ENDBRANCH  12  22
ENDBRANCH   7   9
ENDBRANCH   6   7
ENDBRANCH   5   6
ENDBRANCH   4   5
ENDBRANCH   3   4
ENDBRANCH   2   3
ENDBRANCH   1   2
BRANCH   1  25
ATOM     25  O   UNL     1       0.609  11.201  -0.534  1.00  0.00    -0.376 OA
BRANCH  25  26
ATOM     26  C   UNL     1      -0.383  12.197  -0.714  1.00  0.00     0.202 C 
BRANCH  26  27
ATOM     27  C   UNL     1      -0.987  12.991   0.462  1.00  0.00     0.261 C 
BRANCH  27  28
ATOM     28  O   UNL     1      -1.075  12.341   1.736  1.00  0.00    -0.460 OA
BRANCH  28  29
ATOM     29  C   UNL     1      -2.178  11.604   1.975  1.00  0.00     0.338 C 
ATOM     30  O   UNL     1      -3.096  11.381   1.191  1.00  0.00    -0.246 OA
BRANCH  29  31
ATOM     31  C   UNL     1      -2.027  10.945   3.287  1.00  0.00     0.060 A 
ATOM     32  C   UNL     1      -1.969   9.547   3.334  1.00  0.00     0.016 A 
ATOM     33  C   UNL     1      -1.962  11.695   4.465  1.00  0.00     0.016 A 
ATOM     34  C   UNL     1      -1.891   8.893   4.564  1.00  0.00     0.010 A 
ATOM     35  C   UNL     1      -1.900  11.037   5.699  1.00  0.00     0.010 A 
ATOM     36  C   UNL     1      -1.903   9.632   5.756  1.00  0.00    -0.014 A 
BRANCH  36  37
ATOM     37  C   UNL     1      -2.112   8.924   7.045  1.00  0.00     0.031 A 
ATOM     38  C   UNL     1      -3.508   8.855   7.609  1.00  0.00     0.074 A 
ATOM     39  C   UNL     1      -1.099   8.306   7.679  1.00  0.00     0.049 A 
ATOM     40  N   UNL     1      -3.938   8.255   8.689  1.00  0.00    -0.248 NA
ATOM     41  C   UNL     1      -4.558   9.553   6.849  1.00  0.00     0.031 C 
ATOM     42  C   UNL     1       0.290   8.270   7.224  1.00  0.00     0.029 A 
ATOM     43  N   UNL     1      -1.090   7.583   8.847  1.00  0.00    -0.354 N 
ATOM     44  C   UNL     1      -5.305   8.503   8.739  1.00  0.00     0.074 A 
ATOM     45  C   UNL     1      -5.627   9.336   7.601  1.00  0.00     0.031 C 
ATOM     46  C   UNL     1       1.018   7.558   8.104  1.00  0.00     0.029 A 
ATOM     47  C   UNL     1       0.152   7.109   9.194  1.00  0.00     0.049 A 
ATOM     48  H   UNL     1      -1.899   7.419   9.384  1.00  0.00     0.167 HD
ATOM     49  C   UNL     1      -6.216   8.070   9.643  1.00  0.00     0.031 A 
ATOM     50  C   UNL     1       0.547   6.402  10.272  1.00  0.00     0.031 A 
ATOM     51  C   UNL     1      -5.896   7.260  10.788  1.00  0.00     0.049 A 
ATOM     52  C   UNL     1      -0.474   5.983  11.299  1.00  0.00     0.074 A 
ATOM     53  C   UNL     1      -6.751   6.765  11.758  1.00  0.00     0.029 A 
ATOM     54  N   UNL     1      -4.621   6.833  11.124  1.00  0.00    -0.354 N 
ATOM     55  N   UNL     1      -1.769   6.199  11.314  1.00  0.00    -0.248 NA
ATOM     56  C   UNL     1       0.019   5.207  12.445  1.00  0.00     0.031 C 
ATOM     57  C   UNL     1      -5.984   6.084  12.710  1.00  0.00     0.029 A 
ATOM     58  C   UNL     1      -4.661   6.098  12.298  1.00  0.00     0.049 A 
ATOM     59  H   UNL     1      -3.806   7.024  10.605  1.00  0.00     0.167 HD
ATOM     60  C   UNL     1      -2.248   5.557  12.453  1.00  0.00     0.074 A 
ATOM     61  C   UNL     1      -1.107   4.932  13.090  1.00  0.00     0.031 C 
ATOM     62  C   UNL     1      -3.518   5.486  12.927  1.00  0.00     0.031 A 
BRANCH  49  63
ATOM     63  C   UNL     1      -7.646   8.498   9.442  1.00  0.00    -0.014 A 
ATOM     64  C   UNL     1      -8.423   7.979   8.390  1.00  0.00     0.010 A 
ATOM     65  C   UNL     1      -8.230   9.415  10.335  1.00  0.00     0.010 A 
ATOM     66  C   UNL     1      -9.743   8.399   8.210  1.00  0.00     0.020 A 
ATOM     67  C   UNL     1      -9.559   9.817  10.176  1.00  0.00     0.020 A 
ATOM     68  C   UNL     1     -10.302   9.319   9.104  1.00  0.00     0.054 A 
BRANCH  68  69
ATOM     69  S   UNL     1     -12.024   9.834   8.858  1.00  0.00     0.124 S 
ATOM     70  O   UNL     1     -11.916  10.693   7.682  1.00  0.00    -0.237 OA
ATOM     71  O   UNL     1     -12.711   8.562   8.646  1.00  0.00    -0.237 OA
ATOM     72  O   UNL     1     -12.361  10.521  10.103  1.00  0.00    -0.744 OA
ENDBRANCH  68  69
ENDBRANCH  49  63
BRANCH  50  73
ATOM     73  C   UNL     1       1.983   6.041  10.443  1.00  0.00    -0.014 A 
ATOM     74  C   UNL     1       2.406   4.704  10.341  1.00  0.00     0.010 A 
ATOM     75  C   UNL     1       2.934   7.038  10.724  1.00  0.00     0.010 A 
ATOM     76  C   UNL     1       3.750   4.369  10.536  1.00  0.00     0.020 A 
ATOM     77  C   UNL     1       4.283   6.712  10.891  1.00  0.00     0.020 A 
ATOM     78  C   UNL     1       4.680   5.376  10.808  1.00  0.00     0.054 A 
BRANCH  78  79
ATOM     79  S   UNL     1       6.426   4.924  11.009  1.00  0.00     0.124 S 
ATOM     80  O   UNL     1       6.424   4.280  12.319  1.00  0.00    -0.237 OA
ATOM     81  O   UNL     1       6.655   4.040   9.869  1.00  0.00    -0.237 OA
ATOM     82  O   UNL     1       7.121   6.207  10.942  1.00  0.00    -0.744 OA
ENDBRANCH  78  79
ENDBRANCH  50  73
BRANCH  62  83
ATOM     83  C   UNL     1      -3.748   4.665  14.170  1.00  0.00    -0.014 A 
ATOM     84  C   UNL     1      -3.279   5.084  15.428  1.00  0.00     0.010 A 
ATOM     85  C   UNL     1      -4.468   3.459  14.077  1.00  0.00     0.010 A 
ATOM     86  C   UNL     1      -3.475   4.284  16.558  1.00  0.00     0.020 A 
ATOM     87  C   UNL     1      -4.694   2.672  15.210  1.00  0.00     0.020 A 
ATOM     88  C   UNL     1      -4.175   3.079  16.440  1.00  0.00     0.054 A 
BRANCH  88  89
ATOM     89  S   UNL     1      -4.417   2.057  17.919  1.00  0.00     0.124 S 
ATOM     90  O   UNL     1      -3.090   1.478  18.108  1.00  0.00    -0.237 OA
ATOM     91  O   UNL     1      -4.825   3.036  18.924  1.00  0.00    -0.237 OA
ATOM     92  O   UNL     1      -5.458   1.113  17.520  1.00  0.00    -0.744 OA
ENDBRANCH  88  89
ENDBRANCH  62  83
ENDBRANCH  36  37
ENDBRANCH  29  31
ENDBRANCH  28  29
ENDBRANCH  27  28
ENDBRANCH  26  27
ENDBRANCH  25  26
ENDBRANCH   1  25
TORSDOF 22
