REMARK SMILES O=C(OCCOCCOCCOC(=O)c1ccc(-c2c3nc(c(-c4ccc(S(=O)(=O)[O-])cc4)c4ccc([nH]4)c(-c4ccc(S(=O)(=O)[O-])cc4)c4nc(c(-c5ccc(S(=O)(=O)[O-])cc5)c5ccc2[nH]5)C=C4)C=C3)cc1)C1=Cc2c(Cl)ccc(Cl)c2O[C@@H]1C(F)(F)F
REMARK SMILES IDX 8 1 7 2 6 3 5 4 4 5 3 6 2 7 1 8 75 9 76 10 86 11 77 12 85 13
REMARK SMILES IDX 78 14 84 15 79 16 80 17 82 18 81 19 83 20 87 21 88 22 89 23
REMARK SMILES IDX 90 24 9 25 10 26 11 27 12 28 13 29 14 30 15 31 16 32 74 33
REMARK SMILES IDX 17 34 73 35 18 36 19 37 20 38 67 39 21 40 72 41 66 42 68 43
REMARK SMILES IDX 22 44 71 45 65 46 64 47 23 49 53 50 34 51 52 52 35 53 38 54
REMARK SMILES IDX 51 55 69 56 36 57 37 58 50 60 70 61 39 62 24 63 25 64 33 65
REMARK SMILES IDX 26 66 32 67 27 68 28 69 29 70 30 71 31 72 54 73 55 74 63 75
REMARK SMILES IDX 56 76 62 77 57 78 58 79 59 80 60 81 61 82 40 83 41 84 49 85
REMARK SMILES IDX 42 86 48 87 43 88 44 89 45 90 46 91 47 92
REMARK H PARENT 68 48 38 59
REMARK Flexibility Score: inf
ROOT
ATOM      1  C   UNL     1       2.126   3.220   0.991  1.00  0.00     0.188 C 
ENDROOT
BRANCH   1   2
ATOM      2  C   UNL     1       2.417   1.802   1.515  1.00  0.00     0.188 C 
BRANCH   2   3
ATOM      3  O   UNL     1       3.742   1.171   1.638  1.00  0.00    -0.376 OA
BRANCH   3   4
ATOM      4  C   UNL     1       4.398  -0.125   0.790  1.00  0.00     0.202 C 
BRANCH   4   5
ATOM      5  C   UNL     1       3.621  -1.026  -1.023  1.00  0.00     0.261 C 
BRANCH   5   6
ATOM      6  O   UNL     1       2.654  -2.185  -1.119  1.00  0.00    -0.460 OA
BRANCH   6   7
ATOM      7  C   UNL     1       2.855  -3.080  -0.144  1.00  0.00     0.338 C 
ATOM      8  O   UNL     1       2.178  -4.039   0.132  1.00  0.00    -0.246 OA
BRANCH   7   9
ATOM      9  C   UNL     1       3.762  -2.278   0.666  1.00  0.00     0.087 C 
ATOM     10  C   UNL     1       5.135  -2.203   0.154  1.00  0.00     0.029 C 
ATOM     11  C   UNL     1       2.548  -0.795   0.725  1.00  0.00     0.316 C 
ATOM     12  C   UNL     1       5.825  -0.794  -0.755  1.00  0.00     0.037 A 
ATOM     13  O   UNL     1       3.184   0.687  -0.363  1.00  0.00    -0.474 OA
ATOM     14  C   UNL     1       7.077  -0.859  -1.319  1.00  0.00     0.052 A 
ATOM     15  C   UNL     1       4.869   0.623  -1.089  1.00  0.00     0.148 A 
ATOM     16  Cl  UNL     1       8.113  -2.215  -1.177  1.00  0.00    -0.084 Cl
ATOM     17  C   UNL     1       7.462   0.251  -2.095  1.00  0.00     0.023 A 
ATOM     18  C   UNL     1       5.321   1.644  -1.884  1.00  0.00     0.083 A 
ATOM     19  C   UNL     1       6.638   1.425  -2.357  1.00  0.00     0.026 A 
ATOM     20  Cl  UNL     1       4.433   2.998  -2.387  1.00  0.00    -0.080 Cl
BRANCH  11  21
ATOM     21  C   UNL     1       2.293  -0.963   2.359  1.00  0.00     0.430 C 
ATOM     22  F   UNL     1       1.782   0.049   3.062  1.00  0.00    -0.167 F 
ATOM     23  F   UNL     1       1.385  -1.972   2.511  1.00  0.00    -0.167 F 
ATOM     24  F   UNL     1       3.391  -1.393   3.041  1.00  0.00    -0.167 F 
ENDBRANCH  11  21
ENDBRANCH   7   9
ENDBRANCH   6   7
ENDBRANCH   5   6
ENDBRANCH   4   5
ENDBRANCH   3   4
ENDBRANCH   2   3
ENDBRANCH   1   2
BRANCH   1  25
ATOM     25  O   UNL     1       3.114   3.962   0.330  1.00  0.00    -0.376 OA
BRANCH  25  26
ATOM     26  C   UNL     1       4.398   3.986   0.927  1.00  0.00     0.202 C 
BRANCH  26  27
ATOM     27  C   UNL     1       4.506   4.492   2.370  1.00  0.00     0.261 C 
BRANCH  27  28
ATOM     28  O   UNL     1       3.987   3.577   3.356  1.00  0.00    -0.460 OA
BRANCH  28  29
ATOM     29  C   UNL     1       2.904   3.990   4.061  1.00  0.00     0.338 C 
ATOM     30  O   UNL     1       2.308   5.047   3.939  1.00  0.00    -0.246 OA
BRANCH  29  31
ATOM     31  C   UNL     1       2.419   2.890   4.921  1.00  0.00     0.060 A 
ATOM     32  C   UNL     1       1.089   2.458   4.782  1.00  0.00     0.016 A 
ATOM     33  C   UNL     1       3.251   2.320   5.885  1.00  0.00     0.016 A 
ATOM     34  C   UNL     1       0.584   1.466   5.620  1.00  0.00     0.010 A 
ATOM     35  C   UNL     1       2.730   1.360   6.757  1.00  0.00     0.010 A 
ATOM     36  C   UNL     1       1.383   0.964   6.653  1.00  0.00    -0.014 A 
BRANCH  36  37
ATOM     37  C   UNL     1       0.717   0.296   7.795  1.00  0.00     0.031 A 
ATOM     38  C   UNL     1       0.272   1.175   8.935  1.00  0.00     0.074 A 
ATOM     39  C   UNL     1       0.467  -1.025   7.807  1.00  0.00     0.049 A 
ATOM     40  N   UNL     1      -0.371   0.860  10.028  1.00  0.00    -0.248 NA
ATOM     41  C   UNL     1       0.597   2.608   8.821  1.00  0.00     0.031 C 
ATOM     42  C   UNL     1       0.803  -1.963   6.738  1.00  0.00     0.029 A 
ATOM     43  N   UNL     1      -0.141  -1.802   8.761  1.00  0.00    -0.354 N 
ATOM     44  C   UNL     1      -0.518   2.051  10.731  1.00  0.00     0.074 A 
ATOM     45  C   UNL     1       0.130   3.087   9.962  1.00  0.00     0.031 C 
ATOM     46  C   UNL     1       0.390  -3.193   7.095  1.00  0.00     0.029 A 
ATOM     47  C   UNL     1      -0.212  -3.134   8.427  1.00  0.00     0.049 A 
ATOM     48  H   UNL     1      -0.494  -1.440   9.606  1.00  0.00     0.167 HD
ATOM     49  C   UNL     1      -1.142   2.264  11.912  1.00  0.00     0.031 A 
ATOM     50  C   UNL     1      -0.702  -4.179   9.124  1.00  0.00     0.031 A 
ATOM     51  C   UNL     1      -1.756   1.220  12.686  1.00  0.00     0.049 A 
ATOM     52  C   UNL     1      -1.318  -3.928  10.480  1.00  0.00     0.074 A 
ATOM     53  C   UNL     1      -2.429   1.325  13.889  1.00  0.00     0.029 A 
ATOM     54  N   UNL     1      -1.753  -0.124  12.342  1.00  0.00    -0.354 N 
ATOM     55  N   UNL     1      -1.489  -2.791  11.116  1.00  0.00    -0.248 NA
ATOM     56  C   UNL     1      -1.823  -5.102  11.205  1.00  0.00     0.031 C 
ATOM     57  C   UNL     1      -2.756   0.035  14.315  1.00  0.00     0.029 A 
ATOM     58  C   UNL     1      -2.377  -0.865  13.330  1.00  0.00     0.049 A 
ATOM     59  H   UNL     1      -1.365  -0.495  11.517  1.00  0.00     0.167 HD
ATOM     60  C   UNL     1      -2.163  -3.110  12.293  1.00  0.00     0.074 A 
ATOM     61  C   UNL     1      -2.377  -4.543  12.272  1.00  0.00     0.031 C 
ATOM     62  C   UNL     1      -2.577  -2.293  13.295  1.00  0.00     0.031 A 
BRANCH  49  63
ATOM     63  C   UNL     1      -1.131   3.668  12.462  1.00  0.00    -0.014 A 
ATOM     64  C   UNL     1      -1.827   4.717  11.832  1.00  0.00     0.010 A 
ATOM     65  C   UNL     1      -0.418   3.937  13.644  1.00  0.00     0.010 A 
ATOM     66  C   UNL     1      -1.775   6.013  12.351  1.00  0.00     0.020 A 
ATOM     67  C   UNL     1      -0.395   5.223  14.188  1.00  0.00     0.020 A 
ATOM     68  C   UNL     1      -1.061   6.257  13.528  1.00  0.00     0.054 A 
BRANCH  68  69
ATOM     69  S   UNL     1      -1.035   7.943  14.196  1.00  0.00     0.124 S 
ATOM     70  O   UNL     1      -0.233   8.651  13.200  1.00  0.00    -0.237 OA
ATOM     71  O   UNL     1      -2.452   8.294  14.227  1.00  0.00    -0.237 OA
ATOM     72  O   UNL     1      -0.405   7.789  15.505  1.00  0.00    -0.744 OA
ENDBRANCH  68  69
ENDBRANCH  49  63
BRANCH  50  73
ATOM     73  C   UNL     1      -0.641  -5.558   8.560  1.00  0.00    -0.014 A 
ATOM     74  C   UNL     1      -1.818  -6.256   8.231  1.00  0.00     0.010 A 
ATOM     75  C   UNL     1       0.600  -6.192   8.364  1.00  0.00     0.010 A 
ATOM     76  C   UNL     1      -1.756  -7.564   7.739  1.00  0.00     0.020 A 
ATOM     77  C   UNL     1       0.667  -7.487   7.840  1.00  0.00     0.020 A 
ATOM     78  C   UNL     1      -0.513  -8.169   7.541  1.00  0.00     0.054 A 
BRANCH  78  79
ATOM     79  S   UNL     1      -0.458  -9.849   6.857  1.00  0.00     0.124 S 
ATOM     80  O   UNL     1      -1.014 -10.642   7.948  1.00  0.00    -0.237 OA
ATOM     81  O   UNL     1      -1.298  -9.730   5.668  1.00  0.00    -0.237 OA
ATOM     82  O   UNL     1       0.963 -10.065   6.589  1.00  0.00    -0.744 OA
ENDBRANCH  78  79
ENDBRANCH  50  73
BRANCH  62  83
ATOM     83  C   UNL     1      -3.357  -2.916  14.427  1.00  0.00    -0.014 A 
ATOM     84  C   UNL     1      -2.767  -3.818  15.330  1.00  0.00     0.010 A 
ATOM     85  C   UNL     1      -4.705  -2.554  14.610  1.00  0.00     0.010 A 
ATOM     86  C   UNL     1      -3.525  -4.387  16.358  1.00  0.00     0.020 A 
ATOM     87  C   UNL     1      -5.454  -3.085  15.661  1.00  0.00     0.020 A 
ATOM     88  C   UNL     1      -4.864  -4.016  16.516  1.00  0.00     0.054 A 
BRANCH  88  89
ATOM     89  S   UNL     1      -5.819  -4.755  17.869  1.00  0.00     0.124 S 
ATOM     90  O   UNL     1      -5.959  -6.138  17.423  1.00  0.00    -0.237 OA
ATOM     91  O   UNL     1      -4.947  -4.551  19.023  1.00  0.00    -0.237 OA
ATOM     92  O   UNL     1      -7.057  -3.978  17.885  1.00  0.00    -0.744 OA
ENDBRANCH  88  89
ENDBRANCH  62  83
ENDBRANCH  36  37
ENDBRANCH  29  31
ENDBRANCH  28  29
ENDBRANCH  27  28
ENDBRANCH  26  27
ENDBRANCH  25  26
ENDBRANCH   1  25
TORSDOF 21
