REMARK SMILES COC(=O)C[C@@H](NC(=O)c1ccccc1C(=O)OCCOCCOCCOC(=O)c1ccc(-c2c3nc(c(-c4ccc(S(=O)(=O)[O-])cc4)c4ccc([nH]4)c(-c4ccc(S(=O)(=O)[O-])cc4)c4nc(c(-c5ccc(S(=O)(=O)[O-])cc5)c5ccc2[nH]5)C=C4)C=C3)cc1)c1cccc(C)c1C
REMARK SMILES IDX 22 1 21 2 20 3 19 4 18 5 16 6 17 7 15 8 10 9 11 10 12 11
REMARK SMILES IDX 14 12 13 13 8 14 7 15 9 17 6 18 5 19 3 20 4 21 2 22 1 23
REMARK SMILES IDX 90 24 91 25 96 26 92 27 94 28 97 29 93 30 95 31 23 32 24 33
REMARK SMILES IDX 25 34 26 35 27 36 28 37 29 38 30 39 31 40 89 41 32 42 88 43
REMARK SMILES IDX 33 44 34 45 35 46 82 47 36 48 87 49 81 50 83 51 37 52 86 53
REMARK SMILES IDX 80 54 79 55 38 57 68 58 49 59 67 60 50 61 53 62 66 63 84 64
REMARK SMILES IDX 51 65 52 66 65 68 85 69 54 70 39 71 40 72 48 73 41 74 47 75
REMARK SMILES IDX 42 76 43 77 44 78 45 79 46 80 69 81 70 82 78 83 71 84 77 85
REMARK SMILES IDX 72 86 73 87 74 88 75 89 76 90 55 91 56 92 64 93 57 94 63 95
REMARK SMILES IDX 58 96 59 97 60 98 61 99 62 100
REMARK H PARENT 7 16 83 56 53 67
REMARK Flexibility Score: inf
ROOT
ATOM      1  C   UNL     1       4.024   0.148   7.104  1.00  0.00     0.188 C 
ENDROOT
BRANCH   1   2
ATOM      2  O   UNL     1       4.886  -0.313   6.084  1.00  0.00    -0.376 OA
BRANCH   2   3
ATOM      3  C   UNL     1       4.359  -0.775   4.854  1.00  0.00     0.202 C 
BRANCH   3   4
ATOM      4  C   UNL     1       2.994  -1.452   4.763  1.00  0.00     0.261 C 
BRANCH   4   5
ATOM      5  O   UNL     1       1.881  -0.703   5.281  1.00  0.00    -0.460 OA
BRANCH   5   6
ATOM      6  C   UNL     1       1.281  -1.258   6.367  1.00  0.00     0.339 C 
ATOM      7  O   UNL     1       1.708  -2.221   6.986  1.00  0.00    -0.246 OA
BRANCH   6   8
ATOM      8  C   UNL     1       0.117  -0.482   6.849  1.00  0.00     0.072 A 
ATOM      9  C   UNL     1      -0.786   0.217   6.047  1.00  0.00     0.054 A 
ATOM     10  C   UNL     1      -1.855   0.909   6.663  1.00  0.00     0.015 A 
ATOM     11  C   UNL     1      -2.037   0.887   8.046  1.00  0.00     0.001 A 
ATOM     12  C   UNL     1      -0.070  -0.483   8.249  1.00  0.00     0.016 A 
ATOM     13  C   UNL     1      -1.139   0.192   8.842  1.00  0.00     0.001 A 
BRANCH   9  14
ATOM     14  C   UNL     1      -0.780   0.326   4.577  1.00  0.00     0.252 C 
ATOM     15  N   UNL     1      -0.878  -0.736   3.720  1.00  0.00    -0.345 N 
ATOM     16  H   UNL     1      -1.365  -0.503   2.897  1.00  0.00     0.164 HD
ATOM     17  O   UNL     1      -0.889   1.451   4.084  1.00  0.00    -0.269 OA
BRANCH  15  18
ATOM     18  C   UNL     1      -0.433  -2.146   3.724  1.00  0.00     0.124 C 
BRANCH  18  19
ATOM     19  C   UNL     1      -0.716  -2.765   2.352  1.00  0.00     0.152 C 
BRANCH  19  20
ATOM     20  C   UNL     1       0.291  -2.211   1.368  1.00  0.00     0.307 C 
ATOM     21  O   UNL     1       1.329  -2.776   1.051  1.00  0.00    -0.252 OA
BRANCH  20  22
ATOM     22  O   UNL     1      -0.087  -0.970   0.948  1.00  0.00    -0.469 OA
ATOM     23  C   UNL     1       0.866  -0.301   0.114  1.00  0.00     0.282 C 
ENDBRANCH  20  22
ENDBRANCH  19  20
ENDBRANCH  18  19
BRANCH  18  24
ATOM     24  C   UNL     1      -0.874  -3.022   4.895  1.00  0.00    -0.022 A 
ATOM     25  C   UNL     1      -1.972  -2.646   5.684  1.00  0.00     0.006 A 
ATOM     26  C   UNL     1      -0.080  -4.134   5.318  1.00  0.00    -0.043 A 
ATOM     27  C   UNL     1      -2.161  -3.192   6.953  1.00  0.00     0.001 A 
ATOM     28  C   UNL     1      -0.326  -4.729   6.582  1.00  0.00    -0.048 A 
ATOM     29  C   UNL     1       1.016  -4.714   4.450  1.00  0.00     0.045 C 
ATOM     30  C   UNL     1      -1.321  -4.199   7.412  1.00  0.00     0.004 A 
ATOM     31  C   UNL     1       0.527  -5.843   7.141  1.00  0.00     0.044 C 
ENDBRANCH  18  24
ENDBRANCH  15  18
ENDBRANCH   9  14
ENDBRANCH   6   8
ENDBRANCH   5   6
ENDBRANCH   4   5
ENDBRANCH   3   4
ENDBRANCH   2   3
ENDBRANCH   1   2
BRANCH   1  32
ATOM     32  C   UNL     1       3.136   1.388   6.854  1.00  0.00     0.188 C 
BRANCH  32  33
ATOM     33  O   UNL     1       3.308   2.172   5.692  1.00  0.00    -0.376 OA
BRANCH  33  34
ATOM     34  C   UNL     1       4.610   2.647   5.398  1.00  0.00     0.202 C 
BRANCH  34  35
ATOM     35  C   UNL     1       5.425   3.368   6.484  1.00  0.00     0.261 C 
BRANCH  35  36
ATOM     36  O   UNL     1       5.531   2.660   7.734  1.00  0.00    -0.460 OA
BRANCH  36  37
ATOM     37  C   UNL     1       4.916   3.244   8.797  1.00  0.00     0.338 C 
ATOM     38  O   UNL     1       4.378   4.341   8.817  1.00  0.00    -0.246 OA
BRANCH  37  39
ATOM     39  C   UNL     1       4.754   2.258   9.893  1.00  0.00     0.060 A 
ATOM     40  C   UNL     1       3.453   1.964  10.338  1.00  0.00     0.016 A 
ATOM     41  C   UNL     1       5.853   1.641  10.490  1.00  0.00     0.016 A 
ATOM     42  C   UNL     1       3.248   1.083  11.400  1.00  0.00     0.010 A 
ATOM     43  C   UNL     1       5.648   0.786  11.582  1.00  0.00     0.010 A 
ATOM     44  C   UNL     1       4.349   0.535  12.067  1.00  0.00    -0.014 A 
BRANCH  44  45
ATOM     45  C   UNL     1       4.166  -0.053  13.419  1.00  0.00     0.031 A 
ATOM     46  C   UNL     1       4.352   0.857  14.606  1.00  0.00     0.074 A 
ATOM     47  C   UNL     1       3.837  -1.343  13.611  1.00  0.00     0.049 A 
ATOM     48  N   UNL     1       4.327   0.578  15.883  1.00  0.00    -0.248 NA
ATOM     49  C   UNL     1       4.606   2.276  14.303  1.00  0.00     0.031 C 
ATOM     50  C   UNL     1       3.572  -2.319  12.558  1.00  0.00     0.029 A 
ATOM     51  N   UNL     1       3.689  -2.054  14.778  1.00  0.00    -0.354 N 
ATOM     52  C   UNL     1       4.579   1.780  16.535  1.00  0.00     0.074 A 
ATOM     53  C   UNL     1       4.778   2.784  15.513  1.00  0.00     0.031 C 
ATOM     54  C   UNL     1       3.324  -3.513  13.127  1.00  0.00     0.029 A 
ATOM     55  C   UNL     1       3.446  -3.393  14.580  1.00  0.00     0.049 A 
ATOM     56  H   UNL     1       3.751  -1.644  15.671  1.00  0.00     0.167 HD
ATOM     57  C   UNL     1       4.642   2.032  17.864  1.00  0.00     0.031 A 
ATOM     58  C   UNL     1       3.365  -4.408  15.466  1.00  0.00     0.031 A 
ATOM     59  C   UNL     1       4.476   1.031  18.882  1.00  0.00     0.049 A 
ATOM     60  C   UNL     1       3.518  -4.126  16.941  1.00  0.00     0.074 A 
ATOM     61  C   UNL     1       4.517   1.187  20.256  1.00  0.00     0.029 A 
ATOM     62  N   UNL     1       4.254  -0.316  18.638  1.00  0.00    -0.354 N 
ATOM     63  N   UNL     1       3.732  -2.981  17.546  1.00  0.00    -0.248 NA
ATOM     64  C   UNL     1       3.409  -5.274  17.854  1.00  0.00     0.031 C 
ATOM     65  C   UNL     1       4.382  -0.076  20.842  1.00  0.00     0.029 A 
ATOM     66  C   UNL     1       4.185  -1.008  19.835  1.00  0.00     0.049 A 
ATOM     67  H   UNL     1       4.159  -0.720  17.745  1.00  0.00     0.167 HD
ATOM     68  C   UNL     1       3.760  -3.268  18.909  1.00  0.00     0.074 A 
ATOM     69  C   UNL     1       3.526  -4.691  19.040  1.00  0.00     0.031 C 
ATOM     70  C   UNL     1       3.958  -2.428  19.956  1.00  0.00     0.031 A 
BRANCH  57  71
ATOM     71  C   UNL     1       4.962   3.444  18.277  1.00  0.00    -0.014 A 
ATOM     72  C   UNL     1       4.044   4.492  18.079  1.00  0.00     0.010 A 
ATOM     73  C   UNL     1       6.208   3.729  18.864  1.00  0.00     0.010 A 
ATOM     74  C   UNL     1       4.390   5.806  18.404  1.00  0.00     0.020 A 
ATOM     75  C   UNL     1       6.546   5.037  19.221  1.00  0.00     0.020 A 
ATOM     76  C   UNL     1       5.643   6.071  18.966  1.00  0.00     0.054 A 
BRANCH  76  77
ATOM     77  S   UNL     1       6.072   7.786  19.368  1.00  0.00     0.124 S 
ATOM     78  O   UNL     1       6.292   8.359  18.043  1.00  0.00    -0.237 OA
ATOM     79  O   UNL     1       4.879   8.259  20.066  1.00  0.00    -0.237 OA
ATOM     80  O   UNL     1       7.266   7.660  20.199  1.00  0.00    -0.744 OA
ENDBRANCH  76  77
ENDBRANCH  57  71
BRANCH  58  81
ATOM     81  C   UNL     1       3.165  -5.801  14.975  1.00  0.00    -0.014 A 
ATOM     82  C   UNL     1       1.956  -6.481  15.197  1.00  0.00     0.010 A 
ATOM     83  C   UNL     1       4.192  -6.450  14.263  1.00  0.00     0.010 A 
ATOM     84  C   UNL     1       1.776  -7.783  14.716  1.00  0.00     0.020 A 
ATOM     85  C   UNL     1       4.006  -7.740  13.757  1.00  0.00     0.020 A 
ATOM     86  C   UNL     1       2.799  -8.401  13.991  1.00  0.00     0.054 A 
BRANCH  86  87
ATOM     87  S   UNL     1       2.510 -10.055  13.303  1.00  0.00     0.124 S 
ATOM     88  O   UNL     1       2.543 -10.893  14.497  1.00  0.00    -0.237 OA
ATOM     89  O   UNL     1       1.202  -9.907  12.669  1.00  0.00    -0.237 OA
ATOM     90  O   UNL     1       3.624 -10.240  12.376  1.00  0.00    -0.744 OA
ENDBRANCH  86  87
ENDBRANCH  58  81
BRANCH  70  91
ATOM     91  C   UNL     1       3.898  -3.009  21.346  1.00  0.00    -0.014 A 
ATOM     92  C   UNL     1       4.920  -3.838  21.840  1.00  0.00     0.010 A 
ATOM     93  C   UNL     1       2.832  -2.660  22.197  1.00  0.00     0.010 A 
ATOM     94  C   UNL     1       4.862  -4.332  23.148  1.00  0.00     0.020 A 
ATOM     95  C   UNL     1       2.785  -3.127  23.513  1.00  0.00     0.020 A 
ATOM     96  C   UNL     1       3.794  -3.973  23.976  1.00  0.00     0.054 A 
BRANCH  96  97
ATOM     97  S   UNL     1       3.764  -4.590  25.682  1.00  0.00     0.124 S 
ATOM     98  O   UNL     1       3.429  -5.999  25.490  1.00  0.00    -0.237 OA
ATOM     99  O   UNL     1       5.124  -4.325  26.144  1.00  0.00    -0.237 OA
ATOM    100  O   UNL     1       2.726  -3.786  26.324  1.00  0.00    -0.744 OA
ENDBRANCH  96  97
ENDBRANCH  70  91
ENDBRANCH  44  45
ENDBRANCH  37  39
ENDBRANCH  36  37
ENDBRANCH  35  36
ENDBRANCH  34  35
ENDBRANCH  33  34
ENDBRANCH  32  33
ENDBRANCH   1  32
TORSDOF 26
