REMARK SMILES O=C(OCCOCCOCCOC(=O)c1ccc(-c2c3nc(c(-c4ccc(S(=O)(=O)[O-])cc4)c4ccc([nH]4)c(-c4ccc(S(=O)(=O)[O-])cc4)c4nc(c(-c5ccc(S(=O)(=O)[O-])cc5)c5ccc2[nH]5)C=C4)C=C3)cc1)C1=Cc2cc(OC(F)(F)F)ccc2O[C@@H]1C(F)(F)F
REMARK SMILES IDX 8 1 7 2 6 3 5 4 4 5 3 6 2 7 1 8 75 9 76 10 89 11 77 12 88 13
REMARK SMILES IDX 78 14 87 15 79 16 86 17 85 18 90 19 91 20 92 21 93 22 80 23
REMARK SMILES IDX 81 24 82 25 83 26 84 27 9 28 10 29 11 30 12 31 13 32 14 33
REMARK SMILES IDX 15 34 16 35 74 36 17 37 73 38 18 39 19 40 20 41 67 42 21 43
REMARK SMILES IDX 72 44 66 45 68 46 22 47 71 48 65 49 64 50 23 52 53 53 34 54
REMARK SMILES IDX 52 55 35 56 38 57 51 58 69 59 36 60 37 61 50 63 70 64 39 65
REMARK SMILES IDX 24 66 25 67 33 68 26 69 32 70 27 71 28 72 29 73 30 74 31 75
REMARK SMILES IDX 54 76 55 77 63 78 56 79 62 80 57 81 58 82 59 83 60 84 61 85
REMARK SMILES IDX 40 86 41 87 49 88 42 89 48 90 43 91 44 92 45 93 46 94 47 95
REMARK H PARENT 68 51 38 62
REMARK Flexibility Score: inf
ROOT
ATOM      1  C   UNL     1       2.367   2.647   1.899  1.00  0.00     0.188 C 
ENDROOT
BRANCH   1   2
ATOM      2  C   UNL     1       2.569   1.125   2.016  1.00  0.00     0.188 C 
BRANCH   2   3
ATOM      3  O   UNL     1       3.846   0.438   1.882  1.00  0.00    -0.376 OA
BRANCH   3   4
ATOM      4  C   UNL     1       4.449  -0.487   0.659  1.00  0.00     0.202 C 
BRANCH   4   5
ATOM      5  C   UNL     1       3.680  -0.720  -1.368  1.00  0.00     0.261 C 
BRANCH   5   6
ATOM      6  O   UNL     1       2.801  -1.875  -1.875  1.00  0.00    -0.460 OA
BRANCH   6   7
ATOM      7  C   UNL     1       3.042  -3.028  -1.236  1.00  0.00     0.338 C 
ATOM      8  O   UNL     1       2.499  -4.096  -1.343  1.00  0.00    -0.246 OA
BRANCH   7   9
ATOM      9  C   UNL     1       3.862  -2.451  -0.198  1.00  0.00     0.087 C 
ATOM     10  C   UNL     1       5.239  -2.187  -0.665  1.00  0.00     0.027 C 
ATOM     11  C   UNL     1       2.592  -1.093   0.329  1.00  0.00     0.316 C 
ATOM     12  C   UNL     1       5.871  -0.531  -1.027  1.00  0.00     0.021 A 
ATOM     13  O   UNL     1       3.217   0.679  -0.159  1.00  0.00    -0.475 OA
ATOM     14  C   UNL     1       7.123  -0.387  -1.548  1.00  0.00     0.058 A 
ATOM     15  C   UNL     1       4.897   0.885  -0.843  1.00  0.00     0.128 A 
ATOM     16  C   UNL     1       7.518   0.933  -1.859  1.00  0.00     0.130 A 
ATOM     17  C   UNL     1       5.349   2.138  -1.143  1.00  0.00     0.051 A 
ATOM     18  C   UNL     1       6.685   2.121  -1.651  1.00  0.00     0.050 A 
BRANCH  11  19
ATOM     19  C   UNL     1       2.211  -1.736   1.772  1.00  0.00     0.430 C 
ATOM     20  F   UNL     1       1.495  -0.998   2.629  1.00  0.00    -0.167 F 
ATOM     21  F   UNL     1       1.421  -2.821   1.516  1.00  0.00    -0.167 F 
ATOM     22  F   UNL     1       3.274  -2.238   2.449  1.00  0.00    -0.167 F 
ENDBRANCH  11  19
BRANCH  16  23
ATOM     23  O   UNL     1       8.791   0.923  -2.384  1.00  0.00    -0.406 OA
BRANCH  23  24
ATOM     24  C   UNL     1       9.386   2.121  -2.830  1.00  0.00     0.573 C 
ATOM     25  F   UNL     1       8.642   2.709  -3.789  1.00  0.00    -0.132 F 
ATOM     26  F   UNL     1       9.573   2.977  -1.806  1.00  0.00    -0.132 F 
ATOM     27  F   UNL     1      10.595   1.825  -3.360  1.00  0.00    -0.132 F 
ENDBRANCH  23  24
ENDBRANCH  16  23
ENDBRANCH   7   9
ENDBRANCH   6   7
ENDBRANCH   5   6
ENDBRANCH   4   5
ENDBRANCH   3   4
ENDBRANCH   2   3
ENDBRANCH   1   2
BRANCH   1  28
ATOM     28  O   UNL     1       3.424   3.471   1.472  1.00  0.00    -0.376 OA
BRANCH  28  29
ATOM     29  C   UNL     1       4.654   3.327   2.169  1.00  0.00     0.202 C 
BRANCH  29  30
ATOM     30  C   UNL     1       4.629   3.430   3.701  1.00  0.00     0.261 C 
BRANCH  30  31
ATOM     31  O   UNL     1       4.148   2.228   4.341  1.00  0.00    -0.460 OA
BRANCH  31  32
ATOM     32  C   UNL     1       3.057   2.357   5.138  1.00  0.00     0.338 C 
ATOM     33  O   UNL     1       2.438   3.382   5.367  1.00  0.00    -0.246 OA
BRANCH  32  34
ATOM     34  C   UNL     1       2.582   1.021   5.568  1.00  0.00     0.060 A 
ATOM     35  C   UNL     1       1.237   0.691   5.336  1.00  0.00     0.016 A 
ATOM     36  C   UNL     1       3.427   0.119   6.218  1.00  0.00     0.016 A 
ATOM     37  C   UNL     1       0.726  -0.527   5.779  1.00  0.00     0.010 A 
ATOM     38  C   UNL     1       2.902  -1.084   6.705  1.00  0.00     0.010 A 
ATOM     39  C   UNL     1       1.539  -1.387   6.528  1.00  0.00    -0.014 A 
BRANCH  39  40
ATOM     40  C   UNL     1       0.873  -2.388   7.398  1.00  0.00     0.031 A 
ATOM     41  C   UNL     1       0.455  -1.922   8.771  1.00  0.00     0.074 A 
ATOM     42  C   UNL     1       0.587  -3.634   6.983  1.00  0.00     0.049 A 
ATOM     43  N   UNL     1      -0.208  -2.556   9.701  1.00  0.00    -0.248 NA
ATOM     44  C   UNL     1       0.834  -0.544   9.137  1.00  0.00     0.031 C 
ATOM     45  C   UNL     1       0.895  -4.184   5.664  1.00  0.00     0.029 A 
ATOM     46  N   UNL     1      -0.044  -4.662   7.638  1.00  0.00    -0.354 N 
ATOM     47  C   UNL     1      -0.327  -1.656  10.755  1.00  0.00     0.074 A 
ATOM     48  C   UNL     1       0.362  -0.447  10.368  1.00  0.00     0.031 C 
ATOM     49  C   UNL     1       0.449  -5.453   5.608  1.00  0.00     0.029 A 
ATOM     50  C   UNL     1      -0.157  -5.811   6.891  1.00  0.00     0.049 A 
ATOM     51  H   UNL     1      -0.385  -4.585   8.559  1.00  0.00     0.167 HD
ATOM     52  C   UNL     1      -0.959  -1.816  11.940  1.00  0.00     0.031 A 
ATOM     53  C   UNL     1      -0.687  -7.009   7.212  1.00  0.00     0.031 A 
ATOM     54  C   UNL     1      -1.610  -3.034  12.337  1.00  0.00     0.049 A 
ATOM     55  C   UNL     1      -1.315  -7.191   8.575  1.00  0.00     0.074 A 
ATOM     56  C   UNL     1      -2.283  -3.305  13.514  1.00  0.00     0.029 A 
ATOM     57  N   UNL     1      -1.652  -4.190  11.572  1.00  0.00    -0.354 N 
ATOM     58  N   UNL     1      -1.454  -6.320   9.547  1.00  0.00    -0.248 NA
ATOM     59  C   UNL     1      -1.878  -8.516   8.872  1.00  0.00     0.031 C 
ATOM     60  C   UNL     1      -2.667  -4.649  13.492  1.00  0.00     0.029 A 
ATOM     61  C   UNL     1      -2.314  -5.188  12.264  1.00  0.00     0.049 A 
ATOM     62  H   UNL     1      -1.268  -4.286  10.671  1.00  0.00     0.167 HD
ATOM     63  C   UNL     1      -2.163  -6.978  10.550  1.00  0.00     0.074 A 
ATOM     64  C   UNL     1      -2.429  -8.315  10.061  1.00  0.00     0.031 C 
ATOM     65  C   UNL     1      -2.570  -6.515  11.760  1.00  0.00     0.031 A 
BRANCH  52  66
ATOM     66  C   UNL     1      -0.920  -0.662  12.908  1.00  0.00    -0.014 A 
ATOM     67  C   UNL     1      -1.606   0.540  12.649  1.00  0.00     0.010 A 
ATOM     68  C   UNL     1      -0.191  -0.788  14.104  1.00  0.00     0.010 A 
ATOM     69  C   UNL     1      -1.530   1.606  13.550  1.00  0.00     0.020 A 
ATOM     70  C   UNL     1      -0.140   0.263  15.023  1.00  0.00     0.020 A 
ATOM     71  C   UNL     1      -0.798   1.460  14.732  1.00  0.00     0.054 A 
BRANCH  71  72
ATOM     72  S   UNL     1      -0.738   2.849  15.896  1.00  0.00     0.124 S 
ATOM     73  O   UNL     1       0.086   3.814  15.173  1.00  0.00    -0.237 OA
ATOM     74  O   UNL     1      -2.147   3.207  16.036  1.00  0.00    -0.237 OA
ATOM     75  O   UNL     1      -0.122   2.276  17.090  1.00  0.00    -0.744 OA
ENDBRANCH  71  72
ENDBRANCH  52  66
BRANCH  53  76
ATOM     76  C   UNL     1      -0.660  -8.134   6.233  1.00  0.00    -0.014 A 
ATOM     77  C   UNL     1      -1.850  -8.643   5.681  1.00  0.00     0.010 A 
ATOM     78  C   UNL     1       0.564  -8.724   5.864  1.00  0.00     0.010 A 
ATOM     79  C   UNL     1      -1.819  -9.731   4.801  1.00  0.00     0.020 A 
ATOM     80  C   UNL     1       0.602  -9.790   4.959  1.00  0.00     0.020 A 
ATOM     81  C   UNL     1      -0.592 -10.296   4.443  1.00  0.00     0.054 A 
BRANCH  81  82
ATOM     82  S   UNL     1      -0.574 -11.679   3.268  1.00  0.00     0.124 S 
ATOM     83  O   UNL     1      -1.158 -12.759   4.059  1.00  0.00    -0.237 OA
ATOM     84  O   UNL     1      -1.403 -11.175   2.176  1.00  0.00    -0.237 OA
ATOM     85  O   UNL     1       0.842 -11.838   2.945  1.00  0.00    -0.744 OA
ENDBRANCH  81  82
ENDBRANCH  53  76
BRANCH  65  86
ATOM     86  C   UNL     1      -3.406  -7.434  12.616  1.00  0.00    -0.014 A 
ATOM     87  C   UNL     1      -2.876  -8.600  13.197  1.00  0.00     0.010 A 
ATOM     88  C   UNL     1      -4.748  -7.093  12.875  1.00  0.00     0.010 A 
ATOM     89  C   UNL     1      -3.687  -9.434  13.973  1.00  0.00     0.020 A 
ATOM     90  C   UNL     1      -5.550  -7.902  13.681  1.00  0.00     0.020 A 
ATOM     91  C   UNL     1      -5.021  -9.081  14.207  1.00  0.00     0.054 A 
BRANCH  91  92
ATOM     92  S   UNL     1      -6.049 -10.174  15.224  1.00  0.00     0.124 S 
ATOM     93  O   UNL     1      -6.245 -11.318  14.338  1.00  0.00    -0.237 OA
ATOM     94  O   UNL     1      -5.202 -10.418  16.389  1.00  0.00    -0.237 OA
ATOM     95  O   UNL     1      -7.246  -9.379  15.488  1.00  0.00    -0.744 OA
ENDBRANCH  91  92
ENDBRANCH  65  86
ENDBRANCH  39  40
ENDBRANCH  32  34
ENDBRANCH  31  32
ENDBRANCH  30  31
ENDBRANCH  29  30
ENDBRANCH  28  29
ENDBRANCH   1  28
TORSDOF 23
