REMARK SMILES CCOc1cc(/C=C2/SC(=S)N([C@H](CC)C(=O)OCCOCCOCCOC(=O)c3ccc(-c4c5nc(c(-c6ccc(S(=O)(=O)[O-])cc6)c6ccc([nH]6)c(-c6ccc(S(=O)(=O)[O-])cc6)c6nc(c(-c7ccc(S(=O)(=O)[O-])cc7)c7ccc4[nH]7)C=C6)C=C5)cc3)C2=O)ccc1O
REMARK SMILES IDX 22 1 21 2 20 3 19 4 18 5 16 6 17 7 13 8 12 9 7 10 8 11 9 12
REMARK SMILES IDX 90 13 10 14 91 15 11 16 6 17 4 18 5 19 94 20 93 21 92 22
REMARK SMILES IDX 3 23 2 24 1 25 95 26 14 28 15 29 23 30 24 31 25 32 26 33
REMARK SMILES IDX 27 34 28 35 29 36 30 37 31 38 89 39 32 40 88 41 33 42 34 43
REMARK SMILES IDX 35 44 82 45 36 46 87 47 81 48 83 49 37 50 86 51 80 52 79 53
REMARK SMILES IDX 38 55 68 56 49 57 67 58 50 59 53 60 66 61 84 62 51 63 52 64
REMARK SMILES IDX 65 66 85 67 54 68 39 69 40 70 48 71 41 72 47 73 42 74 43 75
REMARK SMILES IDX 44 76 45 77 46 78 69 79 70 80 78 81 71 82 77 83 72 84 73 85
REMARK SMILES IDX 74 86 75 87 76 88 55 89 56 90 64 91 57 92 63 93 58 94 59 95
REMARK SMILES IDX 60 96 61 97 62 98
REMARK H PARENT 95 27 83 54 53 65
REMARK Flexibility Score: inf
ROOT
ATOM      1  C   UNL     1       8.671  -2.204  -3.738  1.00  0.00     0.188 C 
ENDROOT
BRANCH   1   2
ATOM      2  O   UNL     1       8.622  -1.457  -2.533  1.00  0.00    -0.376 OA
BRANCH   2   3
ATOM      3  C   UNL     1       7.736  -0.343  -2.458  1.00  0.00     0.202 C 
BRANCH   3   4
ATOM      4  C   UNL     1       7.744   0.669  -3.612  1.00  0.00     0.261 C 
BRANCH   4   5
ATOM      5  O   UNL     1       6.996   0.297  -4.804  1.00  0.00    -0.462 OA
BRANCH   5   6
ATOM      6  C   UNL     1       7.705   0.300  -5.975  1.00  0.00     0.329 C 
ATOM      7  O   UNL     1       8.931   0.268  -6.041  1.00  0.00    -0.250 OA
BRANCH   6   8
ATOM      8  C   UNL     1       6.841   0.532  -7.239  1.00  0.00     0.201 C 
BRANCH   8   9
ATOM      9  N   UNL     1       6.871   1.980  -7.641  1.00  0.00    -0.278 N 
ATOM     10  C   UNL     1       8.316   5.214  -6.948  1.00  0.00     0.029 C 
ATOM     11  C   UNL     1       7.499   4.245  -7.388  1.00  0.00     0.081 C 
ATOM     12  S   UNL     1       6.705   4.245  -8.904  1.00  0.00    -0.054 SA
ATOM     13  C   UNL     1       7.232   2.950  -6.716  1.00  0.00     0.266 C 
ATOM     14  C   UNL     1       6.537   2.481  -8.887  1.00  0.00     0.149 C 
ATOM     15  O   UNL     1       7.268   2.836  -5.501  1.00  0.00    -0.268 OA
ATOM     16  S   UNL     1       6.043   1.676 -10.262  1.00  0.00    -0.052 S 
BRANCH  10  17
ATOM     17  C   UNL     1       9.189   5.054  -5.777  1.00  0.00    -0.020 A 
ATOM     18  C   UNL     1       9.573   5.220  -3.383  1.00  0.00     0.161 A 
ATOM     19  C   UNL     1       8.803   5.520  -4.514  1.00  0.00     0.058 A 
ATOM     20  C   UNL     1      10.719   4.435  -3.527  1.00  0.00     0.157 A 
ATOM     21  C   UNL     1      11.150   4.026  -4.784  1.00  0.00     0.051 A 
ATOM     22  C   UNL     1      10.381   4.327  -5.908  1.00  0.00     0.012 A 
BRANCH  18  23
ATOM     23  O   UNL     1       9.030   5.582  -2.180  1.00  0.00    -0.490 OA
BRANCH  23  24
ATOM     24  C   UNL     1       9.895   6.264  -1.267  1.00  0.00     0.226 C 
ATOM     25  C   UNL     1       9.301   6.054   0.116  1.00  0.00     0.049 C 
ENDBRANCH  23  24
ENDBRANCH  18  23
BRANCH  20  26
ATOM     26  O   UNL     1      11.407   3.935  -2.458  1.00  0.00    -0.504 OA
ATOM     27  H   UNL     1      11.160   4.177  -1.587  1.00  0.00     0.293 HD
ENDBRANCH  20  26
ENDBRANCH  10  17
ENDBRANCH   8   9
BRANCH   8  28
ATOM     28  C   UNL     1       5.447  -0.131  -7.313  1.00  0.00     0.034 C 
ATOM     29  C   UNL     1       5.405  -1.640  -7.096  1.00  0.00     0.007 C 
ENDBRANCH   8  28
ENDBRANCH   6   8
ENDBRANCH   5   6
ENDBRANCH   4   5
ENDBRANCH   3   4
ENDBRANCH   2   3
ENDBRANCH   1   2
BRANCH   1  30
ATOM     30  C   UNL     1       7.343  -2.538  -4.407  1.00  0.00     0.188 C 
BRANCH  30  31
ATOM     31  O   UNL     1       6.220  -2.333  -3.574  1.00  0.00    -0.376 OA
BRANCH  31  32
ATOM     32  C   UNL     1       5.284  -3.390  -3.440  1.00  0.00     0.202 C 
BRANCH  32  33
ATOM     33  C   UNL     1       5.860  -4.667  -2.812  1.00  0.00     0.261 C 
BRANCH  33  34
ATOM     34  O   UNL     1       6.863  -5.349  -3.593  1.00  0.00    -0.460 OA
BRANCH  34  35
ATOM     35  C   UNL     1       6.549  -5.688  -4.875  1.00  0.00     0.338 C 
ATOM     36  O   UNL     1       5.464  -5.615  -5.401  1.00  0.00    -0.246 OA
BRANCH  35  37
ATOM     37  C   UNL     1       7.836  -5.873  -5.605  1.00  0.00     0.060 A 
ATOM     38  C   UNL     1       8.035  -5.176  -6.809  1.00  0.00     0.016 A 
ATOM     39  C   UNL     1       8.865  -6.645  -5.067  1.00  0.00     0.016 A 
ATOM     40  C   UNL     1       9.253  -5.277  -7.490  1.00  0.00     0.010 A 
ATOM     41  C   UNL     1      10.074  -6.762  -5.760  1.00  0.00     0.010 A 
ATOM     42  C   UNL     1      10.267  -6.104  -6.989  1.00  0.00    -0.014 A 
BRANCH  42  43
ATOM     43  C   UNL     1      11.446  -6.449  -7.826  1.00  0.00     0.031 A 
ATOM     44  C   UNL     1      11.448  -7.781  -8.530  1.00  0.00     0.074 A 
ATOM     45  C   UNL     1      12.500  -5.621  -7.959  1.00  0.00     0.049 A 
ATOM     46  N   UNL     1      12.397  -8.354  -9.224  1.00  0.00    -0.248 NA
ATOM     47  C   UNL     1      10.211  -8.574  -8.430  1.00  0.00     0.031 C 
ATOM     48  C   UNL     1      12.610  -4.283  -7.381  1.00  0.00     0.029 A 
ATOM     49  N   UNL     1      13.693  -5.801  -8.619  1.00  0.00    -0.354 N 
ATOM     50  C   UNL     1      11.882  -9.582  -9.622  1.00  0.00     0.074 A 
ATOM     51  C   UNL     1      10.546  -9.681  -9.076  1.00  0.00     0.031 C 
ATOM     52  C   UNL     1      13.813  -3.769  -7.699  1.00  0.00     0.029 A 
ATOM     53  C   UNL     1      14.575  -4.757  -8.463  1.00  0.00     0.049 A 
ATOM     54  H   UNL     1      13.897  -6.602  -9.153  1.00  0.00     0.167 HD
ATOM     55  C   UNL     1      12.467 -10.545 -10.373  1.00  0.00     0.031 A 
ATOM     56  C   UNL     1      15.859  -4.625  -8.860  1.00  0.00     0.031 A 
ATOM     57  C   UNL     1      13.798 -10.452 -10.911  1.00  0.00     0.049 A 
ATOM     58  C   UNL     1      16.520  -5.746  -9.627  1.00  0.00     0.074 A 
ATOM     59  C   UNL     1      14.467 -11.368 -11.705  1.00  0.00     0.029 A 
ATOM     60  N   UNL     1      14.667  -9.392 -10.704  1.00  0.00    -0.354 N 
ATOM     61  N   UNL     1      16.012  -6.891 -10.019  1.00  0.00    -0.248 NA
ATOM     62  C   UNL     1      17.928  -5.555 -10.008  1.00  0.00     0.031 C 
ATOM     63  C   UNL     1      15.765 -10.894 -11.918  1.00  0.00     0.029 A 
ATOM     64  C   UNL     1      15.879  -9.648 -11.322  1.00  0.00     0.049 A 
ATOM     65  H   UNL     1      14.453  -8.579 -10.192  1.00  0.00     0.167 HD
ATOM     66  C   UNL     1      17.029  -7.541 -10.715  1.00  0.00     0.074 A 
ATOM     67  C   UNL     1      18.174  -6.656 -10.705  1.00  0.00     0.031 C 
ATOM     68  C   UNL     1      17.015  -8.760 -11.310  1.00  0.00     0.031 A 
BRANCH  55  69
ATOM     69  C   UNL     1      11.687 -11.809 -10.619  1.00  0.00    -0.014 A 
ATOM     70  C   UNL     1      10.560 -11.826 -11.460  1.00  0.00     0.010 A 
ATOM     71  C   UNL     1      12.120 -13.012 -10.031  1.00  0.00     0.010 A 
ATOM     72  C   UNL     1       9.861 -13.016 -11.680  1.00  0.00     0.020 A 
ATOM     73  C   UNL     1      11.443 -14.209 -10.273  1.00  0.00     0.020 A 
ATOM     74  C   UNL     1      10.307 -14.201 -11.085  1.00  0.00     0.054 A 
BRANCH  74  75
ATOM     75  S   UNL     1       9.399 -15.735 -11.414  1.00  0.00     0.124 S 
ATOM     76  O   UNL     1       8.158 -15.514 -10.675  1.00  0.00    -0.237 OA
ATOM     77  O   UNL     1       9.274 -15.726 -12.869  1.00  0.00    -0.237 OA
ATOM     78  O   UNL     1      10.268 -16.777 -10.873  1.00  0.00    -0.744 OA
ENDBRANCH  74  75
ENDBRANCH  55  69
BRANCH  56  79
ATOM     79  C   UNL     1      16.631  -3.398  -8.507  1.00  0.00    -0.014 A 
ATOM     80  C   UNL     1      17.060  -2.502  -9.503  1.00  0.00     0.010 A 
ATOM     81  C   UNL     1      16.961  -3.131  -7.165  1.00  0.00     0.010 A 
ATOM     82  C   UNL     1      17.817  -1.375  -9.166  1.00  0.00     0.020 A 
ATOM     83  C   UNL     1      17.689  -1.988  -6.821  1.00  0.00     0.020 A 
ATOM     84  C   UNL     1      18.123  -1.123  -7.825  1.00  0.00     0.054 A 
BRANCH  84  85
ATOM     85  S   UNL     1      19.064   0.372  -7.409  1.00  0.00     0.124 S 
ATOM     86  O   UNL     1      20.393   0.046  -7.914  1.00  0.00    -0.237 OA
ATOM     87  O   UNL     1      18.344   1.410  -8.144  1.00  0.00    -0.237 OA
ATOM     88  O   UNL     1      18.949   0.455  -5.955  1.00  0.00    -0.744 OA
ENDBRANCH  84  85
ENDBRANCH  56  79
BRANCH  68  89
ATOM     89  C   UNL     1      18.258  -9.206 -12.039  1.00  0.00    -0.014 A 
ATOM     90  C   UNL     1      19.428  -9.563 -11.346  1.00  0.00     0.010 A 
ATOM     91  C   UNL     1      18.229  -9.336 -13.441  1.00  0.00     0.010 A 
ATOM     92  C   UNL     1      20.553 -10.016 -12.043  1.00  0.00     0.020 A 
ATOM     93  C   UNL     1      19.340  -9.818 -14.138  1.00  0.00     0.020 A 
ATOM     94  C   UNL     1      20.501 -10.143 -13.435  1.00  0.00     0.054 A 
BRANCH  94  95
ATOM     95  S   UNL     1      21.958 -10.780 -14.309  1.00  0.00     0.124 S 
ATOM     96  O   UNL     1      22.893  -9.665 -14.196  1.00  0.00    -0.237 OA
ATOM     97  O   UNL     1      22.301 -11.970 -13.533  1.00  0.00    -0.237 OA
ATOM     98  O   UNL     1      21.465 -11.044 -15.659  1.00  0.00    -0.744 OA
ENDBRANCH  94  95
ENDBRANCH  68  89
ENDBRANCH  42  43
ENDBRANCH  35  37
ENDBRANCH  34  35
ENDBRANCH  33  34
ENDBRANCH  32  33
ENDBRANCH  31  32
ENDBRANCH  30  31
ENDBRANCH   1  30
TORSDOF 26
