REMARK SMILES COc1ccc(C2=NN=C[C@@H]2C(=O)OCCOCCOCCOC(=O)c2ccc(-c3c4nc(c(-c5ccc(S(=O)(=O)[O-])cc5)c5ccc([nH]5)c(-c5ccc(S(=O)(=O)[O-])cc5)c5nc(c(-c6ccc(S(=O)(=O)[O-])cc6)c6ccc3[nH]6)C=C5)C=C4)cc2)cc1OC
REMARK SMILES IDX 19 1 18 2 17 3 16 4 15 5 14 6 12 7 13 8 11 9 7 10 8 11 9 12
REMARK SMILES IDX 10 13 6 14 3 15 4 16 87 17 5 18 86 19 2 20 1 21 88 22 89 23
REMARK SMILES IDX 20 24 21 25 22 26 23 27 24 28 25 29 26 30 27 31 85 32 28 33
REMARK SMILES IDX 84 34 29 35 30 36 31 37 78 38 32 39 83 40 77 41 79 42 33 43
REMARK SMILES IDX 82 44 76 45 75 46 34 48 64 49 45 50 63 51 46 52 49 53 62 54
REMARK SMILES IDX 80 55 47 56 48 57 61 59 81 60 50 61 35 62 36 63 44 64 37 65
REMARK SMILES IDX 43 66 38 67 39 68 40 69 41 70 42 71 65 72 66 73 74 74 67 75
REMARK SMILES IDX 73 76 68 77 69 78 70 79 71 80 72 81 51 82 52 83 60 84 53 85
REMARK SMILES IDX 59 86 54 87 55 88 56 89 57 90 58 91
REMARK H PARENT 79 47 49 58
REMARK Flexibility Score: inf
ROOT
ATOM      1  C   UNL     1       1.321  -5.902   7.696  1.00  0.00     0.188 C 
ENDROOT
BRANCH   1   2
ATOM      2  C   UNL     1       0.241  -6.195   6.640  1.00  0.00     0.188 C 
BRANCH   2   3
ATOM      3  O   UNL     1       0.511  -7.019   5.522  1.00  0.00    -0.376 OA
BRANCH   3   4
ATOM      4  C   UNL     1       1.740  -6.913   4.821  1.00  0.00     0.202 C 
BRANCH   4   5
ATOM      5  C   UNL     1       2.294  -5.552   4.349  1.00  0.00     0.261 C 
BRANCH   5   6
ATOM      6  O   UNL     1       2.461  -4.529   5.350  1.00  0.00    -0.462 OA
BRANCH   6   7
ATOM      7  C   UNL     1       1.533  -3.549   5.367  1.00  0.00     0.320 C 
ATOM      8  O   UNL     1       0.605  -3.479   4.566  1.00  0.00    -0.251 OA
BRANCH   7   9
ATOM      9  C   UNL     1       1.703  -2.531   6.453  1.00  0.00     0.194 C 
ATOM     10  C   UNL     1       2.219  -1.230   5.948  1.00  0.00     0.090 C 
ATOM     11  N   UNL     1       3.193  -0.741   6.654  1.00  0.00    -0.154 NA
ATOM     12  N   UNL     1       3.499  -1.676   7.676  1.00  0.00    -0.162 NA
ATOM     13  C   UNL     1       2.725  -2.704   7.521  1.00  0.00     0.130 C 
BRANCH  10  14
ATOM     14  C   UNL     1       1.790  -0.672   4.672  1.00  0.00     0.003 A 
ATOM     15  C   UNL     1       1.137   0.171   2.114  1.00  0.00     0.160 A 
ATOM     16  C   UNL     1       0.145   0.090   3.108  1.00  0.00     0.051 A 
ATOM     17  C   UNL     1       2.460  -0.192   2.399  1.00  0.00     0.161 A 
ATOM     18  C   UNL     1       0.466  -0.352   4.394  1.00  0.00     0.014 A 
ATOM     19  C   UNL     1       2.777  -0.601   3.690  1.00  0.00     0.060 A 
BRANCH  15  20
ATOM     20  O   UNL     1       0.814   0.745   0.914  1.00  0.00    -0.493 OA
ATOM     21  C   UNL     1       0.005  -0.104   0.102  1.00  0.00     0.278 C 
ENDBRANCH  15  20
BRANCH  17  22
ATOM     22  O   UNL     1       3.549  -0.184   1.573  1.00  0.00    -0.493 OA
ATOM     23  C   UNL     1       3.317  -0.249   0.177  1.00  0.00     0.278 C 
ENDBRANCH  17  22
ENDBRANCH  10  14
ENDBRANCH   7   9
ENDBRANCH   6   7
ENDBRANCH   5   6
ENDBRANCH   4   5
ENDBRANCH   3   4
ENDBRANCH   2   3
ENDBRANCH   1   2
BRANCH   1  24
ATOM     24  O   UNL     1       2.661  -6.095   7.301  1.00  0.00    -0.376 OA
BRANCH  24  25
ATOM     25  C   UNL     1       3.487  -7.170   7.730  1.00  0.00     0.202 C 
BRANCH  25  26
ATOM     26  C   UNL     1       2.963  -8.572   8.033  1.00  0.00     0.261 C 
BRANCH  26  27
ATOM     27  O   UNL     1       1.617  -8.612   8.435  1.00  0.00    -0.460 OA
BRANCH  27  28
ATOM     28  C   UNL     1       1.399  -8.160   9.683  1.00  0.00     0.338 C 
ATOM     29  O   UNL     1       2.215  -7.657  10.443  1.00  0.00    -0.246 OA
BRANCH  28  30
ATOM     30  C   UNL     1      -0.030  -8.308   9.948  1.00  0.00     0.060 A 
ATOM     31  C   UNL     1      -0.526  -7.702  11.102  1.00  0.00     0.016 A 
ATOM     32  C   UNL     1      -0.750  -9.264   9.217  1.00  0.00     0.016 A 
ATOM     33  C   UNL     1      -1.599  -8.298  11.711  1.00  0.00     0.010 A 
ATOM     34  C   UNL     1      -1.795  -9.880   9.840  1.00  0.00     0.010 A 
ATOM     35  C   UNL     1      -2.107  -9.461  11.129  1.00  0.00    -0.014 A 
BRANCH  35  36
ATOM     36  C   UNL     1      -2.917 -10.321  11.949  1.00  0.00     0.031 A 
ATOM     37  C   UNL     1      -4.337  -9.945  11.958  1.00  0.00     0.074 A 
ATOM     38  C   UNL     1      -2.379 -11.408  12.531  1.00  0.00     0.049 A 
ATOM     39  N   UNL     1      -5.010  -9.434  12.931  1.00  0.00    -0.248 NA
ATOM     40  C   UNL     1      -5.038  -9.953  10.664  1.00  0.00     0.031 C 
ATOM     41  C   UNL     1      -1.054 -11.999  12.303  1.00  0.00     0.029 A 
ATOM     42  N   UNL     1      -2.971 -12.299  13.360  1.00  0.00    -0.354 N 
ATOM     43  C   UNL     1      -6.290  -9.262  12.427  1.00  0.00     0.074 A 
ATOM     44  C   UNL     1      -6.184  -9.362  10.995  1.00  0.00     0.031 C 
ATOM     45  C   UNL     1      -1.051 -13.266  12.777  1.00  0.00     0.029 A 
ATOM     46  C   UNL     1      -2.317 -13.519  13.445  1.00  0.00     0.049 A 
ATOM     47  H   UNL     1      -3.795 -12.098  13.859  1.00  0.00     0.167 HD
ATOM     48  C   UNL     1      -7.388  -9.349  13.224  1.00  0.00     0.031 A 
ATOM     49  C   UNL     1      -2.845 -14.669  13.937  1.00  0.00     0.031 A 
ATOM     50  C   UNL     1      -7.046  -9.257  14.619  1.00  0.00     0.049 A 
ATOM     51  C   UNL     1      -4.034 -14.291  14.748  1.00  0.00     0.074 A 
ATOM     52  C   UNL     1      -6.446  -8.291  15.401  1.00  0.00     0.029 A 
ATOM     53  N   UNL     1      -6.950 -10.437  15.321  1.00  0.00    -0.354 N 
ATOM     54  N   UNL     1      -3.962 -13.607  15.857  1.00  0.00    -0.248 NA
ATOM     55  C   UNL     1      -5.332 -14.261  14.089  1.00  0.00     0.031 C 
ATOM     56  C   UNL     1      -5.630  -9.011  16.320  1.00  0.00     0.029 A 
ATOM     57  C   UNL     1      -5.818 -10.377  16.096  1.00  0.00     0.049 A 
ATOM     58  H   UNL     1      -7.581 -11.191  15.276  1.00  0.00     0.167 HD
ATOM     59  C   UNL     1      -5.043 -12.735  15.817  1.00  0.00     0.074 A 
ATOM     60  C   UNL     1      -5.904 -13.252  14.756  1.00  0.00     0.031 C 
ATOM     61  C   UNL     1      -5.000 -11.523  16.447  1.00  0.00     0.031 A 
BRANCH  48  62
ATOM     62  C   UNL     1      -8.692  -9.917  12.735  1.00  0.00    -0.014 A 
ATOM     63  C   UNL     1      -9.822  -9.857  13.568  1.00  0.00     0.010 A 
ATOM     64  C   UNL     1      -8.789 -10.726  11.581  1.00  0.00     0.010 A 
ATOM     65  C   UNL     1     -10.973 -10.601  13.278  1.00  0.00     0.020 A 
ATOM     66  C   UNL     1      -9.944 -11.429  11.254  1.00  0.00     0.020 A 
ATOM     67  C   UNL     1     -11.021 -11.388  12.124  1.00  0.00     0.054 A 
BRANCH  67  68
ATOM     68  S   UNL     1     -12.472 -12.415  11.802  1.00  0.00     0.124 S 
ATOM     69  O   UNL     1     -12.393 -13.391  12.884  1.00  0.00    -0.237 OA
ATOM     70  O   UNL     1     -13.562 -11.447  11.895  1.00  0.00    -0.237 OA
ATOM     71  O   UNL     1     -12.227 -12.943  10.462  1.00  0.00    -0.744 OA
ENDBRANCH  67  68
ENDBRANCH  48  62
BRANCH  49  72
ATOM     72  C   UNL     1      -2.614 -16.050  13.442  1.00  0.00    -0.014 A 
ATOM     73  C   UNL     1      -3.044 -17.166  14.184  1.00  0.00     0.010 A 
ATOM     74  C   UNL     1      -2.212 -16.269  12.107  1.00  0.00     0.010 A 
ATOM     75  C   UNL     1      -3.127 -18.439  13.593  1.00  0.00     0.020 A 
ATOM     76  C   UNL     1      -2.283 -17.535  11.515  1.00  0.00     0.020 A 
ATOM     77  C   UNL     1      -2.765 -18.611  12.254  1.00  0.00     0.054 A 
BRANCH  77  78
ATOM     78  S   UNL     1      -3.048 -20.215  11.446  1.00  0.00     0.124 S 
ATOM     79  O   UNL     1      -2.039 -21.062  12.074  1.00  0.00    -0.237 OA
ATOM     80  O   UNL     1      -4.433 -20.509  11.803  1.00  0.00    -0.237 OA
ATOM     81  O   UNL     1      -2.825 -19.930  10.029  1.00  0.00    -0.744 OA
ENDBRANCH  77  78
ENDBRANCH  49  72
BRANCH  61  82
ATOM     82  C   UNL     1      -3.870 -11.263  17.421  1.00  0.00    -0.014 A 
ATOM     83  C   UNL     1      -2.509 -11.242  17.055  1.00  0.00     0.010 A 
ATOM     84  C   UNL     1      -4.216 -10.866  18.724  1.00  0.00     0.010 A 
ATOM     85  C   UNL     1      -1.522 -10.856  17.978  1.00  0.00     0.020 A 
ATOM     86  C   UNL     1      -3.242 -10.463  19.641  1.00  0.00     0.020 A 
ATOM     87  C   UNL     1      -1.898 -10.468  19.267  1.00  0.00     0.054 A 
BRANCH  87  88
ATOM     88  S   UNL     1      -0.628  -9.918  20.442  1.00  0.00     0.124 S 
ATOM     89  O   UNL     1       0.091 -11.155  20.734  1.00  0.00    -0.237 OA
ATOM     90  O   UNL     1       0.118  -8.923  19.674  1.00  0.00    -0.237 OA
ATOM     91  O   UNL     1      -1.399  -9.373  21.559  1.00  0.00    -0.744 OA
ENDBRANCH  87  88
ENDBRANCH  61  82
ENDBRANCH  35  36
ENDBRANCH  28  30
ENDBRANCH  27  28
ENDBRANCH  26  27
ENDBRANCH  25  26
ENDBRANCH  24  25
ENDBRANCH   1  24
TORSDOF 23
