REMARK SMILES CC(C)C[C@H](C(=O)OCCOCCOCCOC(=O)c1ccc(-c2c3nc(c(-c4ccc(S(=O)(=O)[O-])cc4)c4ccc([nH]4)c(-c4ccc(S(=O)(=O)[O-])cc4)c4nc(c(-c5ccc(S(=O)(=O)[O-])cc5)c5ccc2[nH]5)C=C4)C=C3)cc1)N1C(=O)/C(=C2\C(=O)Nc3ccc(Br)cc32)SC1=S
REMARK SMILES IDX 13 1 12 2 11 3 10 4 9 5 8 6 6 7 7 8 5 9 4 10 2 11 1 12 3 13
REMARK SMILES IDX 80 14 81 15 96 16 82 17 83 18 95 19 97 20 84 21 85 22 94 23
REMARK SMILES IDX 86 24 87 25 88 26 93 27 89 29 91 30 90 31 92 32 14 33 15 34
REMARK SMILES IDX 16 35 17 36 18 37 19 38 20 39 21 40 79 41 22 42 78 43 23 44
REMARK SMILES IDX 24 45 25 46 72 47 26 48 77 49 71 50 73 51 27 52 76 53 70 54
REMARK SMILES IDX 69 55 28 57 58 58 39 59 57 60 40 61 43 62 56 63 74 64 41 65
REMARK SMILES IDX 42 66 55 68 75 69 44 70 29 71 30 72 38 73 31 74 37 75 32 76
REMARK SMILES IDX 33 77 34 78 35 79 36 80 59 81 60 82 68 83 61 84 67 85 62 86
REMARK SMILES IDX 63 87 64 88 65 89 66 90 45 91 46 92 54 93 47 94 53 95 48 96
REMARK SMILES IDX 49 97 50 98 51 99 52 100
REMARK H PARENT 87 28 73 56 43 67
REMARK Flexibility Score: inf
ROOT
ATOM      1  C   UNL     1      -2.592   2.675  -1.886  1.00  0.00     0.188 C 
ENDROOT
BRANCH   1   2
ATOM      2  C   UNL     1      -1.152   3.109  -2.139  1.00  0.00     0.188 C 
BRANCH   2   3
ATOM      3  O   UNL     1      -0.497   2.580  -3.273  1.00  0.00    -0.376 OA
BRANCH   3   4
ATOM      4  C   UNL     1      -0.470   1.161  -3.419  1.00  0.00     0.202 C 
BRANCH   4   5
ATOM      5  C   UNL     1      -0.262   0.269  -2.171  1.00  0.00     0.261 C 
BRANCH   5   6
ATOM      6  O   UNL     1      -1.327   0.354  -1.183  1.00  0.00    -0.462 OA
BRANCH   6   7
ATOM      7  C   UNL     1      -0.977   0.173   0.126  1.00  0.00     0.329 C 
ATOM      8  O   UNL     1       0.160  -0.152   0.462  1.00  0.00    -0.250 OA
BRANCH   7   9
ATOM      9  C   UNL     1      -2.084   0.631   1.194  1.00  0.00     0.202 C 
BRANCH   9  10
ATOM     10  C   UNL     1      -1.324   1.783   1.954  1.00  0.00     0.040 C 
BRANCH  10  11
ATOM     11  C   UNL     1      -1.902   3.082   2.512  1.00  0.00    -0.015 C 
ATOM     12  C   UNL     1      -2.689   2.859   3.805  1.00  0.00     0.007 C 
ATOM     13  C   UNL     1      -0.771   4.080   2.832  1.00  0.00     0.007 C 
ENDBRANCH  10  11
ENDBRANCH   9  10
BRANCH   9  14
ATOM     14  N   UNL     1      -3.467   0.656   0.577  1.00  0.00    -0.278 N 
ATOM     15  C   UNL     1      -3.839  -0.602   0.087  1.00  0.00     0.267 C 
ATOM     16  C   UNL     1      -4.561   1.488   0.605  1.00  0.00     0.149 C 
ATOM     17  O   UNL     1      -3.299  -1.635   0.454  1.00  0.00    -0.268 OA
ATOM     18  C   UNL     1      -5.044  -0.547  -0.796  1.00  0.00     0.093 C 
ATOM     19  S   UNL     1      -5.719   1.021  -0.643  1.00  0.00    -0.053 SA
ATOM     20  S   UNL     1      -5.051   2.730   1.584  1.00  0.00    -0.052 S 
ATOM     21  C   UNL     1      -5.608  -1.543  -1.498  1.00  0.00     0.069 C 
ATOM     22  C   UNL     1      -5.178  -2.982  -1.413  1.00  0.00     0.257 C 
ATOM     23  C   UNL     1      -6.854  -1.542  -2.301  1.00  0.00     0.013 A 
ATOM     24  O   UNL     1      -4.098  -3.465  -1.127  1.00  0.00    -0.269 OA
ATOM     25  N   UNL     1      -6.277  -3.708  -1.831  1.00  0.00    -0.321 N 
ATOM     26  C   UNL     1      -7.244  -2.883  -2.387  1.00  0.00     0.049 A 
ATOM     27  C   UNL     1      -7.564  -0.584  -3.010  1.00  0.00     0.026 A 
ATOM     28  H   UNL     1      -6.363  -4.684  -1.744  1.00  0.00     0.170 HD
ATOM     29  C   UNL     1      -8.376  -3.306  -3.054  1.00  0.00     0.028 A 
ATOM     30  C   UNL     1      -8.684  -1.000  -3.744  1.00  0.00     0.018 A 
ATOM     31  C   UNL     1      -9.107  -2.341  -3.743  1.00  0.00     0.018 A 
ATOM     32  Br  UNL     1      -9.617   0.251  -4.817  1.00  0.00    -0.051 Br
ENDBRANCH   9  14
ENDBRANCH   7   9
ENDBRANCH   6   7
ENDBRANCH   5   6
ENDBRANCH   4   5
ENDBRANCH   3   4
ENDBRANCH   2   3
ENDBRANCH   1   2
BRANCH   1  33
ATOM     33  O   UNL     1      -3.164   1.659  -2.670  1.00  0.00    -0.376 OA
BRANCH  33  34
ATOM     34  C   UNL     1      -3.893   1.973  -3.844  1.00  0.00     0.202 C 
BRANCH  34  35
ATOM     35  C   UNL     1      -4.204   3.392  -4.374  1.00  0.00     0.261 C 
BRANCH  35  36
ATOM     36  O   UNL     1      -3.768   4.528  -3.618  1.00  0.00    -0.460 OA
BRANCH  36  37
ATOM     37  C   UNL     1      -4.681   5.048  -2.753  1.00  0.00     0.338 C 
ATOM     38  O   UNL     1      -5.821   4.656  -2.579  1.00  0.00    -0.246 OA
BRANCH  37  39
ATOM     39  C   UNL     1      -3.998   6.017  -1.864  1.00  0.00     0.060 A 
ATOM     40  C   UNL     1      -3.688   5.619  -0.557  1.00  0.00     0.016 A 
ATOM     41  C   UNL     1      -3.716   7.314  -2.277  1.00  0.00     0.016 A 
ATOM     42  C   UNL     1      -3.098   6.495   0.346  1.00  0.00     0.010 A 
ATOM     43  C   UNL     1      -3.150   8.211  -1.360  1.00  0.00     0.010 A 
ATOM     44  C   UNL     1      -2.857   7.812  -0.040  1.00  0.00    -0.014 A 
BRANCH  44  45
ATOM     45  C   UNL     1      -2.479   8.806   0.992  1.00  0.00     0.031 A 
ATOM     46  C   UNL     1      -3.529   9.766   1.475  1.00  0.00     0.074 A 
ATOM     47  C   UNL     1      -1.250   8.822   1.539  1.00  0.00     0.049 A 
ATOM     48  N   UNL     1      -3.401  10.823   2.231  1.00  0.00    -0.248 NA
ATOM     49  C   UNL     1      -4.912   9.491   1.047  1.00  0.00     0.031 C 
ATOM     50  C   UNL     1      -0.182   7.861   1.261  1.00  0.00     0.029 A 
ATOM     51  N   UNL     1      -0.692   9.692   2.442  1.00  0.00    -0.354 N 
ATOM     52  C   UNL     1      -4.676  11.365   2.337  1.00  0.00     0.074 A 
ATOM     53  C   UNL     1      -5.562  10.523   1.563  1.00  0.00     0.031 C 
ATOM     54  C   UNL     1       0.910   8.209   1.964  1.00  0.00     0.029 A 
ATOM     55  C   UNL     1       0.640   9.452   2.684  1.00  0.00     0.049 A 
ATOM     56  H   UNL     1      -1.196  10.418   2.876  1.00  0.00     0.167 HD
ATOM     57  C   UNL     1      -5.069  12.470   3.013  1.00  0.00     0.031 A 
ATOM     58  C   UNL     1       1.550  10.181   3.361  1.00  0.00     0.031 A 
ATOM     59  C   UNL     1      -4.177  13.298   3.780  1.00  0.00     0.049 A 
ATOM     60  C   UNL     1       1.120  11.476   4.004  1.00  0.00     0.074 A 
ATOM     61  C   UNL     1      -4.467  14.455   4.481  1.00  0.00     0.029 A 
ATOM     62  N   UNL     1      -2.822  13.055   3.951  1.00  0.00    -0.354 N 
ATOM     63  N   UNL     1      -0.074  12.019   4.049  1.00  0.00    -0.248 NA
ATOM     64  C   UNL     1       2.162  12.259   4.683  1.00  0.00     0.031 C 
ATOM     65  C   UNL     1      -3.275  14.947   5.022  1.00  0.00     0.029 A 
ATOM     66  C   UNL     1      -2.256  14.055   4.723  1.00  0.00     0.049 A 
ATOM     67  H   UNL     1      -2.334  12.286   3.577  1.00  0.00     0.167 HD
ATOM     68  C   UNL     1       0.068  13.190   4.787  1.00  0.00     0.074 A 
ATOM     69  C   UNL     1       1.460  13.268   5.181  1.00  0.00     0.031 C 
ATOM     70  C   UNL     1      -0.869  14.116   5.112  1.00  0.00     0.031 A 
BRANCH  57  71
ATOM     71  C   UNL     1      -6.512  12.882   2.893  1.00  0.00    -0.014 A 
ATOM     72  C   UNL     1      -7.546  12.141   3.493  1.00  0.00     0.010 A 
ATOM     73  C   UNL     1      -6.834  14.054   2.183  1.00  0.00     0.010 A 
ATOM     74  C   UNL     1      -8.877  12.545   3.353  1.00  0.00     0.020 A 
ATOM     75  C   UNL     1      -8.160  14.479   2.068  1.00  0.00     0.020 A 
ATOM     76  C   UNL     1      -9.175  13.711   2.641  1.00  0.00     0.054 A 
BRANCH  76  77
ATOM     77  S   UNL     1     -10.909  14.223   2.495  1.00  0.00     0.124 S 
ATOM     78  O   UNL     1     -11.449  13.208   1.595  1.00  0.00    -0.237 OA
ATOM     79  O   UNL     1     -11.379  14.152   3.876  1.00  0.00    -0.237 OA
ATOM     80  O   UNL     1     -10.828  15.570   1.935  1.00  0.00    -0.744 OA
ENDBRANCH  76  77
ENDBRANCH  57  71
BRANCH  58  81
ATOM     81  C   UNL     1       2.975   9.746   3.405  1.00  0.00    -0.014 A 
ATOM     82  C   UNL     1       3.581   9.371   4.617  1.00  0.00     0.010 A 
ATOM     83  C   UNL     1       3.744   9.721   2.224  1.00  0.00     0.010 A 
ATOM     84  C   UNL     1       4.929   8.998   4.650  1.00  0.00     0.020 A 
ATOM     85  C   UNL     1       5.080   9.316   2.248  1.00  0.00     0.020 A 
ATOM     86  C   UNL     1       5.669   8.969   3.464  1.00  0.00     0.054 A 
BRANCH  86  87
ATOM     87  S   UNL     1       7.402   8.437   3.526  1.00  0.00     0.124 S 
ATOM     88  O   UNL     1       8.042   9.562   4.201  1.00  0.00    -0.237 OA
ATOM     89  O   UNL     1       7.322   7.198   4.297  1.00  0.00    -0.237 OA
ATOM     90  O   UNL     1       7.758   8.265   2.120  1.00  0.00    -0.744 OA
ENDBRANCH  86  87
ENDBRANCH  58  81
BRANCH  70  91
ATOM     91  C   UNL     1      -0.438  15.272   5.980  1.00  0.00    -0.014 A 
ATOM     92  C   UNL     1       0.399  16.290   5.489  1.00  0.00     0.010 A 
ATOM     93  C   UNL     1      -0.936  15.370   7.293  1.00  0.00     0.010 A 
ATOM     94  C   UNL     1       0.756  17.366   6.307  1.00  0.00     0.020 A 
ATOM     95  C   UNL     1      -0.609  16.461   8.102  1.00  0.00     0.020 A 
ATOM     96  C   UNL     1       0.247  17.447   7.608  1.00  0.00     0.054 A 
BRANCH  96  97
ATOM     97  S   UNL     1       0.688  18.878   8.631  1.00  0.00     0.124 S 
ATOM     98  O   UNL     1       2.095  18.621   8.925  1.00  0.00    -0.237 OA
ATOM     99  O   UNL     1       0.428  20.002   7.735  1.00  0.00    -0.237 OA
ATOM    100  O   UNL     1      -0.215  18.779   9.775  1.00  0.00    -0.744 OA
ENDBRANCH  96  97
ENDBRANCH  70  91
ENDBRANCH  44  45
ENDBRANCH  37  39
ENDBRANCH  36  37
ENDBRANCH  35  36
ENDBRANCH  34  35
ENDBRANCH  33  34
ENDBRANCH   1  33
TORSDOF 23
