REMARK SMILES C[C@@H]1CC[C@@H](C(=O)OCCOCCOCCOC(=O)c2ccc(-c3c4nc(c(-c5ccc(S(=O)(=O)[O-])cc5)c5ccc([nH]5)c(-c5ccc(S(=O)(=O)[O-])cc5)c5nc(c(-c6ccc(S(=O)(=O)[O-])cc6)c6ccc3[nH]6)C=C5)C=C4)cc2)[C@H](SCC[NH+](C)C)C1
REMARK SMILES IDX 12 1 11 2 10 3 9 4 8 5 6 6 7 7 5 8 1 9 2 10 3 11 87 12 4 13
REMARK SMILES IDX 80 14 81 15 82 16 83 17 84 18 85 19 86 20 13 22 14 23 15 24
REMARK SMILES IDX 16 25 17 26 18 27 19 28 20 29 21 30 79 31 22 32 78 33 23 34
REMARK SMILES IDX 24 35 25 36 72 37 26 38 77 39 71 40 73 41 27 42 76 43 70 44
REMARK SMILES IDX 69 45 28 47 58 48 39 49 57 50 40 51 43 52 56 53 74 54 41 55
REMARK SMILES IDX 42 56 55 58 75 59 44 60 29 61 30 62 38 63 31 64 37 65 32 66
REMARK SMILES IDX 33 67 34 68 35 69 36 70 59 71 60 72 68 73 61 74 67 75 62 76
REMARK SMILES IDX 63 77 64 78 65 79 66 80 45 81 46 82 54 83 47 84 53 85 48 86
REMARK SMILES IDX 49 87 50 88 51 89 52 90
REMARK H PARENT 84 21 73 46 43 57
REMARK Flexibility Score: inf
ROOT
ATOM      1  C   UNL     1      -0.744   1.076  -3.902  1.00  0.00     0.188 C 
ENDROOT
BRANCH   1   2
ATOM      2  O   UNL     1      -1.442   0.777  -5.090  1.00  0.00    -0.376 OA
BRANCH   2   3
ATOM      3  C   UNL     1      -2.805   0.388  -4.887  1.00  0.00     0.202 C 
BRANCH   3   4
ATOM      4  C   UNL     1      -3.134  -0.721  -3.837  1.00  0.00     0.261 C 
BRANCH   4   5
ATOM      5  O   UNL     1      -2.929  -0.333  -2.445  1.00  0.00    -0.463 OA
BRANCH   5   6
ATOM      6  C   UNL     1      -2.642  -1.335  -1.533  1.00  0.00     0.310 C 
ATOM      7  O   UNL     1      -2.808  -2.522  -1.778  1.00  0.00    -0.252 OA
BRANCH   6   8
ATOM      8  C   UNL     1      -2.068  -0.768  -0.178  1.00  0.00     0.112 C 
ATOM      9  C   UNL     1       2.145  -1.844   0.180  1.00  0.00     0.007 C 
ATOM     10  C   UNL     1       0.781  -1.765  -0.527  1.00  0.00    -0.013 C 
ATOM     11  C   UNL     1       0.365  -0.361  -0.993  1.00  0.00     0.004 C 
ATOM     12  C   UNL     1      -0.292  -2.595   0.179  1.00  0.00     0.018 C 
ATOM     13  C   UNL     1      -0.998   0.223  -0.576  1.00  0.00     0.017 C 
ATOM     14  C   UNL     1      -1.497  -1.847   0.791  1.00  0.00     0.061 C 
BRANCH  14  15
ATOM     15  S   UNL     1      -1.280  -1.836   2.730  1.00  0.00    -0.152 SA
BRANCH  15  16
ATOM     16  C   UNL     1      -0.992  -0.191   3.604  1.00  0.00     0.131 C 
BRANCH  16  17
ATOM     17  C   UNL     1       0.474   0.277   4.042  1.00  0.00     0.272 C 
BRANCH  17  18
ATOM     18  N   UNL     1       1.208   1.159   3.109  1.00  0.00    -0.339 N 
ATOM     19  C   UNL     1       2.667   1.091   3.189  1.00  0.00     0.332 C 
ATOM     20  C   UNL     1       0.814   0.805   1.786  1.00  0.00     0.332 C 
ATOM     21  H   UNL     1       0.966   2.116   3.369  1.00  0.00     0.347 HD
ENDBRANCH  17  18
ENDBRANCH  16  17
ENDBRANCH  15  16
ENDBRANCH  14  15
ENDBRANCH   6   8
ENDBRANCH   5   6
ENDBRANCH   4   5
ENDBRANCH   3   4
ENDBRANCH   2   3
ENDBRANCH   1   2
BRANCH   1  22
ATOM     22  C   UNL     1      -0.977   2.453  -3.300  1.00  0.00     0.188 C 
BRANCH  22  23
ATOM     23  O   UNL     1      -2.293   2.948  -3.188  1.00  0.00    -0.376 OA
BRANCH  23  24
ATOM     24  C   UNL     1      -2.675   4.021  -4.046  1.00  0.00     0.202 C 
BRANCH  24  25
ATOM     25  C   UNL     1      -1.700   5.137  -4.533  1.00  0.00     0.261 C 
BRANCH  25  26
ATOM     26  O   UNL     1      -0.317   5.104  -4.129  1.00  0.00    -0.460 OA
BRANCH  26  27
ATOM     27  C   UNL     1      -0.051   5.396  -2.835  1.00  0.00     0.338 C 
ATOM     28  O   UNL     1      -0.843   5.908  -2.050  1.00  0.00    -0.246 OA
BRANCH  27  29
ATOM     29  C   UNL     1       1.260   4.794  -2.425  1.00  0.00     0.060 A 
ATOM     30  C   UNL     1       1.339   4.219  -1.148  1.00  0.00     0.016 A 
ATOM     31  C   UNL     1       2.386   4.739  -3.257  1.00  0.00     0.016 A 
ATOM     32  C   UNL     1       2.533   3.643  -0.685  1.00  0.00     0.010 A 
ATOM     33  C   UNL     1       3.592   4.179  -2.782  1.00  0.00     0.010 A 
ATOM     34  C   UNL     1       3.687   3.651  -1.480  1.00  0.00    -0.014 A 
BRANCH  34  35
ATOM     35  C   UNL     1       5.016   3.310  -0.879  1.00  0.00     0.031 A 
ATOM     36  C   UNL     1       5.830   4.424  -0.262  1.00  0.00     0.074 A 
ATOM     37  C   UNL     1       5.510   2.056  -0.833  1.00  0.00     0.049 A 
ATOM     38  N   UNL     1       7.026   4.387   0.270  1.00  0.00    -0.248 NA
ATOM     39  C   UNL     1       5.203   5.754  -0.242  1.00  0.00     0.031 C 
ATOM     40  C   UNL     1       4.829   0.856  -1.310  1.00  0.00     0.029 A 
ATOM     41  N   UNL     1       6.714   1.585  -0.352  1.00  0.00    -0.354 N 
ATOM     42  C   UNL     1       7.301   5.688   0.679  1.00  0.00     0.074 A 
ATOM     43  C   UNL     1       6.150   6.490   0.320  1.00  0.00     0.031 C 
ATOM     44  C   UNL     1       5.622  -0.211  -1.096  1.00  0.00     0.029 A 
ATOM     45  C   UNL     1       6.889   0.228  -0.507  1.00  0.00     0.049 A 
ATOM     46  H   UNL     1       7.389   2.168   0.066  1.00  0.00     0.167 HD
ATOM     47  C   UNL     1       8.406   6.183   1.288  1.00  0.00     0.031 A 
ATOM     48  C   UNL     1       7.948  -0.569  -0.234  1.00  0.00     0.031 A 
ATOM     49  C   UNL     1       9.576   5.413   1.620  1.00  0.00     0.049 A 
ATOM     50  C   UNL     1       9.216   0.024   0.343  1.00  0.00     0.074 A 
ATOM     51  C   UNL     1      10.749   5.849   2.214  1.00  0.00     0.029 A 
ATOM     52  N   UNL     1       9.734   4.058   1.380  1.00  0.00    -0.354 N 
ATOM     53  N   UNL     1       9.460   1.259   0.712  1.00  0.00    -0.248 NA
ATOM     54  C   UNL     1      10.356  -0.889   0.533  1.00  0.00     0.031 C 
ATOM     55  C   UNL     1      11.641   4.773   2.273  1.00  0.00     0.029 A 
ATOM     56  C   UNL     1      10.995   3.649   1.788  1.00  0.00     0.049 A 
ATOM     57  H   UNL     1       9.052   3.472   0.980  1.00  0.00     0.167 HD
ATOM     58  C   UNL     1      10.766   1.261   1.203  1.00  0.00     0.074 A 
ATOM     59  C   UNL     1      11.255  -0.096   1.100  1.00  0.00     0.031 C 
ATOM     60  C   UNL     1      11.490   2.298   1.694  1.00  0.00     0.031 A 
BRANCH  47  61
ATOM     61  C   UNL     1       8.425   7.660   1.586  1.00  0.00    -0.014 A 
ATOM     62  C   UNL     1       7.616   8.214   2.594  1.00  0.00     0.010 A 
ATOM     63  C   UNL     1       9.291   8.501   0.862  1.00  0.00     0.010 A 
ATOM     64  C   UNL     1       7.641   9.589   2.842  1.00  0.00     0.020 A 
ATOM     65  C   UNL     1       9.342   9.871   1.129  1.00  0.00     0.020 A 
ATOM     66  C   UNL     1       8.502  10.409   2.106  1.00  0.00     0.054 A 
BRANCH  66  67
ATOM     67  S   UNL     1       8.519  12.188   2.455  1.00  0.00     0.124 S 
ATOM     68  O   UNL     1       7.225  12.611   1.925  1.00  0.00    -0.237 OA
ATOM     69  O   UNL     1       8.645  12.226   3.910  1.00  0.00    -0.237 OA
ATOM     70  O   UNL     1       9.682  12.677   1.719  1.00  0.00    -0.744 OA
ENDBRANCH  66  67
ENDBRANCH  47  61
BRANCH  48  71
ATOM     71  C   UNL     1       7.893  -2.033  -0.532  1.00  0.00    -0.014 A 
ATOM     72  C   UNL     1       7.955  -2.983   0.505  1.00  0.00     0.010 A 
ATOM     73  C   UNL     1       7.829  -2.487  -1.862  1.00  0.00     0.010 A 
ATOM     74  C   UNL     1       7.970  -4.353   0.217  1.00  0.00     0.020 A 
ATOM     75  C   UNL     1       7.809  -3.855  -2.153  1.00  0.00     0.020 A 
ATOM     76  C   UNL     1       7.891  -4.781  -1.111  1.00  0.00     0.054 A 
BRANCH  76  77
ATOM     77  S   UNL     1       7.856  -6.562  -1.459  1.00  0.00     0.124 S 
ATOM     78  O   UNL     1       9.227  -6.959  -1.157  1.00  0.00    -0.237 OA
ATOM     79  O   UNL     1       6.838  -7.043  -0.529  1.00  0.00    -0.237 OA
ATOM     80  O   UNL     1       7.481  -6.627  -2.870  1.00  0.00    -0.744 OA
ENDBRANCH  76  77
ENDBRANCH  48  71
BRANCH  60  81
ATOM     81  C   UNL     1      12.883   2.019   2.209  1.00  0.00    -0.014 A 
ATOM     82  C   UNL     1      13.942   1.694   1.342  1.00  0.00     0.010 A 
ATOM     83  C   UNL     1      13.153   2.155   3.585  1.00  0.00     0.010 A 
ATOM     84  C   UNL     1      15.232   1.484   1.842  1.00  0.00     0.020 A 
ATOM     85  C   UNL     1      14.447   1.976   4.085  1.00  0.00     0.020 A 
ATOM     86  C   UNL     1      15.477   1.629   3.211  1.00  0.00     0.054 A 
BRANCH  86  87
ATOM     87  S   UNL     1      17.169   1.399   3.828  1.00  0.00     0.124 S 
ATOM     88  O   UNL     1      17.351  -0.044   3.690  1.00  0.00    -0.237 OA
ATOM     89  O   UNL     1      17.958   2.221   2.913  1.00  0.00    -0.237 OA
ATOM     90  O   UNL     1      17.109   1.889   5.203  1.00  0.00    -0.744 OA
ENDBRANCH  86  87
ENDBRANCH  60  81
ENDBRANCH  34  35
ENDBRANCH  27  29
ENDBRANCH  26  27
ENDBRANCH  25  26
ENDBRANCH  24  25
ENDBRANCH  23  24
ENDBRANCH  22  23
ENDBRANCH   1  22
TORSDOF 24
