REMARK SMILES COc1ccc([C@H]2CC(c3ccc(S(C)(=O)=O)cc3)=NN2c2ccc(C(=O)OCCOCCOCCOC(=O)c3ccc(-c4c5nc(c(-c6ccc(S(=O)(=O)[O-])cc6)c6ccc([nH]6)c(-c6ccc(S(=O)(=O)[O-])cc6)c6nc(c(-c7ccc(S(=O)(=O)[O-])cc7)c7ccc4[nH]7)C=C6)C=C5)cc3)cc2)cc1
REMARK SMILES IDX 32 1 31 2 30 3 29 4 28 5 26 6 27 7 25 8 22 9 23 10 101 11
REMARK SMILES IDX 24 12 100 13 21 14 7 15 8 16 9 17 20 18 6 19 3 20 4 21
REMARK SMILES IDX 103 22 5 23 102 24 2 25 1 26 10 27 11 28 19 29 12 30 18 31
REMARK SMILES IDX 13 32 14 33 15 34 16 35 17 36 33 37 34 38 35 39 36 40 37 41
REMARK SMILES IDX 38 42 39 43 40 44 41 45 99 46 42 47 98 48 43 49 44 50 45 51
REMARK SMILES IDX 92 52 46 53 97 54 91 55 93 56 47 57 96 58 90 59 89 60 48 62
REMARK SMILES IDX 78 63 59 64 77 65 60 66 63 67 76 68 94 69 61 70 62 71 75 73
REMARK SMILES IDX 95 74 64 75 49 76 50 77 58 78 51 79 57 80 52 81 53 82 54 83
REMARK SMILES IDX 55 84 56 85 79 86 80 87 88 88 81 89 87 90 82 91 83 92 84 93
REMARK SMILES IDX 85 94 86 95 65 96 66 97 74 98 67 99 73 100 68 101 69 102
REMARK SMILES IDX 70 103 71 104 72 105
REMARK H PARENT 93 61 63 72
REMARK Flexibility Score: inf
ROOT
ATOM      1  C   UNL     1       4.300 -10.367  -3.740  1.00  0.00     0.188 C 
ENDROOT
BRANCH   1   2
ATOM      2  O   UNL     1       3.958 -11.539  -3.036  1.00  0.00    -0.376 OA
BRANCH   2   3
ATOM      3  C   UNL     1       2.650 -11.733  -2.530  1.00  0.00     0.202 C 
BRANCH   3   4
ATOM      4  C   UNL     1       1.580 -10.640  -2.349  1.00  0.00     0.261 C 
BRANCH   4   5
ATOM      5  O   UNL     1       1.667  -9.483  -3.183  1.00  0.00    -0.460 OA
BRANCH   5   6
ATOM      6  C   UNL     1       2.024  -8.340  -2.541  1.00  0.00     0.338 C 
ATOM      7  O   UNL     1       2.250  -8.214  -1.351  1.00  0.00    -0.246 OA
BRANCH   6   8
ATOM      8  C   UNL     1       2.270  -7.266  -3.527  1.00  0.00     0.060 A 
ATOM      9  C   UNL     1       2.745  -5.096  -5.250  1.00  0.00     0.060 A 
ATOM     10  C   UNL     1       3.710  -5.484  -4.312  1.00  0.00     0.029 A 
ATOM     11  C   UNL     1       1.579  -5.873  -5.367  1.00  0.00     0.029 A 
ATOM     12  C   UNL     1       3.462  -6.540  -3.430  1.00  0.00     0.018 A 
ATOM     13  C   UNL     1       1.345  -6.966  -4.526  1.00  0.00     0.018 A 
BRANCH   9  14
ATOM     14  N   UNL     1       2.888  -3.914  -5.971  1.00  0.00    -0.257 N 
ATOM     15  C   UNL     1       1.913  -2.826  -5.869  1.00  0.00     0.144 C 
ATOM     16  C   UNL     1       2.589  -1.691  -6.641  1.00  0.00     0.091 C 
ATOM     17  C   UNL     1       3.891  -2.350  -7.003  1.00  0.00     0.071 C 
ATOM     18  N   UNL     1       4.047  -3.574  -6.602  1.00  0.00    -0.176 NA
BRANCH  15  19
ATOM     19  C   UNL     1       1.586  -2.436  -4.433  1.00  0.00    -0.023 A 
ATOM     20  C   UNL     1       0.915  -1.664  -1.804  1.00  0.00     0.118 A 
ATOM     21  C   UNL     1      -0.057  -2.188  -2.655  1.00  0.00     0.047 A 
ATOM     22  C   UNL     1       2.235  -1.578  -2.241  1.00  0.00     0.047 A 
ATOM     23  C   UNL     1       0.271  -2.562  -3.961  1.00  0.00     0.010 A 
ATOM     24  C   UNL     1       2.569  -1.965  -3.545  1.00  0.00     0.010 A 
BRANCH  20  25
ATOM     25  O   UNL     1       0.484  -1.322  -0.552  1.00  0.00    -0.497 OA
ATOM     26  C   UNL     1       1.101  -0.157  -0.011  1.00  0.00     0.278 C 
ENDBRANCH  20  25
ENDBRANCH  15  19
BRANCH  17  27
ATOM     27  C   UNL     1       4.862  -1.617  -7.825  1.00  0.00    -0.002 A 
ATOM     28  C   UNL     1       5.168  -2.096  -9.103  1.00  0.00     0.011 A 
ATOM     29  C   UNL     1       5.392  -0.406  -7.370  1.00  0.00     0.011 A 
ATOM     30  C   UNL     1       5.993  -1.344  -9.945  1.00  0.00     0.021 A 
ATOM     31  C   UNL     1       6.236   0.336  -8.200  1.00  0.00     0.021 A 
ATOM     32  C   UNL     1       6.527  -0.134  -9.485  1.00  0.00     0.067 A 
BRANCH  32  33
ATOM     33  S   UNL     1       7.525   0.849 -10.584  1.00  0.00     0.175 S 
ATOM     34  C   UNL     1       8.967  -0.140 -10.881  1.00  0.00     0.163 C 
ATOM     35  O   UNL     1       6.781   0.967 -11.824  1.00  0.00    -0.224 OA
ATOM     36  O   UNL     1       7.939   2.035  -9.857  1.00  0.00    -0.224 OA
ENDBRANCH  32  33
ENDBRANCH  17  27
ENDBRANCH   9  14
ENDBRANCH   6   8
ENDBRANCH   5   6
ENDBRANCH   4   5
ENDBRANCH   3   4
ENDBRANCH   2   3
ENDBRANCH   1   2
BRANCH   1  37
ATOM     37  C   UNL     1       3.734 -10.168  -5.160  1.00  0.00     0.188 C 
BRANCH  37  38
ATOM     38  O   UNL     1       2.782 -11.074  -5.678  1.00  0.00    -0.376 OA
BRANCH  38  39
ATOM     39  C   UNL     1       3.111 -12.442  -5.846  1.00  0.00     0.202 C 
BRANCH  39  40
ATOM     40  C   UNL     1       4.522 -12.972  -6.163  1.00  0.00     0.261 C 
BRANCH  40  41
ATOM     41  O   UNL     1       5.633 -12.248  -5.628  1.00  0.00    -0.460 OA
BRANCH  41  42
ATOM     42  C   UNL     1       6.360 -11.553  -6.534  1.00  0.00     0.338 C 
ATOM     43  O   UNL     1       6.154 -11.466  -7.740  1.00  0.00    -0.246 OA
BRANCH  42  44
ATOM     44  C   UNL     1       7.380 -10.759  -5.832  1.00  0.00     0.060 A 
ATOM     45  C   UNL     1       7.275  -9.362  -5.844  1.00  0.00     0.016 A 
ATOM     46  C   UNL     1       8.459 -11.387  -5.209  1.00  0.00     0.016 A 
ATOM     47  C   UNL     1       8.266  -8.584  -5.248  1.00  0.00     0.010 A 
ATOM     48  C   UNL     1       9.462 -10.605  -4.633  1.00  0.00     0.010 A 
ATOM     49  C   UNL     1       9.386  -9.200  -4.675  1.00  0.00    -0.014 A 
BRANCH  49  50
ATOM     50  C   UNL     1      10.559  -8.383  -4.282  1.00  0.00     0.031 A 
ATOM     51  C   UNL     1      11.721  -8.293  -5.235  1.00  0.00     0.074 A 
ATOM     52  C   UNL     1      10.592  -7.726  -3.109  1.00  0.00     0.049 A 
ATOM     53  N   UNL     1      12.874  -7.694  -5.082  1.00  0.00    -0.248 NA
ATOM     54  C   UNL     1      11.561  -8.969  -6.534  1.00  0.00     0.031 C 
ATOM     55  C   UNL     1       9.511  -7.693  -2.125  1.00  0.00     0.029 A 
ATOM     56  N   UNL     1      11.584  -6.963  -2.545  1.00  0.00    -0.354 N 
ATOM     57  C   UNL     1      13.579  -7.930  -6.256  1.00  0.00     0.074 A 
ATOM     58  C   UNL     1      12.738  -8.748  -7.101  1.00  0.00     0.031 C 
ATOM     59  C   UNL     1       9.905  -6.957  -1.070  1.00  0.00     0.029 A 
ATOM     60  C   UNL     1      11.277  -6.500  -1.287  1.00  0.00     0.049 A 
ATOM     61  H   UNL     1      12.436  -6.767  -2.997  1.00  0.00     0.167 HD
ATOM     62  C   UNL     1      14.815  -7.499  -6.603  1.00  0.00     0.031 A 
ATOM     63  C   UNL     1      12.026  -5.809  -0.405  1.00  0.00     0.031 A 
ATOM     64  C   UNL     1      15.657  -6.699  -5.754  1.00  0.00     0.049 A 
ATOM     65  C   UNL     1      13.434  -5.415  -0.780  1.00  0.00     0.074 A 
ATOM     66  C   UNL     1      16.923  -6.206  -6.018  1.00  0.00     0.029 A 
ATOM     67  N   UNL     1      15.322  -6.279  -4.476  1.00  0.00    -0.354 N 
ATOM     68  N   UNL     1      14.080  -5.625  -1.903  1.00  0.00    -0.248 NA
ATOM     69  C   UNL     1      14.211  -4.682   0.230  1.00  0.00     0.031 C 
ATOM     70  C   UNL     1      17.378  -5.539  -4.877  1.00  0.00     0.029 A 
ATOM     71  C   UNL     1      16.367  -5.554  -3.929  1.00  0.00     0.049 A 
ATOM     72  H   UNL     1      14.468  -6.468  -4.024  1.00  0.00     0.167 HD
ATOM     73  C   UNL     1      15.323  -5.018  -1.746  1.00  0.00     0.074 A 
ATOM     74  C   UNL     1      15.333  -4.422  -0.427  1.00  0.00     0.031 C 
ATOM     75  C   UNL     1      16.361  -4.955  -2.617  1.00  0.00     0.031 A 
BRANCH  62  76
ATOM     76  C   UNL     1      15.346  -7.910  -7.950  1.00  0.00    -0.014 A 
ATOM     77  C   UNL     1      14.820  -7.368  -9.136  1.00  0.00     0.010 A 
ATOM     78  C   UNL     1      16.424  -8.811  -8.029  1.00  0.00     0.010 A 
ATOM     79  C   UNL     1      15.344  -7.740 -10.377  1.00  0.00     0.020 A 
ATOM     80  C   UNL     1      16.970  -9.163  -9.266  1.00  0.00     0.020 A 
ATOM     81  C   UNL     1      16.418  -8.634 -10.434  1.00  0.00     0.054 A 
BRANCH  81  82
ATOM     82  S   UNL     1      17.104  -9.063 -12.057  1.00  0.00     0.124 S 
ATOM     83  O   UNL     1      16.042  -9.890 -12.624  1.00  0.00    -0.237 OA
ATOM     84  O   UNL     1      17.283  -7.756 -12.683  1.00  0.00    -0.237 OA
ATOM     85  O   UNL     1      18.340  -9.772 -11.735  1.00  0.00    -0.744 OA
ENDBRANCH  81  82
ENDBRANCH  62  76
BRANCH  63  86
ATOM     86  C   UNL     1      11.479  -5.461   0.937  1.00  0.00    -0.014 A 
ATOM     87  C   UNL     1      11.243  -4.120   1.292  1.00  0.00     0.010 A 
ATOM     88  C   UNL     1      11.221  -6.471   1.883  1.00  0.00     0.010 A 
ATOM     89  C   UNL     1      10.791  -3.795   2.575  1.00  0.00     0.020 A 
ATOM     90  C   UNL     1      10.739  -6.152   3.156  1.00  0.00     0.020 A 
ATOM     91  C   UNL     1      10.543  -4.813   3.499  1.00  0.00     0.054 A 
BRANCH  91  92
ATOM     92  S   UNL     1       9.936  -4.367   5.150  1.00  0.00     0.124 S 
ATOM     93  O   UNL     1      11.123  -3.780   5.762  1.00  0.00    -0.237 OA
ATOM     94  O   UNL     1       8.854  -3.434   4.845  1.00  0.00    -0.237 OA
ATOM     95  O   UNL     1       9.507  -5.645   5.714  1.00  0.00    -0.744 OA
ENDBRANCH  91  92
ENDBRANCH  63  86
BRANCH  75  96
ATOM     96  C   UNL     1      17.579  -4.170  -2.202  1.00  0.00    -0.014 A 
ATOM     97  C   UNL     1      18.452  -4.638  -1.204  1.00  0.00     0.010 A 
ATOM     98  C   UNL     1      17.886  -2.970  -2.870  1.00  0.00     0.010 A 
ATOM     99  C   UNL     1      19.590  -3.902  -0.859  1.00  0.00     0.020 A 
ATOM    100  C   UNL     1      19.039  -2.248  -2.551  1.00  0.00     0.020 A 
ATOM    101  C   UNL     1      19.877  -2.712  -1.536  1.00  0.00     0.054 A 
BRANCH 101 102
ATOM    102  S   UNL     1      21.383  -1.800  -1.100  1.00  0.00     0.124 S 
ATOM    103  O   UNL     1      21.035  -1.243   0.204  1.00  0.00    -0.237 OA
ATOM    104  O   UNL     1      22.399  -2.849  -1.085  1.00  0.00    -0.237 OA
ATOM    105  O   UNL     1      21.521  -0.823  -2.178  1.00  0.00    -0.744 OA
ENDBRANCH 101 102
ENDBRANCH  75  96
ENDBRANCH  49  50
ENDBRANCH  42  44
ENDBRANCH  41  42
ENDBRANCH  40  41
ENDBRANCH  39  40
ENDBRANCH  38  39
ENDBRANCH  37  38
ENDBRANCH   1  37
TORSDOF 25
