REMARK SMILES COc1ccc(-n2ccnc2C[N@@H+]2Cc3[nH]cnc3C[C@@H]2C(=O)OCCOCCOCCOC(=O)c2ccc(-c3c4nc(c(-c5ccc(S(=O)(=O)[O-])cc5)c5ccc([nH]5)c(-c5ccc(S(=O)(=O)[O-])cc5)c5nc(c(-c6ccc(S(=O)(=O)[O-])cc6)c6ccc3[nH]6)C=C5)C=C4)cc2)cc1
REMARK SMILES IDX 28 1 27 2 26 3 25 4 24 5 22 6 23 7 21 8 13 9 14 10 15 12
REMARK SMILES IDX 20 13 16 14 19 15 17 16 18 18 12 19 11 20 7 21 8 22 9 23
REMARK SMILES IDX 10 24 6 25 3 26 4 27 97 28 5 29 96 30 2 31 1 32 29 33 30 34
REMARK SMILES IDX 31 35 32 36 33 37 34 38 35 39 36 40 37 41 95 42 38 43 94 44
REMARK SMILES IDX 39 45 40 46 41 47 88 48 42 49 93 50 87 51 89 52 43 53 92 54
REMARK SMILES IDX 86 55 85 56 44 58 74 59 55 60 73 61 56 62 59 63 72 64 90 65
REMARK SMILES IDX 57 66 58 67 71 69 91 70 60 71 45 72 46 73 54 74 47 75 53 76
REMARK SMILES IDX 48 77 49 78 50 79 51 80 52 81 75 82 76 83 84 84 77 85 83 86
REMARK SMILES IDX 78 87 79 88 80 89 81 90 82 91 61 92 62 93 70 94 63 95 69 96
REMARK SMILES IDX 64 97 65 98 66 99 67 100 68 101
REMARK H PARENT 13 11 16 17 89 57 59 68
REMARK Flexibility Score: inf
ROOT
ATOM      1  C   UNL     1      -0.654  10.011  -1.794  1.00  0.00     0.188 C 
ENDROOT
BRANCH   1   2
ATOM      2  O   UNL     1      -2.027  10.229  -2.074  1.00  0.00    -0.376 OA
BRANCH   2   3
ATOM      3  C   UNL     1      -2.996   9.995  -1.066  1.00  0.00     0.202 C 
BRANCH   3   4
ATOM      4  C   UNL     1      -2.854   8.900   0.007  1.00  0.00     0.261 C 
BRANCH   4   5
ATOM      5  O   UNL     1      -1.605   8.234   0.118  1.00  0.00    -0.459 OA
BRANCH   5   6
ATOM      6  C   UNL     1      -1.441   7.005  -0.472  1.00  0.00     0.365 C 
ATOM      7  O   UNL     1      -2.230   6.455  -1.197  1.00  0.00    -0.245 OA
BRANCH   6   8
ATOM      8  C   UNL     1      -0.121   6.440   0.038  1.00  0.00     0.301 C 
ATOM      9  N   UNL     1       1.130   7.034  -0.555  1.00  0.00    -0.312 N 
ATOM     10  C   UNL     1       2.328   6.718   0.250  1.00  0.00     0.320 C 
ATOM     11  H   UNL     1       1.095   8.049  -0.465  1.00  0.00     0.349 HD
ATOM     12  C   UNL     1       2.070   5.548   1.164  1.00  0.00     0.093 A 
ATOM     13  C   UNL     1      -0.055   4.902   0.073  1.00  0.00     0.136 C 
ATOM     14  N   UNL     1       2.469   5.417   2.470  1.00  0.00    -0.344 N 
ATOM     15  C   UNL     1       1.038   4.633   1.039  1.00  0.00     0.074 A 
ATOM     16  C   UNL     1       1.737   4.392   3.018  1.00  0.00     0.197 A 
ATOM     17  H   UNL     1       3.153   5.956   2.929  1.00  0.00     0.167 HD
ATOM     18  N   UNL     1       0.889   3.871   2.159  1.00  0.00    -0.241 NA
BRANCH   9  19
ATOM     19  C   UNL     1       1.192   6.954  -2.027  1.00  0.00     0.340 C 
BRANCH  19  20
ATOM     20  C   UNL     1       2.423   6.574  -2.792  1.00  0.00     0.168 A 
ATOM     21  N   UNL     1       2.686   5.331  -3.352  1.00  0.00    -0.299 N 
ATOM     22  C   UNL     1       3.774   5.489  -4.181  1.00  0.00     0.113 A 
ATOM     23  C   UNL     1       4.136   6.806  -4.083  1.00  0.00     0.132 A 
ATOM     24  N   UNL     1       3.332   7.455  -3.189  1.00  0.00    -0.236 NA
BRANCH  21  25
ATOM     25  C   UNL     1       2.109   4.085  -3.044  1.00  0.00     0.047 A 
ATOM     26  C   UNL     1       1.028   1.697  -2.117  1.00  0.00     0.119 A 
ATOM     27  C   UNL     1       0.216   2.620  -2.783  1.00  0.00     0.048 A 
ATOM     28  C   UNL     1       2.401   1.922  -2.017  1.00  0.00     0.048 A 
ATOM     29  C   UNL     1       0.751   3.831  -3.241  1.00  0.00     0.030 A 
ATOM     30  C   UNL     1       2.947   3.111  -2.490  1.00  0.00     0.030 A 
BRANCH  26  31
ATOM     31  O   UNL     1       0.415   0.582  -1.612  1.00  0.00    -0.497 OA
ATOM     32  C   UNL     1       0.847   0.256  -0.289  1.00  0.00     0.278 C 
ENDBRANCH  26  31
ENDBRANCH  21  25
ENDBRANCH  19  20
ENDBRANCH   9  19
ENDBRANCH   6   8
ENDBRANCH   5   6
ENDBRANCH   4   5
ENDBRANCH   3   4
ENDBRANCH   2   3
ENDBRANCH   1   2
BRANCH   1  33
ATOM     33  C   UNL     1      -0.043  10.580  -0.501  1.00  0.00     0.188 C 
BRANCH  33  34
ATOM     34  O   UNL     1      -0.959  11.405   0.206  1.00  0.00    -0.376 OA
BRANCH  34  35
ATOM     35  C   UNL     1      -0.689  12.799   0.194  1.00  0.00     0.202 C 
BRANCH  35  36
ATOM     36  C   UNL     1      -0.678  13.538  -1.144  1.00  0.00     0.261 C 
BRANCH  36  37
ATOM     37  O   UNL     1      -0.128  12.843  -2.250  1.00  0.00    -0.460 OA
BRANCH  37  38
ATOM     38  C   UNL     1       1.216  12.854  -2.370  1.00  0.00     0.338 C 
ATOM     39  O   UNL     1       2.022  13.082  -1.486  1.00  0.00    -0.246 OA
BRANCH  38  40
ATOM     40  C   UNL     1       1.541  12.665  -3.793  1.00  0.00     0.060 A 
ATOM     41  C   UNL     1       2.865  12.395  -4.138  1.00  0.00     0.016 A 
ATOM     42  C   UNL     1       0.583  13.002  -4.764  1.00  0.00     0.016 A 
ATOM     43  C   UNL     1       3.273  12.650  -5.435  1.00  0.00     0.010 A 
ATOM     44  C   UNL     1       0.991  13.273  -6.049  1.00  0.00     0.010 A 
ATOM     45  C   UNL     1       2.348  13.174  -6.346  1.00  0.00    -0.014 A 
BRANCH  45  46
ATOM     46  C   UNL     1       2.830  13.628  -7.634  1.00  0.00     0.031 A 
ATOM     47  C   UNL     1       3.110  12.547  -8.597  1.00  0.00     0.074 A 
ATOM     48  C   UNL     1       2.911  14.934  -7.950  1.00  0.00     0.049 A 
ATOM     49  N   UNL     1       4.260  12.164  -9.039  1.00  0.00    -0.248 NA
ATOM     50  C   UNL     1       1.982  11.700  -9.013  1.00  0.00     0.031 C 
ATOM     51  C   UNL     1       2.388  16.070  -7.181  1.00  0.00     0.029 A 
ATOM     52  N   UNL     1       3.388  15.518  -9.084  1.00  0.00    -0.354 N 
ATOM     53  C   UNL     1       3.983  11.162  -9.960  1.00  0.00     0.074 A 
ATOM     54  C   UNL     1       2.605  10.790  -9.761  1.00  0.00     0.031 C 
ATOM     55  C   UNL     1       2.385  17.173  -7.962  1.00  0.00     0.029 A 
ATOM     56  C   UNL     1       3.036  16.854  -9.222  1.00  0.00     0.049 A 
ATOM     57  H   UNL     1       3.933  15.036  -9.747  1.00  0.00     0.167 HD
ATOM     58  C   UNL     1       4.817  10.913 -11.005  1.00  0.00     0.031 A 
ATOM     59  C   UNL     1       3.232  17.637 -10.310  1.00  0.00     0.031 A 
ATOM     60  C   UNL     1       6.096  11.551 -10.837  1.00  0.00     0.049 A 
ATOM     61  C   UNL     1       4.315  17.029 -11.115  1.00  0.00     0.074 A 
ATOM     62  C   UNL     1       7.193  11.375 -10.024  1.00  0.00     0.029 A 
ATOM     63  N   UNL     1       6.191  12.806 -11.388  1.00  0.00    -0.354 N 
ATOM     64  N   UNL     1       5.550  16.951 -10.705  1.00  0.00    -0.248 NA
ATOM     65  C   UNL     1       3.985  16.181 -12.253  1.00  0.00     0.031 C 
ATOM     66  C   UNL     1       7.794  12.661  -9.898  1.00  0.00     0.029 A 
ATOM     67  C   UNL     1       7.056  13.575 -10.652  1.00  0.00     0.049 A 
ATOM     68  H   UNL     1       5.711  13.108 -12.192  1.00  0.00     0.167 HD
ATOM     69  C   UNL     1       6.022  15.765 -11.239  1.00  0.00     0.074 A 
ATOM     70  C   UNL     1       5.091  15.431 -12.307  1.00  0.00     0.031 C 
ATOM     71  C   UNL     1       6.947  15.019 -10.571  1.00  0.00     0.031 A 
BRANCH  58  72
ATOM     72  C   UNL     1       4.324  10.501 -12.372  1.00  0.00    -0.014 A 
ATOM     73  C   UNL     1       5.269  10.209 -13.375  1.00  0.00     0.010 A 
ATOM     74  C   UNL     1       2.987  10.678 -12.786  1.00  0.00     0.010 A 
ATOM     75  C   UNL     1       4.902  10.161 -14.727  1.00  0.00     0.020 A 
ATOM     76  C   UNL     1       2.603  10.589 -14.123  1.00  0.00     0.020 A 
ATOM     77  C   UNL     1       3.571  10.368 -15.091  1.00  0.00     0.054 A 
BRANCH  77  78
ATOM     78  S   UNL     1       3.124  10.430 -16.843  1.00  0.00     0.124 S 
ATOM     79  O   UNL     1       3.800  11.647 -17.281  1.00  0.00    -0.237 OA
ATOM     80  O   UNL     1       3.677   9.177 -17.349  1.00  0.00    -0.237 OA
ATOM     81  O   UNL     1       1.665  10.497 -16.820  1.00  0.00    -0.744 OA
ENDBRANCH  77  78
ENDBRANCH  58  72
BRANCH  59  82
ATOM     82  C   UNL     1       2.398  18.756 -10.801  1.00  0.00    -0.014 A 
ATOM     83  C   UNL     1       2.910  19.706 -11.702  1.00  0.00     0.010 A 
ATOM     84  C   UNL     1       1.004  18.729 -10.590  1.00  0.00     0.010 A 
ATOM     85  C   UNL     1       2.051  20.559 -12.414  1.00  0.00     0.020 A 
ATOM     86  C   UNL     1       0.143  19.579 -11.292  1.00  0.00     0.020 A 
ATOM     87  C   UNL     1       0.669  20.475 -12.219  1.00  0.00     0.054 A 
BRANCH  87  88
ATOM     88  S   UNL     1      -0.441  21.455 -13.273  1.00  0.00     0.124 S 
ATOM     89  O   UNL     1      -0.204  22.814 -12.794  1.00  0.00    -0.237 OA
ATOM     90  O   UNL     1       0.055  21.162 -14.615  1.00  0.00    -0.237 OA
ATOM     91  O   UNL     1      -1.766  20.915 -12.974  1.00  0.00    -0.744 OA
ENDBRANCH  87  88
ENDBRANCH  59  82
BRANCH  71  92
ATOM     92  C   UNL     1       7.771  15.713  -9.517  1.00  0.00    -0.014 A 
ATOM     93  C   UNL     1       7.238  16.215  -8.314  1.00  0.00     0.010 A 
ATOM     94  C   UNL     1       9.162  15.763  -9.712  1.00  0.00     0.010 A 
ATOM     95  C   UNL     1       8.079  16.767  -7.337  1.00  0.00     0.020 A 
ATOM     96  C   UNL     1      10.006  16.296  -8.736  1.00  0.00     0.020 A 
ATOM     97  C   UNL     1       9.460  16.802  -7.555  1.00  0.00     0.054 A 
BRANCH  97  98
ATOM     98  S   UNL     1      10.551  17.458  -6.261  1.00  0.00     0.124 S 
ATOM     99  O   UNL     1      10.270  18.890  -6.305  1.00  0.00    -0.237 OA
ATOM    100  O   UNL     1      10.090  16.762  -5.062  1.00  0.00    -0.237 OA
ATOM    101  O   UNL     1      11.890  17.077  -6.709  1.00  0.00    -0.744 OA
ENDBRANCH  97  98
ENDBRANCH  71  92
ENDBRANCH  45  46
ENDBRANCH  38  40
ENDBRANCH  37  38
ENDBRANCH  36  37
ENDBRANCH  35  36
ENDBRANCH  34  35
ENDBRANCH  33  34
ENDBRANCH   1  33
TORSDOF 24
