REMARK SMILES Cc1cccc(N2C(=O)/C(=C/c3ccc(C(=O)OCCOCCOCCOC(=O)c4ccc(-c5c6nc(c(-c7ccc(S(=O)(=O)[O-])cc7)c7ccc([nH]7)c(-c7ccc(S(=O)(=O)[O-])cc7)c7nc(c(-c8ccc(S(=O)(=O)[O-])cc8)c8ccc5[nH]8)C=C7)C=C6)cc4)cc3)c3ccccc3C2=O)c1
REMARK SMILES IDX 23 1 22 2 21 3 20 4 19 5 18 6 16 7 17 8 15 9 12 10 13 11
REMARK SMILES IDX 91 12 14 13 90 14 11 15 7 16 8 17 98 18 9 19 10 20 97 21
REMARK SMILES IDX 99 22 92 23 96 24 93 25 95 26 94 27 6 28 1 29 2 30 3 31
REMARK SMILES IDX 100 32 4 33 5 34 24 35 25 36 26 37 27 38 28 39 29 40 30 41
REMARK SMILES IDX 31 42 89 43 32 44 88 45 33 46 34 47 35 48 82 49 36 50 87 51
REMARK SMILES IDX 81 52 83 53 37 54 86 55 80 56 79 57 38 59 68 60 49 61 67 62
REMARK SMILES IDX 50 63 53 64 66 65 84 66 51 67 52 68 65 70 85 71 54 72 39 73
REMARK SMILES IDX 40 74 48 75 41 76 47 77 42 78 43 79 44 80 45 81 46 82 69 83
REMARK SMILES IDX 70 84 78 85 71 86 77 87 72 88 73 89 74 90 75 91 76 92 55 93
REMARK SMILES IDX 56 94 64 95 57 96 63 97 58 98 59 99 60 100 61 101 62 102
REMARK H PARENT 83 58 53 69
REMARK Flexibility Score: inf
ROOT
ATOM      1  C   UNL     1      -3.514  15.373   2.044  1.00  0.00     0.188 C 
ENDROOT
BRANCH   1   2
ATOM      2  C   UNL     1      -4.255  15.064   0.742  1.00  0.00     0.188 C 
BRANCH   2   3
ATOM      3  O   UNL     1      -5.475  14.288   0.731  1.00  0.00    -0.376 OA
BRANCH   3   4
ATOM      4  C   UNL     1      -5.939  13.477   1.812  1.00  0.00     0.202 C 
BRANCH   4   5
ATOM      5  C   UNL     1      -6.364  11.878   1.708  1.00  0.00     0.261 C 
BRANCH   5   6
ATOM      6  O   UNL     1      -5.480  10.404   1.394  1.00  0.00    -0.460 OA
BRANCH   6   7
ATOM      7  C   UNL     1      -4.982   9.650   0.291  1.00  0.00     0.338 C 
ATOM      8  O   UNL     1      -5.118   9.827  -0.920  1.00  0.00    -0.246 OA
BRANCH   7   9
ATOM      9  C   UNL     1      -4.084   8.502   0.283  1.00  0.00     0.060 A 
ATOM     10  C   UNL     1      -2.469   6.467  -0.765  1.00  0.00    -0.025 A 
ATOM     11  C   UNL     1      -1.932   7.737  -0.614  1.00  0.00     0.009 A 
ATOM     12  C   UNL     1      -3.853   6.268  -0.659  1.00  0.00     0.009 A 
ATOM     13  C   UNL     1      -2.745   8.746  -0.106  1.00  0.00     0.016 A 
ATOM     14  C   UNL     1      -4.655   7.282  -0.126  1.00  0.00     0.016 A 
BRANCH  10  15
ATOM     15  C   UNL     1      -1.546   5.344  -0.629  1.00  0.00     0.022 C 
ATOM     16  N   UNL     1      -1.474   2.277   0.756  1.00  0.00    -0.242 N 
ATOM     17  C   UNL     1      -0.701   3.438   0.541  1.00  0.00     0.265 C 
ATOM     18  C   UNL     1      -2.817   2.366   1.235  1.00  0.00     0.265 C 
ATOM     19  O   UNL     1       0.503   3.565   0.341  1.00  0.00    -0.268 OA
ATOM     20  C   UNL     1      -1.519   4.660   0.537  1.00  0.00     0.049 C 
ATOM     21  C   UNL     1      -3.261   3.663   1.829  1.00  0.00     0.048 A 
ATOM     22  O   UNL     1      -3.657   1.469   1.266  1.00  0.00    -0.268 OA
ATOM     23  C   UNL     1      -2.489   4.796   1.619  1.00  0.00    -0.000 A 
ATOM     24  C   UNL     1      -4.449   3.769   2.565  1.00  0.00     0.014 A 
ATOM     25  C   UNL     1      -2.794   5.992   2.282  1.00  0.00     0.010 A 
ATOM     26  C   UNL     1      -4.820   4.994   3.128  1.00  0.00     0.001 A 
ATOM     27  C   UNL     1      -3.977   6.098   3.014  1.00  0.00     0.001 A 
BRANCH  16  28
ATOM     28  C   UNL     1      -0.882   0.977   0.455  1.00  0.00     0.053 A 
ATOM     29  C   UNL     1       2.602  -0.526  -0.100  1.00  0.00     0.044 C 
ATOM     30  C   UNL     1       1.110  -0.425   0.017  1.00  0.00    -0.049 A 
ATOM     31  C   UNL     1       0.303  -1.545  -0.149  1.00  0.00     0.003 A 
ATOM     32  C   UNL     1       0.512   0.806   0.333  1.00  0.00     0.030 A 
ATOM     33  C   UNL     1      -1.075  -1.420  -0.032  1.00  0.00     0.002 A 
ATOM     34  C   UNL     1      -1.655  -0.177   0.255  1.00  0.00     0.027 A 
ENDBRANCH  16  28
ENDBRANCH  10  15
ENDBRANCH   7   9
ENDBRANCH   6   7
ENDBRANCH   5   6
ENDBRANCH   4   5
ENDBRANCH   3   4
ENDBRANCH   2   3
ENDBRANCH   1   2
BRANCH   1  35
ATOM     35  O   UNL     1      -3.448  14.202   2.835  1.00  0.00    -0.376 OA
BRANCH  35  36
ATOM     36  C   UNL     1      -2.882  14.329   4.119  1.00  0.00     0.202 C 
BRANCH  36  37
ATOM     37  C   UNL     1      -1.358  14.180   4.072  1.00  0.00     0.261 C 
BRANCH  37  38
ATOM     38  O   UNL     1      -0.978  12.872   3.575  1.00  0.00    -0.460 OA
BRANCH  38  39
ATOM     39  C   UNL     1      -0.382  12.826   2.331  1.00  0.00     0.338 C 
ATOM     40  O   UNL     1       0.798  13.095   2.166  1.00  0.00    -0.246 OA
BRANCH  39  41
ATOM     41  C   UNL     1      -1.361  12.341   1.294  1.00  0.00     0.060 A 
ATOM     42  C   UNL     1      -1.396  12.585  -0.085  1.00  0.00     0.016 A 
ATOM     43  C   UNL     1      -2.475  11.762   1.783  1.00  0.00     0.016 A 
ATOM     44  C   UNL     1      -2.618  12.418  -0.902  1.00  0.00     0.010 A 
ATOM     45  C   UNL     1      -3.640  11.898   1.021  1.00  0.00     0.010 A 
ATOM     46  C   UNL     1      -3.884  12.142  -0.357  1.00  0.00    -0.014 A 
BRANCH  46  47
ATOM     47  C   UNL     1      -5.404  12.285  -1.139  1.00  0.00     0.031 A 
ATOM     48  C   UNL     1      -6.811  11.227  -1.265  1.00  0.00     0.074 A 
ATOM     49  C   UNL     1      -5.562  13.325  -2.000  1.00  0.00     0.049 A 
ATOM     50  N   UNL     1      -7.396  10.885  -2.409  1.00  0.00    -0.248 NA
ATOM     51  C   UNL     1      -7.513  10.394  -0.210  1.00  0.00     0.031 C 
ATOM     52  C   UNL     1      -6.798  13.664  -2.709  1.00  0.00     0.029 A 
ATOM     53  N   UNL     1      -4.650  14.235  -2.533  1.00  0.00    -0.354 N 
ATOM     54  C   UNL     1      -8.435   9.961  -2.152  1.00  0.00     0.074 A 
ATOM     55  C   UNL     1      -8.346   9.576  -0.808  1.00  0.00     0.031 C 
ATOM     56  C   UNL     1      -6.487  14.416  -3.774  1.00  0.00     0.029 A 
ATOM     57  C   UNL     1      -5.041  14.487  -3.846  1.00  0.00     0.049 A 
ATOM     58  H   UNL     1      -3.875  14.627  -2.069  1.00  0.00     0.167 HD
ATOM     59  C   UNL     1      -9.495   9.653  -2.945  1.00  0.00     0.031 A 
ATOM     60  C   UNL     1      -4.283  14.299  -4.962  1.00  0.00     0.031 A 
ATOM     61  C   UNL     1      -9.480  10.492  -4.097  1.00  0.00     0.049 A 
ATOM     62  C   UNL     1      -4.996  13.504  -6.039  1.00  0.00     0.074 A 
ATOM     63  C   UNL     1      -9.991  11.759  -4.306  1.00  0.00     0.029 A 
ATOM     64  N   UNL     1      -8.521  10.261  -5.054  1.00  0.00    -0.354 N 
ATOM     65  N   UNL     1      -6.096  12.834  -5.835  1.00  0.00    -0.248 NA
ATOM     66  C   UNL     1      -4.519  13.360  -7.414  1.00  0.00     0.031 C 
ATOM     67  C   UNL     1      -9.283  12.321  -5.393  1.00  0.00     0.029 A 
ATOM     68  C   UNL     1      -8.398  11.367  -5.862  1.00  0.00     0.049 A 
ATOM     69  H   UNL     1      -8.002   9.429  -5.148  1.00  0.00     0.167 HD
ATOM     70  C   UNL     1      -6.441  12.146  -6.969  1.00  0.00     0.074 A 
ATOM     71  C   UNL     1      -5.440  12.533  -7.941  1.00  0.00     0.031 C 
ATOM     72  C   UNL     1      -7.506  11.295  -6.999  1.00  0.00     0.031 A 
BRANCH  59  73
ATOM     73  C   UNL     1     -10.707   8.902  -2.392  1.00  0.00    -0.014 A 
ATOM     74  C   UNL     1     -11.994   9.432  -2.588  1.00  0.00     0.010 A 
ATOM     75  C   UNL     1     -10.624   7.758  -1.558  1.00  0.00     0.010 A 
ATOM     76  C   UNL     1     -13.110   8.954  -1.880  1.00  0.00     0.020 A 
ATOM     77  C   UNL     1     -11.722   7.309  -0.795  1.00  0.00     0.020 A 
ATOM     78  C   UNL     1     -12.961   7.925  -0.952  1.00  0.00     0.054 A 
BRANCH  78  79
ATOM     79  S   UNL     1     -14.377   7.463   0.091  1.00  0.00     0.124 S 
ATOM     80  O   UNL     1     -14.921   8.760   0.492  1.00  0.00    -0.237 OA
ATOM     81  O   UNL     1     -15.207   6.693  -0.830  1.00  0.00    -0.237 OA
ATOM     82  O   UNL     1     -13.772   6.696   1.179  1.00  0.00    -0.744 OA
ENDBRANCH  78  79
ENDBRANCH  59  73
BRANCH  60  83
ATOM     83  C   UNL     1      -2.809  14.367  -4.755  1.00  0.00    -0.014 A 
ATOM     84  C   UNL     1      -2.268  15.620  -4.397  1.00  0.00     0.010 A 
ATOM     85  C   UNL     1      -2.031  13.215  -4.544  1.00  0.00     0.010 A 
ATOM     86  C   UNL     1      -1.058  15.711  -3.707  1.00  0.00     0.020 A 
ATOM     87  C   UNL     1      -0.800  13.304  -3.865  1.00  0.00     0.020 A 
ATOM     88  C   UNL     1      -0.354  14.547  -3.403  1.00  0.00     0.054 A 
BRANCH  88  89
ATOM     89  S   UNL     1       1.014  14.691  -2.210  1.00  0.00     0.124 S 
ATOM     90  O   UNL     1       1.944  15.579  -2.898  1.00  0.00    -0.237 OA
ATOM     91  O   UNL     1       0.328  15.270  -1.055  1.00  0.00    -0.237 OA
ATOM     92  O   UNL     1       1.462  13.312  -2.043  1.00  0.00    -0.744 OA
ENDBRANCH  88  89
ENDBRANCH  60  83
BRANCH  72  93
ATOM     93  C   UNL     1      -7.868  10.302  -8.079  1.00  0.00    -0.014 A 
ATOM     94  C   UNL     1      -6.963   9.797  -9.019  1.00  0.00     0.010 A 
ATOM     95  C   UNL     1      -9.163   9.716  -8.054  1.00  0.00     0.010 A 
ATOM     96  C   UNL     1      -7.349   8.800  -9.928  1.00  0.00     0.020 A 
ATOM     97  C   UNL     1      -9.539   8.687  -8.915  1.00  0.00     0.020 A 
ATOM     98  C   UNL     1      -8.635   8.256  -9.874  1.00  0.00     0.054 A 
BRANCH  98  99
ATOM     99  S   UNL     1      -9.120   6.946 -11.022  1.00  0.00     0.124 S 
ATOM    100  O   UNL     1      -9.719   7.711 -12.112  1.00  0.00    -0.237 OA
ATOM    101  O   UNL     1      -7.851   6.295 -11.339  1.00  0.00    -0.237 OA
ATOM    102  O   UNL     1     -10.048   6.134 -10.239  1.00  0.00    -0.744 OA
ENDBRANCH  98  99
ENDBRANCH  72  93
ENDBRANCH  46  47
ENDBRANCH  39  41
ENDBRANCH  38  39
ENDBRANCH  37  38
ENDBRANCH  36  37
ENDBRANCH  35  36
ENDBRANCH   1  35
TORSDOF 22
