REMARK SMILES Cc1ccnc(C(=O)c2[nH]c3cc(Cl)c(F)cc3c2CC(=O)OCCOCCOCCOC(=O)c2ccc(-c3c4nc(c(-c5ccc(S(=O)(=O)[O-])cc5)c5ccc([nH]5)c(-c5ccc(S(=O)(=O)[O-])cc5)c5nc(c(-c6ccc(S(=O)(=O)[O-])cc6)c6ccc3[nH]6)C=C5)C=C4)cc2)c1
REMARK SMILES IDX 27 1 26 2 25 3 24 4 23 5 21 6 22 7 20 8 19 9 9 10 10 11
REMARK SMILES IDX 11 12 18 14 12 15 17 16 13 17 15 18 14 19 16 20 7 21 8 22
REMARK SMILES IDX 6 23 1 24 2 25 3 26 95 27 4 28 5 29 28 30 29 31 30 32 31 33
REMARK SMILES IDX 32 34 33 35 34 36 35 37 36 38 94 39 37 40 93 41 38 42 39 43
REMARK SMILES IDX 40 44 87 45 41 46 92 47 86 48 88 49 42 50 91 51 85 52 84 53
REMARK SMILES IDX 43 55 73 56 54 57 72 58 55 59 58 60 71 61 89 62 56 63 57 64
REMARK SMILES IDX 70 66 90 67 59 68 44 69 45 70 53 71 46 72 52 73 47 74 48 75
REMARK SMILES IDX 49 76 50 77 51 78 74 79 75 80 83 81 76 82 82 83 77 84 78 85
REMARK SMILES IDX 79 86 80 87 81 88 60 89 61 90 69 91 62 92 68 93 63 94 64 95
REMARK SMILES IDX 65 96 66 97 67 98
REMARK H PARENT 10 13 88 54 58 65
REMARK Flexibility Score: inf
ROOT
ATOM      1  C   UNL     1      -2.330  -1.770   0.139  1.00  0.00     0.188 C 
ENDROOT
BRANCH   1   2
ATOM      2  O   UNL     1      -3.152  -0.654  -0.242  1.00  0.00    -0.376 OA
BRANCH   2   3
ATOM      3  C   UNL     1      -3.277  -0.555  -1.714  1.00  0.00     0.202 C 
BRANCH   3   4
ATOM      4  C   UNL     1      -4.227  -1.643  -2.252  1.00  0.00     0.261 C 
BRANCH   4   5
ATOM      5  O   UNL     1      -3.679  -2.952  -1.987  1.00  0.00    -0.463 OA
BRANCH   5   6
ATOM      6  C   UNL     1      -2.768  -3.345  -2.881  1.00  0.00     0.310 C 
ATOM      7  O   UNL     1      -2.984  -3.328  -4.097  1.00  0.00    -0.252 OA
BRANCH   6   8
ATOM      8  C   UNL     1      -1.398  -3.636  -2.378  1.00  0.00     0.161 C 
BRANCH   8   9
ATOM      9  C   UNL     1      -0.860  -4.090  -1.056  1.00  0.00     0.000 A 
ATOM     10  C   UNL     1       0.030  -3.416  -0.200  1.00  0.00     0.093 A 
ATOM     11  N   UNL     1       0.580  -4.474   0.567  1.00  0.00    -0.351 N 
ATOM     12  C   UNL     1      -0.070  -5.657   0.453  1.00  0.00     0.048 A 
ATOM     13  H   UNL     1       1.374  -4.357   1.139  1.00  0.00     0.167 HD
ATOM     14  C   UNL     1      -0.950  -5.482  -0.602  1.00  0.00     0.007 A 
ATOM     15  C   UNL     1       0.102  -6.859   1.164  1.00  0.00     0.050 A 
ATOM     16  C   UNL     1      -1.656  -6.625  -1.035  1.00  0.00     0.051 A 
ATOM     17  C   UNL     1      -0.682  -7.943   0.771  1.00  0.00     0.078 A 
ATOM     18  C   UNL     1      -1.530  -7.829  -0.325  1.00  0.00     0.142 A 
ATOM     19  Cl  UNL     1      -0.590  -9.415   1.668  1.00  0.00    -0.081 Cl
ATOM     20  F   UNL     1      -2.267  -8.879  -0.717  1.00  0.00    -0.205 F 
BRANCH  10  21
ATOM     21  C   UNL     1       0.647  -2.080   0.162  1.00  0.00     0.227 C 
ATOM     22  O   UNL     1       1.525  -2.372   0.966  1.00  0.00    -0.285 OA
BRANCH  21  23
ATOM     23  C   UNL     1       0.308  -0.434   0.032  1.00  0.00     0.113 A 
ATOM     24  C   UNL     1      -2.067   2.253   1.416  1.00  0.00     0.044 C 
ATOM     25  C   UNL     1      -0.831   1.704   0.751  1.00  0.00    -0.047 A 
ATOM     26  C   UNL     1       0.095   2.440   0.077  1.00  0.00     0.023 A 
ATOM     27  C   UNL     1      -0.606   0.319   0.800  1.00  0.00     0.036 A 
ATOM     28  C   UNL     1       1.074   1.713  -0.584  1.00  0.00     0.112 A 
ATOM     29  N   UNL     1       1.164   0.332  -0.664  1.00  0.00    -0.253 NA
ENDBRANCH  21  23
ENDBRANCH  10  21
ENDBRANCH   8   9
ENDBRANCH   6   8
ENDBRANCH   5   6
ENDBRANCH   4   5
ENDBRANCH   3   4
ENDBRANCH   2   3
ENDBRANCH   1   2
BRANCH   1  30
ATOM     30  C   UNL     1      -2.060  -2.231   1.670  1.00  0.00     0.188 C 
BRANCH  30  31
ATOM     31  O   UNL     1      -1.171  -1.519   2.601  1.00  0.00    -0.376 OA
BRANCH  31  32
ATOM     32  C   UNL     1       0.123  -1.976   3.102  1.00  0.00     0.202 C 
BRANCH  32  33
ATOM     33  C   UNL     1       1.463  -0.933   3.142  1.00  0.00     0.261 C 
BRANCH  33  34
ATOM     34  O   UNL     1       2.321  -0.580   1.931  1.00  0.00    -0.460 OA
BRANCH  34  35
ATOM     35  C   UNL     1       3.551  -1.181   1.625  1.00  0.00     0.338 C 
ATOM     36  O   UNL     1       4.316  -1.610   2.482  1.00  0.00    -0.246 OA
BRANCH  35  37
ATOM     37  C   UNL     1       3.741  -1.569   0.107  1.00  0.00     0.060 A 
ATOM     38  C   UNL     1       3.573  -0.705  -0.972  1.00  0.00     0.016 A 
ATOM     39  C   UNL     1       3.798  -2.944  -0.231  1.00  0.00     0.016 A 
ATOM     40  C   UNL     1       3.216  -1.197  -2.272  1.00  0.00     0.010 A 
ATOM     41  C   UNL     1       3.449  -3.437  -1.530  1.00  0.00     0.010 A 
ATOM     42  C   UNL     1       3.090  -2.573  -2.568  1.00  0.00    -0.014 A 
BRANCH  42  43
ATOM     43  C   UNL     1       2.932  -3.026  -4.002  1.00  0.00     0.031 A 
ATOM     44  C   UNL     1       3.977  -2.483  -4.870  1.00  0.00     0.074 A 
ATOM     45  C   UNL     1       2.125  -3.886  -4.680  1.00  0.00     0.049 A 
ATOM     46  N   UNL     1       3.816  -1.591  -5.786  1.00  0.00    -0.248 NA
ATOM     47  C   UNL     1       5.350  -2.914  -4.624  1.00  0.00     0.031 C 
ATOM     48  C   UNL     1       1.004  -4.578  -4.118  1.00  0.00     0.029 A 
ATOM     49  N   UNL     1       2.049  -4.321  -5.993  1.00  0.00    -0.354 N 
ATOM     50  C   UNL     1       5.050  -1.494  -6.392  1.00  0.00     0.074 A 
ATOM     51  C   UNL     1       5.989  -2.183  -5.535  1.00  0.00     0.031 C 
ATOM     52  C   UNL     1       0.542  -5.580  -4.897  1.00  0.00     0.029 A 
ATOM     53  C   UNL     1       1.187  -5.410  -6.189  1.00  0.00     0.049 A 
ATOM     54  H   UNL     1       2.556  -3.902  -6.725  1.00  0.00     0.167 HD
ATOM     55  C   UNL     1       5.174  -1.088  -7.680  1.00  0.00     0.031 A 
ATOM     56  C   UNL     1       0.753  -6.043  -7.310  1.00  0.00     0.031 A 
ATOM     57  C   UNL     1       3.987  -0.463  -8.198  1.00  0.00     0.049 A 
ATOM     58  C   UNL     1       0.875  -5.109  -8.439  1.00  0.00     0.074 A 
ATOM     59  C   UNL     1       3.267   0.671  -7.891  1.00  0.00     0.029 A 
ATOM     60  N   UNL     1       3.187  -1.242  -8.996  1.00  0.00    -0.354 N 
ATOM     61  N   UNL     1       0.100  -4.076  -8.613  1.00  0.00    -0.248 NA
ATOM     62  C   UNL     1       2.082  -5.140  -9.245  1.00  0.00     0.031 C 
ATOM     63  C   UNL     1       1.924   0.400  -8.275  1.00  0.00     0.029 A 
ATOM     64  C   UNL     1       1.871  -0.881  -8.828  1.00  0.00     0.049 A 
ATOM     65  H   UNL     1       3.507  -1.952  -9.599  1.00  0.00     0.167 HD
ATOM     66  C   UNL     1       0.919  -3.136  -9.210  1.00  0.00     0.074 A 
ATOM     67  C   UNL     1       2.065  -3.888  -9.704  1.00  0.00     0.031 C 
ATOM     68  C   UNL     1       0.753  -1.804  -8.978  1.00  0.00     0.031 A 
BRANCH  55  69
ATOM     69  C   UNL     1       6.283  -1.592  -8.550  1.00  0.00    -0.014 A 
ATOM     70  C   UNL     1       6.907  -2.837  -8.317  1.00  0.00     0.010 A 
ATOM     71  C   UNL     1       6.603  -0.918  -9.739  1.00  0.00     0.010 A 
ATOM     72  C   UNL     1       7.894  -3.335  -9.159  1.00  0.00     0.020 A 
ATOM     73  C   UNL     1       7.556  -1.438 -10.624  1.00  0.00     0.020 A 
ATOM     74  C   UNL     1       8.217  -2.627 -10.309  1.00  0.00     0.054 A 
BRANCH  74  75
ATOM     75  S   UNL     1       9.478  -3.323 -11.399  1.00  0.00     0.124 S 
ATOM     76  O   UNL     1      10.691  -3.141 -10.606  1.00  0.00    -0.237 OA
ATOM     77  O   UNL     1       9.029  -4.704 -11.556  1.00  0.00    -0.237 OA
ATOM     78  O   UNL     1       9.386  -2.498 -12.600  1.00  0.00    -0.744 OA
ENDBRANCH  74  75
ENDBRANCH  55  69
BRANCH  56  79
ATOM     79  C   UNL     1       0.445  -7.495  -7.474  1.00  0.00    -0.014 A 
ATOM     80  C   UNL     1       0.936  -8.417  -6.528  1.00  0.00     0.010 A 
ATOM     81  C   UNL     1      -0.047  -8.014  -8.691  1.00  0.00     0.010 A 
ATOM     82  C   UNL     1       1.077  -9.774  -6.833  1.00  0.00     0.020 A 
ATOM     83  C   UNL     1       0.093  -9.380  -9.007  1.00  0.00     0.020 A 
ATOM     84  C   UNL     1       0.713 -10.236  -8.096  1.00  0.00     0.054 A 
BRANCH  84  85
ATOM     85  S   UNL     1       1.197 -11.925  -8.557  1.00  0.00     0.124 S 
ATOM     86  O   UNL     1       2.651 -11.810  -8.633  1.00  0.00    -0.237 OA
ATOM     87  O   UNL     1       0.690 -12.720  -7.441  1.00  0.00    -0.237 OA
ATOM     88  O   UNL     1       0.522 -12.145  -9.834  1.00  0.00    -0.744 OA
ENDBRANCH  84  85
ENDBRANCH  56  79
BRANCH  68  89
ATOM     89  C   UNL     1      -0.619  -1.278  -8.608  1.00  0.00    -0.014 A 
ATOM     90  C   UNL     1      -1.116  -0.210  -9.383  1.00  0.00     0.010 A 
ATOM     91  C   UNL     1      -1.351  -1.671  -7.472  1.00  0.00     0.010 A 
ATOM     92  C   UNL     1      -2.263   0.490  -9.004  1.00  0.00     0.020 A 
ATOM     93  C   UNL     1      -2.523  -0.989  -7.100  1.00  0.00     0.020 A 
ATOM     94  C   UNL     1      -2.951   0.110  -7.851  1.00  0.00     0.054 A 
BRANCH  94  95
ATOM     95  S   UNL     1      -4.371   1.115  -7.335  1.00  0.00     0.124 S 
ATOM     96  O   UNL     1      -3.735   2.372  -6.942  1.00  0.00    -0.237 OA
ATOM     97  O   UNL     1      -5.180   1.181  -8.550  1.00  0.00    -0.237 OA
ATOM     98  O   UNL     1      -4.965   0.360  -6.233  1.00  0.00    -0.744 OA
ENDBRANCH  94  95
ENDBRANCH  68  89
ENDBRANCH  42  43
ENDBRANCH  35  37
ENDBRANCH  34  35
ENDBRANCH  33  34
ENDBRANCH  32  33
ENDBRANCH  31  32
ENDBRANCH  30  31
ENDBRANCH   1  30
TORSDOF 23
