REMARK SMILES O=C(OCCOCCOCCOC(=O)c1ccc(-c2c3nc(c(-c4ccc(S(=O)(=O)[O-])cc4)c4ccc([nH]4)c(-c4ccc(S(=O)(=O)[O-])cc4)c4nc(c(-c5ccc(S(=O)(=O)[O-])cc5)c5ccc2[nH]5)C=C4)C=C3)cc1)c1ccc(NC(=O)[C@@H]2CC=CC[C@H]2C(=O)Nc2cccc([N+](=O)[O-])c2)cc1
REMARK SMILES IDX 7 1 6 2 5 3 4 4 3 5 2 6 1 7 75 8 76 9 101 10 77 11 100 12
REMARK SMILES IDX 78 13 79 14 80 15 81 17 82 18 83 19 87 20 84 21 86 22 85 23
REMARK SMILES IDX 88 24 89 25 90 26 91 28 92 29 99 30 93 31 95 32 94 33 96 34
REMARK SMILES IDX 97 35 98 36 8 37 9 38 10 39 11 40 12 41 13 42 14 43 15 44
REMARK SMILES IDX 16 45 74 46 17 47 73 48 18 49 19 50 20 51 67 52 21 53 72 54
REMARK SMILES IDX 66 55 68 56 22 57 71 58 65 59 64 60 23 62 53 63 34 64 52 65
REMARK SMILES IDX 35 66 38 67 51 68 69 69 36 70 37 71 50 73 70 74 39 75 24 76
REMARK SMILES IDX 25 77 33 78 26 79 32 80 27 81 28 82 29 83 30 84 31 85 54 86
REMARK SMILES IDX 55 87 63 88 56 89 62 90 57 91 58 92 59 93 60 94 61 95 40 96
REMARK SMILES IDX 41 97 49 98 42 99 48 100 43 101 44 102 45 103 46 104 47 105
REMARK H PARENT 79 16 90 27 68 61 38 72
REMARK Flexibility Score: inf
ROOT
ATOM      1  C   UNL     1       3.969  10.125  -1.719  1.00  0.00     0.188 C 
ENDROOT
BRANCH   1   2
ATOM      2  O   UNL     1       3.872   8.697  -1.795  1.00  0.00    -0.376 OA
BRANCH   2   3
ATOM      3  C   UNL     1       3.008   8.133  -0.808  1.00  0.00     0.202 C 
BRANCH   3   4
ATOM      4  C   UNL     1       3.626   7.950   0.587  1.00  0.00     0.261 C 
BRANCH   4   5
ATOM      5  O   UNL     1       4.582   8.974   0.913  1.00  0.00    -0.460 OA
BRANCH   5   6
ATOM      6  C   UNL     1       5.914   8.795   1.123  1.00  0.00     0.338 C 
ATOM      7  O   UNL     1       6.562   9.675   1.682  1.00  0.00    -0.246 OA
BRANCH   6   8
ATOM      8  C   UNL     1       6.621   7.564   0.666  1.00  0.00     0.060 A 
ATOM      9  C   UNL     1       6.313   6.936  -0.531  1.00  0.00     0.018 A 
ATOM     10  C   UNL     1       7.730   7.091   1.380  1.00  0.00     0.018 A 
ATOM     11  C   UNL     1       7.027   5.814  -0.955  1.00  0.00     0.027 A 
ATOM     12  C   UNL     1       8.458   5.969   0.929  1.00  0.00     0.027 A 
ATOM     13  C   UNL     1       8.088   5.289  -0.236  1.00  0.00     0.041 A 
BRANCH  13  14
ATOM     14  N   UNL     1       8.863   4.191  -0.665  1.00  0.00    -0.326 N 
ATOM     15  C   UNL     1       8.690   3.192  -1.593  1.00  0.00     0.228 C 
ATOM     16  H   UNL     1       9.724   4.126  -0.192  1.00  0.00     0.169 HD
ATOM     17  O   UNL     1       9.664   2.480  -1.861  1.00  0.00    -0.274 OA
BRANCH  15  18
ATOM     18  C   UNL     1       7.321   2.862  -2.200  1.00  0.00     0.095 C 
ATOM     19  C   UNL     1       6.979   1.392  -1.878  1.00  0.00     0.041 C 
ATOM     20  C   UNL     1       7.276   3.135  -3.721  1.00  0.00     0.095 C 
ATOM     21  C   UNL     1       5.772   0.898  -2.624  1.00  0.00    -0.030 C 
ATOM     22  C   UNL     1       6.439   2.199  -4.615  1.00  0.00     0.041 C 
ATOM     23  C   UNL     1       5.525   1.275  -3.883  1.00  0.00    -0.030 C 
BRANCH  20  24
ATOM     24  C   UNL     1       6.966   4.572  -4.098  1.00  0.00     0.228 C 
ATOM     25  O   UNL     1       7.917   5.317  -4.354  1.00  0.00    -0.274 OA
ATOM     26  N   UNL     1       5.729   5.122  -4.245  1.00  0.00    -0.326 N 
ATOM     27  H   UNL     1       5.755   5.918  -4.824  1.00  0.00     0.169 HD
BRANCH  26  28
ATOM     28  C   UNL     1       4.424   4.858  -3.791  1.00  0.00     0.048 A 
ATOM     29  C   UNL     1       3.385   5.508  -4.470  1.00  0.00     0.026 A 
ATOM     30  C   UNL     1       4.103   4.142  -2.646  1.00  0.00     0.111 A 
ATOM     31  C   UNL     1       2.061   5.449  -4.018  1.00  0.00     0.009 A 
ATOM     32  C   UNL     1       2.788   4.128  -2.154  1.00  0.00     0.271 A 
ATOM     33  C   UNL     1       1.758   4.770  -2.843  1.00  0.00     0.086 A 
BRANCH  32  34
ATOM     34  N   UNL     1       2.517   3.514  -0.848  1.00  0.00     0.062 N 
ATOM     35  O   UNL     1       1.427   3.768  -0.313  1.00  0.00    -0.258 OA
ATOM     36  O   UNL     1       3.400   2.809  -0.343  1.00  0.00    -0.258 OA
ENDBRANCH  32  34
ENDBRANCH  26  28
ENDBRANCH  20  24
ENDBRANCH  15  18
ENDBRANCH  13  14
ENDBRANCH   6   8
ENDBRANCH   5   6
ENDBRANCH   4   5
ENDBRANCH   3   4
ENDBRANCH   2   3
ENDBRANCH   1   2
BRANCH   1  37
ATOM     37  C   UNL     1       4.195  10.730  -3.106  1.00  0.00     0.188 C 
BRANCH  37  38
ATOM     38  O   UNL     1       3.051  10.642  -3.958  1.00  0.00    -0.376 OA
BRANCH  38  39
ATOM     39  C   UNL     1       2.825   9.371  -4.570  1.00  0.00     0.202 C 
BRANCH  39  40
ATOM     40  C   UNL     1       3.764   9.061  -5.741  1.00  0.00     0.261 C 
BRANCH  40  41
ATOM     41  O   UNL     1       5.072   8.641  -5.291  1.00  0.00    -0.460 OA
BRANCH  41  42
ATOM     42  C   UNL     1       6.106   9.333  -5.830  1.00  0.00     0.338 C 
ATOM     43  O   UNL     1       6.040  10.224  -6.667  1.00  0.00    -0.246 OA
BRANCH  42  44
ATOM     44  C   UNL     1       7.388   8.885  -5.268  1.00  0.00     0.060 A 
ATOM     45  C   UNL     1       7.967   9.583  -4.203  1.00  0.00     0.016 A 
ATOM     46  C   UNL     1       8.098   7.878  -5.919  1.00  0.00     0.016 A 
ATOM     47  C   UNL     1       9.281   9.294  -3.812  1.00  0.00     0.010 A 
ATOM     48  C   UNL     1       9.398   7.572  -5.502  1.00  0.00     0.010 A 
ATOM     49  C   UNL     1      10.021   8.301  -4.473  1.00  0.00    -0.014 A 
BRANCH  49  50
ATOM     50  C   UNL     1      11.474   8.103  -4.197  1.00  0.00     0.031 A 
ATOM     51  C   UNL     1      12.484   8.438  -5.271  1.00  0.00     0.074 A 
ATOM     52  C   UNL     1      11.912   7.628  -3.014  1.00  0.00     0.049 A 
ATOM     53  N   UNL     1      13.784   8.280  -5.268  1.00  0.00    -0.248 NA
ATOM     54  C   UNL     1      11.958   9.018  -6.519  1.00  0.00     0.031 C 
ATOM     55  C   UNL     1      11.067   7.267  -1.876  1.00  0.00     0.029 A 
ATOM     56  N   UNL     1      13.190   7.362  -2.577  1.00  0.00    -0.354 N 
ATOM     57  C   UNL     1      14.223   8.708  -6.516  1.00  0.00     0.074 A 
ATOM     58  C   UNL     1      13.050   9.104  -7.263  1.00  0.00     0.031 C 
ATOM     59  C   UNL     1      11.849   6.837  -0.870  1.00  0.00     0.029 A 
ATOM     60  C   UNL     1      13.245   6.848  -1.302  1.00  0.00     0.049 A 
ATOM     61  H   UNL     1      13.990   7.524  -3.126  1.00  0.00     0.167 HD
ATOM     62  C   UNL     1      15.487   8.785  -7.000  1.00  0.00     0.031 A 
ATOM     63  C   UNL     1      14.292   6.418  -0.570  1.00  0.00     0.031 A 
ATOM     64  C   UNL     1      16.667   8.428  -6.260  1.00  0.00     0.049 A 
ATOM     65  C   UNL     1      15.687   6.484  -1.139  1.00  0.00     0.074 A 
ATOM     66  C   UNL     1      17.990   8.526  -6.657  1.00  0.00     0.029 A 
ATOM     67  N   UNL     1      16.672   7.908  -4.976  1.00  0.00    -0.354 N 
ATOM     68  N   UNL     1      16.082   6.935  -2.304  1.00  0.00    -0.248 NA
ATOM     69  C   UNL     1      16.778   5.989  -0.285  1.00  0.00     0.031 C 
ATOM     70  C   UNL     1      18.794   8.022  -5.630  1.00  0.00     0.029 A 
ATOM     71  C   UNL     1      17.974   7.659  -4.574  1.00  0.00     0.049 A 
ATOM     72  H   UNL     1      15.870   7.740  -4.431  1.00  0.00     0.167 HD
ATOM     73  C   UNL     1      17.468   6.802  -2.312  1.00  0.00     0.074 A 
ATOM     74  C   UNL     1      17.845   6.245  -1.031  1.00  0.00     0.031 C 
ATOM     75  C   UNL     1      18.347   7.114  -3.295  1.00  0.00     0.031 A 
BRANCH  62  76
ATOM     76  C   UNL     1      15.664   9.273  -8.413  1.00  0.00    -0.014 A 
ATOM     77  C   UNL     1      15.482  10.627  -8.742  1.00  0.00     0.010 A 
ATOM     78  C   UNL     1      16.076   8.372  -9.412  1.00  0.00     0.010 A 
ATOM     79  C   UNL     1      15.678  11.067 -10.054  1.00  0.00     0.020 A 
ATOM     80  C   UNL     1      16.298   8.813 -10.720  1.00  0.00     0.020 A 
ATOM     81  C   UNL     1      16.084  10.157 -11.035  1.00  0.00     0.054 A 
BRANCH  81  82
ATOM     82  S   UNL     1      16.369  10.764 -12.720  1.00  0.00     0.124 S 
ATOM     83  O   UNL     1      15.005  10.979 -13.197  1.00  0.00    -0.237 OA
ATOM     84  O   UNL     1      17.154  11.975 -12.497  1.00  0.00    -0.237 OA
ATOM     85  O   UNL     1      17.088   9.669 -13.367  1.00  0.00    -0.744 OA
ENDBRANCH  81  82
ENDBRANCH  62  76
BRANCH  63  86
ATOM     86  C   UNL     1      14.072   5.861   0.794  1.00  0.00    -0.014 A 
ATOM     87  C   UNL     1      14.505   6.564   1.933  1.00  0.00     0.010 A 
ATOM     88  C   UNL     1      13.461   4.604   0.957  1.00  0.00     0.010 A 
ATOM     89  C   UNL     1      14.357   6.009   3.207  1.00  0.00     0.020 A 
ATOM     90  C   UNL     1      13.286   4.058   2.232  1.00  0.00     0.020 A 
ATOM     91  C   UNL     1      13.750   4.758   3.348  1.00  0.00     0.054 A 
BRANCH  91  92
ATOM     92  S   UNL     1      13.533   4.069   5.013  1.00  0.00     0.124 S 
ATOM     93  O   UNL     1      14.878   3.598   5.325  1.00  0.00    -0.237 OA
ATOM     94  O   UNL     1      13.072   5.226   5.777  1.00  0.00    -0.237 OA
ATOM     95  O   UNL     1      12.529   3.025   4.818  1.00  0.00    -0.744 OA
ENDBRANCH  91  92
ENDBRANCH  63  86
BRANCH  75  96
ATOM     96  C   UNL     1      19.813   6.900  -3.021  1.00  0.00    -0.014 A 
ATOM     97  C   UNL     1      20.368   5.609  -2.984  1.00  0.00     0.010 A 
ATOM     98  C   UNL     1      20.659   8.013  -2.862  1.00  0.00     0.010 A 
ATOM     99  C   UNL     1      21.738   5.434  -2.764  1.00  0.00     0.020 A 
ATOM    100  C   UNL     1      22.033   7.843  -2.668  1.00  0.00     0.020 A 
ATOM    101  C   UNL     1      22.562   6.553  -2.607  1.00  0.00     0.054 A 
BRANCH 101 102
ATOM    102  S   UNL     1      24.344   6.302  -2.372  1.00  0.00     0.124 S 
ATOM    103  O   UNL     1      24.407   5.848  -0.986  1.00  0.00    -0.237 OA
ATOM    104  O   UNL     1      24.663   5.293  -3.379  1.00  0.00    -0.237 OA
ATOM    105  O   UNL     1      24.916   7.623  -2.622  1.00  0.00    -0.744 OA
ENDBRANCH 101 102
ENDBRANCH  75  96
ENDBRANCH  49  50
ENDBRANCH  42  44
ENDBRANCH  41  42
ENDBRANCH  40  41
ENDBRANCH  39  40
ENDBRANCH  38  39
ENDBRANCH  37  38
ENDBRANCH   1  37
TORSDOF 25
