REMARK SMILES CC(=O)Oc1ccc([C@H]2Nc3c(C(=O)OCCOCCOCCOC(=O)c4ccc(-c5c6nc(c(-c7ccc(S(=O)(=O)[O-])cc7)c7ccc([nH]7)c(-c7ccc(S(=O)(=O)[O-])cc7)c7nc(c(-c8ccc(S(=O)(=O)[O-])cc8)c8ccc5[nH]8)C=C7)C=C6)cc4)ccc([N+](=O)[O-])c3[C@H]3C=CC[C@@H]32)cc1
REMARK SMILES IDX 19 1 18 2 17 3 16 4 15 5 13 6 14 7 12 8 9 9 10 10 98 11
REMARK SMILES IDX 11 12 94 14 97 15 93 16 95 17 96 18 87 19 89 20 88 21 8 22
REMARK SMILES IDX 5 23 6 24 100 25 7 26 99 27 4 28 2 29 1 30 3 31 90 32 91 33
REMARK SMILES IDX 92 34 20 35 21 36 22 37 23 38 24 39 25 40 26 41 27 42 28 43
REMARK SMILES IDX 86 44 29 45 85 46 30 47 31 48 32 49 79 50 33 51 84 52 78 53
REMARK SMILES IDX 80 54 34 55 83 56 77 57 76 58 35 60 65 61 46 62 64 63 47 64
REMARK SMILES IDX 50 65 63 66 81 67 48 68 49 69 62 71 82 72 51 73 36 74 37 75
REMARK SMILES IDX 45 76 38 77 44 78 39 79 40 80 41 81 42 82 43 83 66 84 67 85
REMARK SMILES IDX 75 86 68 87 74 88 69 89 70 90 71 91 72 92 73 93 52 94 53 95
REMARK SMILES IDX 61 96 54 97 60 98 55 99 56 100 57 101 58 102 59 103
REMARK H PARENT 10 13 80 59 50 70
REMARK Flexibility Score: inf
ROOT
ATOM      1  C   UNL     1       1.757 -11.644  -3.643  1.00  0.00     0.188 C 
ENDROOT
BRANCH   1   2
ATOM      2  O   UNL     1       2.236 -12.794  -2.985  1.00  0.00    -0.376 OA
BRANCH   2   3
ATOM      3  C   UNL     1       1.434 -13.952  -2.897  1.00  0.00     0.202 C 
BRANCH   3   4
ATOM      4  C   UNL     1      -0.100 -13.930  -2.964  1.00  0.00     0.261 C 
BRANCH   4   5
ATOM      5  O   UNL     1      -0.723 -12.929  -3.775  1.00  0.00    -0.460 OA
BRANCH   5   6
ATOM      6  C   UNL     1      -1.358 -11.869  -3.177  1.00  0.00     0.340 C 
ATOM      7  O   UNL     1      -1.312 -11.551  -2.013  1.00  0.00    -0.246 OA
BRANCH   6   8
ATOM      8  C   UNL     1      -2.203 -11.248  -4.238  1.00  0.00     0.084 A 
ATOM      9  C   UNL     1      -1.642  -7.439  -4.620  1.00  0.00     0.114 C 
ATOM     10  N   UNL     1      -1.488  -8.813  -4.038  1.00  0.00    -0.377 N 
ATOM     11  C   UNL     1      -3.089  -7.321  -5.060  1.00  0.00     0.031 C 
ATOM     12  C   UNL     1      -2.238  -9.883  -4.649  1.00  0.00     0.060 A 
ATOM     13  H   UNL     1      -0.897  -8.978  -3.268  1.00  0.00     0.161 HD
ATOM     14  C   UNL     1      -3.062  -8.164  -6.331  1.00  0.00     0.056 C 
ATOM     15  C   UNL     1      -3.787  -6.005  -5.375  1.00  0.00     0.034 C 
ATOM     16  C   UNL     1      -3.080  -9.582  -5.803  1.00  0.00     0.061 A 
ATOM     17  C   UNL     1      -4.095  -7.497  -7.165  1.00  0.00    -0.022 C 
ATOM     18  C   UNL     1      -4.462  -6.312  -6.666  1.00  0.00    -0.030 C 
ATOM     19  C   UNL     1      -3.033 -12.217  -4.860  1.00  0.00     0.025 A 
ATOM     20  C   UNL     1      -3.870 -10.592  -6.379  1.00  0.00     0.275 A 
ATOM     21  C   UNL     1      -3.865 -11.898  -5.915  1.00  0.00     0.087 A 
BRANCH   9  22
ATOM     22  C   UNL     1      -1.153  -6.155  -3.977  1.00  0.00    -0.025 A 
ATOM     23  C   UNL     1      -0.272  -3.615  -3.112  1.00  0.00     0.130 A 
ATOM     24  C   UNL     1       0.255  -4.157  -4.273  1.00  0.00     0.047 A 
ATOM     25  C   UNL     1      -1.336  -4.252  -2.470  1.00  0.00     0.047 A 
ATOM     26  C   UNL     1      -0.182  -5.406  -4.697  1.00  0.00     0.010 A 
ATOM     27  C   UNL     1      -1.761  -5.529  -2.886  1.00  0.00     0.010 A 
BRANCH  23  28
ATOM     28  O   UNL     1       0.484  -2.530  -2.607  1.00  0.00    -0.427 OA
BRANCH  28  29
ATOM     29  C   UNL     1       0.393  -2.216  -1.260  1.00  0.00     0.308 C 
ATOM     30  C   UNL     1       1.801  -1.963  -0.488  1.00  0.00     0.139 C 
ATOM     31  O   UNL     1      -0.737  -1.970  -0.838  1.00  0.00    -0.252 OA
ENDBRANCH  28  29
ENDBRANCH  23  28
ENDBRANCH   9  22
BRANCH  20  32
ATOM     32  N   UNL     1      -4.787 -10.319  -7.460  1.00  0.00     0.063 N 
ATOM     33  O   UNL     1      -5.964 -10.094  -7.151  1.00  0.00    -0.258 OA
ATOM     34  O   UNL     1      -4.333 -10.383  -8.610  1.00  0.00    -0.258 OA
ENDBRANCH  20  32
ENDBRANCH   6   8
ENDBRANCH   5   6
ENDBRANCH   4   5
ENDBRANCH   3   4
ENDBRANCH   2   3
ENDBRANCH   1   2
BRANCH   1  35
ATOM     35  C   UNL     1       1.473 -11.697  -5.163  1.00  0.00     0.188 C 
BRANCH  35  36
ATOM     36  O   UNL     1       1.879 -12.819  -5.920  1.00  0.00    -0.376 OA
BRANCH  36  37
ATOM     37  C   UNL     1       3.236 -13.223  -5.856  1.00  0.00     0.202 C 
BRANCH  37  38
ATOM     38  C   UNL     1       4.396 -12.205  -5.857  1.00  0.00     0.261 C 
BRANCH  38  39
ATOM     39  O   UNL     1       4.271 -11.084  -4.962  1.00  0.00    -0.460 OA
BRANCH  39  40
ATOM     40  C   UNL     1       4.186  -9.856  -5.539  1.00  0.00     0.338 C 
ATOM     41  O   UNL     1       4.245  -9.603  -6.730  1.00  0.00    -0.246 OA
BRANCH  40  42
ATOM     42  C   UNL     1       3.802  -8.843  -4.526  1.00  0.00     0.060 A 
ATOM     43  C   UNL     1       2.478  -8.405  -4.492  1.00  0.00     0.016 A 
ATOM     44  C   UNL     1       4.724  -8.295  -3.634  1.00  0.00     0.016 A 
ATOM     45  C   UNL     1       2.082  -7.443  -3.565  1.00  0.00     0.010 A 
ATOM     46  C   UNL     1       4.325  -7.258  -2.765  1.00  0.00     0.010 A 
ATOM     47  C   UNL     1       3.001  -6.784  -2.755  1.00  0.00    -0.014 A 
BRANCH  47  48
ATOM     48  C   UNL     1       2.618  -5.505  -2.067  1.00  0.00     0.031 A 
ATOM     49  C   UNL     1       3.176  -4.194  -2.768  1.00  0.00     0.074 A 
ATOM     50  C   UNL     1       1.719  -5.503  -1.021  1.00  0.00     0.049 A 
ATOM     51  N   UNL     1       2.828  -2.958  -2.559  1.00  0.00    -0.248 NA
ATOM     52  C   UNL     1       4.114  -4.232  -3.902  1.00  0.00     0.031 C 
ATOM     53  C   UNL     1       0.839  -6.582  -0.552  1.00  0.00     0.029 A 
ATOM     54  N   UNL     1       1.376  -4.497  -0.123  1.00  0.00    -0.354 N 
ATOM     55  C   UNL     1       3.455  -2.047  -3.385  1.00  0.00     0.074 A 
ATOM     56  C   UNL     1       4.252  -2.936  -4.232  1.00  0.00     0.031 C 
ATOM     57  C   UNL     1       0.000  -6.120   0.413  1.00  0.00     0.029 A 
ATOM     58  C   UNL     1       0.273  -4.697   0.725  1.00  0.00     0.049 A 
ATOM     59  H   UNL     1       1.895  -3.661  -0.083  1.00  0.00     0.167 HD
ATOM     60  C   UNL     1       3.394  -0.658  -3.397  1.00  0.00     0.031 A 
ATOM     61  C   UNL     1      -0.451  -3.882   1.598  1.00  0.00     0.031 A 
ATOM     62  C   UNL     1       2.728   0.303  -2.429  1.00  0.00     0.049 A 
ATOM     63  C   UNL     1      -0.430  -2.266   1.770  1.00  0.00     0.074 A 
ATOM     64  C   UNL     1       3.121   1.585  -2.026  1.00  0.00     0.029 A 
ATOM     65  N   UNL     1       1.420   0.286  -1.874  1.00  0.00    -0.354 N 
ATOM     66  N   UNL     1       0.449  -1.406   1.323  1.00  0.00    -0.248 NA
ATOM     67  C   UNL     1      -1.516  -1.504   2.424  1.00  0.00     0.031 C 
ATOM     68  C   UNL     1       2.298   2.032  -0.946  1.00  0.00     0.029 A 
ATOM     69  C   UNL     1       1.345   1.058  -0.665  1.00  0.00     0.049 A 
ATOM     70  H   UNL     1       0.658  -0.197  -2.269  1.00  0.00     0.167 HD
ATOM     71  C   UNL     1      -0.070  -0.122   1.237  1.00  0.00     0.074 A 
ATOM     72  C   UNL     1      -1.239  -0.225   2.105  1.00  0.00     0.031 C 
ATOM     73  C   UNL     1       0.332   0.967   0.464  1.00  0.00     0.031 A 
BRANCH  60  74
ATOM     74  C   UNL     1       4.333  -0.041  -4.417  1.00  0.00    -0.014 A 
ATOM     75  C   UNL     1       4.030  -0.070  -5.790  1.00  0.00     0.010 A 
ATOM     76  C   UNL     1       5.543   0.554  -4.006  1.00  0.00     0.010 A 
ATOM     77  C   UNL     1       4.917   0.474  -6.726  1.00  0.00     0.020 A 
ATOM     78  C   UNL     1       6.416   1.133  -4.935  1.00  0.00     0.020 A 
ATOM     79  C   UNL     1       6.102   1.078  -6.293  1.00  0.00     0.054 A 
BRANCH  79  80
ATOM     80  S   UNL     1       7.209   1.814  -7.530  1.00  0.00     0.124 S 
ATOM     81  O   UNL     1       7.748   0.630  -8.195  1.00  0.00    -0.237 OA
ATOM     82  O   UNL     1       6.296   2.623  -8.333  1.00  0.00    -0.237 OA
ATOM     83  O   UNL     1       8.170   2.571  -6.731  1.00  0.00    -0.744 OA
ENDBRANCH  79  80
ENDBRANCH  60  74
BRANCH  61  84
ATOM     84  C   UNL     1      -1.457  -4.590   2.467  1.00  0.00    -0.014 A 
ATOM     85  C   UNL     1      -2.845  -4.382   2.365  1.00  0.00     0.010 A 
ATOM     86  C   UNL     1      -0.986  -5.488   3.446  1.00  0.00     0.010 A 
ATOM     87  C   UNL     1      -3.729  -5.006   3.259  1.00  0.00     0.020 A 
ATOM     88  C   UNL     1      -1.865  -6.146   4.309  1.00  0.00     0.020 A 
ATOM     89  C   UNL     1      -3.231  -5.880   4.230  1.00  0.00     0.054 A 
BRANCH  89  90
ATOM     90  S   UNL     1      -4.383  -6.683   5.382  1.00  0.00     0.124 S 
ATOM     91  O   UNL     1      -4.776  -5.573   6.244  1.00  0.00    -0.237 OA
ATOM     92  O   UNL     1      -5.422  -7.191   4.489  1.00  0.00    -0.237 OA
ATOM     93  O   UNL     1      -3.566  -7.712   6.022  1.00  0.00    -0.744 OA
ENDBRANCH  89  90
ENDBRANCH  61  84
BRANCH  73  94
ATOM     94  C   UNL     1      -0.124   2.283   1.049  1.00  0.00    -0.014 A 
ATOM     95  C   UNL     1       0.244   2.615   2.373  1.00  0.00     0.010 A 
ATOM     96  C   UNL     1      -0.820   3.228   0.285  1.00  0.00     0.010 A 
ATOM     97  C   UNL     1      -0.143   3.825   2.946  1.00  0.00     0.020 A 
ATOM     98  C   UNL     1      -1.195   4.454   0.850  1.00  0.00     0.020 A 
ATOM     99  C   UNL     1      -0.873   4.735   2.183  1.00  0.00     0.054 A 
BRANCH  99 100
ATOM    100  S   UNL     1      -1.375   6.296   2.957  1.00  0.00     0.124 S 
ATOM    101  O   UNL     1      -2.372   5.849   3.927  1.00  0.00    -0.237 OA
ATOM    102  O   UNL     1      -0.123   6.788   3.525  1.00  0.00    -0.237 OA
ATOM    103  O   UNL     1      -1.900   7.082   1.843  1.00  0.00    -0.744 OA
ENDBRANCH  99 100
ENDBRANCH  73  94
ENDBRANCH  47  48
ENDBRANCH  40  42
ENDBRANCH  39  40
ENDBRANCH  38  39
ENDBRANCH  37  38
ENDBRANCH  36  37
ENDBRANCH  35  36
ENDBRANCH   1  35
TORSDOF 24
