REMARK SMILES Cc1ccc(C(=O)OCCOCCOCCOC(=O)c2ccc(-c3c4nc(c(-c5ccc(S(=O)(=O)[O-])cc5)c5ccc([nH]5)c(-c5ccc(S(=O)(=O)[O-])cc5)c5nc(c(-c6ccc(S(=O)(=O)[O-])cc6)c6ccc3[nH]6)C=C5)C=C4)cc2)cc1NC(=O)Cc1ccc2ccccc2c1
REMARK SMILES IDX 12 1 11 2 10 3 9 4 8 5 6 6 7 7 5 8 1 9 2 10 3 11 81 12 4 13
REMARK SMILES IDX 80 14 82 15 83 16 84 18 85 19 86 20 87 21 95 22 88 23 94 24
REMARK SMILES IDX 89 25 93 26 90 27 92 28 91 29 13 30 14 31 15 32 16 33 17 34
REMARK SMILES IDX 18 35 19 36 20 37 21 38 79 39 22 40 78 41 23 42 24 43 25 44
REMARK SMILES IDX 72 45 26 46 77 47 71 48 73 49 27 50 76 51 70 52 69 53 28 55
REMARK SMILES IDX 58 56 39 57 57 58 40 59 43 60 56 61 74 62 41 63 42 64 55 66
REMARK SMILES IDX 75 67 44 68 29 69 30 70 38 71 31 72 37 73 32 74 33 75 34 76
REMARK SMILES IDX 35 77 36 78 59 79 60 80 68 81 61 82 67 83 62 84 63 85 64 86
REMARK SMILES IDX 65 87 66 88 45 89 46 90 54 91 47 92 53 93 48 94 49 95 50 96
REMARK SMILES IDX 51 97 52 98
REMARK H PARENT 82 17 73 54 43 65
REMARK Flexibility Score: inf
ROOT
ATOM      1  C   UNL     1      -6.311  -0.237  -1.784  1.00  0.00     0.188 C 
ENDROOT
BRANCH   1   2
ATOM      2  O   UNL     1      -6.854   0.683  -0.824  1.00  0.00    -0.376 OA
BRANCH   2   3
ATOM      3  C   UNL     1      -6.521   2.095  -0.821  1.00  0.00     0.202 C 
BRANCH   3   4
ATOM      4  C   UNL     1      -5.667   2.861   0.356  1.00  0.00     0.261 C 
BRANCH   4   5
ATOM      5  O   UNL     1      -4.126   3.245   0.230  1.00  0.00    -0.460 OA
BRANCH   5   6
ATOM      6  C   UNL     1      -3.376   2.136  -0.027  1.00  0.00     0.338 C 
ATOM      7  O   UNL     1      -4.194   1.269  -0.289  1.00  0.00    -0.246 OA
BRANCH   6   8
ATOM      8  C   UNL     1      -1.655   1.745  -0.070  1.00  0.00     0.062 A 
ATOM      9  C   UNL     1       2.689   0.647  -0.137  1.00  0.00     0.046 C 
ATOM     10  C   UNL     1       1.248   1.055  -0.213  1.00  0.00    -0.027 A 
ATOM     11  C   UNL     1       0.354   0.138   0.249  1.00  0.00     0.006 A 
ATOM     12  C   UNL     1       0.678   2.237  -0.707  1.00  0.00     0.044 A 
ATOM     13  C   UNL     1      -0.991   0.524   0.352  1.00  0.00     0.016 A 
ATOM     14  C   UNL     1      -0.754   2.361  -0.883  1.00  0.00     0.042 A 
BRANCH  12  15
ATOM     15  N   UNL     1       1.500   3.398  -0.748  1.00  0.00    -0.326 N 
ATOM     16  C   UNL     1       1.084   4.728  -0.594  1.00  0.00     0.228 C 
ATOM     17  H   UNL     1       2.461   3.251  -0.901  1.00  0.00     0.169 HD
ATOM     18  O   UNL     1       1.908   5.622  -0.437  1.00  0.00    -0.274 OA
BRANCH  16  19
ATOM     19  C   UNL     1      -0.393   4.911  -0.627  1.00  0.00     0.135 C 
BRANCH  19  20
ATOM     20  C   UNL     1      -1.281   6.081  -0.559  1.00  0.00    -0.038 A 
ATOM     21  C   UNL     1      -2.622   5.827  -0.942  1.00  0.00     0.005 A 
ATOM     22  C   UNL     1      -0.914   7.301  -0.051  1.00  0.00     0.013 A 
ATOM     23  C   UNL     1      -3.578   6.818  -0.904  1.00  0.00     0.009 A 
ATOM     24  C   UNL     1      -1.882   8.296   0.032  1.00  0.00    -0.018 A 
ATOM     25  C   UNL     1      -3.207   8.070  -0.439  1.00  0.00    -0.018 A 
ATOM     26  C   UNL     1      -1.561   9.511   0.621  1.00  0.00     0.009 A 
ATOM     27  C   UNL     1      -4.145   9.097  -0.392  1.00  0.00     0.009 A 
ATOM     28  C   UNL     1      -2.529  10.504   0.726  1.00  0.00     0.001 A 
ATOM     29  C   UNL     1      -3.805  10.309   0.198  1.00  0.00     0.001 A 
ENDBRANCH  19  20
ENDBRANCH  16  19
ENDBRANCH  12  15
ENDBRANCH   6   8
ENDBRANCH   5   6
ENDBRANCH   4   5
ENDBRANCH   3   4
ENDBRANCH   2   3
ENDBRANCH   1   2
BRANCH   1  30
ATOM     30  C   UNL     1      -6.194   0.052  -3.274  1.00  0.00     0.188 C 
BRANCH  30  31
ATOM     31  O   UNL     1      -5.411   1.214  -3.494  1.00  0.00    -0.376 OA
BRANCH  31  32
ATOM     32  C   UNL     1      -5.415   1.679  -4.830  1.00  0.00     0.202 C 
BRANCH  32  33
ATOM     33  C   UNL     1      -4.803   0.708  -5.866  1.00  0.00     0.261 C 
BRANCH  33  34
ATOM     34  O   UNL     1      -3.347   0.638  -5.833  1.00  0.00    -0.460 OA
BRANCH  34  35
ATOM     35  C   UNL     1      -2.710  -0.551  -5.511  1.00  0.00     0.338 C 
ATOM     36  O   UNL     1      -2.217  -1.271  -6.384  1.00  0.00    -0.246 OA
BRANCH  35  37
ATOM     37  C   UNL     1      -2.456  -0.677  -4.036  1.00  0.00     0.060 A 
ATOM     38  C   UNL     1      -2.154  -1.763  -3.199  1.00  0.00     0.016 A 
ATOM     39  C   UNL     1      -2.580   0.478  -3.372  1.00  0.00     0.016 A 
ATOM     40  C   UNL     1      -2.364  -1.760  -1.722  1.00  0.00     0.010 A 
ATOM     41  C   UNL     1      -2.938   0.394  -2.031  1.00  0.00     0.010 A 
ATOM     42  C   UNL     1      -2.926  -0.687  -1.040  1.00  0.00    -0.014 A 
BRANCH  42  43
ATOM     43  C   UNL     1      -3.522  -0.640   0.670  1.00  0.00     0.031 A 
ATOM     44  C   UNL     1      -3.301   0.557   1.994  1.00  0.00     0.074 A 
ATOM     45  C   UNL     1      -4.748  -1.194   0.832  1.00  0.00     0.049 A 
ATOM     46  N   UNL     1      -4.294   1.245   2.510  1.00  0.00    -0.248 NA
ATOM     47  C   UNL     1      -2.057   1.186   2.622  1.00  0.00     0.031 C 
ATOM     48  C   UNL     1      -5.822  -0.884   1.786  1.00  0.00     0.029 A 
ATOM     49  N   UNL     1      -5.178  -2.381   0.271  1.00  0.00    -0.354 N 
ATOM     50  C   UNL     1      -3.864   2.385   3.187  1.00  0.00     0.074 A 
ATOM     51  C   UNL     1      -2.440   2.385   3.102  1.00  0.00     0.031 C 
ATOM     52  C   UNL     1      -6.540  -1.990   2.021  1.00  0.00     0.029 A 
ATOM     53  C   UNL     1      -5.870  -3.047   1.300  1.00  0.00     0.049 A 
ATOM     54  H   UNL     1      -5.032  -2.694  -0.651  1.00  0.00     0.167 HD
ATOM     55  C   UNL     1      -4.614   3.002   4.145  1.00  0.00     0.031 A 
ATOM     56  C   UNL     1      -5.221  -4.108   1.853  1.00  0.00     0.031 A 
ATOM     57  C   UNL     1      -5.370   1.968   4.816  1.00  0.00     0.049 A 
ATOM     58  C   UNL     1      -4.807  -3.753   3.275  1.00  0.00     0.074 A 
ATOM     59  C   UNL     1      -6.658   1.488   4.748  1.00  0.00     0.029 A 
ATOM     60  N   UNL     1      -4.603   0.977   5.419  1.00  0.00    -0.354 N 
ATOM     61  N   UNL     1      -4.604  -2.531   3.716  1.00  0.00    -0.248 NA
ATOM     62  C   UNL     1      -4.797  -4.732   4.357  1.00  0.00     0.031 C 
ATOM     63  C   UNL     1      -6.588   0.099   5.097  1.00  0.00     0.029 A 
ATOM     64  C   UNL     1      -5.277  -0.225   5.431  1.00  0.00     0.049 A 
ATOM     65  H   UNL     1      -3.701   1.116   5.788  1.00  0.00     0.167 HD
ATOM     66  C   UNL     1      -4.572  -2.535   5.085  1.00  0.00     0.074 A 
ATOM     67  C   UNL     1      -4.637  -3.945   5.436  1.00  0.00     0.031 C 
ATOM     68  C   UNL     1      -4.589  -1.429   5.891  1.00  0.00     0.031 A 
BRANCH  55  69
ATOM     69  C   UNL     1      -4.602   4.481   4.506  1.00  0.00    -0.014 A 
ATOM     70  C   UNL     1      -5.471   4.967   5.511  1.00  0.00     0.010 A 
ATOM     71  C   UNL     1      -3.903   5.469   3.771  1.00  0.00     0.010 A 
ATOM     72  C   UNL     1      -5.657   6.346   5.753  1.00  0.00     0.020 A 
ATOM     73  C   UNL     1      -4.069   6.857   4.017  1.00  0.00     0.020 A 
ATOM     74  C   UNL     1      -4.962   7.288   4.997  1.00  0.00     0.054 A 
BRANCH  74  75
ATOM     75  S   UNL     1      -5.288   9.061   5.286  1.00  0.00     0.124 S 
ATOM     76  O   UNL     1      -6.695   9.190   4.910  1.00  0.00    -0.237 OA
ATOM     77  O   UNL     1      -5.010   9.212   6.712  1.00  0.00    -0.237 OA
ATOM     78  O   UNL     1      -4.349   9.748   4.402  1.00  0.00    -0.744 OA
ENDBRANCH  74  75
ENDBRANCH  55  69
BRANCH  56  79
ATOM     79  C   UNL     1      -4.575  -4.899   0.732  1.00  0.00    -0.014 A 
ATOM     80  C   UNL     1      -5.492  -5.313  -0.284  1.00  0.00     0.010 A 
ATOM     81  C   UNL     1      -3.225  -4.776   0.356  1.00  0.00     0.010 A 
ATOM     82  C   UNL     1      -5.130  -5.373  -1.635  1.00  0.00     0.020 A 
ATOM     83  C   UNL     1      -2.839  -4.951  -1.001  1.00  0.00     0.020 A 
ATOM     84  C   UNL     1      -3.808  -5.156  -1.994  1.00  0.00     0.054 A 
BRANCH  84  85
ATOM     85  S   UNL     1      -3.441  -5.011  -3.776  1.00  0.00     0.124 S 
ATOM     86  O   UNL     1      -3.995  -6.246  -4.320  1.00  0.00    -0.237 OA
ATOM     87  O   UNL     1      -4.166  -3.795  -4.146  1.00  0.00    -0.237 OA
ATOM     88  O   UNL     1      -1.984  -4.921  -3.814  1.00  0.00    -0.744 OA
ENDBRANCH  84  85
ENDBRANCH  56  79
BRANCH  68  89
ATOM     89  C   UNL     1      -3.928  -1.432   7.253  1.00  0.00    -0.014 A 
ATOM     90  C   UNL     1      -2.986  -2.408   7.626  1.00  0.00     0.010 A 
ATOM     91  C   UNL     1      -4.098  -0.340   8.137  1.00  0.00     0.010 A 
ATOM     92  C   UNL     1      -2.332  -2.360   8.858  1.00  0.00     0.020 A 
ATOM     93  C   UNL     1      -3.392  -0.242   9.339  1.00  0.00     0.020 A 
ATOM     94  C   UNL     1      -2.549  -1.282   9.713  1.00  0.00     0.054 A 
BRANCH  94  95
ATOM     95  S   UNL     1      -1.711  -1.251  11.312  1.00  0.00     0.124 S 
ATOM     96  O   UNL     1      -2.582  -2.105  12.115  1.00  0.00    -0.237 OA
ATOM     97  O   UNL     1      -0.397  -1.810  11.003  1.00  0.00    -0.237 OA
ATOM     98  O   UNL     1      -1.710   0.164  11.673  1.00  0.00    -0.744 OA
ENDBRANCH  94  95
ENDBRANCH  68  89
ENDBRANCH  42  43
ENDBRANCH  35  37
ENDBRANCH  34  35
ENDBRANCH  33  34
ENDBRANCH  32  33
ENDBRANCH  31  32
ENDBRANCH  30  31
ENDBRANCH   1  30
TORSDOF 23
