REMARK SMILES O=C(COc1ccccc1C[NH+]1CCC2(CC[NH2+]CC2)CC1)OCCOCCOCCOC(=O)c1ccc(-c2c3nc(c(-c4ccc(S(=O)(=O)[O-])cc4)c4ccc([nH]4)c(-c4ccc(S(=O)(=O)[O-])cc4)c4nc(c(-c5ccc(S(=O)(=O)[O-])cc5)c5ccc2[nH]5)C=C4)C=C3)cc1
REMARK SMILES IDX 27 1 26 2 25 3 24 4 23 5 2 6 1 7 3 8 4 9 5 10 6 11 10 12
REMARK SMILES IDX 7 13 9 14 8 15 11 16 12 17 13 18 22 19 14 21 21 22 15 23
REMARK SMILES IDX 16 24 20 25 17 26 19 27 18 28 28 31 29 32 30 33 31 34 32 35
REMARK SMILES IDX 33 36 34 37 35 38 36 39 94 40 37 41 93 42 38 43 39 44 40 45
REMARK SMILES IDX 87 46 41 47 92 48 86 49 88 50 42 51 91 52 85 53 84 54 43 56
REMARK SMILES IDX 73 57 54 58 72 59 55 60 58 61 71 62 89 63 56 64 57 65 70 67
REMARK SMILES IDX 90 68 59 69 44 70 45 71 53 72 46 73 52 74 47 75 48 76 49 77
REMARK SMILES IDX 50 78 51 79 74 80 75 81 83 82 76 83 82 84 77 85 78 86 79 87
REMARK SMILES IDX 80 88 81 89 60 90 61 91 69 92 62 93 68 94 63 95 64 96 65 97
REMARK SMILES IDX 66 98 67 99
REMARK H PARENT 12 20 18 29 18 30 88 55 58 66
REMARK Flexibility Score: inf
ROOT
ATOM      1  C   UNL     1       3.947  -1.215   2.318  1.00  0.00     0.188 C 
ENDROOT
BRANCH   1   2
ATOM      2  O   UNL     1       5.101  -0.454   1.979  1.00  0.00    -0.376 OA
BRANCH   2   3
ATOM      3  C   UNL     1       5.260  -0.136   0.610  1.00  0.00     0.202 C 
BRANCH   3   4
ATOM      4  C   UNL     1       4.200   0.830   0.108  1.00  0.00     0.261 C 
BRANCH   4   5
ATOM      5  O   UNL     1       2.837   0.380   0.310  1.00  0.00    -0.461 OA
BRANCH   5   6
ATOM      6  C   UNL     1       2.225  -0.735  -0.163  1.00  0.00     0.344 C 
ATOM      7  O   UNL     1       1.130  -1.069   0.285  1.00  0.00    -0.248 OA
BRANCH   6   8
ATOM      8  C   UNL     1       2.927  -1.542  -1.227  1.00  0.00     0.351 C 
BRANCH   8   9
ATOM      9  O   UNL     1       3.629  -0.710  -2.152  1.00  0.00    -0.481 OA
BRANCH   9  10
ATOM     10  C   UNL     1       2.897  -0.606  -3.304  1.00  0.00     0.129 A 
ATOM     11  C   UNL     1       3.385  -1.360  -4.374  1.00  0.00     0.047 A 
ATOM     12  C   UNL     1       1.688   0.110  -3.380  1.00  0.00     0.048 A 
ATOM     13  C   UNL     1       2.605  -1.517  -5.510  1.00  0.00     0.004 A 
ATOM     14  C   UNL     1       0.859  -0.198  -4.468  1.00  0.00     0.013 A 
ATOM     15  C   UNL     1       1.323  -0.978  -5.534  1.00  0.00     0.001 A 
BRANCH  12  16
ATOM     16  C   UNL     1       1.231   1.128  -2.347  1.00  0.00     0.302 C 
BRANCH  16  17
ATOM     17  N   UNL     1       1.213   2.575  -2.615  1.00  0.00    -0.331 N 
ATOM     18  C   UNL     1       2.416   3.314  -2.236  1.00  0.00     0.263 C 
ATOM     19  C   UNL     1       0.698   3.003  -3.896  1.00  0.00     0.263 C 
ATOM     20  H   UNL     1       0.492   2.847  -1.946  1.00  0.00     0.348 HD
ATOM     21  C   UNL     1       3.549   3.182  -3.251  1.00  0.00     0.069 C 
ATOM     22  C   UNL     1       1.722   2.851  -5.015  1.00  0.00     0.069 C 
ATOM     23  C   UNL     1       3.108   3.467  -4.713  1.00  0.00    -0.008 C 
ATOM     24  C   UNL     1       3.003   4.987  -4.987  1.00  0.00     0.069 C 
ATOM     25  C   UNL     1       4.128   2.799  -5.674  1.00  0.00     0.069 C 
ATOM     26  C   UNL     1       4.340   5.662  -5.272  1.00  0.00     0.261 C 
ATOM     27  C   UNL     1       5.407   3.601  -5.858  1.00  0.00     0.261 C 
ATOM     28  N   UNL     1       5.096   4.958  -6.307  1.00  0.00    -0.346 N 
ATOM     29  H   UNL     1       5.964   5.460  -6.493  1.00  0.00     0.346 HD
ATOM     30  H   UNL     1       4.536   4.910  -7.158  1.00  0.00     0.346 HD
ENDBRANCH  16  17
ENDBRANCH  12  16
ENDBRANCH   9  10
ENDBRANCH   8   9
ENDBRANCH   6   8
ENDBRANCH   5   6
ENDBRANCH   4   5
ENDBRANCH   3   4
ENDBRANCH   2   3
ENDBRANCH   1   2
BRANCH   1  31
ATOM     31  C   UNL     1       2.868  -0.403   3.079  1.00  0.00     0.188 C 
BRANCH  31  32
ATOM     32  O   UNL     1       3.291   0.566   4.030  1.00  0.00    -0.376 OA
BRANCH  32  33
ATOM     33  C   UNL     1       4.494   0.316   4.732  1.00  0.00     0.202 C 
BRANCH  33  34
ATOM     34  C   UNL     1       4.529  -0.914   5.657  1.00  0.00     0.261 C 
BRANCH  34  35
ATOM     35  O   UNL     1       4.232  -2.188   5.037  1.00  0.00    -0.460 OA
BRANCH  35  36
ATOM     36  C   UNL     1       2.984  -2.695   5.220  1.00  0.00     0.338 C 
ATOM     37  O   UNL     1       2.121  -2.226   5.951  1.00  0.00    -0.246 OA
BRANCH  36  38
ATOM     38  C   UNL     1       2.702  -3.805   4.258  1.00  0.00     0.060 A 
ATOM     39  C   UNL     1       1.524  -3.764   3.489  1.00  0.00     0.016 A 
ATOM     40  C   UNL     1       3.541  -4.915   4.153  1.00  0.00     0.016 A 
ATOM     41  C   UNL     1       1.147  -4.849   2.680  1.00  0.00     0.010 A 
ATOM     42  C   UNL     1       3.149  -6.012   3.365  1.00  0.00     0.010 A 
ATOM     43  C   UNL     1       1.924  -6.012   2.665  1.00  0.00    -0.014 A 
BRANCH  43  44
ATOM     44  C   UNL     1       1.355  -7.310   2.188  1.00  0.00     0.031 A 
ATOM     45  C   UNL     1       0.790  -8.250   3.230  1.00  0.00     0.074 A 
ATOM     46  C   UNL     1       1.344  -7.691   0.896  1.00  0.00     0.049 A 
ATOM     47  N   UNL     1       0.393  -9.491   3.111  1.00  0.00    -0.248 NA
ATOM     48  C   UNL     1       0.675  -7.709   4.594  1.00  0.00     0.031 C 
ATOM     49  C   UNL     1       1.775  -6.879  -0.238  1.00  0.00     0.029 A 
ATOM     50  N   UNL     1       0.967  -8.889   0.326  1.00  0.00    -0.354 N 
ATOM     51  C   UNL     1       0.011  -9.889   4.389  1.00  0.00     0.074 A 
ATOM     52  C   UNL     1       0.246  -8.764   5.268  1.00  0.00     0.031 C 
ATOM     53  C   UNL     1       1.665  -7.609  -1.365  1.00  0.00     0.029 A 
ATOM     54  C   UNL     1       1.196  -8.956  -1.030  1.00  0.00     0.049 A 
ATOM     55  H   UNL     1       0.570  -9.627   0.841  1.00  0.00     0.167 HD
ATOM     56  C   UNL     1      -0.485 -11.080   4.803  1.00  0.00     0.031 A 
ATOM     57  C   UNL     1       1.077  -9.987  -1.895  1.00  0.00     0.031 A 
ATOM     58  C   UNL     1      -0.713 -12.209   3.940  1.00  0.00     0.049 A 
ATOM     59  C   UNL     1       0.604 -11.336  -1.404  1.00  0.00     0.074 A 
ATOM     60  C   UNL     1      -1.223 -13.453   4.270  1.00  0.00     0.029 A 
ATOM     61  N   UNL     1      -0.440 -12.236   2.582  1.00  0.00    -0.354 N 
ATOM     62  N   UNL     1       0.251 -11.698  -0.193  1.00  0.00    -0.248 NA
ATOM     63  C   UNL     1       0.511 -12.417  -2.400  1.00  0.00     0.031 C 
ATOM     64  C   UNL     1      -1.197 -14.254   3.125  1.00  0.00     0.029 A 
ATOM     65  C   UNL     1      -0.745 -13.485   2.065  1.00  0.00     0.049 A 
ATOM     66  H   UNL     1      -0.084 -11.481   2.062  1.00  0.00     0.167 HD
ATOM     67  C   UNL     1      -0.141 -13.033  -0.292  1.00  0.00     0.074 A 
ATOM     68  C   UNL     1       0.014 -13.413  -1.679  1.00  0.00     0.031 C 
ATOM     69  C   UNL     1      -0.598 -13.862   0.681  1.00  0.00     0.031 A 
BRANCH  56  70
ATOM     70  C   UNL     1      -0.766 -11.239   6.276  1.00  0.00    -0.014 A 
ATOM     71  C   UNL     1      -1.816 -10.543   6.904  1.00  0.00     0.010 A 
ATOM     72  C   UNL     1       0.025 -12.116   7.040  1.00  0.00     0.010 A 
ATOM     73  C   UNL     1      -2.033 -10.682   8.278  1.00  0.00     0.020 A 
ATOM     74  C   UNL     1      -0.211 -12.284   8.407  1.00  0.00     0.020 A 
ATOM     75  C   UNL     1      -1.227 -11.549   9.021  1.00  0.00     0.054 A 
BRANCH  75  76
ATOM     76  S   UNL     1      -1.536 -11.714  10.801  1.00  0.00     0.124 S 
ATOM     77  O   UNL     1      -1.061 -10.429  11.309  1.00  0.00    -0.237 OA
ATOM     78  O   UNL     1      -2.981 -11.917  10.857  1.00  0.00    -0.237 OA
ATOM     79  O   UNL     1      -0.731 -12.871  11.187  1.00  0.00    -0.744 OA
ENDBRANCH  75  76
ENDBRANCH  56  70
BRANCH  57  80
ATOM     80  C   UNL     1       1.440  -9.801  -3.332  1.00  0.00    -0.014 A 
ATOM     81  C   UNL     1       0.454  -9.832  -4.334  1.00  0.00     0.010 A 
ATOM     82  C   UNL     1       2.782  -9.599  -3.706  1.00  0.00     0.010 A 
ATOM     83  C   UNL     1       0.801  -9.665  -5.680  1.00  0.00     0.020 A 
ATOM     84  C   UNL     1       3.130  -9.402  -5.046  1.00  0.00     0.020 A 
ATOM     85  C   UNL     1       2.136  -9.441  -6.026  1.00  0.00     0.054 A 
BRANCH  85  86
ATOM     86  S   UNL     1       2.551  -9.142  -7.768  1.00  0.00     0.124 S 
ATOM     87  O   UNL     1       2.365 -10.463  -8.359  1.00  0.00    -0.237 OA
ATOM     88  O   UNL     1       1.570  -8.130  -8.154  1.00  0.00    -0.237 OA
ATOM     89  O   UNL     1       3.933  -8.668  -7.714  1.00  0.00    -0.744 OA
ENDBRANCH  85  86
ENDBRANCH  57  80
BRANCH  69  90
ATOM     90  C   UNL     1      -1.024 -15.256   0.288  1.00  0.00    -0.014 A 
ATOM     91  C   UNL     1      -0.091 -16.241  -0.081  1.00  0.00     0.010 A 
ATOM     92  C   UNL     1      -2.387 -15.606   0.368  1.00  0.00     0.010 A 
ATOM     93  C   UNL     1      -0.515 -17.539  -0.386  1.00  0.00     0.020 A 
ATOM     94  C   UNL     1      -2.810 -16.909   0.093  1.00  0.00     0.020 A 
ATOM     95  C   UNL     1      -1.872 -17.866  -0.294  1.00  0.00     0.054 A 
BRANCH  95  96
ATOM     96  S   UNL     1      -2.388 -19.570  -0.645  1.00  0.00     0.124 S 
ATOM     97  O   UNL     1      -2.217 -19.649  -2.093  1.00  0.00    -0.237 OA
ATOM     98  O   UNL     1      -1.444 -20.359   0.143  1.00  0.00    -0.237 OA
ATOM     99  O   UNL     1      -3.772 -19.617  -0.179  1.00  0.00    -0.744 OA
ENDBRANCH  95  96
ENDBRANCH  69  90
ENDBRANCH  43  44
ENDBRANCH  36  38
ENDBRANCH  35  36
ENDBRANCH  34  35
ENDBRANCH  33  34
ENDBRANCH  32  33
ENDBRANCH  31  32
ENDBRANCH   1  31
TORSDOF 24
