REMARK SMILES COc1ccc(-c2ccc(S(=O)(=O)NC(C)(C)C)cc2)c(C(=O)OCCOCCOCCOC(=O)c2ccc(-c3c4nc(c(-c5ccc(S(=O)(=O)[O-])cc5)c5ccc([nH]5)c(-c5ccc(S(=O)(=O)[O-])cc5)c5nc(c(-c6ccc(S(=O)(=O)[O-])cc6)c6ccc3[nH]6)C=C5)C=C4)cc2)c1
REMARK SMILES IDX 28 1 27 2 26 3 25 4 24 5 22 6 23 7 21 8 3 9 4 10 96 11 5 12
REMARK SMILES IDX 6 13 2 14 1 15 7 16 8 17 20 18 9 19 19 20 10 21 11 22 12 23
REMARK SMILES IDX 13 24 14 25 15 27 16 28 17 29 18 30 29 31 30 32 31 33 32 34
REMARK SMILES IDX 33 35 34 36 35 37 36 38 37 39 95 40 38 41 94 42 39 43 40 44
REMARK SMILES IDX 41 45 88 46 42 47 93 48 87 49 89 50 43 51 92 52 86 53 85 54
REMARK SMILES IDX 44 56 74 57 55 58 73 59 56 60 59 61 72 62 90 63 57 64 58 65
REMARK SMILES IDX 71 67 91 68 60 69 45 70 46 71 54 72 47 73 53 74 48 75 49 76
REMARK SMILES IDX 50 77 51 78 52 79 75 80 76 81 84 82 77 83 83 84 78 85 79 86
REMARK SMILES IDX 80 87 81 88 82 89 61 90 62 91 70 92 63 93 69 94 64 95 65 96
REMARK SMILES IDX 66 97 67 98 68 99
REMARK H PARENT 14 26 89 55 59 66
REMARK Flexibility Score: inf
ROOT
ATOM      1  C   UNL     1       6.090   4.221   2.713  1.00  0.00     0.188 C 
ENDROOT
BRANCH   1   2
ATOM      2  O   UNL     1       7.058   3.175   2.718  1.00  0.00    -0.376 OA
BRANCH   2   3
ATOM      3  C   UNL     1       6.975   2.340   3.875  1.00  0.00     0.202 C 
BRANCH   3   4
ATOM      4  C   UNL     1       5.998   1.181   3.667  1.00  0.00     0.261 C 
BRANCH   4   5
ATOM      5  O   UNL     1       4.676   1.601   3.282  1.00  0.00    -0.460 OA
BRANCH   5   6
ATOM      6  C   UNL     1       3.784   1.903   4.259  1.00  0.00     0.338 C 
ATOM      7  O   UNL     1       4.010   1.876   5.453  1.00  0.00    -0.246 OA
BRANCH   6   8
ATOM      8  C   UNL     1       2.494   2.303   3.608  1.00  0.00     0.071 A 
ATOM      9  C   UNL     1       0.900   1.903   1.806  1.00  0.00     0.119 A 
ATOM     10  C   UNL     1       0.125   2.958   2.286  1.00  0.00     0.047 A 
ATOM     11  C   UNL     1       2.075   1.568   2.476  1.00  0.00     0.062 A 
ATOM     12  C   UNL     1       0.524   3.689   3.411  1.00  0.00     0.013 A 
ATOM     13  C   UNL     1       1.724   3.395   4.082  1.00  0.00    -0.004 A 
BRANCH   9  14
ATOM     14  O   UNL     1       0.417   1.302   0.677  1.00  0.00    -0.497 OA
ATOM     15  C   UNL     1       1.093   0.137   0.219  1.00  0.00     0.278 C 
ENDBRANCH   9  14
BRANCH  13  16
ATOM     16  C   UNL     1       2.202   4.317   5.128  1.00  0.00    -0.017 A 
ATOM     17  C   UNL     1       1.599   4.453   6.383  1.00  0.00     0.010 A 
ATOM     18  C   UNL     1       3.324   5.110   4.857  1.00  0.00     0.010 A 
ATOM     19  C   UNL     1       2.141   5.327   7.344  1.00  0.00     0.022 A 
ATOM     20  C   UNL     1       3.930   5.893   5.835  1.00  0.00     0.022 A 
ATOM     21  C   UNL     1       3.319   6.038   7.069  1.00  0.00     0.082 A 
BRANCH  21  22
ATOM     22  S   UNL     1       3.989   7.125   8.301  1.00  0.00     0.241 S 
ATOM     23  O   UNL     1       2.928   7.989   8.762  1.00  0.00    -0.207 OA
ATOM     24  O   UNL     1       4.731   6.285   9.208  1.00  0.00    -0.207 OA
BRANCH  22  25
ATOM     25  N   UNL     1       5.177   8.085   7.587  1.00  0.00    -0.206 NA
ATOM     26  H   UNL     1       5.680   7.452   6.965  1.00  0.00     0.141 HD
BRANCH  25  27
ATOM     27  C   UNL     1       5.000   9.326   6.794  1.00  0.00     0.025 C 
ATOM     28  C   UNL     1       3.923  10.283   7.300  1.00  0.00     0.028 C 
ATOM     29  C   UNL     1       6.349  10.075   6.820  1.00  0.00     0.028 C 
ATOM     30  C   UNL     1       4.742   8.977   5.341  1.00  0.00     0.028 C 
ENDBRANCH  25  27
ENDBRANCH  22  25
ENDBRANCH  21  22
ENDBRANCH  13  16
ENDBRANCH   6   8
ENDBRANCH   5   6
ENDBRANCH   4   5
ENDBRANCH   3   4
ENDBRANCH   2   3
ENDBRANCH   1   2
BRANCH   1  31
ATOM     31  C   UNL     1       5.107   4.129   1.535  1.00  0.00     0.188 C 
BRANCH  31  32
ATOM     32  O   UNL     1       5.606   4.013   0.207  1.00  0.00    -0.376 OA
BRANCH  32  33
ATOM     33  C   UNL     1       6.928   4.446  -0.049  1.00  0.00     0.202 C 
BRANCH  33  34
ATOM     34  C   UNL     1       7.197   5.956   0.020  1.00  0.00     0.261 C 
BRANCH  34  35
ATOM     35  O   UNL     1       6.249   6.724   0.776  1.00  0.00    -0.460 OA
BRANCH  35  36
ATOM     36  C   UNL     1       5.151   7.127   0.087  1.00  0.00     0.338 C 
ATOM     37  O   UNL     1       4.888   6.901  -1.081  1.00  0.00    -0.246 OA
BRANCH  36  38
ATOM     38  C   UNL     1       4.260   7.870   1.005  1.00  0.00     0.060 A 
ATOM     39  C   UNL     1       2.950   7.428   1.232  1.00  0.00     0.016 A 
ATOM     40  C   UNL     1       4.704   9.047   1.597  1.00  0.00     0.016 A 
ATOM     41  C   UNL     1       2.083   8.159   2.065  1.00  0.00     0.010 A 
ATOM     42  C   UNL     1       3.827   9.778   2.406  1.00  0.00     0.010 A 
ATOM     43  C   UNL     1       2.503   9.353   2.667  1.00  0.00    -0.014 A 
BRANCH  43  44
ATOM     44  C   UNL     1       1.596  10.223   3.497  1.00  0.00     0.031 A 
ATOM     45  C   UNL     1       1.388  11.666   3.084  1.00  0.00     0.074 A 
ATOM     46  C   UNL     1       1.012   9.812   4.649  1.00  0.00     0.049 A 
ATOM     47  N   UNL     1       0.782  12.635   3.725  1.00  0.00    -0.248 NA
ATOM     48  C   UNL     1       1.950  12.072   1.784  1.00  0.00     0.031 C 
ATOM     49  C   UNL     1       1.066   8.465   5.218  1.00  0.00     0.029 A 
ATOM     50  N   UNL     1       0.300  10.527   5.595  1.00  0.00    -0.354 N 
ATOM     51  C   UNL     1       0.870  13.748   2.897  1.00  0.00     0.074 A 
ATOM     52  C   UNL     1       1.695  13.370   1.771  1.00  0.00     0.031 C 
ATOM     53  C   UNL     1       0.506   8.475   6.442  1.00  0.00     0.029 A 
ATOM     54  C   UNL     1       0.046   9.822   6.755  1.00  0.00     0.049 A 
ATOM     55  H   UNL     1       0.001  11.455   5.454  1.00  0.00     0.167 HD
ATOM     56  C   UNL     1       0.259  14.952   3.005  1.00  0.00     0.031 A 
ATOM     57  C   UNL     1      -0.460  10.209   7.946  1.00  0.00     0.031 A 
ATOM     58  C   UNL     1      -0.604  15.342   4.086  1.00  0.00     0.049 A 
ATOM     59  C   UNL     1      -0.982  11.607   8.127  1.00  0.00     0.074 A 
ATOM     60  C   UNL     1      -1.381  16.483   4.196  1.00  0.00     0.029 A 
ATOM     61  N   UNL     1      -0.796  14.614   5.246  1.00  0.00    -0.354 N 
ATOM     62  N   UNL     1      -0.971  12.607   7.283  1.00  0.00    -0.248 NA
ATOM     63  C   UNL     1      -1.643  11.902   9.409  1.00  0.00     0.031 C 
ATOM     64  C   UNL     1      -2.006  16.469   5.448  1.00  0.00     0.029 A 
ATOM     65  C   UNL     1      -1.655  15.296   6.094  1.00  0.00     0.049 A 
ATOM     66  H   UNL     1      -0.385  13.742   5.441  1.00  0.00     0.167 HD
ATOM     67  C   UNL     1      -1.701  13.619   7.899  1.00  0.00     0.074 A 
ATOM     68  C   UNL     1      -2.095  13.130   9.201  1.00  0.00     0.031 C 
ATOM     69  C   UNL     1      -2.054  14.826   7.394  1.00  0.00     0.031 A 
BRANCH  56  70
ATOM     70  C   UNL     1       0.451  15.920   1.869  1.00  0.00    -0.014 A 
ATOM     71  C   UNL     1      -0.116  15.656   0.607  1.00  0.00     0.010 A 
ATOM     72  C   UNL     1       1.169  17.112   2.064  1.00  0.00     0.010 A 
ATOM     73  C   UNL     1       0.079  16.538  -0.455  1.00  0.00     0.020 A 
ATOM     74  C   UNL     1       1.339  18.014   1.010  1.00  0.00     0.020 A 
ATOM     75  C   UNL     1       0.810  17.711  -0.247  1.00  0.00     0.054 A 
BRANCH  75  76
ATOM     76  S   UNL     1       1.032  18.847  -1.642  1.00  0.00     0.124 S 
ATOM     77  O   UNL     1       2.019  18.137  -2.452  1.00  0.00    -0.237 OA
ATOM     78  O   UNL     1      -0.311  18.922  -2.212  1.00  0.00    -0.237 OA
ATOM     79  O   UNL     1       1.509  20.076  -1.014  1.00  0.00    -0.744 OA
ENDBRANCH  75  76
ENDBRANCH  56  70
BRANCH  57  80
ATOM     80  C   UNL     1      -0.513   9.282   9.114  1.00  0.00    -0.014 A 
ATOM     81  C   UNL     1      -1.665   8.533   9.400  1.00  0.00     0.010 A 
ATOM     82  C   UNL     1       0.568   9.235  10.011  1.00  0.00     0.010 A 
ATOM     83  C   UNL     1      -1.728   7.746  10.558  1.00  0.00     0.020 A 
ATOM     84  C   UNL     1       0.520   8.431  11.155  1.00  0.00     0.020 A 
ATOM     85  C   UNL     1      -0.633   7.698  11.428  1.00  0.00     0.054 A 
BRANCH  85  86
ATOM     86  S   UNL     1      -0.714   6.630  12.895  1.00  0.00     0.124 S 
ATOM     87  O   UNL     1      -1.498   7.441  13.821  1.00  0.00    -0.237 OA
ATOM     88  O   UNL     1      -1.383   5.435  12.382  1.00  0.00    -0.237 OA
ATOM     89  O   UNL     1       0.687   6.438  13.260  1.00  0.00    -0.744 OA
ENDBRANCH  85  86
ENDBRANCH  57  80
BRANCH  69  90
ATOM     90  C   UNL     1      -2.998  15.669   8.206  1.00  0.00    -0.014 A 
ATOM     91  C   UNL     1      -2.589  16.325   9.380  1.00  0.00     0.010 A 
ATOM     92  C   UNL     1      -4.329  15.813   7.769  1.00  0.00     0.010 A 
ATOM     93  C   UNL     1      -3.504  17.080  10.121  1.00  0.00     0.020 A 
ATOM     94  C   UNL     1      -5.238  16.589   8.491  1.00  0.00     0.020 A 
ATOM     95  C   UNL     1      -4.824  17.204   9.673  1.00  0.00     0.054 A 
BRANCH  95  96
ATOM     96  S   UNL     1      -5.987  18.213  10.632  1.00  0.00     0.124 S 
ATOM     97  O   UNL     1      -6.295  17.336  11.757  1.00  0.00    -0.237 OA
ATOM     98  O   UNL     1      -5.195  19.398  10.956  1.00  0.00    -0.237 OA
ATOM     99  O   UNL     1      -7.090  18.446   9.702  1.00  0.00    -0.744 OA
ENDBRANCH  95  96
ENDBRANCH  69  90
ENDBRANCH  43  44
ENDBRANCH  36  38
ENDBRANCH  35  36
ENDBRANCH  34  35
ENDBRANCH  33  34
ENDBRANCH  32  33
ENDBRANCH  31  32
ENDBRANCH   1  31
TORSDOF 25
