REMARK SMILES C[NH+]1CCC([NH+]2CCC(Oc3ccc4ccccc4c3)(C(=O)OCCOCCOCCOC(=O)c3ccc(-c4c5nc(c(-c6ccc(S(=O)(=O)[O-])cc6)c6ccc([nH]6)c(-c6ccc(S(=O)(=O)[O-])cc6)c6nc(c(-c7ccc(S(=O)(=O)[O-])cc7)c7ccc4[nH]7)C=C6)C=C5)cc3)CC2)CC1
REMARK SMILES IDX 28 1 27 2 26 3 25 4 24 5 23 6 21 7 22 8 9 9 6 10 7 11 96 12
REMARK SMILES IDX 8 14 95 15 5 16 1 17 2 18 3 19 98 20 4 22 97 23 10 24 11 25
REMARK SMILES IDX 12 26 20 27 13 28 19 29 14 30 18 31 15 32 17 33 16 34 29 35
REMARK SMILES IDX 30 36 31 37 32 38 33 39 34 40 35 41 36 42 94 43 37 44 93 45
REMARK SMILES IDX 38 46 39 47 40 48 87 49 41 50 92 51 86 52 88 53 42 54 91 55
REMARK SMILES IDX 85 56 84 57 43 59 73 60 54 61 72 62 55 63 58 64 71 65 89 66
REMARK SMILES IDX 56 67 57 68 70 70 90 71 59 72 44 73 45 74 53 75 46 76 52 77
REMARK SMILES IDX 47 78 48 79 49 80 50 81 51 82 74 83 75 84 83 85 76 86 82 87
REMARK SMILES IDX 77 88 78 89 79 90 80 91 81 92 60 93 61 94 69 95 62 96 68 97
REMARK SMILES IDX 63 98 64 99 65 100 66 101 67 102
REMARK H PARENT 6 13 2 21 88 58 58 69
REMARK Flexibility Score: inf
ROOT
ATOM      1  C   UNL     1       2.655  -2.798   2.801  1.00  0.00     0.188 C 
ENDROOT
BRANCH   1   2
ATOM      2  C   UNL     1       3.140  -4.215   2.469  1.00  0.00     0.188 C 
BRANCH   2   3
ATOM      3  O   UNL     1       3.685  -4.990   3.524  1.00  0.00    -0.376 OA
BRANCH   3   4
ATOM      4  C   UNL     1       4.577  -4.361   4.436  1.00  0.00     0.202 C 
BRANCH   4   5
ATOM      5  C   UNL     1       5.841  -3.740   3.836  1.00  0.00     0.261 C 
BRANCH   5   6
ATOM      6  O   UNL     1       5.658  -2.358   3.442  1.00  0.00    -0.460 OA
BRANCH   6   7
ATOM      7  C   UNL     1       5.810  -2.063   2.115  1.00  0.00     0.351 C 
ATOM      8  O   UNL     1       5.954  -2.925   1.253  1.00  0.00    -0.247 OA
BRANCH   7   9
ATOM      9  C   UNL     1       5.863  -0.541   1.826  1.00  0.00     0.216 C 
ATOM     10  N   UNL     1       3.436   0.716   0.590  1.00  0.00    -0.332 N 
ATOM     11  C   UNL     1       3.501   0.590   2.050  1.00  0.00     0.267 C 
ATOM     12  C   UNL     1       4.175  -0.372  -0.070  1.00  0.00     0.267 C 
ATOM     13  H   UNL     1       3.893   1.599   0.367  1.00  0.00     0.348 HD
ATOM     14  C   UNL     1       4.898   0.344   2.638  1.00  0.00     0.122 C 
ATOM     15  C   UNL     1       5.658  -0.323   0.313  1.00  0.00     0.122 C 
BRANCH  10  16
ATOM     16  C   UNL     1       2.042   0.844   0.051  1.00  0.00     0.195 C 
ATOM     17  C   UNL     1      -2.235   1.384  -0.293  1.00  0.00     0.332 C 
ATOM     18  N   UNL     1      -0.867   1.300   0.225  1.00  0.00    -0.337 N 
ATOM     19  C   UNL     1       0.008   2.317  -0.380  1.00  0.00     0.268 C 
ATOM     20  C   UNL     1      -0.331  -0.039  -0.012  1.00  0.00     0.268 C 
ATOM     21  H   UNL     1      -0.897   1.482   1.228  1.00  0.00     0.347 HD
ATOM     22  C   UNL     1       1.442   2.256   0.193  1.00  0.00     0.126 C 
ATOM     23  C   UNL     1       1.040  -0.157   0.635  1.00  0.00     0.126 C 
ENDBRANCH  10  16
BRANCH   9  24
ATOM     24  O   UNL     1       7.227  -0.361   2.326  1.00  0.00    -0.475 OA
BRANCH  24  25
ATOM     25  C   UNL     1       7.973   0.629   1.766  1.00  0.00     0.121 A 
ATOM     26  C   UNL     1       7.840   1.946   2.186  1.00  0.00     0.047 A 
ATOM     27  C   UNL     1       8.968   0.273   0.859  1.00  0.00     0.055 A 
ATOM     28  C   UNL     1       8.634   2.939   1.622  1.00  0.00     0.012 A 
ATOM     29  C   UNL     1       9.805   1.257   0.311  1.00  0.00    -0.015 A 
ATOM     30  C   UNL     1       9.618   2.610   0.683  1.00  0.00    -0.018 A 
ATOM     31  C   UNL     1      10.829   0.931  -0.591  1.00  0.00     0.009 A 
ATOM     32  C   UNL     1      10.435   3.600   0.123  1.00  0.00     0.009 A 
ATOM     33  C   UNL     1      11.647   1.928  -1.126  1.00  0.00     0.001 A 
ATOM     34  C   UNL     1      11.445   3.260  -0.775  1.00  0.00     0.001 A 
ENDBRANCH  24  25
ENDBRANCH   9  24
ENDBRANCH   7   9
ENDBRANCH   6   7
ENDBRANCH   5   6
ENDBRANCH   4   5
ENDBRANCH   3   4
ENDBRANCH   2   3
ENDBRANCH   1   2
BRANCH   1  35
ATOM     35  O   UNL     1       2.120  -2.519   4.083  1.00  0.00    -0.376 OA
BRANCH  35  36
ATOM     36  C   UNL     1       1.056  -3.362   4.506  1.00  0.00     0.202 C 
BRANCH  36  37
ATOM     37  C   UNL     1      -0.200  -3.313   3.632  1.00  0.00     0.261 C 
BRANCH  37  38
ATOM     38  O   UNL     1       0.070  -3.753   2.287  1.00  0.00    -0.460 OA
BRANCH  38  39
ATOM     39  C   UNL     1      -1.006  -3.757   1.469  1.00  0.00     0.338 C 
ATOM     40  O   UNL     1      -2.173  -3.672   1.844  1.00  0.00    -0.246 OA
BRANCH  39  41
ATOM     41  C   UNL     1      -0.613  -3.730   0.031  1.00  0.00     0.060 A 
ATOM     42  C   UNL     1       0.678  -3.405  -0.390  1.00  0.00     0.016 A 
ATOM     43  C   UNL     1      -1.609  -3.859  -0.938  1.00  0.00     0.016 A 
ATOM     44  C   UNL     1       0.932  -3.038  -1.715  1.00  0.00     0.010 A 
ATOM     45  C   UNL     1      -1.320  -3.622  -2.289  1.00  0.00     0.010 A 
ATOM     46  C   UNL     1      -0.056  -3.159  -2.694  1.00  0.00    -0.014 A 
BRANCH  46  47
ATOM     47  C   UNL     1       0.195  -2.809  -4.124  1.00  0.00     0.031 A 
ATOM     48  C   UNL     1      -0.751  -1.885  -4.853  1.00  0.00     0.074 A 
ATOM     49  C   UNL     1       1.240  -3.331  -4.801  1.00  0.00     0.049 A 
ATOM     50  N   UNL     1      -0.941  -1.739  -6.139  1.00  0.00    -0.248 NA
ATOM     51  C   UNL     1      -1.597  -1.013  -4.021  1.00  0.00     0.031 C 
ATOM     52  C   UNL     1       2.320  -4.140  -4.231  1.00  0.00     0.029 A 
ATOM     53  N   UNL     1       1.549  -3.275  -6.142  1.00  0.00    -0.354 N 
ATOM     54  C   UNL     1      -1.970  -0.812  -6.271  1.00  0.00     0.074 A 
ATOM     55  C   UNL     1      -2.348  -0.409  -4.933  1.00  0.00     0.031 C 
ATOM     56  C   UNL     1       3.171  -4.494  -5.204  1.00  0.00     0.029 A 
ATOM     57  C   UNL     1       2.626  -4.060  -6.483  1.00  0.00     0.049 A 
ATOM     58  H   UNL     1       1.050  -2.728  -6.790  1.00  0.00     0.167 HD
ATOM     59  C   UNL     1      -2.562  -0.363  -7.404  1.00  0.00     0.031 A 
ATOM     60  C   UNL     1       3.076  -4.482  -7.681  1.00  0.00     0.031 A 
ATOM     61  C   UNL     1      -2.168  -0.765  -8.730  1.00  0.00     0.049 A 
ATOM     62  C   UNL     1       2.329  -4.088  -8.922  1.00  0.00     0.074 A 
ATOM     63  C   UNL     1      -2.723  -0.400  -9.944  1.00  0.00     0.029 A 
ATOM     64  N   UNL     1      -1.113  -1.619  -9.015  1.00  0.00    -0.354 N 
ATOM     65  N   UNL     1       1.278  -3.312  -9.037  1.00  0.00    -0.248 NA
ATOM     66  C   UNL     1       2.809  -4.652 -10.190  1.00  0.00     0.031 C 
ATOM     67  C   UNL     1      -2.037  -1.074 -10.960  1.00  0.00     0.029 A 
ATOM     68  C   UNL     1      -1.016  -1.812 -10.383  1.00  0.00     0.049 A 
ATOM     69  H   UNL     1      -0.520  -2.028  -8.344  1.00  0.00     0.167 HD
ATOM     70  C   UNL     1       0.976  -3.287 -10.393  1.00  0.00     0.074 A 
ATOM     71  C   UNL     1       1.965  -4.111 -11.058  1.00  0.00     0.031 C 
ATOM     72  C   UNL     1      -0.032  -2.641 -11.029  1.00  0.00     0.031 A 
BRANCH  59  73
ATOM     73  C   UNL     1      -3.752   0.550  -7.265  1.00  0.00    -0.014 A 
ATOM     74  C   UNL     1      -3.615   1.901  -6.903  1.00  0.00     0.010 A 
ATOM     75  C   UNL     1      -5.035   0.047  -7.555  1.00  0.00     0.010 A 
ATOM     76  C   UNL     1      -4.743   2.724  -6.806  1.00  0.00     0.020 A 
ATOM     77  C   UNL     1      -6.162   0.871  -7.480  1.00  0.00     0.020 A 
ATOM     78  C   UNL     1      -6.010   2.202  -7.091  1.00  0.00     0.054 A 
BRANCH  78  79
ATOM     79  S   UNL     1      -7.454   3.295  -6.974  1.00  0.00     0.124 S 
ATOM     80  O   UNL     1      -7.603   3.442  -5.529  1.00  0.00    -0.237 OA
ATOM     81  O   UNL     1      -7.010   4.491  -7.684  1.00  0.00    -0.237 OA
ATOM     82  O   UNL     1      -8.515   2.539  -7.636  1.00  0.00    -0.744 OA
ENDBRANCH  78  79
ENDBRANCH  59  73
BRANCH  60  83
ATOM     83  C   UNL     1       4.224  -5.428  -7.742  1.00  0.00    -0.014 A 
ATOM     84  C   UNL     1       5.464  -5.024  -8.262  1.00  0.00     0.010 A 
ATOM     85  C   UNL     1       4.089  -6.736  -7.236  1.00  0.00     0.010 A 
ATOM     86  C   UNL     1       6.549  -5.906  -8.268  1.00  0.00     0.020 A 
ATOM     87  C   UNL     1       5.178  -7.609  -7.209  1.00  0.00     0.020 A 
ATOM     88  C   UNL     1       6.402  -7.190  -7.733  1.00  0.00     0.054 A 
BRANCH  88  89
ATOM     89  S   UNL     1       7.844  -8.289  -7.669  1.00  0.00     0.124 S 
ATOM     90  O   UNL     1       7.944  -8.737  -9.054  1.00  0.00    -0.237 OA
ATOM     91  O   UNL     1       8.905  -7.395  -7.214  1.00  0.00    -0.237 OA
ATOM     92  O   UNL     1       7.448  -9.314  -6.705  1.00  0.00    -0.744 OA
ENDBRANCH  88  89
ENDBRANCH  60  83
BRANCH  72  93
ATOM     93  C   UNL     1      -0.091  -2.769 -12.525  1.00  0.00    -0.014 A 
ATOM     94  C   UNL     1      -0.538  -3.953 -13.137  1.00  0.00     0.010 A 
ATOM     95  C   UNL     1       0.270  -1.672 -13.328  1.00  0.00     0.010 A 
ATOM     96  C   UNL     1      -0.595  -4.047 -14.530  1.00  0.00     0.020 A 
ATOM     97  C   UNL     1       0.191  -1.754 -14.720  1.00  0.00     0.020 A 
ATOM     98  C   UNL     1      -0.227  -2.947 -15.313  1.00  0.00     0.054 A 
BRANCH  98  99
ATOM     99  S   UNL     1      -0.344  -3.080 -17.118  1.00  0.00     0.124 S 
ATOM    100  O   UNL     1       0.814  -3.910 -17.436  1.00  0.00    -0.237 OA
ATOM    101  O   UNL     1      -1.645  -3.715 -17.310  1.00  0.00    -0.237 OA
ATOM    102  O   UNL     1      -0.261  -1.694 -17.572  1.00  0.00    -0.744 OA
ENDBRANCH  98  99
ENDBRANCH  72  93
ENDBRANCH  46  47
ENDBRANCH  39  41
ENDBRANCH  38  39
ENDBRANCH  37  38
ENDBRANCH  36  37
ENDBRANCH  35  36
ENDBRANCH   1  35
TORSDOF 23
