REMARK SMILES CC[NH+](CC)C[C@H](F)C(=O)OCCOCCOCCOC(=O)c1ccc(-c2c3nc(c(-c4ccc(S(=O)(=O)[O-])cc4)c4ccc([nH]4)c(-c4ccc(S(=O)(=O)[O-])cc4)c4nc(c(-c5ccc(S(=O)(=O)[O-])cc5)c5ccc2[nH]5)C=C4)C=C3)cc1
REMARK SMILES IDX 15 1 14 2 13 3 12 4 11 5 9 6 10 7 7 8 8 9 6 10 3 11 2 13
REMARK SMILES IDX 1 14 4 15 5 16 16 17 17 18 18 19 19 20 20 21 21 22 22 23
REMARK SMILES IDX 23 24 24 25 82 26 25 27 81 28 26 29 27 30 28 31 75 32 29 33
REMARK SMILES IDX 80 34 74 35 76 36 30 37 79 38 73 39 72 40 31 42 61 43 42 44
REMARK SMILES IDX 60 45 43 46 46 47 59 48 77 49 44 50 45 51 58 53 78 54 47 55
REMARK SMILES IDX 32 56 33 57 41 58 34 59 40 60 35 61 36 62 37 63 38 64 39 65
REMARK SMILES IDX 62 66 63 67 71 68 64 69 70 70 65 71 66 72 67 73 68 74 69 75
REMARK SMILES IDX 48 76 49 77 57 78 50 79 56 80 51 81 52 82 53 83 54 84 55 85
REMARK H PARENT 3 12 76 41 46 52
REMARK Flexibility Score: inf
ROOT
ATOM      1  C   UNL     1       5.486   4.020   1.846  1.00  0.00     0.188 C 
ENDROOT
BRANCH   1   2
ATOM      2  O   UNL     1       6.846   3.772   2.204  1.00  0.00    -0.376 OA
BRANCH   2   3
ATOM      3  C   UNL     1       7.413   2.502   1.910  1.00  0.00     0.202 C 
BRANCH   3   4
ATOM      4  C   UNL     1       6.664   1.248   2.379  1.00  0.00     0.261 C 
BRANCH   4   5
ATOM      5  O   UNL     1       5.244   1.338   2.195  1.00  0.00    -0.461 OA
BRANCH   5   6
ATOM      6  C   UNL     1       4.455   0.908   3.215  1.00  0.00     0.346 C 
ATOM      7  O   UNL     1       4.865   0.302   4.198  1.00  0.00    -0.248 OA
BRANCH   6   8
ATOM      8  C   UNL     1       2.998   1.258   2.996  1.00  0.00     0.330 C 
ATOM      9  F   UNL     1       2.784   2.265   2.099  1.00  0.00    -0.228 F 
BRANCH   8  10
ATOM     10  C   UNL     1       2.144   0.030   2.643  1.00  0.00     0.312 C 
BRANCH  10  11
ATOM     11  N   UNL     1       2.030  -0.493   1.269  1.00  0.00    -0.332 N 
ATOM     12  H   UNL     1       1.135  -0.973   1.364  1.00  0.00     0.348 HD
BRANCH  11  13
ATOM     13  C   UNL     1       1.755   0.461   0.195  1.00  0.00     0.258 C 
ATOM     14  C   UNL     1       0.457   1.240   0.386  1.00  0.00     0.071 C 
ENDBRANCH  11  13
BRANCH  11  15
ATOM     15  C   UNL     1       2.970  -1.550   0.898  1.00  0.00     0.258 C 
ATOM     16  C   UNL     1       4.392  -1.140   0.544  1.00  0.00     0.071 C 
ENDBRANCH  11  15
ENDBRANCH  10  11
ENDBRANCH   8  10
ENDBRANCH   6   8
ENDBRANCH   5   6
ENDBRANCH   4   5
ENDBRANCH   3   4
ENDBRANCH   2   3
ENDBRANCH   1   2
BRANCH   1  17
ATOM     17  C   UNL     1       4.969   3.590   0.452  1.00  0.00     0.188 C 
BRANCH  17  18
ATOM     18  O   UNL     1       5.949   2.966  -0.359  1.00  0.00    -0.376 OA
BRANCH  18  19
ATOM     19  C   UNL     1       6.335   3.678  -1.522  1.00  0.00     0.202 C 
BRANCH  19  20
ATOM     20  C   UNL     1       7.015   5.045  -1.324  1.00  0.00     0.261 C 
BRANCH  20  21
ATOM     21  O   UNL     1       6.423   5.927  -0.351  1.00  0.00    -0.460 OA
BRANCH  21  22
ATOM     22  C   UNL     1       5.330   6.626  -0.730  1.00  0.00     0.338 C 
ATOM     23  O   UNL     1       4.788   6.583  -1.825  1.00  0.00    -0.246 OA
BRANCH  22  24
ATOM     24  C   UNL     1       4.761   7.306   0.459  1.00  0.00     0.060 A 
ATOM     25  C   UNL     1       3.465   6.965   0.870  1.00  0.00     0.016 A 
ATOM     26  C   UNL     1       5.488   8.265   1.170  1.00  0.00     0.016 A 
ATOM     27  C   UNL     1       2.881   7.608   1.966  1.00  0.00     0.010 A 
ATOM     28  C   UNL     1       4.892   8.922   2.258  1.00  0.00     0.010 A 
ATOM     29  C   UNL     1       3.572   8.623   2.643  1.00  0.00    -0.014 A 
BRANCH  29  30
ATOM     30  C   UNL     1       2.846   9.471   3.629  1.00  0.00     0.031 A 
ATOM     31  C   UNL     1       2.337  10.822   3.190  1.00  0.00     0.074 A 
ATOM     32  C   UNL     1       2.583   9.035   4.877  1.00  0.00     0.049 A 
ATOM     33  N   UNL     1       1.653  11.711   3.864  1.00  0.00    -0.248 NA
ATOM     34  C   UNL     1       2.641  11.220   1.806  1.00  0.00     0.031 C 
ATOM     35  C   UNL     1       2.989   7.743   5.426  1.00  0.00     0.029 A 
ATOM     36  N   UNL     1       1.905   9.640   5.909  1.00  0.00    -0.354 N 
ATOM     37  C   UNL     1       1.435  12.767   2.985  1.00  0.00     0.074 A 
ATOM     38  C   UNL     1       2.101  12.428   1.746  1.00  0.00     0.031 C 
ATOM     39  C   UNL     1       2.557   7.653   6.697  1.00  0.00     0.029 A 
ATOM     40  C   UNL     1       1.865   8.889   7.061  1.00  0.00     0.049 A 
ATOM     41  H   UNL     1       1.487  10.528   5.831  1.00  0.00     0.167 HD
ATOM     42  C   UNL     1       0.733  13.910   3.180  1.00  0.00     0.031 A 
ATOM     43  C   UNL     1       1.344   9.169   8.274  1.00  0.00     0.031 A 
ATOM     44  C   UNL     1       0.089  14.265   4.418  1.00  0.00     0.049 A 
ATOM     45  C   UNL     1       0.627  10.480   8.490  1.00  0.00     0.074 A 
ATOM     46  C   UNL     1      -0.644  15.403   4.712  1.00  0.00     0.029 A 
ATOM     47  N   UNL     1       0.103  13.494   5.570  1.00  0.00    -0.354 N 
ATOM     48  N   UNL     1       0.408  11.454   7.638  1.00  0.00    -0.248 NA
ATOM     49  C   UNL     1       0.071  10.719   9.830  1.00  0.00     0.031 C 
ATOM     50  C   UNL     1      -1.023  15.347   6.057  1.00  0.00     0.029 A 
ATOM     51  C   UNL     1      -0.588  14.141   6.583  1.00  0.00     0.049 A 
ATOM     52  H   UNL     1       0.539  12.616   5.657  1.00  0.00     0.167 HD
ATOM     53  C   UNL     1      -0.330  12.409   8.333  1.00  0.00     0.074 A 
ATOM     54  C   UNL     1      -0.546  11.880   9.664  1.00  0.00     0.031 C 
ATOM     55  C   UNL     1      -0.786  13.615   7.910  1.00  0.00     0.031 A 
BRANCH  42  56
ATOM     56  C   UNL     1       0.638  14.874   2.025  1.00  0.00    -0.014 A 
ATOM     57  C   UNL     1      -0.129  14.568   0.886  1.00  0.00     0.010 A 
ATOM     58  C   UNL     1       1.280  16.124   2.099  1.00  0.00     0.010 A 
ATOM     59  C   UNL     1      -0.228  15.480  -0.169  1.00  0.00     0.020 A 
ATOM     60  C   UNL     1       1.159  17.051   1.060  1.00  0.00     0.020 A 
ATOM     61  C   UNL     1       0.416  16.717  -0.074  1.00  0.00     0.054 A 
BRANCH  61  62
ATOM     62  S   UNL     1       0.237  17.895  -1.442  1.00  0.00     0.124 S 
ATOM     63  O   UNL     1       1.021  17.255  -2.496  1.00  0.00    -0.237 OA
ATOM     64  O   UNL     1      -1.207  17.915  -1.658  1.00  0.00    -0.237 OA
ATOM     65  O   UNL     1       0.803  19.133  -0.912  1.00  0.00    -0.744 OA
ENDBRANCH  61  62
ENDBRANCH  42  56
BRANCH  43  66
ATOM     66  C   UNL     1       1.502   8.202   9.399  1.00  0.00    -0.014 A 
ATOM     67  C   UNL     1       0.391   7.545   9.958  1.00  0.00     0.010 A 
ATOM     68  C   UNL     1       2.779   7.956   9.939  1.00  0.00     0.010 A 
ATOM     69  C   UNL     1       0.551   6.682  11.049  1.00  0.00     0.020 A 
ATOM     70  C   UNL     1       2.947   7.069  11.006  1.00  0.00     0.020 A 
ATOM     71  C   UNL     1       1.829   6.448  11.564  1.00  0.00     0.054 A 
BRANCH  71  72
ATOM     72  S   UNL     1       2.018   5.293  12.951  1.00  0.00     0.124 S 
ATOM     73  O   UNL     1       1.455   6.056  14.061  1.00  0.00    -0.237 OA
ATOM     74  O   UNL     1       1.233   4.142  12.511  1.00  0.00    -0.237 OA
ATOM     75  O   UNL     1       3.460   5.068  13.014  1.00  0.00    -0.744 OA
ENDBRANCH  71  72
ENDBRANCH  43  66
BRANCH  55  76
ATOM     76  C   UNL     1      -1.589  14.435   8.891  1.00  0.00    -0.014 A 
ATOM     77  C   UNL     1      -0.997  14.998  10.037  1.00  0.00     0.010 A 
ATOM     78  C   UNL     1      -2.960  14.655   8.656  1.00  0.00     0.010 A 
ATOM     79  C   UNL     1      -1.771  15.709  10.959  1.00  0.00     0.020 A 
ATOM     80  C   UNL     1      -3.730  15.397   9.557  1.00  0.00     0.020 A 
ATOM     81  C   UNL     1      -3.135  15.898  10.716  1.00  0.00     0.054 A 
BRANCH  81  82
ATOM     82  S   UNL     1      -4.119  16.819  11.931  1.00  0.00     0.124 S 
ATOM     83  O   UNL     1      -4.214  15.863  13.031  1.00  0.00    -0.237 OA
ATOM     84  O   UNL     1      -3.291  17.994  12.189  1.00  0.00    -0.237 OA
ATOM     85  O   UNL     1      -5.372  17.088  11.229  1.00  0.00    -0.744 OA
ENDBRANCH  81  82
ENDBRANCH  55  76
ENDBRANCH  29  30
ENDBRANCH  22  24
ENDBRANCH  21  22
ENDBRANCH  20  21
ENDBRANCH  19  20
ENDBRANCH  18  19
ENDBRANCH  17  18
ENDBRANCH   1  17
TORSDOF 24
