REMARK SMILES C[C@@H](C(=O)OCCOCCOCCOC(=O)c1ccc(-c2c3nc(c(-c4ccc(S(=O)(=O)[O-])cc4)c4ccc([nH]4)c(-c4ccc(S(=O)(=O)[O-])cc4)c4nc(c(-c5ccc(S(=O)(=O)[O-])cc5)c5ccc2[nH]5)C=C4)C=C3)cc1)c1ccc(N[C@H]2CCC[C@@H]2O)cc1F
REMARK SMILES IDX 9 1 8 2 7 3 6 4 5 5 3 6 4 7 2 8 1 9 77 10 78 11 89 12 79 13
REMARK SMILES IDX 88 14 90 15 80 16 81 17 82 19 83 20 86 21 84 22 85 23 87 24
REMARK SMILES IDX 10 26 11 27 12 28 13 29 14 30 15 31 16 32 17 33 18 34 76 35
REMARK SMILES IDX 19 36 75 37 20 38 21 39 22 40 69 41 23 42 74 43 68 44 70 45
REMARK SMILES IDX 24 46 73 47 67 48 66 49 25 51 55 52 36 53 54 54 37 55 40 56
REMARK SMILES IDX 53 57 71 58 38 59 39 60 52 62 72 63 41 64 26 65 27 66 35 67
REMARK SMILES IDX 28 68 34 69 29 70 30 71 31 72 32 73 33 74 56 75 57 76 65 77
REMARK SMILES IDX 58 78 64 79 59 80 60 81 61 82 62 83 63 84 42 85 43 86 51 87
REMARK SMILES IDX 44 88 50 89 45 90 46 91 47 92 48 93 49 94
REMARK H PARENT 81 18 87 25 70 50 40 61
REMARK Flexibility Score: inf
ROOT
ATOM      1  C   UNL     1       0.300  -0.732   3.774  1.00  0.00     0.188 C 
ENDROOT
BRANCH   1   2
ATOM      2  O   UNL     1       1.017  -1.399   4.803  1.00  0.00    -0.376 OA
BRANCH   2   3
ATOM      3  C   UNL     1       2.296  -1.946   4.492  1.00  0.00     0.202 C 
BRANCH   3   4
ATOM      4  C   UNL     1       2.513  -2.715   3.174  1.00  0.00     0.261 C 
BRANCH   4   5
ATOM      5  O   UNL     1       2.033  -2.041   1.990  1.00  0.00    -0.463 OA
BRANCH   5   6
ATOM      6  C   UNL     1       1.298  -2.795   1.127  1.00  0.00     0.313 C 
ATOM      7  O   UNL     1       1.131  -4.001   1.268  1.00  0.00    -0.252 OA
BRANCH   6   8
ATOM      8  C   UNL     1       0.687  -1.989  -0.036  1.00  0.00     0.129 C 
ATOM      9  C   UNL     1       1.558  -0.811  -0.500  1.00  0.00     0.025 C 
BRANCH   8  10
ATOM     10  C   UNL     1      -0.811  -1.709   0.118  1.00  0.00     0.002 A 
ATOM     11  C   UNL     1      -1.397  -0.435   0.133  1.00  0.00     0.010 A 
ATOM     12  C   UNL     1      -1.696  -2.791   0.173  1.00  0.00     0.129 A 
ATOM     13  C   UNL     1      -2.804  -0.270   0.173  1.00  0.00     0.026 A 
ATOM     14  C   UNL     1      -3.082  -2.623   0.220  1.00  0.00     0.065 A 
ATOM     15  F   UNL     1      -1.224  -4.043   0.113  1.00  0.00    -0.207 F 
ATOM     16  C   UNL     1      -3.677  -1.357   0.196  1.00  0.00     0.037 A 
BRANCH  16  17
ATOM     17  N   UNL     1      -5.050  -1.296   0.096  1.00  0.00    -0.380 N 
ATOM     18  H   UNL     1      -5.486  -2.178   0.128  1.00  0.00     0.160 HD
BRANCH  17  19
ATOM     19  C   UNL     1      -5.988  -0.183  -0.049  1.00  0.00     0.107 C 
ATOM     20  C   UNL     1      -6.107   0.675   1.200  1.00  0.00     0.027 C 
ATOM     21  C   UNL     1      -5.725   0.790  -1.205  1.00  0.00     0.136 C 
ATOM     22  C   UNL     1      -6.067   2.128   0.736  1.00  0.00     0.005 C 
ATOM     23  C   UNL     1      -6.420   2.066  -0.740  1.00  0.00     0.034 C 
BRANCH  21  24
ATOM     24  O   UNL     1      -6.273   0.326  -2.431  1.00  0.00    -0.391 OA
ATOM     25  H   UNL     1      -7.227   0.184  -2.326  1.00  0.00     0.211 HD
ENDBRANCH  21  24
ENDBRANCH  17  19
ENDBRANCH  16  17
ENDBRANCH   8  10
ENDBRANCH   6   8
ENDBRANCH   5   6
ENDBRANCH   4   5
ENDBRANCH   3   4
ENDBRANCH   2   3
ENDBRANCH   1   2
BRANCH   1  26
ATOM     26  C   UNL     1       1.006   0.395   2.999  1.00  0.00     0.188 C 
BRANCH  26  27
ATOM     27  O   UNL     1       2.402   0.461   3.157  1.00  0.00    -0.376 OA
BRANCH  27  28
ATOM     28  C   UNL     1       2.982   1.483   3.947  1.00  0.00     0.202 C 
BRANCH  28  29
ATOM     29  C   UNL     1       2.285   2.199   5.126  1.00  0.00     0.261 C 
BRANCH  29  30
ATOM     30  O   UNL     1       0.858   2.135   5.225  1.00  0.00    -0.460 OA
BRANCH  30  31
ATOM     31  C   UNL     1       0.163   3.114   4.601  1.00  0.00     0.338 C 
ATOM     32  O   UNL     1       0.625   4.032   3.934  1.00  0.00    -0.246 OA
BRANCH  31  33
ATOM     33  C   UNL     1      -1.268   2.755   4.643  1.00  0.00     0.060 A 
ATOM     34  C   UNL     1      -1.896   2.387   3.450  1.00  0.00     0.016 A 
ATOM     35  C   UNL     1      -1.988   2.767   5.840  1.00  0.00     0.016 A 
ATOM     36  C   UNL     1      -3.240   2.023   3.455  1.00  0.00     0.010 A 
ATOM     37  C   UNL     1      -3.353   2.441   5.832  1.00  0.00     0.010 A 
ATOM     38  C   UNL     1      -3.994   2.080   4.636  1.00  0.00    -0.014 A 
BRANCH  38  39
ATOM     39  C   UNL     1      -5.475   1.949   4.562  1.00  0.00     0.031 A 
ATOM     40  C   UNL     1      -6.293   3.198   4.354  1.00  0.00     0.074 A 
ATOM     41  C   UNL     1      -6.087   0.748   4.530  1.00  0.00     0.049 A 
ATOM     42  N   UNL     1      -7.586   3.327   4.201  1.00  0.00    -0.248 NA
ATOM     43  C   UNL     1      -5.548   4.465   4.278  1.00  0.00     0.031 C 
ATOM     44  C   UNL     1      -5.404  -0.545   4.532  1.00  0.00     0.029 A 
ATOM     45  N   UNL     1      -7.418   0.425   4.381  1.00  0.00    -0.354 N 
ATOM     46  C   UNL     1      -7.813   4.690   4.049  1.00  0.00     0.074 A 
ATOM     47  C   UNL     1      -6.524   5.344   4.107  1.00  0.00     0.031 C 
ATOM     48  C   UNL     1      -6.311  -1.514   4.311  1.00  0.00     0.029 A 
ATOM     49  C   UNL     1      -7.649  -0.923   4.222  1.00  0.00     0.049 A 
ATOM     50  H   UNL     1      -8.138   1.097   4.387  1.00  0.00     0.167 HD
ATOM     51  C   UNL     1      -8.989   5.344   3.895  1.00  0.00     0.031 A 
ATOM     52  C   UNL     1      -8.798  -1.605   4.017  1.00  0.00     0.031 A 
ATOM     53  C   UNL     1     -10.277   4.706   3.841  1.00  0.00     0.049 A 
ATOM     54  C   UNL     1     -10.107  -0.853   3.930  1.00  0.00     0.074 A 
ATOM     55  C   UNL     1     -11.525   5.302   3.769  1.00  0.00     0.029 A 
ATOM     56  N   UNL     1     -10.488   3.338   3.844  1.00  0.00    -0.354 N 
ATOM     57  N   UNL     1     -10.314   0.441   3.878  1.00  0.00    -0.248 NA
ATOM     58  C   UNL     1     -11.338  -1.658   3.888  1.00  0.00     0.031 C 
ATOM     59  C   UNL     1     -12.493   4.294   3.793  1.00  0.00     0.029 A 
ATOM     60  C   UNL     1     -11.846   3.069   3.803  1.00  0.00     0.049 A 
ATOM     61  H   UNL     1      -9.778   2.656   3.872  1.00  0.00     0.167 HD
ATOM     62  C   UNL     1     -11.697   0.602   3.800  1.00  0.00     0.074 A 
ATOM     63  C   UNL     1     -12.273  -0.724   3.765  1.00  0.00     0.031 C 
ATOM     64  C   UNL     1     -12.423   1.749   3.776  1.00  0.00     0.031 A 
BRANCH  51  65
ATOM     65  C   UNL     1      -8.948   6.848   3.865  1.00  0.00    -0.014 A 
ATOM     66  C   UNL     1      -8.504   7.555   2.734  1.00  0.00     0.010 A 
ATOM     67  C   UNL     1      -9.423   7.563   4.981  1.00  0.00     0.010 A 
ATOM     68  C   UNL     1      -8.519   8.953   2.730  1.00  0.00     0.020 A 
ATOM     69  C   UNL     1      -9.465   8.958   4.969  1.00  0.00     0.020 A 
ATOM     70  C   UNL     1      -9.002   9.645   3.846  1.00  0.00     0.054 A 
BRANCH  70  71
ATOM     71  S   UNL     1      -9.050  11.457   3.796  1.00  0.00     0.124 S 
ATOM     72  O   UNL     1      -7.630  11.797   3.850  1.00  0.00    -0.237 OA
ATOM     73  O   UNL     1      -9.711  11.723   2.521  1.00  0.00    -0.237 OA
ATOM     74  O   UNL     1      -9.821  11.818   4.983  1.00  0.00    -0.744 OA
ENDBRANCH  70  71
ENDBRANCH  51  65
BRANCH  52  75
ATOM     75  C   UNL     1      -8.781  -3.096   3.931  1.00  0.00    -0.014 A 
ATOM     76  C   UNL     1      -9.219  -3.773   2.777  1.00  0.00     0.010 A 
ATOM     77  C   UNL     1      -8.348  -3.856   5.035  1.00  0.00     0.010 A 
ATOM     78  C   UNL     1      -9.231  -5.173   2.735  1.00  0.00     0.020 A 
ATOM     79  C   UNL     1      -8.321  -5.251   4.983  1.00  0.00     0.020 A 
ATOM     80  C   UNL     1      -8.775  -5.902   3.837  1.00  0.00     0.054 A 
BRANCH  80  81
ATOM     81  S   UNL     1      -8.743  -7.714   3.745  1.00  0.00     0.124 S 
ATOM     82  O   UNL     1     -10.159  -8.049   3.844  1.00  0.00    -0.237 OA
ATOM     83  O   UNL     1      -8.124  -7.951   2.443  1.00  0.00    -0.237 OA
ATOM     84  O   UNL     1      -7.926  -8.099   4.895  1.00  0.00    -0.744 OA
ENDBRANCH  80  81
ENDBRANCH  52  75
BRANCH  64  85
ATOM     85  C   UNL     1     -13.928   1.640   3.711  1.00  0.00    -0.014 A 
ATOM     86  C   UNL     1     -14.673   1.168   4.806  1.00  0.00     0.010 A 
ATOM     87  C   UNL     1     -14.615   2.096   2.569  1.00  0.00     0.010 A 
ATOM     88  C   UNL     1     -16.070   1.124   4.751  1.00  0.00     0.020 A 
ATOM     89  C   UNL     1     -16.013   2.083   2.522  1.00  0.00     0.020 A 
ATOM     90  C   UNL     1     -16.732   1.585   3.609  1.00  0.00     0.054 A 
BRANCH  90  91
ATOM     91  S   UNL     1     -18.547   1.560   3.584  1.00  0.00     0.124 S 
ATOM     92  O   UNL     1     -18.831   0.131   3.490  1.00  0.00    -0.237 OA
ATOM     93  O   UNL     1     -18.892   2.187   4.858  1.00  0.00    -0.237 OA
ATOM     94  O   UNL     1     -18.889   2.343   2.398  1.00  0.00    -0.744 OA
ENDBRANCH  90  91
ENDBRANCH  64  85
ENDBRANCH  38  39
ENDBRANCH  31  33
ENDBRANCH  30  31
ENDBRANCH  29  30
ENDBRANCH  28  29
ENDBRANCH  27  28
ENDBRANCH  26  27
ENDBRANCH   1  26
TORSDOF 24
