REMARK SMILES O=C(OCCOCCOCCOC(=O)[C@@H]1[C@H](C(=O)Nc2ccccc2OC(F)F)[C@@H]2C=C[C@H]1C2)c1ccc(-c2c3nc(c(-c4ccc(S(=O)(=O)[O-])cc4)c4ccc([nH]4)c(-c4ccc(S(=O)(=O)[O-])cc4)c4nc(c(-c5ccc(S(=O)(=O)[O-])cc5)c5ccc2[nH]5)C=C4)C=C3)cc1
REMARK SMILES IDX 8 1 7 2 6 3 5 4 4 5 3 6 2 7 1 8 35 9 36 10 94 11 37 12 93 13
REMARK SMILES IDX 38 14 39 15 40 16 87 17 41 18 92 19 86 20 88 21 42 22 91 23
REMARK SMILES IDX 85 24 84 25 43 27 73 28 54 29 72 30 55 31 58 32 71 33 89 34
REMARK SMILES IDX 56 35 57 36 70 38 90 39 59 40 44 41 45 42 53 43 46 44 52 45
REMARK SMILES IDX 47 46 48 47 49 48 50 49 51 50 74 51 75 52 83 53 76 54 82 55
REMARK SMILES IDX 77 56 78 57 79 58 80 59 81 60 60 61 61 62 69 63 62 64 68 65
REMARK SMILES IDX 63 66 64 67 65 68 66 69 67 70 9 71 10 72 11 73 12 74 13 75
REMARK SMILES IDX 14 76 15 77 16 78 33 79 30 80 32 81 34 82 31 83 17 84 18 85
REMARK SMILES IDX 19 86 20 88 21 89 25 90 22 91 24 92 23 93 26 94 27 95 28 96
REMARK SMILES IDX 29 97
REMARK H PARENT 88 26 58 37 19 87
REMARK Flexibility Score: inf
ROOT
ATOM      1  C   UNL     1       1.528   0.794   2.342  1.00  0.00     0.188 C 
ENDROOT
BRANCH   1   2
ATOM      2  C   UNL     1       2.388   0.318   1.160  1.00  0.00     0.188 C 
BRANCH   2   3
ATOM      3  O   UNL     1       3.759   0.513   1.414  1.00  0.00    -0.376 OA
BRANCH   3   4
ATOM      4  C   UNL     1       4.656   0.819   0.373  1.00  0.00     0.202 C 
BRANCH   4   5
ATOM      5  C   UNL     1       4.213   1.810  -0.697  1.00  0.00     0.261 C 
BRANCH   5   6
ATOM      6  O   UNL     1       3.182   1.458  -1.658  1.00  0.00    -0.460 OA
BRANCH   6   7
ATOM      7  C   UNL     1       2.709   0.324  -2.216  1.00  0.00     0.338 C 
ATOM      8  O   UNL     1       1.623   0.345  -2.773  1.00  0.00    -0.246 OA
BRANCH   7   9
ATOM      9  C   UNL     1       3.440  -0.967  -2.148  1.00  0.00     0.060 A 
ATOM     10  C   UNL     1       4.829  -1.071  -2.155  1.00  0.00     0.016 A 
ATOM     11  C   UNL     1       2.675  -2.145  -2.193  1.00  0.00     0.016 A 
ATOM     12  C   UNL     1       5.445  -2.329  -2.076  1.00  0.00     0.010 A 
ATOM     13  C   UNL     1       3.292  -3.403  -2.196  1.00  0.00     0.010 A 
ATOM     14  C   UNL     1       4.685  -3.509  -2.115  1.00  0.00    -0.014 A 
BRANCH  14  15
ATOM     15  C   UNL     1       5.360  -4.825  -2.292  1.00  0.00     0.031 A 
ATOM     16  C   UNL     1       6.016  -5.114  -3.595  1.00  0.00     0.074 A 
ATOM     17  C   UNL     1       5.395  -5.784  -1.348  1.00  0.00     0.049 A 
ATOM     18  N   UNL     1       6.820  -6.097  -3.887  1.00  0.00    -0.248 NA
ATOM     19  C   UNL     1       5.778  -4.158  -4.686  1.00  0.00     0.031 C 
ATOM     20  C   UNL     1       4.850  -5.618  -0.024  1.00  0.00     0.029 A 
ATOM     21  N   UNL     1       5.886  -7.069  -1.332  1.00  0.00    -0.354 N 
ATOM     22  C   UNL     1       7.245  -5.844  -5.174  1.00  0.00     0.074 A 
ATOM     23  C   UNL     1       6.585  -4.634  -5.621  1.00  0.00     0.031 C 
ATOM     24  C   UNL     1       4.905  -6.782   0.640  1.00  0.00     0.029 A 
ATOM     25  C   UNL     1       5.653  -7.737  -0.148  1.00  0.00     0.049 A 
ATOM     26  H   UNL     1       6.360  -7.474  -2.094  1.00  0.00     0.167 HD
ATOM     27  C   UNL     1       8.114  -6.561  -5.915  1.00  0.00     0.031 A 
ATOM     28  C   UNL     1       6.045  -8.943   0.311  1.00  0.00     0.031 A 
ATOM     29  C   UNL     1       8.659  -7.832  -5.532  1.00  0.00     0.049 A 
ATOM     30  C   UNL     1       6.920  -9.770  -0.581  1.00  0.00     0.074 A 
ATOM     31  C   UNL     1       9.497  -8.654  -6.261  1.00  0.00     0.029 A 
ATOM     32  N   UNL     1       8.376  -8.494  -4.347  1.00  0.00    -0.354 N 
ATOM     33  N   UNL     1       7.425  -9.447  -1.746  1.00  0.00    -0.248 NA
ATOM     34  C   UNL     1       7.295 -11.107  -0.102  1.00  0.00     0.031 C 
ATOM     35  C   UNL     1       9.663  -9.846  -5.549  1.00  0.00     0.029 A 
ATOM     36  C   UNL     1       8.980  -9.741  -4.348  1.00  0.00     0.049 A 
ATOM     37  H   UNL     1       7.827  -8.132  -3.614  1.00  0.00     0.167 HD
ATOM     38  C   UNL     1       8.187 -10.536  -2.138  1.00  0.00     0.074 A 
ATOM     39  C   UNL     1       8.108 -11.512  -1.068  1.00  0.00     0.031 C 
ATOM     40  C   UNL     1       8.880 -10.711  -3.287  1.00  0.00     0.031 A 
BRANCH  27  41
ATOM     41  C   UNL     1       8.458  -5.984  -7.248  1.00  0.00    -0.014 A 
ATOM     42  C   UNL     1       9.358  -4.908  -7.346  1.00  0.00     0.010 A 
ATOM     43  C   UNL     1       7.849  -6.498  -8.403  1.00  0.00     0.010 A 
ATOM     44  C   UNL     1       9.631  -4.340  -8.588  1.00  0.00     0.020 A 
ATOM     45  C   UNL     1       8.133  -5.940  -9.649  1.00  0.00     0.020 A 
ATOM     46  C   UNL     1       9.014  -4.859  -9.731  1.00  0.00     0.054 A 
BRANCH  46  47
ATOM     47  S   UNL     1       9.402  -4.115 -11.336  1.00  0.00     0.124 S 
ATOM     48  O   UNL     1       8.697  -2.839 -11.253  1.00  0.00    -0.237 OA
ATOM     49  O   UNL     1      10.860  -4.032 -11.303  1.00  0.00    -0.237 OA
ATOM     50  O   UNL     1       8.856  -5.068 -12.299  1.00  0.00    -0.744 OA
ENDBRANCH  46  47
ENDBRANCH  27  41
BRANCH  28  51
ATOM     51  C   UNL     1       5.681  -9.418   1.683  1.00  0.00    -0.014 A 
ATOM     52  C   UNL     1       6.672  -9.634   2.661  1.00  0.00     0.010 A 
ATOM     53  C   UNL     1       4.342  -9.700   2.012  1.00  0.00     0.010 A 
ATOM     54  C   UNL     1       6.340 -10.176   3.910  1.00  0.00     0.020 A 
ATOM     55  C   UNL     1       4.002 -10.211   3.271  1.00  0.00     0.020 A 
ATOM     56  C   UNL     1       5.007 -10.476   4.201  1.00  0.00     0.054 A 
BRANCH  56  57
ATOM     57  S   UNL     1       4.604 -11.241   5.800  1.00  0.00     0.124 S 
ATOM     58  O   UNL     1       5.067 -12.612   5.598  1.00  0.00    -0.237 OA
ATOM     59  O   UNL     1       5.385 -10.449   6.745  1.00  0.00    -0.237 OA
ATOM     60  O   UNL     1       3.154 -11.086   5.902  1.00  0.00    -0.744 OA
ENDBRANCH  56  57
ENDBRANCH  28  51
BRANCH  40  61
ATOM     61  C   UNL     1       9.601 -12.017  -3.452  1.00  0.00    -0.014 A 
ATOM     62  C   UNL     1       8.890 -13.210  -3.673  1.00  0.00     0.010 A 
ATOM     63  C   UNL     1      11.006 -12.044  -3.427  1.00  0.00     0.010 A 
ATOM     64  C   UNL     1       9.573 -14.416  -3.837  1.00  0.00     0.020 A 
ATOM     65  C   UNL     1      11.693 -13.244  -3.619  1.00  0.00     0.020 A 
ATOM     66  C   UNL     1      10.971 -14.424  -3.809  1.00  0.00     0.054 A 
BRANCH  66  67
ATOM     67  S   UNL     1      11.837 -15.994  -4.076  1.00  0.00     0.124 S 
ATOM     68  O   UNL     1      11.652 -16.664  -2.792  1.00  0.00    -0.237 OA
ATOM     69  O   UNL     1      11.109 -16.576  -5.201  1.00  0.00    -0.237 OA
ATOM     70  O   UNL     1      13.208 -15.584  -4.374  1.00  0.00    -0.744 OA
ENDBRANCH  66  67
ENDBRANCH  40  61
ENDBRANCH  14  15
ENDBRANCH   7   9
ENDBRANCH   6   7
ENDBRANCH   5   6
ENDBRANCH   4   5
ENDBRANCH   3   4
ENDBRANCH   2   3
ENDBRANCH   1   2
BRANCH   1  71
ATOM     71  O   UNL     1       2.169   1.629   3.306  1.00  0.00    -0.376 OA
BRANCH  71  72
ATOM     72  C   UNL     1       3.273   1.059   4.009  1.00  0.00     0.202 C 
BRANCH  72  73
ATOM     73  C   UNL     1       3.038  -0.291   4.688  1.00  0.00     0.261 C 
BRANCH  73  74
ATOM     74  O   UNL     1       2.640  -1.390   3.832  1.00  0.00    -0.463 OA
BRANCH  74  75
ATOM     75  C   UNL     1       2.469  -2.534   4.553  1.00  0.00     0.310 C 
ATOM     76  O   UNL     1       2.703  -2.590   5.760  1.00  0.00    -0.252 OA
BRANCH  75  77
ATOM     77  C   UNL     1       1.851  -3.705   3.837  1.00  0.00     0.119 C 
ATOM     78  C   UNL     1       2.572  -5.056   3.570  1.00  0.00     0.100 C 
ATOM     79  C   UNL     1       0.918  -3.541   2.614  1.00  0.00     0.027 C 
ATOM     80  C   UNL     1       1.915  -5.538   2.232  1.00  0.00     0.025 C 
ATOM     81  C   UNL     1       1.646  -3.433   1.309  1.00  0.00    -0.027 C 
ATOM     82  C   UNL     1       0.471  -5.022   2.437  1.00  0.00     0.017 C 
ATOM     83  C   UNL     1       2.173  -4.636   1.062  1.00  0.00    -0.027 C 
BRANCH  78  84
ATOM     84  C   UNL     1       3.933  -5.644   4.025  1.00  0.00     0.229 C 
ATOM     85  O   UNL     1       3.855  -6.581   4.845  1.00  0.00    -0.274 OA
ATOM     86  N   UNL     1       5.205  -5.478   3.592  1.00  0.00    -0.323 N 
ATOM     87  H   UNL     1       5.767  -6.238   3.867  1.00  0.00     0.170 HD
BRANCH  86  88
ATOM     88  C   UNL     1       5.956  -4.545   2.871  1.00  0.00     0.084 A 
ATOM     89  C   UNL     1       7.065  -5.014   2.147  1.00  0.00     0.030 A 
ATOM     90  C   UNL     1       5.747  -3.178   2.898  1.00  0.00     0.149 A 
ATOM     91  C   UNL     1       7.750  -4.177   1.258  1.00  0.00     0.002 A 
ATOM     92  C   UNL     1       6.379  -2.339   1.974  1.00  0.00     0.049 A 
ATOM     93  C   UNL     1       7.364  -2.847   1.129  1.00  0.00     0.004 A 
BRANCH  90  94
ATOM     94  O   UNL     1       5.102  -2.567   3.930  1.00  0.00    -0.433 OA
BRANCH  94  95
ATOM     95  C   UNL     1       5.671  -2.872   5.220  1.00  0.00     0.542 C 
ATOM     96  F   UNL     1       4.995  -3.891   5.788  1.00  0.00    -0.167 F 
ATOM     97  F   UNL     1       6.977  -3.223   5.130  1.00  0.00    -0.167 F 
ENDBRANCH  94  95
ENDBRANCH  90  94
ENDBRANCH  86  88
ENDBRANCH  78  84
ENDBRANCH  75  77
ENDBRANCH  74  75
ENDBRANCH  73  74
ENDBRANCH  72  73
ENDBRANCH  71  72
ENDBRANCH   1  71
TORSDOF 24
