REMARK SMILES Cc1ccc(NC(=O)C[C@H]2SC[C@H](C(=O)OCCOCCOCCOC(=O)c3ccc(-c4c5nc(c(-c6ccc(S(=O)(=O)[O-])cc6)c6ccc([nH]6)c(-c6ccc(S(=O)(=O)[O-])cc6)c6nc(c(-c7ccc(S(=O)(=O)[O-])cc7)c7ccc4[nH]7)C=C6)C=C5)cc3)NC2=O)cc1
REMARK SMILES IDX 20 1 19 2 18 3 17 4 16 5 14 6 15 7 13 8 10 9 11 10 89 11
REMARK SMILES IDX 12 12 88 13 90 14 9 16 7 17 6 18 8 20 5 21 1 22 2 23 3 24
REMARK SMILES IDX 92 25 4 26 91 27 21 28 22 29 23 30 24 31 25 32 26 33 27 34
REMARK SMILES IDX 28 35 29 36 87 37 30 38 86 39 31 40 32 41 33 42 80 43 34 44
REMARK SMILES IDX 85 45 79 46 81 47 35 48 84 49 78 50 77 51 36 53 66 54 47 55
REMARK SMILES IDX 65 56 48 57 51 58 64 59 82 60 49 61 50 62 63 64 83 65 52 66
REMARK SMILES IDX 37 67 38 68 46 69 39 70 45 71 40 72 41 73 42 74 43 75 44 76
REMARK SMILES IDX 67 77 68 78 76 79 69 80 75 81 70 82 71 83 72 84 73 85 74 86
REMARK SMILES IDX 53 87 54 88 62 89 55 90 61 91 56 92 57 93 58 94 59 95 60 96
REMARK H PARENT 88 15 6 19 81 52 51 63
REMARK Flexibility Score: inf
ROOT
ATOM      1  C   UNL     1      -8.444  -3.257  -7.436  1.00  0.00     0.188 C 
ENDROOT
BRANCH   1   2
ATOM      2  O   UNL     1      -9.438  -4.111  -6.901  1.00  0.00    -0.376 OA
BRANCH   2   3
ATOM      3  C   UNL     1      -8.992  -4.834  -5.767  1.00  0.00     0.202 C 
BRANCH   3   4
ATOM      4  C   UNL     1      -7.840  -4.316  -4.865  1.00  0.00     0.261 C 
BRANCH   4   5
ATOM      5  O   UNL     1      -6.314  -4.041  -5.407  1.00  0.00    -0.462 OA
BRANCH   5   6
ATOM      6  C   UNL     1      -4.897  -3.996  -5.270  1.00  0.00     0.329 C 
ATOM      7  O   UNL     1      -4.376  -4.433  -6.285  1.00  0.00    -0.250 OA
BRANCH   6   8
ATOM      8  C   UNL     1      -3.722  -3.719  -4.068  1.00  0.00     0.202 C 
ATOM      9  C   UNL     1      -1.484  -3.339  -1.868  1.00  0.00     0.145 C 
ATOM     10  S   UNL     1      -1.933  -1.882  -2.860  1.00  0.00    -0.145 SA
ATOM     11  C   UNL     1      -1.767  -4.659  -2.648  1.00  0.00     0.234 C 
ATOM     12  C   UNL     1      -3.604  -2.404  -3.269  1.00  0.00     0.107 C 
ATOM     13  N   UNL     1      -2.988  -4.809  -3.329  1.00  0.00    -0.341 N 
ATOM     14  O   UNL     1      -1.015  -5.631  -2.561  1.00  0.00    -0.274 OA
ATOM     15  H   UNL     1      -3.399  -5.704  -3.322  1.00  0.00     0.164 HD
BRANCH   9  16
ATOM     16  C   UNL     1      -0.098  -2.955  -1.311  1.00  0.00     0.124 C 
BRANCH  16  17
ATOM     17  C   UNL     1       0.916  -4.009  -0.967  1.00  0.00     0.226 C 
ATOM     18  N   UNL     1       0.632  -5.037  -0.137  1.00  0.00    -0.326 N 
ATOM     19  H   UNL     1       1.301  -5.759  -0.155  1.00  0.00     0.169 HD
ATOM     20  O   UNL     1       2.063  -3.928  -1.424  1.00  0.00    -0.275 OA
BRANCH  18  21
ATOM     21  C   UNL     1      -0.428  -5.271   0.741  1.00  0.00     0.041 A 
ATOM     22  C   UNL     1      -3.372  -6.371   3.676  1.00  0.00     0.044 C 
ATOM     23  C   UNL     1      -2.396  -5.977   2.609  1.00  0.00    -0.051 A 
ATOM     24  C   UNL     1      -2.058  -4.632   2.407  1.00  0.00     0.005 A 
ATOM     25  C   UNL     1      -1.754  -6.961   1.854  1.00  0.00     0.005 A 
ATOM     26  C   UNL     1      -1.079  -4.277   1.471  1.00  0.00     0.026 A 
ATOM     27  C   UNL     1      -0.765  -6.609   0.942  1.00  0.00     0.026 A 
ENDBRANCH  18  21
ENDBRANCH  16  17
ENDBRANCH   9  16
ENDBRANCH   6   8
ENDBRANCH   5   6
ENDBRANCH   4   5
ENDBRANCH   3   4
ENDBRANCH   2   3
ENDBRANCH   1   2
BRANCH   1  28
ATOM     28  C   UNL     1      -8.546  -1.854  -6.821  1.00  0.00     0.188 C 
BRANCH  28  29
ATOM     29  O   UNL     1      -8.732  -1.829  -5.407  1.00  0.00    -0.376 OA
BRANCH  29  30
ATOM     30  C   UNL     1     -10.028  -1.524  -4.900  1.00  0.00     0.202 C 
BRANCH  30  31
ATOM     31  C   UNL     1     -10.211  -0.006  -4.816  1.00  0.00     0.261 C 
BRANCH  31  32
ATOM     32  O   UNL     1      -9.672   0.507  -3.571  1.00  0.00    -0.460 OA
BRANCH  32  33
ATOM     33  C   UNL     1      -8.354   0.810  -3.615  1.00  0.00     0.338 C 
ATOM     34  O   UNL     1      -7.861   1.738  -4.247  1.00  0.00    -0.246 OA
BRANCH  33  35
ATOM     35  C   UNL     1      -7.602  -0.319  -3.020  1.00  0.00     0.060 A 
ATOM     36  C   UNL     1      -6.598  -0.781  -3.807  1.00  0.00     0.016 A 
ATOM     37  C   UNL     1      -8.035  -1.140  -1.972  1.00  0.00     0.016 A 
ATOM     38  C   UNL     1      -6.213  -2.115  -3.641  1.00  0.00     0.010 A 
ATOM     39  C   UNL     1      -7.530  -2.474  -1.790  1.00  0.00     0.010 A 
ATOM     40  C   UNL     1      -6.582  -3.065  -2.648  1.00  0.00    -0.014 A 
BRANCH  40  41
ATOM     41  C   UNL     1      -6.210  -4.656  -2.475  1.00  0.00     0.031 A 
ATOM     42  C   UNL     1      -5.815  -5.059  -1.076  1.00  0.00     0.074 A 
ATOM     43  C   UNL     1      -6.126  -5.829  -3.269  1.00  0.00     0.049 A 
ATOM     44  N   UNL     1      -5.496  -6.263  -0.717  1.00  0.00    -0.248 NA
ATOM     45  C   UNL     1      -5.685  -4.112   0.026  1.00  0.00     0.031 C 
ATOM     46  C   UNL     1      -6.771  -7.112  -2.830  1.00  0.00     0.029 A 
ATOM     47  N   UNL     1      -5.919  -6.207  -4.612  1.00  0.00    -0.354 N 
ATOM     48  C   UNL     1      -5.651  -6.322   0.636  1.00  0.00     0.074 A 
ATOM     49  C   UNL     1      -5.544  -4.947   1.058  1.00  0.00     0.031 C 
ATOM     50  C   UNL     1      -6.720  -8.049  -3.797  1.00  0.00     0.029 A 
ATOM     51  C   UNL     1      -5.954  -7.540  -4.915  1.00  0.00     0.049 A 
ATOM     52  H   UNL     1      -5.754  -5.532  -5.310  1.00  0.00     0.167 HD
ATOM     53  C   UNL     1      -6.083  -7.482   1.208  1.00  0.00     0.031 A 
ATOM     54  C   UNL     1      -5.140  -8.169  -5.822  1.00  0.00     0.031 A 
ATOM     55  C   UNL     1      -6.065  -8.645   0.298  1.00  0.00     0.049 A 
ATOM     56  C   UNL     1      -4.438  -9.267  -5.072  1.00  0.00     0.074 A 
ATOM     57  C   UNL     1      -7.042  -9.513  -0.166  1.00  0.00     0.029 A 
ATOM     58  N   UNL     1      -4.910  -8.966  -0.422  1.00  0.00    -0.354 N 
ATOM     59  N   UNL     1      -4.683  -9.461  -3.811  1.00  0.00    -0.248 NA
ATOM     60  C   UNL     1      -3.385 -10.149  -5.554  1.00  0.00     0.031 C 
ATOM     61  C   UNL     1      -6.455 -10.385  -1.126  1.00  0.00     0.029 A 
ATOM     62  C   UNL     1      -5.110 -10.076  -1.232  1.00  0.00     0.049 A 
ATOM     63  H   UNL     1      -4.063  -8.469  -0.362  1.00  0.00     0.167 HD
ATOM     64  C   UNL     1      -3.870 -10.397  -3.287  1.00  0.00     0.074 A 
ATOM     65  C   UNL     1      -3.038 -10.788  -4.416  1.00  0.00     0.031 C 
ATOM     66  C   UNL     1      -3.996 -10.700  -1.965  1.00  0.00     0.031 A 
BRANCH  53  67
ATOM     67  C   UNL     1      -6.741  -7.524   2.582  1.00  0.00    -0.014 A 
ATOM     68  C   UNL     1      -7.171  -8.750   3.130  1.00  0.00     0.010 A 
ATOM     69  C   UNL     1      -7.022  -6.382   3.362  1.00  0.00     0.010 A 
ATOM     70  C   UNL     1      -7.807  -8.828   4.384  1.00  0.00     0.020 A 
ATOM     71  C   UNL     1      -7.606  -6.445   4.632  1.00  0.00     0.020 A 
ATOM     72  C   UNL     1      -8.004  -7.672   5.136  1.00  0.00     0.054 A 
BRANCH  72  73
ATOM     73  S   UNL     1      -8.754  -7.765   6.781  1.00  0.00     0.124 S 
ATOM     74  O   UNL     1     -10.157  -8.017   6.464  1.00  0.00    -0.237 OA
ATOM     75  O   UNL     1      -8.033  -8.873   7.400  1.00  0.00    -0.237 OA
ATOM     76  O   UNL     1      -8.476  -6.450   7.358  1.00  0.00    -0.744 OA
ENDBRANCH  72  73
ENDBRANCH  53  67
BRANCH  54  77
ATOM     77  C   UNL     1      -4.596  -7.404  -7.012  1.00  0.00    -0.014 A 
ATOM     78  C   UNL     1      -5.532  -6.927  -7.965  1.00  0.00     0.010 A 
ATOM     79  C   UNL     1      -3.285  -6.886  -7.093  1.00  0.00     0.010 A 
ATOM     80  C   UNL     1      -5.253  -5.818  -8.791  1.00  0.00     0.020 A 
ATOM     81  C   UNL     1      -2.985  -5.780  -7.943  1.00  0.00     0.020 A 
ATOM     82  C   UNL     1      -4.008  -5.186  -8.707  1.00  0.00     0.054 A 
BRANCH  82  83
ATOM     83  S   UNL     1      -3.985  -3.328  -9.008  1.00  0.00     0.124 S 
ATOM     84  O   UNL     1      -3.503  -3.242 -10.382  1.00  0.00    -0.237 OA
ATOM     85  O   UNL     1      -5.386  -2.931  -8.824  1.00  0.00    -0.237 OA
ATOM     86  O   UNL     1      -3.071  -2.786  -8.000  1.00  0.00    -0.744 OA
ENDBRANCH  82  83
ENDBRANCH  54  77
BRANCH  66  87
ATOM     87  C   UNL     1      -3.101 -11.645  -1.235  1.00  0.00    -0.014 A 
ATOM     88  C   UNL     1      -2.436 -12.718  -1.842  1.00  0.00     0.010 A 
ATOM     89  C   UNL     1      -2.953 -11.485   0.160  1.00  0.00     0.010 A 
ATOM     90  C   UNL     1      -1.569 -13.527  -1.106  1.00  0.00     0.020 A 
ATOM     91  C   UNL     1      -2.116 -12.304   0.910  1.00  0.00     0.020 A 
ATOM     92  C   UNL     1      -1.403 -13.302   0.262  1.00  0.00     0.054 A 
BRANCH  92  93
ATOM     93  S   UNL     1      -0.258 -14.347   1.184  1.00  0.00     0.124 S 
ATOM     94  O   UNL     1      -0.694 -15.691   0.814  1.00  0.00    -0.237 OA
ATOM     95  O   UNL     1       1.032 -13.932   0.640  1.00  0.00    -0.237 OA
ATOM     96  O   UNL     1      -0.495 -13.979   2.578  1.00  0.00    -0.744 OA
ENDBRANCH  92  93
ENDBRANCH  66  87
ENDBRANCH  40  41
ENDBRANCH  33  35
ENDBRANCH  32  33
ENDBRANCH  31  32
ENDBRANCH  30  31
ENDBRANCH  29  30
ENDBRANCH  28  29
ENDBRANCH   1  28
TORSDOF 23
