REMARK SMILES O=C(OCCOCCOCCOC(=O)[C@@H]1[C@H](C(=O)Nc2ccc(Cn3cncn3)cc2)[C@@H]2C=C[C@H]1CC2)c1ccc(-c2c3nc(c(-c4ccc(S(=O)(=O)[O-])cc4)c4ccc([nH]4)c(-c4ccc(S(=O)(=O)[O-])cc4)c4nc(c(-c5ccc(S(=O)(=O)[O-])cc5)c5ccc2[nH]5)C=C4)C=C3)cc1
REMARK SMILES IDX 8 1 7 2 6 3 5 4 4 5 3 6 2 7 1 8 38 9 39 10 97 11 40 12 96 13
REMARK SMILES IDX 41 14 42 15 43 16 90 17 44 18 95 19 89 20 91 21 45 22 94 23
REMARK SMILES IDX 88 24 87 25 46 27 76 28 57 29 75 30 58 31 61 32 74 33 92 34
REMARK SMILES IDX 59 35 60 36 73 38 93 39 62 40 47 41 48 42 56 43 49 44 55 45
REMARK SMILES IDX 50 46 51 47 52 48 53 49 54 50 77 51 78 52 86 53 79 54 85 55
REMARK SMILES IDX 80 56 81 57 82 58 83 59 84 60 63 61 64 62 72 63 65 64 71 65
REMARK SMILES IDX 66 66 67 67 68 68 69 69 70 70 9 71 10 72 11 73 12 74 13 75
REMARK SMILES IDX 14 76 15 77 16 78 35 79 32 80 34 81 36 82 33 83 37 84 17 85
REMARK SMILES IDX 18 86 19 87 20 89 21 90 31 91 22 92 30 93 23 94 24 95 25 96
REMARK SMILES IDX 26 97 29 98 27 99 28 100
REMARK H PARENT 91 26 61 37 19 88
REMARK Flexibility Score: inf
ROOT
ATOM      1  C   UNL     1       2.978  -0.037   2.080  1.00  0.00     0.188 C 
ENDROOT
BRANCH   1   2
ATOM      2  C   UNL     1       3.267  -0.793   0.772  1.00  0.00     0.188 C 
BRANCH   2   3
ATOM      3  O   UNL     1       4.557  -0.780   0.180  1.00  0.00    -0.376 OA
BRANCH   3   4
ATOM      4  C   UNL     1       5.346   0.391   0.088  1.00  0.00     0.202 C 
BRANCH   4   5
ATOM      5  C   UNL     1       4.789   1.754  -0.334  1.00  0.00     0.261 C 
BRANCH   5   6
ATOM      6  O   UNL     1       3.403   2.000  -0.102  1.00  0.00    -0.460 OA
BRANCH   6   7
ATOM      7  C   UNL     1       2.326   1.730  -0.866  1.00  0.00     0.338 C 
ATOM      8  O   UNL     1       1.233   2.152  -0.489  1.00  0.00    -0.246 OA
BRANCH   7   9
ATOM      9  C   UNL     1       2.358   0.836  -2.061  1.00  0.00     0.060 A 
ATOM     10  C   UNL     1       3.489   0.515  -2.813  1.00  0.00     0.016 A 
ATOM     11  C   UNL     1       1.112   0.305  -2.456  1.00  0.00     0.016 A 
ATOM     12  C   UNL     1       3.360  -0.164  -4.012  1.00  0.00     0.010 A 
ATOM     13  C   UNL     1       0.979  -0.392  -3.647  1.00  0.00     0.010 A 
ATOM     14  C   UNL     1       2.096  -0.534  -4.461  1.00  0.00    -0.014 A 
BRANCH  14  15
ATOM     15  C   UNL     1       1.999  -0.900  -5.863  1.00  0.00     0.031 A 
ATOM     16  C   UNL     1       2.686  -2.140  -6.297  1.00  0.00     0.074 A 
ATOM     17  C   UNL     1       1.364  -0.094  -6.735  1.00  0.00     0.049 A 
ATOM     18  N   UNL     1       3.696  -2.259  -7.097  1.00  0.00    -0.248 NA
ATOM     19  C   UNL     1       2.230  -3.402  -5.703  1.00  0.00     0.031 C 
ATOM     20  C   UNL     1       0.459   1.024  -6.444  1.00  0.00     0.029 A 
ATOM     21  N   UNL     1       1.330  -0.178  -8.091  1.00  0.00    -0.354 N 
ATOM     22  C   UNL     1       3.905  -3.626  -7.249  1.00  0.00     0.074 A 
ATOM     23  C   UNL     1       3.048  -4.278  -6.288  1.00  0.00     0.031 C 
ATOM     24  C   UNL     1      -0.210   1.353  -7.569  1.00  0.00     0.029 A 
ATOM     25  C   UNL     1       0.330   0.582  -8.674  1.00  0.00     0.049 A 
ATOM     26  H   UNL     1       1.960  -0.728  -8.611  1.00  0.00     0.167 HD
ATOM     27  C   UNL     1       4.640  -4.154  -8.268  1.00  0.00     0.031 A 
ATOM     28  C   UNL     1      -0.080   0.519  -9.961  1.00  0.00     0.031 A 
ATOM     29  C   UNL     1       5.487  -3.183  -8.902  1.00  0.00     0.049 A 
ATOM     30  C   UNL     1       1.023  -0.072 -10.754  1.00  0.00     0.074 A 
ATOM     31  C   UNL     1       6.558  -2.415  -8.491  1.00  0.00     0.029 A 
ATOM     32  N   UNL     1       5.057  -2.627 -10.083  1.00  0.00    -0.354 N 
ATOM     33  N   UNL     1       2.168   0.522 -10.949  1.00  0.00    -0.248 NA
ATOM     34  C   UNL     1       1.024  -1.507 -10.991  1.00  0.00     0.031 C 
ATOM     35  C   UNL     1       6.415  -1.177  -9.183  1.00  0.00     0.029 A 
ATOM     36  C   UNL     1       5.287  -1.275 -10.002  1.00  0.00     0.049 A 
ATOM     37  H   UNL     1       4.659  -3.107 -10.844  1.00  0.00     0.167 HD
ATOM     38  C   UNL     1       3.112  -0.494 -10.928  1.00  0.00     0.074 A 
ATOM     39  C   UNL     1       2.340  -1.725 -11.064  1.00  0.00     0.031 C 
ATOM     40  C   UNL     1       4.401  -0.260 -10.537  1.00  0.00     0.031 A 
BRANCH  27  41
ATOM     41  C   UNL     1       4.357  -5.505  -8.871  1.00  0.00    -0.014 A 
ATOM     42  C   UNL     1       5.268  -6.080  -9.777  1.00  0.00     0.010 A 
ATOM     43  C   UNL     1       3.090  -6.118  -8.758  1.00  0.00     0.010 A 
ATOM     44  C   UNL     1       4.915  -7.197 -10.552  1.00  0.00     0.020 A 
ATOM     45  C   UNL     1       2.744  -7.253  -9.491  1.00  0.00     0.020 A 
ATOM     46  C   UNL     1       3.649  -7.769 -10.408  1.00  0.00     0.054 A 
BRANCH  46  47
ATOM     47  S   UNL     1       3.163  -9.146 -11.478  1.00  0.00     0.124 S 
ATOM     48  O   UNL     1       3.083  -8.499 -12.784  1.00  0.00    -0.237 OA
ATOM     49  O   UNL     1       4.268 -10.084 -11.301  1.00  0.00    -0.237 OA
ATOM     50  O   UNL     1       1.887  -9.583 -10.916  1.00  0.00    -0.744 OA
ENDBRANCH  46  47
ENDBRANCH  27  41
BRANCH  28  51
ATOM     51  C   UNL     1      -1.484   0.591 -10.425  1.00  0.00    -0.014 A 
ATOM     52  C   UNL     1      -1.793   0.771 -11.783  1.00  0.00     0.010 A 
ATOM     53  C   UNL     1      -2.530   0.215  -9.554  1.00  0.00     0.010 A 
ATOM     54  C   UNL     1      -3.092   0.530 -12.261  1.00  0.00     0.020 A 
ATOM     55  C   UNL     1      -3.826  -0.017 -10.020  1.00  0.00     0.020 A 
ATOM     56  C   UNL     1      -4.095   0.119 -11.377  1.00  0.00     0.054 A 
BRANCH  56  57
ATOM     57  S   UNL     1      -5.719  -0.364 -12.030  1.00  0.00     0.124 S 
ATOM     58  O   UNL     1      -6.283   0.920 -12.437  1.00  0.00    -0.237 OA
ATOM     59  O   UNL     1      -5.365  -1.273 -13.117  1.00  0.00    -0.237 OA
ATOM     60  O   UNL     1      -6.376  -0.997 -10.888  1.00  0.00    -0.744 OA
ENDBRANCH  56  57
ENDBRANCH  28  51
BRANCH  40  61
ATOM     61  C   UNL     1       4.849   1.179 -10.379  1.00  0.00    -0.014 A 
ATOM     62  C   UNL     1       4.258   2.073  -9.462  1.00  0.00     0.010 A 
ATOM     63  C   UNL     1       6.001   1.599 -11.068  1.00  0.00     0.010 A 
ATOM     64  C   UNL     1       4.788   3.357  -9.262  1.00  0.00     0.020 A 
ATOM     65  C   UNL     1       6.545   2.871 -10.860  1.00  0.00     0.020 A 
ATOM     66  C   UNL     1       5.931   3.748  -9.964  1.00  0.00     0.054 A 
BRANCH  66  67
ATOM     67  S   UNL     1       6.647   5.387  -9.653  1.00  0.00     0.124 S 
ATOM     68  O   UNL     1       5.662   6.283 -10.253  1.00  0.00    -0.237 OA
ATOM     69  O   UNL     1       6.734   5.433  -8.195  1.00  0.00    -0.237 OA
ATOM     70  O   UNL     1       7.938   5.339 -10.338  1.00  0.00    -0.744 OA
ENDBRANCH  66  67
ENDBRANCH  40  61
ENDBRANCH  14  15
ENDBRANCH   7   9
ENDBRANCH   6   7
ENDBRANCH   5   6
ENDBRANCH   4   5
ENDBRANCH   3   4
ENDBRANCH   2   3
ENDBRANCH   1   2
BRANCH   1  71
ATOM     71  O   UNL     1       3.529  -0.498   3.312  1.00  0.00    -0.376 OA
BRANCH  71  72
ATOM     72  C   UNL     1       4.875  -0.920   3.335  1.00  0.00     0.202 C 
BRANCH  72  73
ATOM     73  C   UNL     1       5.094  -2.441   3.465  1.00  0.00     0.261 C 
BRANCH  73  74
ATOM     74  O   UNL     1       4.569  -3.318   2.437  1.00  0.00    -0.463 OA
BRANCH  74  75
ATOM     75  C   UNL     1       3.222  -3.451   2.483  1.00  0.00     0.310 C 
ATOM     76  O   UNL     1       2.514  -2.709   3.141  1.00  0.00    -0.252 OA
BRANCH  75  77
ATOM     77  C   UNL     1       2.626  -4.564   1.646  1.00  0.00     0.119 C 
ATOM     78  C   UNL     1       1.065  -4.618   1.782  1.00  0.00     0.100 C 
ATOM     79  C   UNL     1       3.188  -6.021   1.784  1.00  0.00     0.026 C 
ATOM     80  C   UNL     1       0.576  -6.088   1.765  1.00  0.00     0.025 C 
ATOM     81  C   UNL     1       2.548  -6.792   2.930  1.00  0.00    -0.027 C 
ATOM     82  C   UNL     1       2.694  -6.810   0.542  1.00  0.00     0.009 C 
ATOM     83  C   UNL     1       1.204  -6.815   2.925  1.00  0.00    -0.027 C 
ATOM     84  C   UNL     1       1.139  -6.773   0.490  1.00  0.00     0.009 C 
BRANCH  78  85
ATOM     85  C   UNL     1       0.239  -3.767   2.784  1.00  0.00     0.228 C 
ATOM     86  O   UNL     1      -0.598  -2.988   2.287  1.00  0.00    -0.274 OA
ATOM     87  N   UNL     1       0.192  -3.838   4.148  1.00  0.00    -0.326 N 
ATOM     88  H   UNL     1      -0.618  -3.400   4.496  1.00  0.00     0.169 HD
BRANCH  87  89
ATOM     89  C   UNL     1       0.974  -4.363   5.199  1.00  0.00     0.041 A 
ATOM     90  C   UNL     1       0.426  -4.429   6.480  1.00  0.00     0.026 A 
ATOM     91  C   UNL     1       2.289  -4.770   5.087  1.00  0.00     0.026 A 
ATOM     92  C   UNL     1       1.144  -5.013   7.545  1.00  0.00     0.008 A 
ATOM     93  C   UNL     1       3.038  -5.301   6.125  1.00  0.00     0.008 A 
ATOM     94  C   UNL     1       2.448  -5.495   7.357  1.00  0.00    -0.026 A 
BRANCH  94  95
ATOM     95  C   UNL     1       3.235  -6.240   8.394  1.00  0.00     0.181 C 
BRANCH  95  96
ATOM     96  N   UNL     1       4.066  -5.363   9.189  1.00  0.00    -0.249 N 
ATOM     97  C   UNL     1       3.657  -4.490  10.148  1.00  0.00     0.220 A 
ATOM     98  N   UNL     1       5.413  -5.435   9.143  1.00  0.00    -0.160 NA
ATOM     99  N   UNL     1       4.704  -3.970  10.745  1.00  0.00    -0.224 NA
ATOM    100  C   UNL     1       5.750  -4.561  10.095  1.00  0.00     0.246 A 
ENDBRANCH  95  96
ENDBRANCH  94  95
ENDBRANCH  87  89
ENDBRANCH  78  85
ENDBRANCH  75  77
ENDBRANCH  74  75
ENDBRANCH  73  74
ENDBRANCH  72  73
ENDBRANCH  71  72
ENDBRANCH   1  71
TORSDOF 24
