REMARK SMILES C[C@]1(C(=O)OCCOCCOCCOC(=O)c2ccc(-c3c4nc(c(-c5ccc(S(=O)(=O)[O-])cc5)c5ccc([nH]5)c(-c5ccc(S(=O)(=O)[O-])cc5)c5nc(c(-c6ccc(S(=O)(=O)[O-])cc6)c6ccc3[nH]6)C=C5)C=C4)cc2)COC[C@@H]1NC(=O)[C@H]1C=C[C@@H]([NH3+])C1
REMARK SMILES IDX 9 1 8 2 7 3 6 4 5 5 3 6 4 7 2 8 1 9 77 10 80 11 78 12 79 13
REMARK SMILES IDX 81 14 82 15 83 17 84 18 85 19 89 20 86 21 87 22 88 23 10 27
REMARK SMILES IDX 11 28 12 29 13 30 14 31 15 32 16 33 17 34 18 35 76 36 19 37
REMARK SMILES IDX 75 38 20 39 21 40 22 41 69 42 23 43 74 44 68 45 70 46 24 47
REMARK SMILES IDX 73 48 67 49 66 50 25 52 55 53 36 54 54 55 37 56 40 57 53 58
REMARK SMILES IDX 71 59 38 60 39 61 52 63 72 64 41 65 26 66 27 67 35 68 28 69
REMARK SMILES IDX 34 70 29 71 30 72 31 73 32 74 33 75 56 76 57 77 65 78 58 79
REMARK SMILES IDX 64 80 59 81 60 82 61 83 62 84 63 85 42 86 43 87 51 88 44 89
REMARK SMILES IDX 50 90 45 91 46 92 47 93 48 94 49 95
REMARK H PARENT 81 16 88 24 88 25 88 26 70 51 40 62
REMARK Flexibility Score: inf
ROOT
ATOM      1  C   UNL     1       0.488   1.388   1.894  1.00  0.00     0.188 C 
ENDROOT
BRANCH   1   2
ATOM      2  O   UNL     1       0.948   0.443   2.852  1.00  0.00    -0.376 OA
BRANCH   2   3
ATOM      3  C   UNL     1       2.270  -0.048   2.749  1.00  0.00     0.202 C 
BRANCH   3   4
ATOM      4  C   UNL     1       2.630  -0.860   1.498  1.00  0.00     0.261 C 
BRANCH   4   5
ATOM      5  O   UNL     1       2.046  -0.403   0.256  1.00  0.00    -0.463 OA
BRANCH   5   6
ATOM      6  C   UNL     1       1.138  -1.237  -0.322  1.00  0.00     0.316 C 
ATOM      7  O   UNL     1       0.820  -2.314   0.167  1.00  0.00    -0.251 OA
BRANCH   6   8
ATOM      8  C   UNL     1       0.652  -0.752  -1.703  1.00  0.00     0.111 C 
ATOM      9  C   UNL     1       1.818  -0.915  -2.682  1.00  0.00     0.028 C 
ATOM     10  C   UNL     1      -0.532  -1.659  -2.091  1.00  0.00     0.181 C 
ATOM     11  C   UNL     1       0.011   0.654  -1.727  1.00  0.00     0.127 C 
ATOM     12  O   UNL     1      -1.582  -0.817  -2.575  1.00  0.00    -0.378 OA
ATOM     13  C   UNL     1      -1.479   0.412  -1.860  1.00  0.00     0.186 C 
BRANCH  11  14
ATOM     14  N   UNL     1       0.628   1.669  -2.607  1.00  0.00    -0.349 N 
ATOM     15  C   UNL     1       0.632   2.133  -3.873  1.00  0.00     0.227 C 
ATOM     16  H   UNL     1       1.266   2.199  -2.076  1.00  0.00     0.163 HD
ATOM     17  O   UNL     1       1.542   2.962  -4.060  1.00  0.00    -0.274 OA
BRANCH  15  18
ATOM     18  C   UNL     1      -0.233   1.710  -5.080  1.00  0.00     0.107 C 
ATOM     19  C   UNL     1      -1.644   1.260  -4.934  1.00  0.00    -0.012 C 
ATOM     20  C   UNL     1      -0.409   2.952  -6.010  1.00  0.00     0.087 C 
ATOM     21  C   UNL     1      -2.516   1.941  -5.682  1.00  0.00     0.033 C 
ATOM     22  C   UNL     1      -1.848   2.945  -6.543  1.00  0.00     0.205 C 
BRANCH  22  23
ATOM     23  N   UNL     1      -2.484   4.246  -6.464  1.00  0.00    -0.352 N 
ATOM     24  H   UNL     1      -2.485   4.566  -5.495  1.00  0.00     0.345 HD
ATOM     25  H   UNL     1      -3.444   4.176  -6.800  1.00  0.00     0.345 HD
ATOM     26  H   UNL     1      -1.969   4.912  -7.040  1.00  0.00     0.345 HD
ENDBRANCH  22  23
ENDBRANCH  15  18
ENDBRANCH  11  14
ENDBRANCH   6   8
ENDBRANCH   5   6
ENDBRANCH   4   5
ENDBRANCH   3   4
ENDBRANCH   2   3
ENDBRANCH   1   2
BRANCH   1  27
ATOM     27  C   UNL     1       1.498   2.296   1.161  1.00  0.00     0.188 C 
BRANCH  27  28
ATOM     28  O   UNL     1       2.580   2.668   2.000  1.00  0.00    -0.376 OA
BRANCH  28  29
ATOM     29  C   UNL     1       2.920   4.041   1.953  1.00  0.00     0.202 C 
BRANCH  29  30
ATOM     30  C   UNL     1       2.071   4.850   2.939  1.00  0.00     0.261 C 
BRANCH  30  31
ATOM     31  O   UNL     1       0.649   4.622   2.846  1.00  0.00    -0.460 OA
BRANCH  31  32
ATOM     32  C   UNL     1       0.011   5.167   1.788  1.00  0.00     0.338 C 
ATOM     33  O   UNL     1       0.531   5.823   0.892  1.00  0.00    -0.246 OA
BRANCH  32  34
ATOM     34  C   UNL     1      -1.389   4.682   1.759  1.00  0.00     0.060 A 
ATOM     35  C   UNL     1      -1.881   4.085   0.589  1.00  0.00     0.016 A 
ATOM     36  C   UNL     1      -2.226   4.839   2.866  1.00  0.00     0.016 A 
ATOM     37  C   UNL     1      -3.220   3.677   0.513  1.00  0.00     0.010 A 
ATOM     38  C   UNL     1      -3.569   4.445   2.782  1.00  0.00     0.010 A 
ATOM     39  C   UNL     1      -4.086   3.890   1.596  1.00  0.00    -0.014 A 
BRANCH  39  40
ATOM     40  C   UNL     1      -5.558   3.712   1.444  1.00  0.00     0.031 A 
ATOM     41  C   UNL     1      -6.412   4.932   1.200  1.00  0.00     0.074 A 
ATOM     42  C   UNL     1      -6.146   2.503   1.524  1.00  0.00     0.049 A 
ATOM     43  N   UNL     1      -7.714   5.036   1.130  1.00  0.00    -0.248 NA
ATOM     44  C   UNL     1      -5.695   6.204   1.012  1.00  0.00     0.031 C 
ATOM     45  C   UNL     1      -5.452   1.229   1.701  1.00  0.00     0.029 A 
ATOM     46  N   UNL     1      -7.477   2.155   1.480  1.00  0.00    -0.354 N 
ATOM     47  C   UNL     1      -7.976   6.383   0.906  1.00  0.00     0.074 A 
ATOM     48  C   UNL     1      -6.696   7.060   0.875  1.00  0.00     0.031 C 
ATOM     49  C   UNL     1      -6.363   0.241   1.762  1.00  0.00     0.029 A 
ATOM     50  C   UNL     1      -7.707   0.812   1.673  1.00  0.00     0.049 A 
ATOM     51  H   UNL     1      -8.198   2.808   1.325  1.00  0.00     0.167 HD
ATOM     52  C   UNL     1      -9.168   7.006   0.741  1.00  0.00     0.031 A 
ATOM     53  C   UNL     1      -8.863   0.126   1.794  1.00  0.00     0.031 A 
ATOM     54  C   UNL     1     -10.445   6.346   0.789  1.00  0.00     0.049 A 
ATOM     55  C   UNL     1     -10.183   0.854   1.700  1.00  0.00     0.074 A 
ATOM     56  C   UNL     1     -11.704   6.898   0.625  1.00  0.00     0.029 A 
ATOM     57  N   UNL     1     -10.632   4.993   1.026  1.00  0.00    -0.354 N 
ATOM     58  N   UNL     1     -10.412   2.126   1.476  1.00  0.00    -0.248 NA
ATOM     59  C   UNL     1     -11.403   0.049   1.872  1.00  0.00     0.031 C 
ATOM     60  C   UNL     1     -12.655   5.892   0.825  1.00  0.00     0.029 A 
ATOM     61  C   UNL     1     -11.986   4.698   1.042  1.00  0.00     0.049 A 
ATOM     62  H   UNL     1      -9.910   4.338   1.163  1.00  0.00     0.167 HD
ATOM     63  C   UNL     1     -11.799   2.265   1.448  1.00  0.00     0.074 A 
ATOM     64  C   UNL     1     -12.356   0.948   1.665  1.00  0.00     0.031 C 
ATOM     65  C   UNL     1     -12.540   3.385   1.254  1.00  0.00     0.031 A 
BRANCH  52  66
ATOM     66  C   UNL     1      -9.148   8.499   0.535  1.00  0.00    -0.014 A 
ATOM     67  C   UNL     1      -8.673   9.067  -0.661  1.00  0.00     0.010 A 
ATOM     68  C   UNL     1      -9.648   9.345   1.543  1.00  0.00     0.010 A 
ATOM     69  C   UNL     1      -8.660  10.454  -0.828  1.00  0.00     0.020 A 
ATOM     70  C   UNL     1      -9.665  10.731   1.367  1.00  0.00     0.020 A 
ATOM     71  C   UNL     1      -9.154  11.278   0.189  1.00  0.00     0.054 A 
BRANCH  71  72
ATOM     72  S   UNL     1      -9.139  13.074  -0.062  1.00  0.00     0.124 S 
ATOM     73  O   UNL     1      -7.713  13.379   0.034  1.00  0.00    -0.237 OA
ATOM     74  O   UNL     1      -9.723  13.215  -1.394  1.00  0.00    -0.237 OA
ATOM     75  O   UNL     1      -9.959  13.585   1.033  1.00  0.00    -0.744 OA
ENDBRANCH  71  72
ENDBRANCH  52  66
BRANCH  53  76
ATOM     76  C   UNL     1      -8.838  -1.344   2.050  1.00  0.00    -0.014 A 
ATOM     77  C   UNL     1      -9.302  -2.252   1.081  1.00  0.00     0.010 A 
ATOM     78  C   UNL     1      -8.370  -1.843   3.280  1.00  0.00     0.010 A 
ATOM     79  C   UNL     1      -9.313  -3.626   1.342  1.00  0.00     0.020 A 
ATOM     80  C   UNL     1      -8.350  -3.218   3.533  1.00  0.00     0.020 A 
ATOM     81  C   UNL     1      -8.832  -4.101   2.565  1.00  0.00     0.054 A 
BRANCH  81  82
ATOM     82  S   UNL     1      -8.807  -5.892   2.861  1.00  0.00     0.124 S 
ATOM     83  O   UNL     1     -10.225  -6.192   3.032  1.00  0.00    -0.237 OA
ATOM     84  O   UNL     1      -8.195  -6.403   1.637  1.00  0.00    -0.237 OA
ATOM     85  O   UNL     1      -7.987  -6.028   4.063  1.00  0.00    -0.744 OA
ENDBRANCH  81  82
ENDBRANCH  53  76
BRANCH  65  86
ATOM     86  C   UNL     1     -14.043   3.241   1.219  1.00  0.00    -0.014 A 
ATOM     87  C   UNL     1     -14.784   2.961   2.380  1.00  0.00     0.010 A 
ATOM     88  C   UNL     1     -14.729   3.453   0.008  1.00  0.00     0.010 A 
ATOM     89  C   UNL     1     -16.179   2.865   2.324  1.00  0.00     0.020 A 
ATOM     90  C   UNL     1     -16.124   3.389  -0.046  1.00  0.00     0.020 A 
ATOM     91  C   UNL     1     -16.841   3.081   1.111  1.00  0.00     0.054 A 
BRANCH  91  92
ATOM     92  S   UNL     1     -18.653   2.995   1.075  1.00  0.00     0.124 S 
ATOM     93  O   UNL     1     -18.893   1.561   1.217  1.00  0.00    -0.237 OA
ATOM     94  O   UNL     1     -19.036   3.813   2.223  1.00  0.00    -0.237 OA
ATOM     95  O   UNL     1     -19.002   3.558  -0.228  1.00  0.00    -0.744 OA
ENDBRANCH  91  92
ENDBRANCH  65  86
ENDBRANCH  39  40
ENDBRANCH  32  34
ENDBRANCH  31  32
ENDBRANCH  30  31
ENDBRANCH  29  30
ENDBRANCH  28  29
ENDBRANCH  27  28
ENDBRANCH   1  27
TORSDOF 23
