REMARK SMILES CC(C)[N@@H+](C)Cc1cc2c(cc1Cl)C=C(C(=O)OCCOCCOCCOC(=O)c1ccc(-c3c4nc(c(-c5ccc(S(=O)(=O)[O-])cc5)c5ccc([nH]5)c(-c5ccc(S(=O)(=O)[O-])cc5)c5nc(c(-c6ccc(S(=O)(=O)[O-])cc6)c6ccc3[nH]6)C=C5)C=C4)cc1)[C@@H](C(F)(F)F)O2
REMARK SMILES IDX 22 1 21 2 20 3 19 4 18 5 16 6 17 7 15 8 7 9 8 10 12 11 9 12
REMARK SMILES IDX 11 13 13 14 10 15 95 16 14 17 90 18 6 19 4 20 5 21 2 23 1 24
REMARK SMILES IDX 3 25 91 26 92 27 93 28 94 29 23 30 24 31 25 32 26 33 27 34
REMARK SMILES IDX 28 35 29 36 30 37 31 38 89 39 32 40 88 41 33 42 34 43 35 44
REMARK SMILES IDX 82 45 36 46 87 47 81 48 83 49 37 50 86 51 80 52 79 53 38 55
REMARK SMILES IDX 68 56 49 57 67 58 50 59 53 60 66 61 84 62 51 63 52 64 65 66
REMARK SMILES IDX 85 67 54 68 39 69 40 70 48 71 41 72 47 73 42 74 43 75 44 76
REMARK SMILES IDX 45 77 46 78 69 79 70 80 78 81 71 82 77 83 72 84 73 85 74 86
REMARK SMILES IDX 75 87 76 88 55 89 56 90 64 91 57 92 63 93 58 94 59 95 60 96
REMARK SMILES IDX 61 97 62 98
REMARK H PARENT 4 22 83 54 53 65
REMARK Flexibility Score: inf
ROOT
ATOM      1  C   UNL     1       2.805  -1.751  -9.437  1.00  0.00     0.188 C 
ENDROOT
BRANCH   1   2
ATOM      2  O   UNL     1       3.060  -1.354 -10.775  1.00  0.00    -0.376 OA
BRANCH   2   3
ATOM      3  C   UNL     1       1.919  -1.113 -11.585  1.00  0.00     0.202 C 
BRANCH   3   4
ATOM      4  C   UNL     1       1.170   0.185 -11.264  1.00  0.00     0.261 C 
BRANCH   4   5
ATOM      5  O   UNL     1       0.804   0.337  -9.883  1.00  0.00    -0.460 OA
BRANCH   5   6
ATOM      6  C   UNL     1      -0.253  -0.378  -9.442  1.00  0.00     0.338 C 
ATOM      7  O   UNL     1      -0.926  -1.155 -10.096  1.00  0.00    -0.246 OA
BRANCH   6   8
ATOM      8  C   UNL     1      -0.393  -0.142  -7.988  1.00  0.00     0.087 C 
ATOM      9  C   UNL     1      -1.137  -0.417  -2.997  1.00  0.00     0.029 A 
ATOM     10  C   UNL     1      -0.911   0.604  -3.931  1.00  0.00     0.058 A 
ATOM     11  C   UNL     1      -1.158  -1.735  -3.495  1.00  0.00     0.050 A 
ATOM     12  C   UNL     1      -0.676   0.337  -5.281  1.00  0.00     0.128 A 
ATOM     13  C   UNL     1      -0.961  -2.005  -4.861  1.00  0.00     0.033 A 
ATOM     14  Cl  UNL     1      -1.462  -3.098  -2.473  1.00  0.00    -0.084 Cl
ATOM     15  C   UNL     1      -0.737  -0.963  -5.765  1.00  0.00     0.019 A 
ATOM     16  O   UNL     1      -0.403   1.431  -6.045  1.00  0.00    -0.475 OA
ATOM     17  C   UNL     1      -0.619  -1.201  -7.197  1.00  0.00     0.027 C 
ATOM     18  C   UNL     1      -0.206   1.264  -7.471  1.00  0.00     0.316 C 
BRANCH   9  19
ATOM     19  C   UNL     1      -1.458  -0.106  -1.544  1.00  0.00     0.300 C 
BRANCH  19  20
ATOM     20  N   UNL     1      -0.870   1.070  -0.894  1.00  0.00    -0.332 N 
ATOM     21  C   UNL     1      -1.521   2.346  -1.119  1.00  0.00     0.333 C 
ATOM     22  H   UNL     1      -1.169   0.800   0.042  1.00  0.00     0.348 HD
BRANCH  20  23
ATOM     23  C   UNL     1       0.567   1.128  -0.615  1.00  0.00     0.177 C 
ATOM     24  C   UNL     1       1.001  -0.013   0.312  1.00  0.00     0.075 C 
ATOM     25  C   UNL     1       1.486   1.182  -1.837  1.00  0.00     0.075 C 
ENDBRANCH  20  23
ENDBRANCH  19  20
ENDBRANCH   9  19
BRANCH  18  26
ATOM     26  C   UNL     1      -1.107   2.294  -8.169  1.00  0.00     0.430 C 
ATOM     27  F   UNL     1      -0.895   3.539  -7.673  1.00  0.00    -0.167 F 
ATOM     28  F   UNL     1      -0.874   2.370  -9.500  1.00  0.00    -0.167 F 
ATOM     29  F   UNL     1      -2.419   2.014  -8.003  1.00  0.00    -0.167 F 
ENDBRANCH  18  26
ENDBRANCH   6   8
ENDBRANCH   5   6
ENDBRANCH   4   5
ENDBRANCH   3   4
ENDBRANCH   2   3
ENDBRANCH   1   2
BRANCH   1  30
ATOM     30  C   UNL     1       3.255  -0.717  -8.382  1.00  0.00     0.188 C 
BRANCH  30  31
ATOM     31  O   UNL     1       4.050   0.402  -8.758  1.00  0.00    -0.376 OA
BRANCH  31  32
ATOM     32  C   UNL     1       5.107   0.225  -9.692  1.00  0.00     0.202 C 
BRANCH  32  33
ATOM     33  C   UNL     1       6.227  -0.775  -9.371  1.00  0.00     0.261 C 
BRANCH  33  34
ATOM     34  O   UNL     1       5.781  -2.085  -8.991  1.00  0.00    -0.460 OA
BRANCH  34  35
ATOM     35  C   UNL     1       5.947  -2.402  -7.681  1.00  0.00     0.338 C 
ATOM     36  O   UNL     1       6.443  -1.703  -6.814  1.00  0.00    -0.246 OA
BRANCH  35  37
ATOM     37  C   UNL     1       5.249  -3.674  -7.391  1.00  0.00     0.060 A 
ATOM     38  C   UNL     1       5.476  -4.820  -8.155  1.00  0.00     0.016 A 
ATOM     39  C   UNL     1       4.354  -3.711  -6.312  1.00  0.00     0.016 A 
ATOM     40  C   UNL     1       4.827  -6.011  -7.816  1.00  0.00     0.010 A 
ATOM     41  C   UNL     1       3.697  -4.899  -5.982  1.00  0.00     0.010 A 
ATOM     42  C   UNL     1       3.946  -6.064  -6.719  1.00  0.00    -0.014 A 
BRANCH  42  43
ATOM     43  C   UNL     1       3.430  -7.374  -6.251  1.00  0.00     0.031 A 
ATOM     44  C   UNL     1       2.040  -7.839  -6.563  1.00  0.00     0.074 A 
ATOM     45  C   UNL     1       4.258  -8.159  -5.534  1.00  0.00     0.049 A 
ATOM     46  N   UNL     1       1.508  -9.015  -6.350  1.00  0.00    -0.248 NA
ATOM     47  C   UNL     1       1.129  -6.869  -7.189  1.00  0.00     0.031 C 
ATOM     48  C   UNL     1       5.620  -7.792  -5.141  1.00  0.00     0.029 A 
ATOM     49  N   UNL     1       4.092  -9.423  -5.028  1.00  0.00    -0.354 N 
ATOM     50  C   UNL     1       0.212  -8.944  -6.843  1.00  0.00     0.074 A 
ATOM     51  C   UNL     1       0.019  -7.588  -7.317  1.00  0.00     0.031 C 
ATOM     52  C   UNL     1       6.180  -8.824  -4.494  1.00  0.00     0.029 A 
ATOM     53  C   UNL     1       5.215  -9.917  -4.407  1.00  0.00     0.049 A 
ATOM     54  H   UNL     1       3.250  -9.928  -5.103  1.00  0.00     0.167 HD
ATOM     55  C   UNL     1      -0.716  -9.928  -6.912  1.00  0.00     0.031 A 
ATOM     56  C   UNL     1       5.458 -11.120  -3.850  1.00  0.00     0.031 A 
ATOM     57  C   UNL     1      -0.517 -11.266  -6.411  1.00  0.00     0.049 A 
ATOM     58  C   UNL     1       4.400 -12.186  -3.911  1.00  0.00     0.074 A 
ATOM     59  C   UNL     1      -1.389 -12.340  -6.474  1.00  0.00     0.029 A 
ATOM     60  N   UNL     1       0.617 -11.715  -5.751  1.00  0.00    -0.354 N 
ATOM     61  N   UNL     1       3.213 -12.130  -4.464  1.00  0.00    -0.248 NA
ATOM     62  C   UNL     1       4.719 -13.482  -3.295  1.00  0.00     0.031 C 
ATOM     63  C   UNL     1      -0.813 -13.414  -5.793  1.00  0.00     0.029 A 
ATOM     64  C   UNL     1       0.453 -13.038  -5.373  1.00  0.00     0.049 A 
ATOM     65  H   UNL     1       1.421 -11.173  -5.576  1.00  0.00     0.167 HD
ATOM     66  C   UNL     1       2.651 -13.389  -4.285  1.00  0.00     0.074 A 
ATOM     67  C   UNL     1       3.633 -14.190  -3.583  1.00  0.00     0.031 C 
ATOM     68  C   UNL     1       1.431 -13.835  -4.671  1.00  0.00     0.031 A 
BRANCH  55  69
ATOM     69  C   UNL     1      -2.035  -9.626  -7.577  1.00  0.00    -0.014 A 
ATOM     70  C   UNL     1      -3.228  -9.658  -6.830  1.00  0.00     0.010 A 
ATOM     71  C   UNL     1      -2.109  -9.464  -8.972  1.00  0.00     0.010 A 
ATOM     72  C   UNL     1      -4.469  -9.567  -7.467  1.00  0.00     0.020 A 
ATOM     73  C   UNL     1      -3.347  -9.346  -9.611  1.00  0.00     0.020 A 
ATOM     74  C   UNL     1      -4.520  -9.423  -8.856  1.00  0.00     0.054 A 
BRANCH  74  75
ATOM     75  S   UNL     1      -6.139  -9.344  -9.671  1.00  0.00     0.124 S 
ATOM     76  O   UNL     1      -6.583 -10.733  -9.613  1.00  0.00    -0.237 OA
ATOM     77  O   UNL     1      -6.877  -8.408  -8.826  1.00  0.00    -0.237 OA
ATOM     78  O   UNL     1      -5.824  -8.844 -11.008  1.00  0.00    -0.744 OA
ENDBRANCH  74  75
ENDBRANCH  55  69
BRANCH  56  79
ATOM     79  C   UNL     1       6.799 -11.381  -3.260  1.00  0.00    -0.014 A 
ATOM     80  C   UNL     1       7.208 -10.703  -2.096  1.00  0.00     0.010 A 
ATOM     81  C   UNL     1       7.710 -12.227  -3.915  1.00  0.00     0.010 A 
ATOM     82  C   UNL     1       8.520 -10.822  -1.631  1.00  0.00     0.020 A 
ATOM     83  C   UNL     1       9.016 -12.372  -3.435  1.00  0.00     0.020 A 
ATOM     84  C   UNL     1       9.420 -11.644  -2.314  1.00  0.00     0.054 A 
BRANCH  84  85
ATOM     85  S   UNL     1      11.135 -11.734  -1.728  1.00  0.00     0.124 S 
ATOM     86  O   UNL     1      11.676 -10.460  -2.192  1.00  0.00    -0.237 OA
ATOM     87  O   UNL     1      10.972 -11.860  -0.282  1.00  0.00    -0.237 OA
ATOM     88  O   UNL     1      11.663 -12.919  -2.399  1.00  0.00    -0.744 OA
ENDBRANCH  84  85
ENDBRANCH  56  79
BRANCH  68  89
ATOM     89  C   UNL     1       1.056 -15.261  -4.356  1.00  0.00    -0.014 A 
ATOM     90  C   UNL     1       0.867 -16.180  -5.406  1.00  0.00     0.010 A 
ATOM     91  C   UNL     1       0.748 -15.654  -3.042  1.00  0.00     0.010 A 
ATOM     92  C   UNL     1       0.337 -17.448  -5.155  1.00  0.00     0.020 A 
ATOM     93  C   UNL     1       0.245 -16.933  -2.782  1.00  0.00     0.020 A 
ATOM     94  C   UNL     1       0.016 -17.811  -3.845  1.00  0.00     0.054 A 
BRANCH  94  95
ATOM     95  S   UNL     1      -0.721 -19.442  -3.544  1.00  0.00     0.124 S 
ATOM     96  O   UNL     1      -2.094 -19.248  -4.000  1.00  0.00    -0.237 OA
ATOM     97  O   UNL     1       0.100 -20.323  -4.372  1.00  0.00    -0.237 OA
ATOM     98  O   UNL     1      -0.561 -19.630  -2.103  1.00  0.00    -0.744 OA
ENDBRANCH  94  95
ENDBRANCH  68  89
ENDBRANCH  42  43
ENDBRANCH  35  37
ENDBRANCH  34  35
ENDBRANCH  33  34
ENDBRANCH  32  33
ENDBRANCH  31  32
ENDBRANCH  30  31
ENDBRANCH   1  30
TORSDOF 24
