REMARK SMILES Cc1cc(OCC(=O)N[C@@H](Cc2ccc(Cl)cc2)C(=O)OCCOCCOCCOC(=O)c2ccc(-c3c4nc(c(-c5ccc(S(=O)(=O)[O-])cc5)c5ccc([nH]5)c(-c5ccc(S(=O)(=O)[O-])cc5)c5nc(c(-c6ccc(S(=O)(=O)[O-])cc6)c6ccc3[nH]6)C=C5)C=C4)cc2)c2c(C)c(C)c(=O)oc2c1
REMARK SMILES IDX 25 1 24 2 23 3 22 4 21 5 19 6 20 7 10 8 9 9 7 10 8 11 6 13
REMARK SMILES IDX 5 14 4 15 1 16 2 17 3 18 102 19 101 20 93 21 100 22 94 23
REMARK SMILES IDX 98 24 95 25 96 26 99 27 97 28 11 29 12 30 13 31 18 32 14 33
REMARK SMILES IDX 17 34 15 35 16 36 26 37 27 38 28 39 29 40 30 41 31 42 32 43
REMARK SMILES IDX 33 44 34 45 92 46 35 47 91 48 36 49 37 50 38 51 85 52 39 53
REMARK SMILES IDX 90 54 84 55 86 56 40 57 89 58 83 59 82 60 41 62 71 63 52 64
REMARK SMILES IDX 70 65 53 66 56 67 69 68 87 69 54 70 55 71 68 73 88 74 57 75
REMARK SMILES IDX 42 76 43 77 51 78 44 79 50 80 45 81 46 82 47 83 48 84 49 85
REMARK SMILES IDX 72 86 73 87 81 88 74 89 80 90 75 91 76 92 77 93 78 94 79 95
REMARK SMILES IDX 58 96 59 97 67 98 60 99 66 100 61 101 62 102 63 103 64 104
REMARK SMILES IDX 65 105
REMARK H PARENT 9 12 86 61 56 72
REMARK Flexibility Score: inf
ROOT
ATOM      1  C   UNL     1      -1.090   8.877  -1.796  1.00  0.00     0.188 C 
ENDROOT
BRANCH   1   2
ATOM      2  O   UNL     1      -2.086   9.886  -1.920  1.00  0.00    -0.376 OA
BRANCH   2   3
ATOM      3  C   UNL     1      -3.428   9.569  -1.570  1.00  0.00     0.202 C 
BRANCH   3   4
ATOM      4  C   UNL     1      -4.056   8.364  -2.273  1.00  0.00     0.261 C 
BRANCH   4   5
ATOM      5  O   UNL     1      -3.414   7.109  -1.961  1.00  0.00    -0.462 OA
BRANCH   5   6
ATOM      6  C   UNL     1      -3.123   6.305  -3.020  1.00  0.00     0.329 C 
ATOM      7  O   UNL     1      -3.370   6.590  -4.187  1.00  0.00    -0.250 OA
BRANCH   6   8
ATOM      8  C   UNL     1      -2.579   4.918  -2.623  1.00  0.00     0.196 C 
BRANCH   8   9
ATOM      9  N   UNL     1      -2.056   4.728  -1.259  1.00  0.00    -0.339 N 
ATOM     10  C   UNL     1      -0.785   4.457  -0.837  1.00  0.00     0.258 C 
ATOM     11  O   UNL     1      -0.590   4.264   0.365  1.00  0.00    -0.271 OA
ATOM     12  H   UNL     1      -2.724   4.809  -0.541  1.00  0.00     0.164 HD
BRANCH  10  13
ATOM     13  C   UNL     1       0.385   4.478  -1.829  1.00  0.00     0.329 C 
BRANCH  13  14
ATOM     14  O   UNL     1       0.322   3.610  -2.941  1.00  0.00    -0.483 OA
BRANCH  14  15
ATOM     15  C   UNL     1       0.257   2.259  -2.755  1.00  0.00     0.131 A 
ATOM     16  C   UNL     1       0.957  -0.314  -0.015  1.00  0.00     0.044 C 
ATOM     17  C   UNL     1       0.524   0.291  -1.317  1.00  0.00    -0.044 A 
ATOM     18  C   UNL     1       0.653   1.665  -1.538  1.00  0.00     0.050 A 
ATOM     19  C   UNL     1       0.022  -0.495  -2.344  1.00  0.00     0.051 A 
ATOM     20  C   UNL     1      -0.331   0.095  -3.563  1.00  0.00     0.142 A 
ATOM     21  C   UNL     1      -0.215   1.466  -3.830  1.00  0.00     0.063 A 
ATOM     22  O   UNL     1      -0.833  -0.816  -4.508  1.00  0.00    -0.422 OA
ATOM     23  C   UNL     1      -0.599   1.925  -5.200  1.00  0.00    -0.026 A 
ATOM     24  C   UNL     1      -1.250  -0.414  -5.756  1.00  0.00     0.339 A 
ATOM     25  C   UNL     1      -0.434   3.354  -5.661  1.00  0.00     0.046 C 
ATOM     26  C   UNL     1      -1.085   1.023  -6.088  1.00  0.00     0.038 A 
ATOM     27  O   UNL     1      -1.729  -1.219  -6.549  1.00  0.00    -0.246 OA
ATOM     28  C   UNL     1      -1.509   1.334  -7.503  1.00  0.00     0.052 C 
ENDBRANCH  14  15
ENDBRANCH  13  14
ENDBRANCH  10  13
ENDBRANCH   8   9
BRANCH   8  29
ATOM     29  C   UNL     1      -3.684   3.876  -2.919  1.00  0.00     0.072 C 
BRANCH  29  30
ATOM     30  C   UNL     1      -4.794   3.842  -1.882  1.00  0.00    -0.045 A 
ATOM     31  C   UNL     1      -4.904   2.753  -1.006  1.00  0.00     0.005 A 
ATOM     32  C   UNL     1      -5.698   4.908  -1.745  1.00  0.00     0.005 A 
ATOM     33  C   UNL     1      -5.871   2.746   0.002  1.00  0.00     0.021 A 
ATOM     34  C   UNL     1      -6.642   4.918  -0.717  1.00  0.00     0.021 A 
ATOM     35  C   UNL     1      -6.724   3.836   0.154  1.00  0.00     0.041 A 
ATOM     36  Cl  UNL     1      -7.889   3.845   1.419  1.00  0.00    -0.084 Cl
ENDBRANCH  29  30
ENDBRANCH   8  29
ENDBRANCH   6   8
ENDBRANCH   5   6
ENDBRANCH   4   5
ENDBRANCH   3   4
ENDBRANCH   2   3
ENDBRANCH   1   2
BRANCH   1  37
ATOM     37  C   UNL     1      -1.075   8.016  -0.521  1.00  0.00     0.188 C 
BRANCH  37  38
ATOM     38  O   UNL     1      -1.888   8.526   0.519  1.00  0.00    -0.376 OA
BRANCH  38  39
ATOM     39  C   UNL     1      -1.226   8.838   1.732  1.00  0.00     0.202 C 
BRANCH  39  40
ATOM     40  C   UNL     1      -0.311  10.067   1.663  1.00  0.00     0.261 C 
BRANCH  40  41
ATOM     41  O   UNL     1       0.663  10.053   0.606  1.00  0.00    -0.460 OA
BRANCH  41  42
ATOM     42  C   UNL     1       1.702   9.192   0.717  1.00  0.00     0.338 C 
ATOM     43  O   UNL     1       1.922   8.433   1.645  1.00  0.00    -0.246 OA
BRANCH  42  44
ATOM     44  C   UNL     1       2.380   9.152  -0.603  1.00  0.00     0.060 A 
ATOM     45  C   UNL     1       2.736  10.334  -1.259  1.00  0.00     0.016 A 
ATOM     46  C   UNL     1       2.591   7.913  -1.224  1.00  0.00     0.016 A 
ATOM     47  C   UNL     1       3.320  10.274  -2.528  1.00  0.00     0.010 A 
ATOM     48  C   UNL     1       3.161   7.856  -2.502  1.00  0.00     0.010 A 
ATOM     49  C   UNL     1       3.548   9.036  -3.155  1.00  0.00    -0.014 A 
BRANCH  49  50
ATOM     50  C   UNL     1       4.389   8.982  -4.377  1.00  0.00     0.031 A 
ATOM     51  C   UNL     1       3.813   8.904  -5.759  1.00  0.00     0.074 A 
ATOM     52  C   UNL     1       5.726   9.024  -4.209  1.00  0.00     0.049 A 
ATOM     53  N   UNL     1       4.436   9.000  -6.906  1.00  0.00    -0.248 NA
ATOM     54  C   UNL     1       2.365   8.685  -5.876  1.00  0.00     0.031 C 
ATOM     55  C   UNL     1       6.397   9.076  -2.908  1.00  0.00     0.029 A 
ATOM     56  N   UNL     1       6.752   9.051  -5.118  1.00  0.00    -0.354 N 
ATOM     57  C   UNL     1       3.458   8.887  -7.886  1.00  0.00     0.074 A 
ATOM     58  C   UNL     1       2.204   8.660  -7.196  1.00  0.00     0.031 C 
ATOM     59  C   UNL     1       7.720   9.162  -3.103  1.00  0.00     0.029 A 
ATOM     60  C   UNL     1       7.994   9.154  -4.538  1.00  0.00     0.049 A 
ATOM     61  H   UNL     1       6.613   9.000  -6.091  1.00  0.00     0.167 HD
ATOM     62  C   UNL     1       3.600   8.985  -9.230  1.00  0.00     0.031 A 
ATOM     63  C   UNL     1       9.220   9.256  -5.088  1.00  0.00     0.031 A 
ATOM     64  C   UNL     1       4.862   9.188  -9.902  1.00  0.00     0.049 A 
ATOM     65  C   UNL     1       9.354   9.329  -6.581  1.00  0.00     0.074 A 
ATOM     66  C   UNL     1       5.091   9.356 -11.259  1.00  0.00     0.029 A 
ATOM     67  N   UNL     1       6.103   9.239  -9.284  1.00  0.00    -0.354 N 
ATOM     68  N   UNL     1       8.407   9.320  -7.488  1.00  0.00    -0.248 NA
ATOM     69  C   UNL     1      10.713   9.447  -7.126  1.00  0.00     0.031 C 
ATOM     70  C   UNL     1       6.470   9.431 -11.467  1.00  0.00     0.029 A 
ATOM     71  C   UNL     1       7.101   9.392 -10.234  1.00  0.00     0.049 A 
ATOM     72  H   UNL     1       6.253   9.176  -8.313  1.00  0.00     0.167 HD
ATOM     73  C   UNL     1       9.054   9.449  -8.711  1.00  0.00     0.074 A 
ATOM     74  C   UNL     1      10.471   9.552  -8.427  1.00  0.00     0.031 C 
ATOM     75  C   UNL     1       8.514   9.481  -9.954  1.00  0.00     0.031 A 
BRANCH  62  76
ATOM     76  C   UNL     1       2.366   8.906 -10.096  1.00  0.00    -0.014 A 
ATOM     77  C   UNL     1       2.211   7.846 -11.011  1.00  0.00     0.010 A 
ATOM     78  C   UNL     1       1.444   9.968 -10.123  1.00  0.00     0.010 A 
ATOM     79  C   UNL     1       1.181   7.867 -11.956  1.00  0.00     0.020 A 
ATOM     80  C   UNL     1       0.397   9.979 -11.050  1.00  0.00     0.020 A 
ATOM     81  C   UNL     1       0.287   8.940 -11.977  1.00  0.00     0.054 A 
BRANCH  81  82
ATOM     82  S   UNL     1      -1.020   8.969 -13.236  1.00  0.00     0.124 S 
ATOM     83  O   UNL     1      -0.278   9.312 -14.445  1.00  0.00    -0.237 OA
ATOM     84  O   UNL     1      -1.545   7.607 -13.180  1.00  0.00    -0.237 OA
ATOM     85  O   UNL     1      -1.938   9.999 -12.752  1.00  0.00    -0.744 OA
ENDBRANCH  81  82
ENDBRANCH  62  76
BRANCH  63  86
ATOM     86  C   UNL     1      10.398   9.368  -4.187  1.00  0.00    -0.014 A 
ATOM     87  C   UNL     1      10.787   8.276  -3.388  1.00  0.00     0.010 A 
ATOM     88  C   UNL     1      11.060  10.598  -4.037  1.00  0.00     0.010 A 
ATOM     89  C   UNL     1      11.774   8.430  -2.412  1.00  0.00     0.020 A 
ATOM     90  C   UNL     1      12.070  10.747  -3.081  1.00  0.00     0.020 A 
ATOM     91  C   UNL     1      12.397   9.670  -2.253  1.00  0.00     0.054 A 
BRANCH  91  92
ATOM     92  S   UNL     1      13.624   9.866  -0.932  1.00  0.00     0.124 S 
ATOM     93  O   UNL     1      12.775   9.940   0.254  1.00  0.00    -0.237 OA
ATOM     94  O   UNL     1      14.425   8.651  -1.059  1.00  0.00    -0.237 OA
ATOM     95  O   UNL     1      14.313  11.104  -1.287  1.00  0.00    -0.744 OA
ENDBRANCH  91  92
ENDBRANCH  63  86
BRANCH  75  96
ATOM     96  C   UNL     1       9.445   9.617 -11.133  1.00  0.00    -0.014 A 
ATOM     97  C   UNL     1       9.404  10.778 -11.929  1.00  0.00     0.010 A 
ATOM     98  C   UNL     1      10.261   8.544 -11.534  1.00  0.00     0.010 A 
ATOM     99  C   UNL     1      10.125  10.847 -13.124  1.00  0.00     0.020 A 
ATOM    100  C   UNL     1      11.008   8.621 -12.714  1.00  0.00     0.020 A 
ATOM    101  C   UNL     1      10.912   9.761 -13.516  1.00  0.00     0.054 A 
BRANCH 101 102
ATOM    102  S   UNL     1      11.802   9.850 -15.095  1.00  0.00     0.124 S 
ATOM    103  O   UNL     1      10.729   9.645 -16.064  1.00  0.00    -0.237 OA
ATOM    104  O   UNL     1      12.376  11.193 -15.066  1.00  0.00    -0.237 OA
ATOM    105  O   UNL     1      12.774   8.763 -15.002  1.00  0.00    -0.744 OA
ENDBRANCH 101 102
ENDBRANCH  75  96
ENDBRANCH  49  50
ENDBRANCH  42  44
ENDBRANCH  41  42
ENDBRANCH  40  41
ENDBRANCH  39  40
ENDBRANCH  38  39
ENDBRANCH  37  38
ENDBRANCH   1  37
TORSDOF 26
