REMARK SMILES C[C@H]1C[N@H+]2CCC[C@@H]2CN1c1cc(Cl)ccc1C(=O)OCCOCCOCCOC(=O)c1ccc(-c2c3nc(c(-c4ccc(S(=O)(=O)[O-])cc4)c4ccc([nH]4)c(-c4ccc(S(=O)(=O)[O-])cc4)c4nc(c(-c5ccc(S(=O)(=O)[O-])cc5)c5ccc2[nH]5)C=C4)C=C3)cc1
REMARK SMILES IDX 25 1 24 2 23 3 22 4 21 5 20 6 18 7 19 8 17 9 11 10 12 11
REMARK SMILES IDX 13 12 16 13 14 14 15 15 10 16 1 17 2 18 3 19 4 20 9 21 5 22
REMARK SMILES IDX 8 23 6 25 7 26 26 27 27 28 28 29 29 30 30 31 31 32 32 33
REMARK SMILES IDX 33 34 91 35 34 36 90 37 35 38 36 39 37 40 84 41 38 42 89 43
REMARK SMILES IDX 83 44 85 45 39 46 88 47 82 48 81 49 40 51 70 52 51 53 69 54
REMARK SMILES IDX 52 55 55 56 68 57 86 58 53 59 54 60 67 62 87 63 56 64 41 65
REMARK SMILES IDX 42 66 50 67 43 68 49 69 44 70 45 71 46 72 47 73 48 74 71 75
REMARK SMILES IDX 72 76 80 77 73 78 79 79 74 80 75 81 76 82 77 83 78 84 57 85
REMARK SMILES IDX 58 86 66 87 59 88 65 89 60 90 61 91 62 92 63 93 64 94
REMARK H PARENT 4 24 85 50 55 61
REMARK Flexibility Score: inf
ROOT
ATOM      1  C   UNL     1       3.450  -2.085   1.685  1.00  0.00     0.188 C 
ENDROOT
BRANCH   1   2
ATOM      2  C   UNL     1       3.899  -3.280   2.549  1.00  0.00     0.188 C 
BRANCH   2   3
ATOM      3  O   UNL     1       4.838  -4.199   1.995  1.00  0.00    -0.376 OA
BRANCH   3   4
ATOM      4  C   UNL     1       4.547  -4.766   0.720  1.00  0.00     0.202 C 
BRANCH   4   5
ATOM      5  C   UNL     1       3.195  -5.467   0.596  1.00  0.00     0.261 C 
BRANCH   5   6
ATOM      6  O   UNL     1       2.129  -4.510   0.702  1.00  0.00    -0.460 OA
BRANCH   6   7
ATOM      7  C   UNL     1       0.987  -4.968   1.257  1.00  0.00     0.340 C 
ATOM      8  O   UNL     1       0.742  -6.137   1.516  1.00  0.00    -0.246 OA
BRANCH   7   9
ATOM      9  C   UNL     1       0.080  -3.858   1.655  1.00  0.00     0.083 A 
ATOM     10  C   UNL     1      -0.338  -2.776   0.832  1.00  0.00     0.053 A 
ATOM     11  C   UNL     1      -1.318  -1.928   1.389  1.00  0.00     0.047 A 
ATOM     12  C   UNL     1      -1.750  -2.043   2.715  1.00  0.00     0.043 A 
ATOM     13  C   UNL     1      -0.363  -3.966   2.993  1.00  0.00     0.019 A 
ATOM     14  Cl  UNL     1      -2.894  -0.918   3.338  1.00  0.00    -0.084 Cl
ATOM     15  C   UNL     1      -1.252  -3.043   3.532  1.00  0.00     0.021 A 
BRANCH  10  16
ATOM     16  N   UNL     1       0.171  -2.499  -0.435  1.00  0.00    -0.356 N 
ATOM     17  C   UNL     1       0.677  -0.012  -0.070  1.00  0.00     0.037 C 
ATOM     18  C   UNL     1       0.249  -1.120  -1.046  1.00  0.00     0.134 C 
ATOM     19  C   UNL     1       1.298  -1.052  -2.230  1.00  0.00     0.287 C 
ATOM     20  N   UNL     1       1.297  -2.214  -3.128  1.00  0.00    -0.329 N 
ATOM     21  C   UNL     1       0.172  -3.592  -1.438  1.00  0.00     0.182 C 
ATOM     22  C   UNL     1       2.423  -2.263  -4.060  1.00  0.00     0.262 C 
ATOM     23  C   UNL     1       1.425  -3.426  -2.300  1.00  0.00     0.203 C 
ATOM     24  H   UNL     1       0.433  -2.148  -3.667  1.00  0.00     0.348 HD
ATOM     25  C   UNL     1       2.679  -3.761  -4.270  1.00  0.00     0.068 C 
ATOM     26  C   UNL     1       1.684  -4.476  -3.357  1.00  0.00     0.073 C 
ENDBRANCH  10  16
ENDBRANCH   7   9
ENDBRANCH   6   7
ENDBRANCH   5   6
ENDBRANCH   4   5
ENDBRANCH   3   4
ENDBRANCH   2   3
ENDBRANCH   1   2
BRANCH   1  27
ATOM     27  O   UNL     1       4.236  -1.870   0.518  1.00  0.00    -0.376 OA
BRANCH  27  28
ATOM     28  C   UNL     1       4.998  -0.671   0.517  1.00  0.00     0.202 C 
BRANCH  28  29
ATOM     29  C   UNL     1       6.269  -0.768   1.368  1.00  0.00     0.261 C 
BRANCH  29  30
ATOM     30  O   UNL     1       6.036  -0.968   2.772  1.00  0.00    -0.460 OA
BRANCH  30  31
ATOM     31  C   UNL     1       5.372   0.010   3.430  1.00  0.00     0.338 C 
ATOM     32  O   UNL     1       4.979   1.067   2.969  1.00  0.00    -0.246 OA
BRANCH  31  33
ATOM     33  C   UNL     1       5.026  -0.501   4.773  1.00  0.00     0.060 A 
ATOM     34  C   UNL     1       3.699  -0.409   5.209  1.00  0.00     0.016 A 
ATOM     35  C   UNL     1       6.001  -1.083   5.588  1.00  0.00     0.016 A 
ATOM     36  C   UNL     1       3.351  -0.871   6.481  1.00  0.00     0.010 A 
ATOM     37  C   UNL     1       5.654  -1.531   6.865  1.00  0.00     0.010 A 
ATOM     38  C   UNL     1       4.335  -1.399   7.329  1.00  0.00    -0.014 A 
BRANCH  38  39
ATOM     39  C   UNL     1       4.030  -1.642   8.759  1.00  0.00     0.031 A 
ATOM     40  C   UNL     1       4.337  -0.550   9.749  1.00  0.00     0.074 A 
ATOM     41  C   UNL     1       3.500  -2.804   9.180  1.00  0.00     0.049 A 
ATOM     42  N   UNL     1       4.167  -0.535  11.045  1.00  0.00    -0.248 NA
ATOM     43  C   UNL     1       4.915   0.688   9.201  1.00  0.00     0.031 C 
ATOM     44  C   UNL     1       3.143  -3.934   8.325  1.00  0.00     0.029 A 
ATOM     45  N   UNL     1       3.177  -3.224  10.447  1.00  0.00    -0.354 N 
ATOM     46  C   UNL     1       4.614   0.711  11.468  1.00  0.00     0.074 A 
ATOM     47  C   UNL     1       5.090   1.412  10.296  1.00  0.00     0.031 C 
ATOM     48  C   UNL     1       2.659  -4.926   9.095  1.00  0.00     0.029 A 
ATOM     49  C   UNL     1       2.692  -4.508  10.497  1.00  0.00     0.049 A 
ATOM     50  H   UNL     1       3.284  -2.657  11.246  1.00  0.00     0.167 HD
ATOM     51  C   UNL     1       4.624   1.230  12.719  1.00  0.00     0.031 A 
ATOM     52  C   UNL     1       2.330  -5.265  11.553  1.00  0.00     0.031 A 
ATOM     53  C   UNL     1       4.179   0.528  13.891  1.00  0.00     0.049 A 
ATOM     54  C   UNL     1       2.407  -4.688  12.944  1.00  0.00     0.074 A 
ATOM     55  C   UNL     1       4.137   0.979  15.199  1.00  0.00     0.029 A 
ATOM     56  N   UNL     1       3.713  -0.777  13.901  1.00  0.00    -0.354 N 
ATOM     57  N   UNL     1       2.786  -3.490  13.322  1.00  0.00    -0.248 NA
ATOM     58  C   UNL     1       1.996  -5.565  14.051  1.00  0.00     0.031 C 
ATOM     59  C   UNL     1       3.690  -0.072  16.008  1.00  0.00     0.029 A 
ATOM     60  C   UNL     1       3.404  -1.158  15.195  1.00  0.00     0.049 A 
ATOM     61  H   UNL     1       3.617  -1.349  13.105  1.00  0.00     0.167 HD
ATOM     62  C   UNL     1       2.634  -3.461  14.705  1.00  0.00     0.074 A 
ATOM     63  C   UNL     1       2.119  -4.757  15.096  1.00  0.00     0.031 C 
ATOM     64  C   UNL     1       2.893  -2.451  15.572  1.00  0.00     0.031 A 
BRANCH  51  65
ATOM     65  C   UNL     1       5.168   2.623  12.877  1.00  0.00    -0.014 A 
ATOM     66  C   UNL     1       4.438   3.740  12.433  1.00  0.00     0.010 A 
ATOM     67  C   UNL     1       6.419   2.817  13.488  1.00  0.00     0.010 A 
ATOM     68  C   UNL     1       4.970   5.026  12.561  1.00  0.00     0.020 A 
ATOM     69  C   UNL     1       6.943   4.104  13.639  1.00  0.00     0.020 A 
ATOM     70  C   UNL     1       6.223   5.199  13.157  1.00  0.00     0.054 A 
BRANCH  70  71
ATOM     71  S   UNL     1       6.888   6.878  13.317  1.00  0.00     0.124 S 
ATOM     72  O   UNL     1       7.301   7.169  11.947  1.00  0.00    -0.237 OA
ATOM     73  O   UNL     1       5.736   7.636  13.799  1.00  0.00    -0.237 OA
ATOM     74  O   UNL     1       7.977   6.729  14.278  1.00  0.00    -0.744 OA
ENDBRANCH  70  71
ENDBRANCH  51  65
BRANCH  52  75
ATOM     75  C   UNL     1       1.869  -6.664  11.342  1.00  0.00    -0.014 A 
ATOM     76  C   UNL     1       0.519  -7.011  11.530  1.00  0.00     0.010 A 
ATOM     77  C   UNL     1       2.785  -7.661  10.961  1.00  0.00     0.010 A 
ATOM     78  C   UNL     1       0.097  -8.332  11.356  1.00  0.00     0.020 A 
ATOM     79  C   UNL     1       2.362  -8.979  10.762  1.00  0.00     0.020 A 
ATOM     80  C   UNL     1       1.021  -9.308  10.972  1.00  0.00     0.054 A 
BRANCH  80  81
ATOM     81  S   UNL     1       0.443 -11.007  10.701  1.00  0.00     0.124 S 
ATOM     82  O   UNL     1       0.269 -11.490  12.067  1.00  0.00    -0.237 OA
ATOM     83  O   UNL     1      -0.787 -10.805   9.939  1.00  0.00    -0.237 OA
ATOM     84  O   UNL     1       1.536 -11.623   9.953  1.00  0.00    -0.744 OA
ENDBRANCH  80  81
ENDBRANCH  52  75
BRANCH  64  85
ATOM     85  C   UNL     1       2.594  -2.688  17.029  1.00  0.00    -0.014 A 
ATOM     86  C   UNL     1       3.413  -3.514  17.818  1.00  0.00     0.010 A 
ATOM     87  C   UNL     1       1.509  -2.023  17.631  1.00  0.00     0.010 A 
ATOM     88  C   UNL     1       3.134  -3.696  19.176  1.00  0.00     0.020 A 
ATOM     89  C   UNL     1       1.242  -2.183  18.993  1.00  0.00     0.020 A 
ATOM     90  C   UNL     1       2.048  -3.031  19.755  1.00  0.00     0.054 A 
BRANCH  90  91
ATOM     91  S   UNL     1       1.730  -3.247  21.528  1.00  0.00     0.124 S 
ATOM     92  O   UNL     1       1.121  -4.574  21.567  1.00  0.00    -0.237 OA
ATOM     93  O   UNL     1       3.067  -3.151  22.110  1.00  0.00    -0.237 OA
ATOM     94  O   UNL     1       0.835  -2.140  21.856  1.00  0.00    -0.744 OA
ENDBRANCH  90  91
ENDBRANCH  64  85
ENDBRANCH  38  39
ENDBRANCH  31  33
ENDBRANCH  30  31
ENDBRANCH  29  30
ENDBRANCH  28  29
ENDBRANCH  27  28
ENDBRANCH   1  27
TORSDOF 21
