REMARK SMILES Cc1ccc([C@@H](C)Nc2ccc(N)cc2C(=O)OCCOCCOCCOC(=O)c2ccc(-c3c4nc(c(-c5ccc(S(=O)(=O)[O-])cc5)c5ccc([nH]5)c(-c5ccc(S(=O)(=O)[O-])cc5)c5nc(c(-c6ccc(S(=O)(=O)[O-])cc6)c6ccc3[nH]6)C=C5)C=C4)cc2)cc1F
REMARK SMILES IDX 22 1 21 2 20 3 19 4 18 5 16 6 17 7 15 8 9 9 10 10 11 11
REMARK SMILES IDX 14 12 12 13 8 14 6 16 7 17 5 18 1 19 2 20 3 21 91 22 4 23
REMARK SMILES IDX 90 24 92 25 13 26 23 29 24 30 25 31 26 32 27 33 28 34 29 35
REMARK SMILES IDX 30 36 31 37 89 38 32 39 88 40 33 41 34 42 35 43 82 44 36 45
REMARK SMILES IDX 87 46 81 47 83 48 37 49 86 50 80 51 79 52 38 54 68 55 49 56
REMARK SMILES IDX 67 57 50 58 53 59 66 60 84 61 51 62 52 63 65 65 85 66 54 67
REMARK SMILES IDX 39 68 40 69 48 70 41 71 47 72 42 73 43 74 44 75 45 76 46 77
REMARK SMILES IDX 69 78 70 79 78 80 71 81 77 82 72 83 73 84 74 85 75 86 76 87
REMARK SMILES IDX 55 88 56 89 64 90 57 91 63 92 58 93 59 94 60 95 61 96 62 97
REMARK H PARENT 8 15 13 27 13 28 83 53 53 64
REMARK Flexibility Score: inf
ROOT
ATOM      1  C   UNL     1      -1.219  -4.141  -3.240  1.00  0.00     0.188 C 
ENDROOT
BRANCH   1   2
ATOM      2  O   UNL     1      -1.347  -3.003  -4.064  1.00  0.00    -0.376 OA
BRANCH   2   3
ATOM      3  C   UNL     1      -2.591  -2.335  -4.108  1.00  0.00     0.202 C 
BRANCH   3   4
ATOM      4  C   UNL     1      -3.454  -2.107  -2.857  1.00  0.00     0.261 C 
BRANCH   4   5
ATOM      5  O   UNL     1      -3.136  -2.861  -1.678  1.00  0.00    -0.460 OA
BRANCH   5   6
ATOM      6  C   UNL     1      -4.083  -3.712  -1.218  1.00  0.00     0.340 C 
ATOM      7  O   UNL     1      -5.138  -3.975  -1.775  1.00  0.00    -0.246 OA
BRANCH   6   8
ATOM      8  C   UNL     1      -3.624  -4.437  -0.012  1.00  0.00     0.085 A 
ATOM      9  C   UNL     1      -3.302  -3.877   1.236  1.00  0.00     0.049 A 
ATOM     10  C   UNL     1      -2.950  -4.814   2.244  1.00  0.00     0.029 A 
ATOM     11  C   UNL     1      -2.901  -6.197   2.041  1.00  0.00     0.027 A 
ATOM     12  C   UNL     1      -3.568  -5.846  -0.212  1.00  0.00     0.043 A 
ATOM     13  C   UNL     1      -3.233  -6.732   0.810  1.00  0.00     0.032 A 
BRANCH   9  14
ATOM     14  N   UNL     1      -3.326  -2.576   1.686  1.00  0.00    -0.378 N 
ATOM     15  H   UNL     1      -3.138  -2.538   2.651  1.00  0.00     0.161 HD
BRANCH  14  16
ATOM     16  C   UNL     1      -3.548  -1.238   1.149  1.00  0.00     0.106 C 
ATOM     17  C   UNL     1      -4.821  -1.080   0.330  1.00  0.00     0.036 C 
BRANCH  16  18
ATOM     18  C   UNL     1      -2.272  -0.533   0.697  1.00  0.00    -0.023 A 
ATOM     19  C   UNL     1       1.365   1.755   0.018  1.00  0.00     0.047 C 
ATOM     20  C   UNL     1       0.102   0.979   0.241  1.00  0.00    -0.015 A 
ATOM     21  C   UNL     1      -1.153   1.525  -0.036  1.00  0.00     0.007 A 
ATOM     22  C   UNL     1       0.161  -0.333   0.705  1.00  0.00     0.126 A 
ATOM     23  C   UNL     1      -2.321   0.782   0.196  1.00  0.00     0.006 A 
ATOM     24  C   UNL     1      -0.997  -1.080   0.929  1.00  0.00     0.045 A 
ATOM     25  F   UNL     1       1.353  -0.887   0.971  1.00  0.00    -0.207 F 
ENDBRANCH  16  18
ENDBRANCH  14  16
ENDBRANCH   9  14
BRANCH  13  26
ATOM     26  N   UNL     1      -3.111  -8.090   0.579  1.00  0.00    -0.399 N 
ATOM     27  H   UNL     1      -2.873  -8.695   1.318  1.00  0.00     0.156 HD
ATOM     28  H   UNL     1      -3.261  -8.451  -0.324  1.00  0.00     0.156 HD
ENDBRANCH  13  26
ENDBRANCH   6   8
ENDBRANCH   5   6
ENDBRANCH   4   5
ENDBRANCH   3   4
ENDBRANCH   2   3
ENDBRANCH   1   2
BRANCH   1  29
ATOM     29  C   UNL     1      -0.509  -3.845  -1.903  1.00  0.00     0.188 C 
BRANCH  29  30
ATOM     30  O   UNL     1       0.045  -2.562  -1.645  1.00  0.00    -0.376 OA
BRANCH  30  31
ATOM     31  C   UNL     1       0.796  -1.889  -2.642  1.00  0.00     0.202 C 
BRANCH  31  32
ATOM     32  C   UNL     1       2.069  -2.549  -3.180  1.00  0.00     0.261 C 
BRANCH  32  33
ATOM     33  O   UNL     1       1.891  -3.903  -3.608  1.00  0.00    -0.460 OA
BRANCH  33  34
ATOM     34  C   UNL     1       2.416  -4.845  -2.778  1.00  0.00     0.338 C 
ATOM     35  O   UNL     1       3.064  -4.665  -1.770  1.00  0.00    -0.246 OA
BRANCH  34  36
ATOM     36  C   UNL     1       1.880  -6.162  -3.184  1.00  0.00     0.060 A 
ATOM     37  C   UNL     1       1.254  -6.955  -2.209  1.00  0.00     0.016 A 
ATOM     38  C   UNL     1       1.969  -6.596  -4.506  1.00  0.00     0.016 A 
ATOM     39  C   UNL     1       0.728  -8.197  -2.552  1.00  0.00     0.010 A 
ATOM     40  C   UNL     1       1.476  -7.855  -4.842  1.00  0.00     0.010 A 
ATOM     41  C   UNL     1       0.883  -8.670  -3.860  1.00  0.00    -0.014 A 
BRANCH  41  42
ATOM     42  C   UNL     1       0.671 -10.103  -4.152  1.00  0.00     0.031 A 
ATOM     43  C   UNL     1       1.867 -11.009  -4.064  1.00  0.00     0.074 A 
ATOM     44  C   UNL     1      -0.534 -10.580  -4.505  1.00  0.00     0.049 A 
ATOM     45  N   UNL     1       1.976 -12.272  -4.380  1.00  0.00    -0.248 NA
ATOM     46  C   UNL     1       3.111 -10.402  -3.558  1.00  0.00     0.031 C 
ATOM     47  C   UNL     1      -1.771  -9.804  -4.570  1.00  0.00     0.029 A 
ATOM     48  N   UNL     1      -0.906 -11.842  -4.894  1.00  0.00    -0.354 N 
ATOM     49  C   UNL     1       3.301 -12.605  -4.127  1.00  0.00     0.074 A 
ATOM     50  C   UNL     1       3.962 -11.411  -3.652  1.00  0.00     0.031 C 
ATOM     51  C   UNL     1      -2.764 -10.604  -4.997  1.00  0.00     0.029 A 
ATOM     52  C   UNL     1      -2.223 -11.935  -5.273  1.00  0.00     0.049 A 
ATOM     53  H   UNL     1      -0.287 -12.608  -4.902  1.00  0.00     0.167 HD
ATOM     54  C   UNL     1       3.914 -13.801  -4.281  1.00  0.00     0.031 A 
ATOM     55  C   UNL     1      -2.900 -12.970  -5.809  1.00  0.00     0.031 A 
ATOM     56  C   UNL     1       3.254 -14.975  -4.779  1.00  0.00     0.049 A 
ATOM     57  C   UNL     1      -2.176 -14.273  -6.048  1.00  0.00     0.074 A 
ATOM     58  C   UNL     1       3.779 -16.239  -4.975  1.00  0.00     0.029 A 
ATOM     59  N   UNL     1       1.925 -15.024  -5.171  1.00  0.00    -0.354 N 
ATOM     60  N   UNL     1      -0.926 -14.582  -5.793  1.00  0.00    -0.248 NA
ATOM     61  C   UNL     1      -2.957 -15.367  -6.643  1.00  0.00     0.031 C 
ATOM     62  C   UNL     1       2.779 -17.040  -5.537  1.00  0.00     0.029 A 
ATOM     63  C   UNL     1       1.615 -16.292  -5.629  1.00  0.00     0.049 A 
ATOM     64  H   UNL     1       1.294 -14.269  -5.129  1.00  0.00     0.167 HD
ATOM     65  C   UNL     1      -0.780 -15.915  -6.165  1.00  0.00     0.074 A 
ATOM     66  C   UNL     1      -2.072 -16.354  -6.654  1.00  0.00     0.031 C 
ATOM     67  C   UNL     1       0.319 -16.708  -6.104  1.00  0.00     0.031 A 
BRANCH  54  68
ATOM     68  C   UNL     1       5.379 -13.874  -3.948  1.00  0.00    -0.014 A 
ATOM     69  C   UNL     1       5.831 -13.794  -2.618  1.00  0.00     0.010 A 
ATOM     70  C   UNL     1       6.318 -14.039  -4.982  1.00  0.00     0.010 A 
ATOM     71  C   UNL     1       7.198 -13.841  -2.332  1.00  0.00     0.020 A 
ATOM     72  C   UNL     1       7.684 -14.115  -4.698  1.00  0.00     0.020 A 
ATOM     73  C   UNL     1       8.116 -13.999  -3.375  1.00  0.00     0.054 A 
BRANCH  73  74
ATOM     74  S   UNL     1       9.883 -14.082  -2.973  1.00  0.00     0.124 S 
ATOM     75  O   UNL     1      10.175 -12.697  -2.614  1.00  0.00    -0.237 OA
ATOM     76  O   UNL     1       9.915 -15.037  -1.868  1.00  0.00    -0.237 OA
ATOM     77  O   UNL     1      10.500 -14.547  -4.213  1.00  0.00    -0.744 OA
ENDBRANCH  73  74
ENDBRANCH  54  68
BRANCH  55  78
ATOM     78  C   UNL     1      -4.334 -12.815  -6.180  1.00  0.00    -0.014 A 
ATOM     79  C   UNL     1      -5.336 -13.501  -5.471  1.00  0.00     0.010 A 
ATOM     80  C   UNL     1      -4.706 -11.982  -7.251  1.00  0.00     0.010 A 
ATOM     81  C   UNL     1      -6.679 -13.371  -5.836  1.00  0.00     0.020 A 
ATOM     82  C   UNL     1      -6.051 -11.827  -7.602  1.00  0.00     0.020 A 
ATOM     83  C   UNL     1      -7.029 -12.532  -6.898  1.00  0.00     0.054 A 
BRANCH  83  84
ATOM     84  S   UNL     1      -8.783 -12.341  -7.322  1.00  0.00     0.124 S 
ATOM     85  O   UNL     1      -9.087 -13.626  -7.944  1.00  0.00    -0.237 OA
ATOM     86  O   UNL     1      -9.398 -12.108  -6.018  1.00  0.00    -0.237 OA
ATOM     87  O   UNL     1      -8.794 -11.190  -8.223  1.00  0.00    -0.744 OA
ENDBRANCH  83  84
ENDBRANCH  55  78
BRANCH  67  88
ATOM     88  C   UNL     1       0.168 -18.146  -6.526  1.00  0.00    -0.014 A 
ATOM     89  C   UNL     1       0.025 -18.503  -7.878  1.00  0.00     0.010 A 
ATOM     90  C   UNL     1       0.246 -19.159  -5.552  1.00  0.00     0.010 A 
ATOM     91  C   UNL     1      -0.067 -19.849  -8.245  1.00  0.00     0.020 A 
ATOM     92  C   UNL     1       0.184 -20.505  -5.918  1.00  0.00     0.020 A 
ATOM     93  C   UNL     1       0.015 -20.841  -7.262  1.00  0.00     0.054 A 
BRANCH  93  94
ATOM     94  S   UNL     1      -0.056 -22.581  -7.769  1.00  0.00     0.124 S 
ATOM     95  O   UNL     1      -1.468 -22.742  -8.107  1.00  0.00    -0.237 OA
ATOM     96  O   UNL     1       0.870 -22.625  -8.898  1.00  0.00    -0.237 OA
ATOM     97  O   UNL     1       0.386 -23.308  -6.581  1.00  0.00    -0.744 OA
ENDBRANCH  93  94
ENDBRANCH  67  88
ENDBRANCH  41  42
ENDBRANCH  34  36
ENDBRANCH  33  34
ENDBRANCH  32  33
ENDBRANCH  31  32
ENDBRANCH  30  31
ENDBRANCH  29  30
ENDBRANCH   1  29
TORSDOF 24
