REMARK SMILES O=C(OCCOCCOCCOC(=O)c1cc2ncoc2cn1)c1ccc(-c2c3nc(c(-c4ccc(S(=O)(=O)[O-])cc4)c4ccc([nH]4)c(-c4ccc(S(=O)(=O)[O-])cc4)c4nc(c(-c5ccc(S(=O)(=O)[O-])cc5)c5ccc2[nH]5)C=C4)C=C3)cc1
REMARK SMILES IDX 6 1 5 2 4 3 3 4 2 5 1 6 24 7 25 8 83 9 26 10 82 11 27 12
REMARK SMILES IDX 28 13 29 14 76 15 30 16 81 17 75 18 77 19 31 20 80 21 74 22
REMARK SMILES IDX 73 23 32 25 62 26 43 27 61 28 44 29 47 30 60 31 78 32 45 33
REMARK SMILES IDX 46 34 59 36 79 37 48 38 33 39 34 40 42 41 35 42 41 43 36 44
REMARK SMILES IDX 37 45 38 46 39 47 40 48 63 49 64 50 72 51 65 52 71 53 66 54
REMARK SMILES IDX 67 55 68 56 69 57 70 58 49 59 50 60 58 61 51 62 57 63 52 64
REMARK SMILES IDX 53 65 54 66 55 67 56 68 7 69 8 70 9 71 10 72 11 73 12 74
REMARK SMILES IDX 13 75 14 76 15 77 16 78 23 79 17 80 22 81 18 82 21 83 19 84
REMARK SMILES IDX 20 85
REMARK H PARENT 77 24 47 35
REMARK Flexibility Score: inf
ROOT
ATOM      1  O   UNL     1       3.208   0.794  -1.144  1.00  0.00    -0.376 OA
ENDROOT
BRANCH   1   2
ATOM      2  C   UNL     1       4.097  -0.193  -1.642  1.00  0.00     0.202 C 
BRANCH   2   3
ATOM      3  C   UNL     1       4.050  -1.554  -0.931  1.00  0.00     0.261 C 
BRANCH   3   4
ATOM      4  O   UNL     1       3.325  -1.688   0.322  1.00  0.00    -0.460 OA
BRANCH   4   5
ATOM      5  C   UNL     1       3.408  -0.951   1.458  1.00  0.00     0.338 C 
ATOM      6  O   UNL     1       2.669  -1.158   2.412  1.00  0.00    -0.246 OA
BRANCH   5   7
ATOM      7  C   UNL     1       4.331   0.192   1.464  1.00  0.00     0.060 A 
ATOM      8  C   UNL     1       3.791   1.449   1.740  1.00  0.00     0.016 A 
ATOM      9  C   UNL     1       5.656   0.048   1.045  1.00  0.00     0.016 A 
ATOM     10  C   UNL     1       4.528   2.571   1.404  1.00  0.00     0.010 A 
ATOM     11  C   UNL     1       6.365   1.174   0.649  1.00  0.00     0.010 A 
ATOM     12  C   UNL     1       5.774   2.432   0.775  1.00  0.00    -0.014 A 
BRANCH  12  13
ATOM     13  C   UNL     1       6.534   3.658   0.543  1.00  0.00     0.031 A 
ATOM     14  C   UNL     1       7.108   4.172   1.805  1.00  0.00     0.074 A 
ATOM     15  C   UNL     1       6.826   4.244  -0.632  1.00  0.00     0.049 A 
ATOM     16  N   UNL     1       6.753   5.197   2.505  1.00  0.00    -0.248 NA
ATOM     17  C   UNL     1       8.085   3.283   2.457  1.00  0.00     0.031 C 
ATOM     18  C   UNL     1       6.671   3.691  -1.978  1.00  0.00     0.029 A 
ATOM     19  N   UNL     1       7.399   5.466  -0.858  1.00  0.00    -0.354 N 
ATOM     20  C   UNL     1       7.601   5.176   3.603  1.00  0.00     0.074 A 
ATOM     21  C   UNL     1       8.201   3.867   3.644  1.00  0.00     0.031 C 
ATOM     22  C   UNL     1       7.263   4.515  -2.870  1.00  0.00     0.029 A 
ATOM     23  C   UNL     1       7.807   5.667  -2.169  1.00  0.00     0.049 A 
ATOM     24  H   UNL     1       7.512   6.143  -0.152  1.00  0.00     0.167 HD
ATOM     25  C   UNL     1       8.008   6.304   4.241  1.00  0.00     0.031 A 
ATOM     26  C   UNL     1       8.642   6.636  -2.628  1.00  0.00     0.031 A 
ATOM     27  C   UNL     1       7.182   7.440   3.956  1.00  0.00     0.049 A 
ATOM     28  C   UNL     1       8.676   7.722  -1.618  1.00  0.00     0.074 A 
ATOM     29  C   UNL     1       5.860   7.759   4.176  1.00  0.00     0.029 A 
ATOM     30  N   UNL     1       7.643   8.322   3.010  1.00  0.00    -0.354 N 
ATOM     31  N   UNL     1       7.660   8.487  -1.328  1.00  0.00    -0.248 NA
ATOM     32  C   UNL     1       9.747   7.717  -0.633  1.00  0.00     0.031 C 
ATOM     33  C   UNL     1       5.471   8.543   3.053  1.00  0.00     0.029 A 
ATOM     34  C   UNL     1       6.585   8.705   2.224  1.00  0.00     0.049 A 
ATOM     35  H   UNL     1       8.574   8.627   2.912  1.00  0.00     0.167 HD
ATOM     36  C   UNL     1       7.773   8.741   0.032  1.00  0.00     0.074 A 
ATOM     37  C   UNL     1       9.131   8.336   0.377  1.00  0.00     0.031 C 
ATOM     38  C   UNL     1       6.678   9.008   0.804  1.00  0.00     0.031 A 
BRANCH  25  39
ATOM     39  C   UNL     1       9.393   6.403   4.818  1.00  0.00    -0.014 A 
ATOM     40  C   UNL     1      10.461   5.613   4.333  1.00  0.00     0.010 A 
ATOM     41  C   UNL     1       9.713   7.423   5.726  1.00  0.00     0.010 A 
ATOM     42  C   UNL     1      11.760   5.742   4.806  1.00  0.00     0.020 A 
ATOM     43  C   UNL     1      11.034   7.607   6.163  1.00  0.00     0.020 A 
ATOM     44  C   UNL     1      12.041   6.746   5.720  1.00  0.00     0.054 A 
BRANCH  44  45
ATOM     45  S   UNL     1      13.759   6.938   6.243  1.00  0.00     0.124 S 
ATOM     46  O   UNL     1      13.940   5.774   7.106  1.00  0.00    -0.237 OA
ATOM     47  O   UNL     1      14.479   6.899   4.973  1.00  0.00    -0.237 OA
ATOM     48  O   UNL     1      13.765   8.230   6.922  1.00  0.00    -0.744 OA
ENDBRANCH  44  45
ENDBRANCH  25  39
BRANCH  26  49
ATOM     49  C   UNL     1       9.715   6.433  -3.645  1.00  0.00    -0.014 A 
ATOM     50  C   UNL     1      10.184   5.128  -3.913  1.00  0.00     0.010 A 
ATOM     51  C   UNL     1      10.467   7.506  -4.161  1.00  0.00     0.010 A 
ATOM     52  C   UNL     1      11.371   4.894  -4.605  1.00  0.00     0.020 A 
ATOM     53  C   UNL     1      11.677   7.280  -4.848  1.00  0.00     0.020 A 
ATOM     54  C   UNL     1      12.135   5.973  -5.031  1.00  0.00     0.054 A 
BRANCH  54  55
ATOM     55  S   UNL     1      13.774   5.611  -5.718  1.00  0.00     0.124 S 
ATOM     56  O   UNL     1      14.474   5.069  -4.556  1.00  0.00    -0.237 OA
ATOM     57  O   UNL     1      13.468   4.643  -6.769  1.00  0.00    -0.237 OA
ATOM     58  O   UNL     1      14.249   6.909  -6.188  1.00  0.00    -0.744 OA
ENDBRANCH  54  55
ENDBRANCH  26  49
BRANCH  38  59
ATOM     59  C   UNL     1       5.381   9.409   0.126  1.00  0.00    -0.014 A 
ATOM     60  C   UNL     1       4.760  10.591   0.573  1.00  0.00     0.010 A 
ATOM     61  C   UNL     1       4.677   8.589  -0.777  1.00  0.00     0.010 A 
ATOM     62  C   UNL     1       3.462  10.923   0.175  1.00  0.00     0.020 A 
ATOM     63  C   UNL     1       3.381   8.934  -1.204  1.00  0.00     0.020 A 
ATOM     64  C   UNL     1       2.771  10.084  -0.700  1.00  0.00     0.054 A 
BRANCH  64  65
ATOM     65  S   UNL     1       1.067  10.532  -1.141  1.00  0.00     0.124 S 
ATOM     66  O   UNL     1       0.328  10.213   0.081  1.00  0.00    -0.237 OA
ATOM     67  O   UNL     1       1.176  11.961  -1.434  1.00  0.00    -0.237 OA
ATOM     68  O   UNL     1       0.755   9.699  -2.299  1.00  0.00    -0.744 OA
ENDBRANCH  64  65
ENDBRANCH  38  59
ENDBRANCH  12  13
ENDBRANCH   5   7
ENDBRANCH   4   5
ENDBRANCH   3   4
ENDBRANCH   2   3
ENDBRANCH   1   2
BRANCH   1  69
ATOM     69  C   UNL     1       1.838   0.518  -1.383  1.00  0.00     0.188 C 
BRANCH  69  70
ATOM     70  C   UNL     1       1.092   1.699  -2.011  1.00  0.00     0.188 C 
BRANCH  70  71
ATOM     71  O   UNL     1       1.687   2.327  -3.139  1.00  0.00    -0.376 OA
BRANCH  71  72
ATOM     72  C   UNL     1       2.958   2.943  -2.968  1.00  0.00     0.202 C 
BRANCH  72  73
ATOM     73  C   UNL     1       3.215   3.949  -1.835  1.00  0.00     0.261 C 
BRANCH  73  74
ATOM     74  O   UNL     1       2.408   3.871  -0.660  1.00  0.00    -0.459 OA
BRANCH  74  75
ATOM     75  C   UNL     1       1.944   5.090  -0.254  1.00  0.00     0.357 C 
ATOM     76  O   UNL     1       1.829   6.072  -0.933  1.00  0.00    -0.244 OA
BRANCH  75  77
ATOM     77  C   UNL     1       1.718   5.037   1.217  1.00  0.00     0.150 A 
ATOM     78  C   UNL     1       0.812   4.128   1.753  1.00  0.00     0.068 A 
ATOM     79  N   UNL     1       2.467   5.914   1.944  1.00  0.00    -0.245 NA
ATOM     80  C   UNL     1       0.658   4.201   3.138  1.00  0.00     0.113 A 
ATOM     81  C   UNL     1       2.321   5.969   3.288  1.00  0.00     0.161 A 
ATOM     82  N   UNL     1      -0.160   3.498   3.993  1.00  0.00    -0.216 NA
ATOM     83  C   UNL     1       1.407   5.115   3.864  1.00  0.00     0.172 A 
ATOM     84  C   UNL     1       0.110   4.023   5.169  1.00  0.00     0.309 A 
ATOM     85  O   UNL     1       1.060   5.000   5.178  1.00  0.00    -0.442 OA
ENDBRANCH  75  77
ENDBRANCH  74  75
ENDBRANCH  73  74
ENDBRANCH  72  73
ENDBRANCH  71  72
ENDBRANCH  70  71
ENDBRANCH  69  70
ENDBRANCH   1  69
TORSDOF 20
