REMARK SMILES O=C(Cc1cccn1-c1ccccc1F)OCCOCCOCCOC(=O)c1ccc(-c2c3nc(c(-c4ccc(S(=O)(=O)[O-])cc4)c4ccc([nH]4)c(-c4ccc(S(=O)(=O)[O-])cc4)c4nc(c(-c5ccc(S(=O)(=O)[O-])cc5)c5ccc2[nH]5)C=C4)C=C3)cc1
REMARK SMILES IDX 21 1 20 2 19 3 18 4 17 5 16 6 2 7 1 8 3 9 4 10 5 11 8 12
REMARK SMILES IDX 6 13 7 14 9 15 10 16 14 17 11 18 13 19 15 20 12 21 22 22
REMARK SMILES IDX 23 23 24 24 25 25 26 26 27 27 28 28 29 29 87 30 30 31 86 32
REMARK SMILES IDX 31 33 32 34 33 35 80 36 34 37 85 38 79 39 81 40 35 41 84 42
REMARK SMILES IDX 78 43 77 44 36 46 66 47 47 48 65 49 48 50 51 51 64 52 82 53
REMARK SMILES IDX 49 54 50 55 63 57 83 58 52 59 37 60 38 61 46 62 39 63 45 64
REMARK SMILES IDX 40 65 41 66 42 67 43 68 44 69 67 70 68 71 76 72 69 73 75 74
REMARK SMILES IDX 70 75 71 76 72 77 73 78 74 79 53 80 54 81 62 82 55 83 61 84
REMARK SMILES IDX 56 85 57 86 58 87 59 88 60 89
REMARK H PARENT 81 45 51 56
REMARK Flexibility Score: inf
ROOT
ATOM      1  C   UNL     1       2.379   2.009   1.827  1.00  0.00     0.188 C 
ENDROOT
BRANCH   1   2
ATOM      2  C   UNL     1       3.140   0.683   2.028  1.00  0.00     0.188 C 
BRANCH   2   3
ATOM      3  O   UNL     1       4.532   0.708   1.774  1.00  0.00    -0.376 OA
BRANCH   3   4
ATOM      4  C   UNL     1       5.008   0.358   0.484  1.00  0.00     0.202 C 
BRANCH   4   5
ATOM      5  C   UNL     1       4.313   1.000  -0.717  1.00  0.00     0.261 C 
BRANCH   5   6
ATOM      6  O   UNL     1       2.907   0.717  -0.850  1.00  0.00    -0.463 OA
BRANCH   6   7
ATOM      7  C   UNL     1       2.472  -0.401  -1.477  1.00  0.00     0.311 C 
ATOM      8  O   UNL     1       1.688  -0.331  -2.419  1.00  0.00    -0.252 OA
BRANCH   7   9
ATOM      9  C   UNL     1       2.836  -1.706  -0.815  1.00  0.00     0.177 C 
BRANCH   9  10
ATOM     10  C   UNL     1       3.775  -2.546  -1.624  1.00  0.00     0.034 A 
ATOM     11  C   UNL     1       4.685  -2.148  -2.592  1.00  0.00     0.024 A 
ATOM     12  N   UNL     1       3.995  -3.900  -1.370  1.00  0.00    -0.318 N 
ATOM     13  C   UNL     1       5.525  -3.240  -2.881  1.00  0.00     0.020 A 
ATOM     14  C   UNL     1       5.105  -4.287  -2.097  1.00  0.00     0.091 A 
BRANCH  12  15
ATOM     15  C   UNL     1       3.312  -4.735  -0.448  1.00  0.00     0.081 A 
ATOM     16  C   UNL     1       4.049  -5.572   0.401  1.00  0.00     0.030 A 
ATOM     17  C   UNL     1       1.919  -4.731  -0.360  1.00  0.00     0.147 A 
ATOM     18  C   UNL     1       3.389  -6.328   1.374  1.00  0.00     0.002 A 
ATOM     19  C   UNL     1       1.263  -5.478   0.614  1.00  0.00     0.041 A 
ATOM     20  F   UNL     1       1.167  -4.069  -1.251  1.00  0.00    -0.205 F 
ATOM     21  C   UNL     1       2.000  -6.269   1.492  1.00  0.00     0.003 A 
ENDBRANCH  12  15
ENDBRANCH   9  10
ENDBRANCH   7   9
ENDBRANCH   6   7
ENDBRANCH   5   6
ENDBRANCH   4   5
ENDBRANCH   3   4
ENDBRANCH   2   3
ENDBRANCH   1   2
BRANCH   1  22
ATOM     22  O   UNL     1       3.025   3.267   1.658  1.00  0.00    -0.376 OA
BRANCH  22  23
ATOM     23  C   UNL     1       4.366   3.499   2.048  1.00  0.00     0.202 C 
BRANCH  23  24
ATOM     24  C   UNL     1       4.706   3.528   3.531  1.00  0.00     0.261 C 
BRANCH  24  25
ATOM     25  O   UNL     1       4.418   2.320   4.221  1.00  0.00    -0.460 OA
BRANCH  25  26
ATOM     26  C   UNL     1       3.231   2.342   4.845  1.00  0.00     0.338 C 
ATOM     27  O   UNL     1       2.286   3.107   4.637  1.00  0.00    -0.246 OA
BRANCH  26  28
ATOM     28  C   UNL     1       3.235   1.422   5.970  1.00  0.00     0.060 A 
ATOM     29  C   UNL     1       1.988   1.033   6.472  1.00  0.00     0.016 A 
ATOM     30  C   UNL     1       4.418   1.297   6.709  1.00  0.00     0.016 A 
ATOM     31  C   UNL     1       1.899   0.683   7.799  1.00  0.00     0.010 A 
ATOM     32  C   UNL     1       4.319   0.997   8.048  1.00  0.00     0.010 A 
ATOM     33  C   UNL     1       3.053   0.748   8.589  1.00  0.00    -0.014 A 
BRANCH  33  34
ATOM     34  C   UNL     1       2.922   0.498  10.024  1.00  0.00     0.031 A 
ATOM     35  C   UNL     1       3.082  -0.975  10.345  1.00  0.00     0.074 A 
ATOM     36  C   UNL     1       2.630   1.586  10.796  1.00  0.00     0.049 A 
ATOM     37  N   UNL     1       2.569  -1.653  11.320  1.00  0.00    -0.248 NA
ATOM     38  C   UNL     1       3.828  -1.850   9.399  1.00  0.00     0.031 C 
ATOM     39  C   UNL     1       2.481   2.968  10.281  1.00  0.00     0.029 A 
ATOM     40  N   UNL     1       2.394   1.768  12.141  1.00  0.00    -0.354 N 
ATOM     41  C   UNL     1       3.072  -2.961  11.217  1.00  0.00     0.074 A 
ATOM     42  C   UNL     1       3.734  -3.058   9.953  1.00  0.00     0.031 C 
ATOM     43  C   UNL     1       2.119   3.813  11.269  1.00  0.00     0.029 A 
ATOM     44  C   UNL     1       2.027   3.083  12.518  1.00  0.00     0.049 A 
ATOM     45  H   UNL     1       2.474   1.036  12.794  1.00  0.00     0.167 HD
ATOM     46  C   UNL     1       3.056  -3.844  12.251  1.00  0.00     0.031 A 
ATOM     47  C   UNL     1       1.639   3.548  13.743  1.00  0.00     0.031 A 
ATOM     48  C   UNL     1       2.400  -3.282  13.384  1.00  0.00     0.049 A 
ATOM     49  C   UNL     1       1.809   2.428  14.687  1.00  0.00     0.074 A 
ATOM     50  C   UNL     1       1.094  -2.967  13.656  1.00  0.00     0.029 A 
ATOM     51  N   UNL     1       3.212  -2.642  14.293  1.00  0.00    -0.354 N 
ATOM     52  N   UNL     1       2.946   1.954  15.095  1.00  0.00    -0.248 NA
ATOM     53  C   UNL     1       0.612   1.729  15.175  1.00  0.00     0.031 C 
ATOM     54  C   UNL     1       1.182  -1.800  14.447  1.00  0.00     0.029 A 
ATOM     55  C   UNL     1       2.527  -1.534  14.728  1.00  0.00     0.049 A 
ATOM     56  H   UNL     1       4.111  -2.924  14.576  1.00  0.00     0.167 HD
ATOM     57  C   UNL     1       2.604   0.706  15.555  1.00  0.00     0.074 A 
ATOM     58  C   UNL     1       1.194   0.756  15.871  1.00  0.00     0.031 C 
ATOM     59  C   UNL     1       3.301  -0.379  15.129  1.00  0.00     0.031 A 
BRANCH  46  60
ATOM     60  C   UNL     1       3.862  -5.092  12.451  1.00  0.00    -0.014 A 
ATOM     61  C   UNL     1       3.463  -5.941  13.510  1.00  0.00     0.010 A 
ATOM     62  C   UNL     1       5.146  -5.268  11.914  1.00  0.00     0.010 A 
ATOM     63  C   UNL     1       4.363  -6.816  14.115  1.00  0.00     0.020 A 
ATOM     64  C   UNL     1       6.042  -6.179  12.489  1.00  0.00     0.020 A 
ATOM     65  C   UNL     1       5.662  -6.896  13.624  1.00  0.00     0.054 A 
BRANCH  65  66
ATOM     66  S   UNL     1       6.875  -7.874  14.548  1.00  0.00     0.124 S 
ATOM     67  O   UNL     1       7.185  -6.991  15.668  1.00  0.00    -0.237 OA
ATOM     68  O   UNL     1       6.120  -9.078  14.890  1.00  0.00    -0.237 OA
ATOM     69  O   UNL     1       7.952  -8.079  13.583  1.00  0.00    -0.744 OA
ENDBRANCH  65  66
ENDBRANCH  46  60
BRANCH  47  70
ATOM     70  C   UNL     1       1.002   4.800  14.298  1.00  0.00    -0.014 A 
ATOM     71  C   UNL     1       0.682   5.956  13.574  1.00  0.00     0.010 A 
ATOM     72  C   UNL     1       0.553   4.775  15.648  1.00  0.00     0.010 A 
ATOM     73  C   UNL     1      -0.161   6.951  14.121  1.00  0.00     0.020 A 
ATOM     74  C   UNL     1      -0.321   5.723  16.183  1.00  0.00     0.020 A 
ATOM     75  C   UNL     1      -0.699   6.800  15.402  1.00  0.00     0.054 A 
BRANCH  75  76
ATOM     76  S   UNL     1      -1.997   7.909  16.018  1.00  0.00     0.124 S 
ATOM     77  O   UNL     1      -1.230   8.910  16.753  1.00  0.00    -0.237 OA
ATOM     78  O   UNL     1      -2.640   8.379  14.793  1.00  0.00    -0.237 OA
ATOM     79  O   UNL     1      -2.824   7.026  16.840  1.00  0.00    -0.744 OA
ENDBRANCH  75  76
ENDBRANCH  47  70
BRANCH  59  80
ATOM     80  C   UNL     1       4.732  -0.097  14.691  1.00  0.00    -0.014 A 
ATOM     81  C   UNL     1       5.672   0.380  15.622  1.00  0.00     0.010 A 
ATOM     82  C   UNL     1       5.149  -0.209  13.350  1.00  0.00     0.010 A 
ATOM     83  C   UNL     1       6.971   0.740  15.228  1.00  0.00     0.020 A 
ATOM     84  C   UNL     1       6.446   0.148  12.944  1.00  0.00     0.020 A 
ATOM     85  C   UNL     1       7.352   0.625  13.889  1.00  0.00     0.054 A 
BRANCH  85  86
ATOM     86  S   UNL     1       9.028   1.135  13.403  1.00  0.00     0.124 S 
ATOM     87  O   UNL     1       9.086   2.525  13.850  1.00  0.00    -0.237 OA
ATOM     88  O   UNL     1       9.871   0.206  14.149  1.00  0.00    -0.237 OA
ATOM     89  O   UNL     1       9.043   0.957  11.952  1.00  0.00    -0.744 OA
ENDBRANCH  85  86
ENDBRANCH  59  80
ENDBRANCH  33  34
ENDBRANCH  26  28
ENDBRANCH  25  26
ENDBRANCH  24  25
ENDBRANCH  23  24
ENDBRANCH  22  23
ENDBRANCH   1  22
TORSDOF 22
