REMARK SMILES O=C(OCCOCCOCCOC(=O)[C@H](c1c[nH]c2cc(F)ccc12)[NH+]1CC[NH+](Cc2cccc(Cl)c2)CC1)c1ccc(-c2c3nc(c(-c4ccc(S(=O)(=O)[O-])cc4)c4ccc([nH]4)c(-c4ccc(S(=O)(=O)[O-])cc4)c4nc(c(-c5ccc(S(=O)(=O)[O-])cc5)c5ccc2[nH]5)C=C4)C=C3)cc1
REMARK SMILES IDX 7 1 6 2 5 3 4 4 3 5 2 6 1 7 40 8 41 9 99 10 42 11 98 12
REMARK SMILES IDX 43 13 44 14 45 15 92 16 46 17 97 18 91 19 93 20 47 21 96 22
REMARK SMILES IDX 90 23 89 24 48 26 78 27 59 28 77 29 60 30 63 31 76 32 94 33
REMARK SMILES IDX 61 34 62 35 75 37 95 38 64 39 49 40 50 41 58 42 51 43 57 44
REMARK SMILES IDX 52 45 53 46 54 47 55 48 56 49 79 50 80 51 88 52 81 53 87 54
REMARK SMILES IDX 82 55 83 56 84 57 85 58 86 59 65 60 66 61 74 62 67 63 73 64
REMARK SMILES IDX 68 65 69 66 70 67 71 68 72 69 8 70 9 71 10 72 11 73 12 74
REMARK SMILES IDX 13 75 14 76 15 77 26 78 27 79 39 80 28 82 38 83 29 84 30 86
REMARK SMILES IDX 31 87 32 88 37 89 33 90 35 91 34 92 36 93 16 94 17 95 25 96
REMARK SMILES IDX 18 97 19 98 24 99 20 101 23 102 21 103 22 104
REMARK H PARENT 93 25 63 36 26 81 29 85 18 100
REMARK Flexibility Score: inf
ROOT
ATOM      1  C   UNL     1       5.596   0.663   2.357  1.00  0.00     0.188 C 
ENDROOT
BRANCH   1   2
ATOM      2  O   UNL     1       4.280   0.109   2.298  1.00  0.00    -0.376 OA
BRANCH   2   3
ATOM      3  C   UNL     1       4.230  -1.318   2.242  1.00  0.00     0.202 C 
BRANCH   3   4
ATOM      4  C   UNL     1       4.465  -1.934   0.854  1.00  0.00     0.261 C 
BRANCH   4   5
ATOM      5  O   UNL     1       5.234  -1.087  -0.013  1.00  0.00    -0.460 OA
BRANCH   5   6
ATOM      6  C   UNL     1       4.726  -0.260  -0.959  1.00  0.00     0.338 C 
ATOM      7  O   UNL     1       5.491   0.384  -1.679  1.00  0.00    -0.246 OA
BRANCH   6   8
ATOM      8  C   UNL     1       3.260  -0.113  -1.173  1.00  0.00     0.060 A 
ATOM      9  C   UNL     1       2.331  -0.001  -0.135  1.00  0.00     0.016 A 
ATOM     10  C   UNL     1       2.820   0.113  -2.478  1.00  0.00     0.016 A 
ATOM     11  C   UNL     1       0.979   0.211  -0.378  1.00  0.00     0.010 A 
ATOM     12  C   UNL     1       1.488   0.467  -2.710  1.00  0.00     0.010 A 
ATOM     13  C   UNL     1       0.542   0.481  -1.666  1.00  0.00    -0.014 A 
BRANCH  13  14
ATOM     14  C   UNL     1      -0.902   0.675  -1.962  1.00  0.00     0.031 A 
ATOM     15  C   UNL     1      -1.507  -0.203  -3.023  1.00  0.00     0.074 A 
ATOM     16  C   UNL     1      -1.656   1.598  -1.327  1.00  0.00     0.049 A 
ATOM     17  N   UNL     1      -2.658  -0.105  -3.630  1.00  0.00    -0.248 NA
ATOM     18  C   UNL     1      -0.679  -1.333  -3.486  1.00  0.00     0.031 C 
ATOM     19  C   UNL     1      -1.224   2.457  -0.220  1.00  0.00     0.029 A 
ATOM     20  N   UNL     1      -2.953   1.996  -1.546  1.00  0.00    -0.354 N 
ATOM     21  C   UNL     1      -2.664  -1.132  -4.566  1.00  0.00     0.074 A 
ATOM     22  C   UNL     1      -1.368  -1.764  -4.527  1.00  0.00     0.031 C 
ATOM     23  C   UNL     1      -2.205   3.316   0.098  1.00  0.00     0.029 A 
ATOM     24  C   UNL     1      -3.335   3.080  -0.786  1.00  0.00     0.049 A 
ATOM     25  H   UNL     1      -3.552   1.548  -2.186  1.00  0.00     0.167 HD
ATOM     26  C   UNL     1      -3.684  -1.565  -5.340  1.00  0.00     0.031 A 
ATOM     27  C   UNL     1      -4.463   3.815  -0.816  1.00  0.00     0.031 A 
ATOM     28  C   UNL     1      -4.989  -0.976  -5.311  1.00  0.00     0.049 A 
ATOM     29  C   UNL     1      -5.561   3.381  -1.746  1.00  0.00     0.074 A 
ATOM     30  C   UNL     1      -6.125  -1.356  -5.998  1.00  0.00     0.029 A 
ATOM     31  N   UNL     1      -5.333   0.115  -4.523  1.00  0.00    -0.354 N 
ATOM     32  N   UNL     1      -5.560   2.393  -2.610  1.00  0.00    -0.248 NA
ATOM     33  C   UNL     1      -6.824   4.124  -1.673  1.00  0.00     0.031 C 
ATOM     34  C   UNL     1      -7.152  -0.473  -5.647  1.00  0.00     0.029 A 
ATOM     35  C   UNL     1      -6.666   0.426  -4.708  1.00  0.00     0.049 A 
ATOM     36  H   UNL     1      -4.719   0.595  -3.923  1.00  0.00     0.167 HD
ATOM     37  C   UNL     1      -6.845   2.351  -3.135  1.00  0.00     0.074 A 
ATOM     38  C   UNL     1      -7.587   3.425  -2.503  1.00  0.00     0.031 C 
ATOM     39  C   UNL     1      -7.372   1.490  -4.040  1.00  0.00     0.031 A 
BRANCH  26  40
ATOM     40  C   UNL     1      -3.400  -2.738  -6.239  1.00  0.00    -0.014 A 
ATOM     41  C   UNL     1      -3.128  -4.011  -5.700  1.00  0.00     0.010 A 
ATOM     42  C   UNL     1      -3.330  -2.555  -7.630  1.00  0.00     0.010 A 
ATOM     43  C   UNL     1      -2.714  -5.058  -6.527  1.00  0.00     0.020 A 
ATOM     44  C   UNL     1      -2.952  -3.611  -8.465  1.00  0.00     0.020 A 
ATOM     45  C   UNL     1      -2.618  -4.846  -7.904  1.00  0.00     0.054 A 
BRANCH  45  46
ATOM     46  S   UNL     1      -2.054  -6.218  -8.948  1.00  0.00     0.124 S 
ATOM     47  O   UNL     1      -0.618  -6.239  -8.664  1.00  0.00    -0.237 OA
ATOM     48  O   UNL     1      -2.812  -7.346  -8.440  1.00  0.00    -0.237 OA
ATOM     49  O   UNL     1      -2.409  -5.786 -10.304  1.00  0.00    -0.744 OA
ENDBRANCH  45  46
ENDBRANCH  26  40
BRANCH  27  50
ATOM     50  C   UNL     1      -4.627   4.997   0.077  1.00  0.00    -0.014 A 
ATOM     51  C   UNL     1      -5.490   4.942   1.186  1.00  0.00     0.010 A 
ATOM     52  C   UNL     1      -3.926   6.191  -0.178  1.00  0.00     0.010 A 
ATOM     53  C   UNL     1      -5.673   6.063   2.003  1.00  0.00     0.020 A 
ATOM     54  C   UNL     1      -4.091   7.309   0.649  1.00  0.00     0.020 A 
ATOM     55  C   UNL     1      -4.975   7.242   1.727  1.00  0.00     0.054 A 
BRANCH  55  56
ATOM     56  S   UNL     1      -5.218   8.674   2.817  1.00  0.00     0.124 S 
ATOM     57  O   UNL     1      -6.582   9.078   2.489  1.00  0.00    -0.237 OA
ATOM     58  O   UNL     1      -5.032   8.092   4.144  1.00  0.00    -0.237 OA
ATOM     59  O   UNL     1      -4.171   9.604   2.400  1.00  0.00    -0.744 OA
ENDBRANCH  55  56
ENDBRANCH  27  50
BRANCH  39  60
ATOM     60  C   UNL     1      -8.837   1.624  -4.335  1.00  0.00    -0.014 A 
ATOM     61  C   UNL     1      -9.329   2.676  -5.124  1.00  0.00     0.010 A 
ATOM     62  C   UNL     1      -9.719   0.633  -3.867  1.00  0.00     0.010 A 
ATOM     63  C   UNL     1     -10.690   2.746  -5.424  1.00  0.00     0.020 A 
ATOM     64  C   UNL     1     -11.074   0.684  -4.190  1.00  0.00     0.020 A 
ATOM     65  C   UNL     1     -11.553   1.747  -4.958  1.00  0.00     0.054 A 
BRANCH  65  66
ATOM     66  S   UNL     1     -13.304   1.823  -5.417  1.00  0.00     0.124 S 
ATOM     67  O   UNL     1     -13.799   2.886  -4.547  1.00  0.00    -0.237 OA
ATOM     68  O   UNL     1     -13.248   2.150  -6.840  1.00  0.00    -0.237 OA
ATOM     69  O   UNL     1     -13.800   0.484  -5.111  1.00  0.00    -0.744 OA
ENDBRANCH  65  66
ENDBRANCH  39  60
ENDBRANCH  13  14
ENDBRANCH   6   8
ENDBRANCH   5   6
ENDBRANCH   4   5
ENDBRANCH   3   4
ENDBRANCH   2   3
ENDBRANCH   1   2
BRANCH   1  70
ATOM     70  C   UNL     1       5.582   2.059   2.996  1.00  0.00     0.188 C 
BRANCH  70  71
ATOM     71  O   UNL     1       5.253   2.102   4.382  1.00  0.00    -0.376 OA
BRANCH  71  72
ATOM     72  C   UNL     1       3.970   1.599   4.741  1.00  0.00     0.202 C 
BRANCH  72  73
ATOM     73  C   UNL     1       2.719   2.391   4.316  1.00  0.00     0.261 C 
BRANCH  73  74
ATOM     74  O   UNL     1       2.555   2.708   2.914  1.00  0.00    -0.459 OA
BRANCH  74  75
ATOM     75  C   UNL     1       2.740   4.034   2.595  1.00  0.00     0.370 C 
ATOM     76  O   UNL     1       3.253   4.832   3.377  1.00  0.00    -0.245 OA
BRANCH  75  77
ATOM     77  C   UNL     1       2.117   4.424   1.229  1.00  0.00     0.328 C 
BRANCH  77  78
ATOM     78  N   UNL     1       2.402   5.815   0.857  1.00  0.00    -0.310 N 
ATOM     79  C   UNL     1       3.791   6.120   0.564  1.00  0.00     0.325 C 
ATOM     80  C   UNL     1       1.787   6.970   1.490  1.00  0.00     0.325 C 
ATOM     81  H   UNL     1       1.823   5.717   0.023  1.00  0.00     0.349 HD
ATOM     82  C   UNL     1       3.715   7.045  -0.652  1.00  0.00     0.324 C 
ATOM     83  C   UNL     1       2.076   8.297   0.660  1.00  0.00     0.324 C 
ATOM     84  N   UNL     1       3.243   8.373  -0.266  1.00  0.00    -0.322 N 
ATOM     85  H   UNL     1       2.845   8.840  -1.081  1.00  0.00     0.348 HD
BRANCH  84  86
ATOM     86  C   UNL     1       4.339   9.287   0.076  1.00  0.00     0.299 C 
BRANCH  86  87
ATOM     87  C   UNL     1       5.279   8.833   1.177  1.00  0.00     0.008 A 
ATOM     88  C   UNL     1       6.335   7.934   0.915  1.00  0.00     0.009 A 
ATOM     89  C   UNL     1       5.016   9.194   2.503  1.00  0.00     0.030 A 
ATOM     90  C   UNL     1       7.015   7.309   1.963  1.00  0.00     0.002 A 
ATOM     91  C   UNL     1       5.732   8.602   3.542  1.00  0.00     0.041 A 
ATOM     92  C   UNL     1       6.703   7.637   3.280  1.00  0.00     0.020 A 
ATOM     93  Cl  UNL     1       5.388   9.046   5.168  1.00  0.00    -0.084 Cl
ENDBRANCH  86  87
ENDBRANCH  84  86
ENDBRANCH  77  78
BRANCH  77  94
ATOM     94  C   UNL     1       2.599   3.679  -0.023  1.00  0.00     0.046 A 
ATOM     95  C   UNL     1       3.816   3.055  -0.244  1.00  0.00     0.094 A 
ATOM     96  C   UNL     1       1.999   3.827  -1.336  1.00  0.00     0.009 A 
ATOM     97  N   UNL     1       4.032   2.964  -1.596  1.00  0.00    -0.361 N 
ATOM     98  C   UNL     1       2.931   3.405  -2.284  1.00  0.00     0.049 A 
ATOM     99  C   UNL     1       0.787   4.380  -1.806  1.00  0.00     0.014 A 
ATOM    100  H   UNL     1       4.859   2.630  -2.012  1.00  0.00     0.166 HD
ATOM    101  C   UNL     1       2.691   3.454  -3.663  1.00  0.00     0.065 A 
ATOM    102  C   UNL     1       0.493   4.360  -3.173  1.00  0.00     0.040 A 
ATOM    103  C   UNL     1       1.439   3.903  -4.076  1.00  0.00     0.125 A 
ATOM    104  F   UNL     1       1.146   3.890  -5.384  1.00  0.00    -0.207 F 
ENDBRANCH  77  94
ENDBRANCH  75  77
ENDBRANCH  74  75
ENDBRANCH  73  74
ENDBRANCH  72  73
ENDBRANCH  71  72
ENDBRANCH  70  71
ENDBRANCH   1  70
TORSDOF 24
