REMARK SMILES CC[C@@]1(C(=O)OCCOCCOCCOC(=O)c2ccc(-c3c4nc(c(-c5ccc(S(=O)(=O)[O-])cc5)c5ccc([nH]5)c(-c5ccc(S(=O)(=O)[O-])cc5)c5nc(c(-c6ccc(S(=O)(=O)[O-])cc6)c6ccc3[nH]6)C=C5)C=C4)cc2)CCC[N@@H+](Cc2cc(OC)ccc2F)C1
REMARK SMILES IDX 10 1 9 2 8 3 7 4 6 5 4 6 5 7 3 8 78 9 92 10 79 11 81 12
REMARK SMILES IDX 80 13 2 15 1 16 82 17 83 18 84 19 90 20 85 21 89 22 91 23
REMARK SMILES IDX 88 24 86 25 87 26 11 27 12 28 13 29 14 30 15 31 16 32 17 33
REMARK SMILES IDX 18 34 19 35 77 36 20 37 76 38 21 39 22 40 23 41 70 42 24 43
REMARK SMILES IDX 75 44 69 45 71 46 25 47 74 48 68 49 67 50 26 52 56 53 37 54
REMARK SMILES IDX 55 55 38 56 41 57 54 58 72 59 39 60 40 61 53 63 73 64 42 65
REMARK SMILES IDX 27 66 28 67 36 68 29 69 35 70 30 71 31 72 32 73 33 74 34 75
REMARK SMILES IDX 57 76 58 77 66 78 59 79 65 80 60 81 61 82 62 83 63 84 64 85
REMARK SMILES IDX 43 86 44 87 52 88 45 89 51 90 46 91 47 92 48 93 49 94 50 95
REMARK H PARENT 81 14 71 51 41 62
REMARK Flexibility Score: inf
ROOT
ATOM      1  C   UNL     1       1.778  -0.649   2.357  1.00  0.00     0.188 C 
ENDROOT
BRANCH   1   2
ATOM      2  O   UNL     1       1.462  -1.510   3.428  1.00  0.00    -0.376 OA
BRANCH   2   3
ATOM      3  C   UNL     1       0.171  -2.083   3.494  1.00  0.00     0.202 C 
BRANCH   3   4
ATOM      4  C   UNL     1      -0.503  -2.779   2.272  1.00  0.00     0.261 C 
BRANCH   4   5
ATOM      5  O   UNL     1      -0.102  -2.285   0.982  1.00  0.00    -0.463 OA
BRANCH   5   6
ATOM      6  C   UNL     1      -0.675  -2.767  -0.202  1.00  0.00     0.317 C 
ATOM      7  O   UNL     1      -1.761  -3.295  -0.281  1.00  0.00    -0.251 OA
BRANCH   6   8
ATOM      8  C   UNL     1       0.404  -2.568  -1.319  1.00  0.00     0.117 C 
ATOM      9  C   UNL     1       0.530  -2.916  -2.849  1.00  0.00     0.030 C 
ATOM     10  C   UNL     1       1.417  -3.641  -0.763  1.00  0.00     0.281 C 
ATOM     11  C   UNL     1       0.272  -4.323  -3.322  1.00  0.00     0.063 C 
ATOM     12  N   UNL     1       0.824  -4.979  -1.076  1.00  0.00    -0.330 N 
ATOM     13  C   UNL     1       0.959  -5.367  -2.463  1.00  0.00     0.262 C 
ATOM     14  H   UNL     1      -0.162  -4.767  -0.925  1.00  0.00     0.348 HD
BRANCH   8  15
ATOM     15  C   UNL     1       0.312  -1.006  -1.540  1.00  0.00     0.021 C 
ATOM     16  C   UNL     1       0.215   0.114  -0.530  1.00  0.00     0.005 C 
ENDBRANCH   8  15
BRANCH  12  17
ATOM     17  C   UNL     1       0.911  -6.063  -0.105  1.00  0.00     0.302 C 
BRANCH  17  18
ATOM     18  C   UNL     1       2.300  -6.517   0.230  1.00  0.00     0.046 A 
ATOM     19  C   UNL     1       2.874  -7.652  -0.361  1.00  0.00     0.059 A 
ATOM     20  C   UNL     1       3.056  -5.790   1.150  1.00  0.00     0.132 A 
ATOM     21  C   UNL     1       4.193  -8.005  -0.063  1.00  0.00     0.119 A 
ATOM     22  C   UNL     1       4.397  -6.063   1.357  1.00  0.00     0.043 A 
ATOM     23  F   UNL     1       2.484  -4.816   1.869  1.00  0.00    -0.206 F 
ATOM     24  C   UNL     1       4.975  -7.163   0.732  1.00  0.00     0.049 A 
BRANCH  21  25
ATOM     25  O   UNL     1       4.632  -9.190  -0.591  1.00  0.00    -0.497 OA
ATOM     26  C   UNL     1       5.671  -9.819   0.158  1.00  0.00     0.278 C 
ENDBRANCH  21  25
ENDBRANCH  17  18
ENDBRANCH  12  17
ENDBRANCH   6   8
ENDBRANCH   5   6
ENDBRANCH   4   5
ENDBRANCH   3   4
ENDBRANCH   2   3
ENDBRANCH   1   2
BRANCH   1  27
ATOM     27  C   UNL     1       2.819  -1.296   1.431  1.00  0.00     0.188 C 
BRANCH  27  28
ATOM     28  O   UNL     1       3.847  -2.135   1.953  1.00  0.00    -0.376 OA
BRANCH  28  29
ATOM     29  C   UNL     1       4.263  -1.942   3.293  1.00  0.00     0.202 C 
BRANCH  29  30
ATOM     30  C   UNL     1       4.982  -0.627   3.628  1.00  0.00     0.261 C 
BRANCH  30  31
ATOM     31  O   UNL     1       4.476   0.551   2.975  1.00  0.00    -0.460 OA
BRANCH  31  32
ATOM     32  C   UNL     1       5.078   0.887   1.802  1.00  0.00     0.338 C 
ATOM     33  O   UNL     1       6.020   0.327   1.280  1.00  0.00    -0.246 OA
BRANCH  32  34
ATOM     34  C   UNL     1       4.284   1.958   1.138  1.00  0.00     0.060 A 
ATOM     35  C   UNL     1       3.908   1.787  -0.204  1.00  0.00     0.016 A 
ATOM     36  C   UNL     1       3.906   3.115   1.821  1.00  0.00     0.016 A 
ATOM     37  C   UNL     1       3.143   2.760  -0.857  1.00  0.00     0.010 A 
ATOM     38  C   UNL     1       3.173   4.106   1.153  1.00  0.00     0.010 A 
ATOM     39  C   UNL     1       2.792   3.941  -0.191  1.00  0.00    -0.014 A 
BRANCH  39  40
ATOM     40  C   UNL     1       2.133   5.058  -0.918  1.00  0.00     0.031 A 
ATOM     41  C   UNL     1       2.985   6.153  -1.499  1.00  0.00     0.074 A 
ATOM     42  C   UNL     1       0.794   5.119  -1.042  1.00  0.00     0.049 A 
ATOM     43  N   UNL     1       2.619   7.268  -2.078  1.00  0.00    -0.248 NA
ATOM     44  C   UNL     1       4.442   5.966  -1.411  1.00  0.00     0.031 C 
ATOM     45  C   UNL     1      -0.144   4.104  -0.571  1.00  0.00     0.029 A 
ATOM     46  N   UNL     1      -0.010   6.089  -1.593  1.00  0.00    -0.354 N 
ATOM     47  C   UNL     1       3.798   7.924  -2.412  1.00  0.00     0.074 A 
ATOM     48  C   UNL     1       4.889   7.087  -1.958  1.00  0.00     0.031 C 
ATOM     49  C   UNL     1      -1.398   4.506  -0.845  1.00  0.00     0.029 A 
ATOM     50  C   UNL     1      -1.355   5.832  -1.460  1.00  0.00     0.049 A 
ATOM     51  H   UNL     1       0.344   6.891  -2.040  1.00  0.00     0.167 HD
ATOM     52  C   UNL     1       3.958   9.118  -3.032  1.00  0.00     0.031 A 
ATOM     53  C   UNL     1      -2.429   6.593  -1.760  1.00  0.00     0.031 A 
ATOM     54  C   UNL     1       2.873   9.966  -3.453  1.00  0.00     0.049 A 
ATOM     55  C   UNL     1      -2.224   7.966  -2.353  1.00  0.00     0.074 A 
ATOM     56  C   UNL     1       2.940  11.189  -4.097  1.00  0.00     0.029 A 
ATOM     57  N   UNL     1       1.528   9.694  -3.255  1.00  0.00    -0.354 N 
ATOM     58  N   UNL     1      -1.104   8.562  -2.689  1.00  0.00    -0.248 NA
ATOM     59  C   UNL     1      -3.429   8.774  -2.598  1.00  0.00     0.031 C 
ATOM     60  C   UNL     1       1.640  11.690  -4.222  1.00  0.00     0.029 A 
ATOM     61  C   UNL     1       0.757  10.745  -3.724  1.00  0.00     0.049 A 
ATOM     62  H   UNL     1       1.173   8.873  -2.842  1.00  0.00     0.167 HD
ATOM     63  C   UNL     1      -1.472   9.803  -3.203  1.00  0.00     0.074 A 
ATOM     64  C   UNL     1      -2.918   9.863  -3.155  1.00  0.00     0.031 C 
ATOM     65  C   UNL     1      -0.682  10.804  -3.667  1.00  0.00     0.031 A 
BRANCH  52  66
ATOM     66  C   UNL     1       5.367   9.607  -3.247  1.00  0.00    -0.014 A 
ATOM     67  C   UNL     1       6.220   8.995  -4.183  1.00  0.00     0.010 A 
ATOM     68  C   UNL     1       5.829  10.727  -2.531  1.00  0.00     0.010 A 
ATOM     69  C   UNL     1       7.521   9.471  -4.371  1.00  0.00     0.020 A 
ATOM     70  C   UNL     1       7.118  11.225  -2.738  1.00  0.00     0.020 A 
ATOM     71  C   UNL     1       7.962  10.583  -3.647  1.00  0.00     0.054 A 
BRANCH  71  72
ATOM     72  S   UNL     1       9.647  11.191  -3.929  1.00  0.00     0.124 S 
ATOM     73  O   UNL     1      10.454  10.130  -3.333  1.00  0.00    -0.237 OA
ATOM     74  O   UNL     1       9.711  11.287  -5.385  1.00  0.00    -0.237 OA
ATOM     75  O   UNL     1       9.679  12.469  -3.221  1.00  0.00    -0.744 OA
ENDBRANCH  71  72
ENDBRANCH  52  66
BRANCH  53  76
ATOM     76  C   UNL     1      -3.805   6.102  -1.458  1.00  0.00    -0.014 A 
ATOM     77  C   UNL     1      -4.715   5.827  -2.494  1.00  0.00     0.010 A 
ATOM     78  C   UNL     1      -4.220   5.926  -0.124  1.00  0.00     0.010 A 
ATOM     79  C   UNL     1      -6.015   5.400  -2.202  1.00  0.00     0.020 A 
ATOM     80  C   UNL     1      -5.507   5.468   0.171  1.00  0.00     0.020 A 
ATOM     81  C   UNL     1      -6.401   5.217  -0.871  1.00  0.00     0.054 A 
BRANCH  81  82
ATOM     82  S   UNL     1      -8.075   4.612  -0.519  1.00  0.00     0.124 S 
ATOM     83  O   UNL     1      -8.896   5.768  -0.866  1.00  0.00    -0.237 OA
ATOM     84  O   UNL     1      -8.188   3.464  -1.415  1.00  0.00    -0.237 OA
ATOM     85  O   UNL     1      -8.027   4.281   0.903  1.00  0.00    -0.744 OA
ENDBRANCH  81  82
ENDBRANCH  53  76
BRANCH  65  86
ATOM     86  C   UNL     1      -1.358  12.052  -4.180  1.00  0.00    -0.014 A 
ATOM     87  C   UNL     1      -1.994  12.950  -3.304  1.00  0.00     0.010 A 
ATOM     88  C   UNL     1      -1.300  12.364  -5.552  1.00  0.00     0.010 A 
ATOM     89  C   UNL     1      -2.580  14.122  -3.793  1.00  0.00     0.020 A 
ATOM     90  C   UNL     1      -1.856  13.550  -6.040  1.00  0.00     0.020 A 
ATOM     91  C   UNL     1      -2.504  14.417  -5.157  1.00  0.00     0.054 A 
BRANCH  91  92
ATOM     92  S   UNL     1      -3.225  15.971  -5.755  1.00  0.00     0.124 S 
ATOM     93  O   UNL     1      -4.657  15.714  -5.621  1.00  0.00    -0.237 OA
ATOM     94  O   UNL     1      -2.674  16.956  -4.828  1.00  0.00    -0.237 OA
ATOM     95  O   UNL     1      -2.738  16.076  -7.129  1.00  0.00    -0.744 OA
ENDBRANCH  91  92
ENDBRANCH  65  86
ENDBRANCH  39  40
ENDBRANCH  32  34
ENDBRANCH  31  32
ENDBRANCH  30  31
ENDBRANCH  29  30
ENDBRANCH  28  29
ENDBRANCH  27  28
ENDBRANCH   1  27
TORSDOF 24
