REMARK SMILES Cc1cc(F)cc(N[C@H](C(=O)OCCOCCOCCOC(=O)c2ccc(-c3c4nc(c(-c5ccc(S(=O)(=O)[O-])cc5)c5ccc([nH]5)c(-c5ccc(S(=O)(=O)[O-])cc5)c5nc(c(-c6ccc(S(=O)(=O)[O-])cc6)c6ccc3[nH]6)C=C5)C=C4)cc2)c2cc(Br)cs2)c1
REMARK SMILES IDX 17 1 16 2 15 3 14 4 13 5 12 6 10 7 11 8 9 9 8 10 7 12 1 13
REMARK SMILES IDX 2 14 3 15 90 16 4 17 5 18 6 19 84 20 85 21 89 22 86 23 88 24
REMARK SMILES IDX 87 25 18 26 19 27 20 28 21 29 22 30 23 31 24 32 25 33 83 34
REMARK SMILES IDX 26 35 82 36 27 37 28 38 29 39 76 40 30 41 81 42 75 43 77 44
REMARK SMILES IDX 31 45 80 46 74 47 73 48 32 50 62 51 43 52 61 53 44 54 47 55
REMARK SMILES IDX 60 56 78 57 45 58 46 59 59 61 79 62 48 63 33 64 34 65 42 66
REMARK SMILES IDX 35 67 41 68 36 69 37 70 38 71 39 72 40 73 63 74 64 75 72 76
REMARK SMILES IDX 65 77 71 78 66 79 67 80 68 81 69 82 70 83 49 84 50 85 58 86
REMARK SMILES IDX 51 87 57 88 52 89 53 90 54 91 55 92 56 93
REMARK H PARENT 8 11 77 49 47 60
REMARK Flexibility Score: inf
ROOT
ATOM      1  C   UNL     1      -0.066  -1.334  -1.224  1.00  0.00     0.188 C 
ENDROOT
BRANCH   1   2
ATOM      2  C   UNL     1       0.766  -1.136   0.059  1.00  0.00     0.188 C 
BRANCH   2   3
ATOM      3  O   UNL     1       2.135  -0.859  -0.112  1.00  0.00    -0.376 OA
BRANCH   3   4
ATOM      4  C   UNL     1       3.075  -1.880  -0.394  1.00  0.00     0.202 C 
BRANCH   4   5
ATOM      5  C   UNL     1       2.762  -3.373  -0.593  1.00  0.00     0.261 C 
BRANCH   5   6
ATOM      6  O   UNL     1       1.394  -3.768  -0.620  1.00  0.00    -0.461 OA
BRANCH   6   7
ATOM      7  C   UNL     1       0.910  -4.279   0.555  1.00  0.00     0.334 C 
ATOM      8  O   UNL     1       1.562  -4.303   1.592  1.00  0.00    -0.249 OA
BRANCH   7   9
ATOM      9  C   UNL     1      -0.574  -4.736   0.377  1.00  0.00     0.231 C 
BRANCH   9  10
ATOM     10  N   UNL     1      -0.705  -5.561  -0.839  1.00  0.00    -0.368 N 
ATOM     11  H   UNL     1      -1.307  -5.242  -1.549  1.00  0.00     0.161 HD
BRANCH  10  12
ATOM     12  C   UNL     1      -0.034  -6.757  -1.046  1.00  0.00     0.038 A 
ATOM     13  C   UNL     1      -0.042  -9.527  -3.684  1.00  0.00     0.044 C 
ATOM     14  C   UNL     1       0.267  -8.750  -2.442  1.00  0.00    -0.046 A 
ATOM     15  C   UNL     1       1.077  -9.318  -1.456  1.00  0.00     0.042 A 
ATOM     16  C   UNL     1      -0.287  -7.477  -2.224  1.00  0.00     0.029 A 
ATOM     17  C   UNL     1       1.337  -8.612  -0.295  1.00  0.00     0.125 A 
ATOM     18  F   UNL     1       2.104  -9.160   0.656  1.00  0.00    -0.207 F 
ATOM     19  C   UNL     1       0.796  -7.352  -0.089  1.00  0.00     0.065 A 
ENDBRANCH  10  12
ENDBRANCH   9  10
BRANCH   9  20
ATOM     20  C   UNL     1      -1.108  -5.292   1.689  1.00  0.00     0.039 A 
ATOM     21  C   UNL     1      -0.984  -4.735   2.955  1.00  0.00     0.033 A 
ATOM     22  S   UNL     1      -2.009  -6.759   1.775  1.00  0.00    -0.145 S 
ATOM     23  C   UNL     1      -1.312  -5.669   3.965  1.00  0.00     0.029 A 
ATOM     24  C   UNL     1      -1.829  -6.838   3.472  1.00  0.00     0.080 A 
ATOM     25  Br  UNL     1      -0.975  -5.318   5.784  1.00  0.00    -0.050 Br
ENDBRANCH   9  20
ENDBRANCH   7   9
ENDBRANCH   6   7
ENDBRANCH   5   6
ENDBRANCH   4   5
ENDBRANCH   3   4
ENDBRANCH   2   3
ENDBRANCH   1   2
BRANCH   1  26
ATOM     26  O   UNL     1       0.596  -1.483  -2.461  1.00  0.00    -0.376 OA
BRANCH  26  27
ATOM     27  C   UNL     1       1.378  -0.420  -2.981  1.00  0.00     0.202 C 
BRANCH  27  28
ATOM     28  C   UNL     1       1.171   1.075  -2.654  1.00  0.00     0.261 C 
BRANCH  28  29
ATOM     29  O   UNL     1       0.647   1.419  -1.367  1.00  0.00    -0.460 OA
BRANCH  29  30
ATOM     30  C   UNL     1      -0.639   1.845  -1.351  1.00  0.00     0.338 C 
ATOM     31  O   UNL     1      -1.395   1.936  -2.312  1.00  0.00    -0.246 OA
BRANCH  30  32
ATOM     32  C   UNL     1      -1.089   2.001   0.045  1.00  0.00     0.060 A 
ATOM     33  C   UNL     1      -2.107   1.161   0.521  1.00  0.00     0.016 A 
ATOM     34  C   UNL     1      -0.541   2.984   0.868  1.00  0.00     0.016 A 
ATOM     35  C   UNL     1      -2.597   1.319   1.817  1.00  0.00     0.010 A 
ATOM     36  C   UNL     1      -1.052   3.158   2.159  1.00  0.00     0.010 A 
ATOM     37  C   UNL     1      -2.102   2.347   2.629  1.00  0.00    -0.014 A 
BRANCH  37  38
ATOM     38  C   UNL     1      -2.806   2.693   3.890  1.00  0.00     0.031 A 
ATOM     39  C   UNL     1      -3.776   3.845   3.878  1.00  0.00     0.074 A 
ATOM     40  C   UNL     1      -2.609   1.990   5.020  1.00  0.00     0.049 A 
ATOM     41  N   UNL     1      -4.476   4.351   4.860  1.00  0.00    -0.248 NA
ATOM     42  C   UNL     1      -3.981   4.517   2.583  1.00  0.00     0.031 C 
ATOM     43  C   UNL     1      -1.735   0.826   5.153  1.00  0.00     0.029 A 
ATOM     44  N   UNL     1      -3.134   2.163   6.278  1.00  0.00    -0.354 N 
ATOM     45  C   UNL     1      -5.194   5.406   4.307  1.00  0.00     0.074 A 
ATOM     46  C   UNL     1      -4.822   5.486   2.911  1.00  0.00     0.031 C 
ATOM     47  C   UNL     1      -1.777   0.393   6.426  1.00  0.00     0.029 A 
ATOM     48  C   UNL     1      -2.651   1.270   7.205  1.00  0.00     0.049 A 
ATOM     49  H   UNL     1      -3.793   2.861   6.495  1.00  0.00     0.167 HD
ATOM     50  C   UNL     1      -6.086   6.232   4.904  1.00  0.00     0.031 A 
ATOM     51  C   UNL     1      -2.873   1.182   8.533  1.00  0.00     0.031 A 
ATOM     52  C   UNL     1      -6.440   6.163   6.297  1.00  0.00     0.049 A 
ATOM     53  C   UNL     1      -3.811   2.162   9.193  1.00  0.00     0.074 A 
ATOM     54  C   UNL     1      -7.343   6.948   6.994  1.00  0.00     0.029 A 
ATOM     55  N   UNL     1      -5.904   5.266   7.209  1.00  0.00    -0.354 N 
ATOM     56  N   UNL     1      -4.501   3.139   8.653  1.00  0.00    -0.248 NA
ATOM     57  C   UNL     1      -4.010   2.019  10.643  1.00  0.00     0.031 C 
ATOM     58  C   UNL     1      -7.305   6.568   8.339  1.00  0.00     0.029 A 
ATOM     59  C   UNL     1      -6.436   5.496   8.467  1.00  0.00     0.049 A 
ATOM     60  H   UNL     1      -5.243   4.569   6.994  1.00  0.00     0.167 HD
ATOM     61  C   UNL     1      -5.244   3.700   9.689  1.00  0.00     0.074 A 
ATOM     62  C   UNL     1      -4.925   2.948  10.885  1.00  0.00     0.031 C 
ATOM     63  C   UNL     1      -6.116   4.738   9.651  1.00  0.00     0.031 A 
BRANCH  50  64
ATOM     64  C   UNL     1      -6.712   7.310   4.058  1.00  0.00    -0.014 A 
ATOM     65  C   UNL     1      -7.637   7.000   3.044  1.00  0.00     0.010 A 
ATOM     66  C   UNL     1      -6.397   8.658   4.307  1.00  0.00     0.010 A 
ATOM     67  C   UNL     1      -8.205   8.016   2.270  1.00  0.00     0.020 A 
ATOM     68  C   UNL     1      -6.986   9.679   3.556  1.00  0.00     0.020 A 
ATOM     69  C   UNL     1      -7.874   9.350   2.530  1.00  0.00     0.054 A 
BRANCH  69  70
ATOM     70  S   UNL     1      -8.644  10.648   1.524  1.00  0.00     0.124 S 
ATOM     71  O   UNL     1      -7.985  10.460   0.234  1.00  0.00    -0.237 OA
ATOM     72  O   UNL     1     -10.058  10.287   1.565  1.00  0.00    -0.237 OA
ATOM     73  O   UNL     1      -8.298  11.882   2.225  1.00  0.00    -0.744 OA
ENDBRANCH  69  70
ENDBRANCH  50  64
BRANCH  51  74
ATOM     74  C   UNL     1      -2.183   0.134   9.337  1.00  0.00    -0.014 A 
ATOM     75  C   UNL     1      -2.908  -0.919   9.922  1.00  0.00     0.010 A 
ATOM     76  C   UNL     1      -0.790   0.192   9.531  1.00  0.00     0.010 A 
ATOM     77  C   UNL     1      -2.257  -1.882  10.701  1.00  0.00     0.020 A 
ATOM     78  C   UNL     1      -0.132  -0.786  10.283  1.00  0.00     0.020 A 
ATOM     79  C   UNL     1      -0.872  -1.811  10.873  1.00  0.00     0.054 A 
BRANCH  79  80
ATOM     80  S   UNL     1      -0.045  -3.096  11.851  1.00  0.00     0.124 S 
ATOM     81  O   UNL     1      -0.479  -2.774  13.207  1.00  0.00    -0.237 OA
ATOM     82  O   UNL     1      -0.596  -4.325  11.285  1.00  0.00    -0.237 OA
ATOM     83  O   UNL     1       1.373  -2.874  11.579  1.00  0.00    -0.744 OA
ENDBRANCH  79  80
ENDBRANCH  51  74
BRANCH  63  84
ATOM     84  C   UNL     1      -6.840   5.095  10.926  1.00  0.00    -0.014 A 
ATOM     85  C   UNL     1      -6.175   5.692  12.011  1.00  0.00     0.010 A 
ATOM     86  C   UNL     1      -8.229   4.880  11.012  1.00  0.00     0.010 A 
ATOM     87  C   UNL     1      -6.878   6.034  13.171  1.00  0.00     0.020 A 
ATOM     88  C   UNL     1      -8.941   5.250  12.155  1.00  0.00     0.020 A 
ATOM     89  C   UNL     1      -8.258   5.811  13.235  1.00  0.00     0.054 A 
BRANCH  89  90
ATOM     90  S   UNL     1      -9.154   6.300  14.734  1.00  0.00     0.124 S 
ATOM     91  O   UNL     1      -8.707   5.297  15.697  1.00  0.00    -0.237 OA
ATOM     92  O   UNL     1      -8.668   7.658  14.969  1.00  0.00    -0.237 OA
ATOM     93  O   UNL     1     -10.560   6.207  14.345  1.00  0.00    -0.744 OA
ENDBRANCH  89  90
ENDBRANCH  63  84
ENDBRANCH  37  38
ENDBRANCH  30  32
ENDBRANCH  29  30
ENDBRANCH  28  29
ENDBRANCH  27  28
ENDBRANCH  26  27
ENDBRANCH   1  26
TORSDOF 23
