REMARK SMILES N#CCCn1cc(C(=O)OCCOCCOCCOC(=O)c2ccc(-c3c4nc(c(-c5ccc(S(=O)(=O)[O-])cc5)c5ccc([nH]5)c(-c5ccc(S(=O)(=O)[O-])cc5)c5nc(c(-c6ccc(S(=O)(=O)[O-])cc6)c6ccc3[nH]6)C=C5)C=C4)cc2)c(-c2cccc([N+](=O)[O-])c2)n1
REMARK SMILES IDX 14 1 13 2 12 3 11 4 10 5 8 6 9 7 7 8 5 9 6 10 92 11 82 12
REMARK SMILES IDX 4 13 3 14 2 15 1 16 83 17 84 18 91 19 85 20 87 21 86 22
REMARK SMILES IDX 88 23 89 24 90 25 15 26 16 27 17 28 18 29 19 30 20 31 21 32
REMARK SMILES IDX 22 33 23 34 81 35 24 36 80 37 25 38 26 39 27 40 74 41 28 42
REMARK SMILES IDX 79 43 73 44 75 45 29 46 78 47 72 48 71 49 30 51 60 52 41 53
REMARK SMILES IDX 59 54 42 55 45 56 58 57 76 58 43 59 44 60 57 62 77 63 46 64
REMARK SMILES IDX 31 65 32 66 40 67 33 68 39 69 34 70 35 71 36 72 37 73 38 74
REMARK SMILES IDX 61 75 62 76 70 77 63 78 69 79 64 80 65 81 66 82 67 83 68 84
REMARK SMILES IDX 47 85 48 86 56 87 49 88 55 89 50 90 51 91 52 92 53 93 54 94
REMARK H PARENT 75 50 45 61
REMARK Flexibility Score: inf
ROOT
ATOM      1  C   UNL     1       0.590  -2.483  -6.170  1.00  0.00     0.188 C 
ENDROOT
BRANCH   1   2
ATOM      2  O   UNL     1       0.395  -3.541  -7.075  1.00  0.00    -0.376 OA
BRANCH   2   3
ATOM      3  C   UNL     1       1.462  -4.409  -7.405  1.00  0.00     0.202 C 
BRANCH   3   4
ATOM      4  C   UNL     1       2.845  -4.483  -6.715  1.00  0.00     0.261 C 
BRANCH   4   5
ATOM      5  O   UNL     1       3.074  -3.743  -5.513  1.00  0.00    -0.460 OA
BRANCH   5   6
ATOM      6  C   UNL     1       3.761  -2.563  -5.640  1.00  0.00     0.342 C 
ATOM      7  O   UNL     1       4.192  -2.128  -6.684  1.00  0.00    -0.246 OA
BRANCH   6   8
ATOM      8  C   UNL     1       3.821  -1.829  -4.382  1.00  0.00     0.106 A 
ATOM      9  N   UNL     1       4.001  -1.252  -2.268  1.00  0.00    -0.270 N 
ATOM     10  C   UNL     1       4.034  -2.326  -3.110  1.00  0.00     0.125 A 
ATOM     11  N   UNL     1       3.765  -0.092  -2.898  1.00  0.00    -0.172 NA
ATOM     12  C   UNL     1       3.576  -0.438  -4.179  1.00  0.00     0.107 A 
BRANCH   9  13
ATOM     13  C   UNL     1       4.256  -1.266  -0.837  1.00  0.00     0.159 C 
BRANCH  13  14
ATOM     14  C   UNL     1       3.729  -0.056  -0.064  1.00  0.00     0.144 C 
BRANCH  14  15
ATOM     15  C   UNL     1       2.209  -0.056  -0.064  1.00  0.00     0.064 C 
ATOM     16  N   UNL     1       0.948  -0.056  -0.064  1.00  0.00    -0.198 NA
ENDBRANCH  14  15
ENDBRANCH  13  14
ENDBRANCH   9  13
BRANCH  12  17
ATOM     17  C   UNL     1       3.085   0.537  -5.141  1.00  0.00     0.010 A 
ATOM     18  C   UNL     1       1.704   0.674  -5.353  1.00  0.00     0.011 A 
ATOM     19  C   UNL     1       3.978   1.337  -5.853  1.00  0.00     0.096 A 
ATOM     20  C   UNL     1       1.214   1.548  -6.326  1.00  0.00     0.008 A 
ATOM     21  C   UNL     1       3.477   2.243  -6.799  1.00  0.00     0.270 A 
ATOM     22  C   UNL     1       2.102   2.334  -7.058  1.00  0.00     0.085 A 
BRANCH  21  23
ATOM     23  N   UNL     1       4.408   3.122  -7.513  1.00  0.00     0.062 N 
ATOM     24  O   UNL     1       3.954   3.833  -8.420  1.00  0.00    -0.258 OA
ATOM     25  O   UNL     1       5.598   3.110  -7.162  1.00  0.00    -0.258 OA
ENDBRANCH  21  23
ENDBRANCH  12  17
ENDBRANCH   6   8
ENDBRANCH   5   6
ENDBRANCH   4   5
ENDBRANCH   3   4
ENDBRANCH   2   3
ENDBRANCH   1   2
BRANCH   1  26
ATOM     26  C   UNL     1       0.460  -2.850  -4.680  1.00  0.00     0.188 C 
BRANCH  26  27
ATOM     27  O   UNL     1       0.470  -4.209  -4.291  1.00  0.00    -0.376 OA
BRANCH  27  28
ATOM     28  C   UNL     1      -0.510  -5.136  -4.728  1.00  0.00     0.202 C 
BRANCH  28  29
ATOM     29  C   UNL     1      -1.900  -4.779  -5.254  1.00  0.00     0.261 C 
BRANCH  29  30
ATOM     30  O   UNL     1      -2.117  -3.434  -5.612  1.00  0.00    -0.460 OA
BRANCH  30  31
ATOM     31  C   UNL     1      -2.597  -2.671  -4.609  1.00  0.00     0.338 C 
ATOM     32  O   UNL     1      -2.590  -2.932  -3.419  1.00  0.00    -0.246 OA
BRANCH  31  33
ATOM     33  C   UNL     1      -3.244  -1.501  -5.206  1.00  0.00     0.060 A 
ATOM     34  C   UNL     1      -3.656  -0.491  -4.335  1.00  0.00     0.016 A 
ATOM     35  C   UNL     1      -3.721  -1.602  -6.521  1.00  0.00     0.016 A 
ATOM     36  C   UNL     1      -4.740   0.272  -4.704  1.00  0.00     0.010 A 
ATOM     37  C   UNL     1      -4.823  -0.869  -6.870  1.00  0.00     0.010 A 
ATOM     38  C   UNL     1      -5.370  -0.011  -5.920  1.00  0.00    -0.014 A 
BRANCH  38  39
ATOM     39  C   UNL     1      -6.615   0.649  -6.226  1.00  0.00     0.031 A 
ATOM     40  C   UNL     1      -6.421   1.990  -6.805  1.00  0.00     0.074 A 
ATOM     41  C   UNL     1      -7.806   0.038  -6.084  1.00  0.00     0.049 A 
ATOM     42  N   UNL     1      -6.596   3.117  -6.203  1.00  0.00    -0.248 NA
ATOM     43  C   UNL     1      -5.756   2.099  -8.113  1.00  0.00     0.031 C 
ATOM     44  C   UNL     1      -8.079  -1.366  -5.768  1.00  0.00     0.029 A 
ATOM     45  N   UNL     1      -9.045   0.543  -6.314  1.00  0.00    -0.354 N 
ATOM     46  C   UNL     1      -6.289   4.085  -7.146  1.00  0.00     0.074 A 
ATOM     47  C   UNL     1      -5.559   3.415  -8.190  1.00  0.00     0.031 C 
ATOM     48  C   UNL     1      -9.369  -1.643  -6.073  1.00  0.00     0.029 A 
ATOM     49  C   UNL     1     -10.033  -0.418  -6.490  1.00  0.00     0.049 A 
ATOM     50  H   UNL     1      -9.228   1.509  -6.354  1.00  0.00     0.167 HD
ATOM     51  C   UNL     1      -6.908   5.297  -7.138  1.00  0.00     0.031 A 
ATOM     52  C   UNL     1     -11.267  -0.212  -7.024  1.00  0.00     0.031 A 
ATOM     53  C   UNL     1      -7.645   5.506  -5.918  1.00  0.00     0.049 A 
ATOM     54  C   UNL     1     -11.546   1.246  -6.920  1.00  0.00     0.074 A 
ATOM     55  C   UNL     1      -7.309   5.549  -4.580  1.00  0.00     0.029 A 
ATOM     56  N   UNL     1      -9.004   5.288  -5.972  1.00  0.00    -0.354 N 
ATOM     57  N   UNL     1     -11.730   1.853  -5.781  1.00  0.00    -0.248 NA
ATOM     58  C   UNL     1     -11.137   2.109  -8.021  1.00  0.00     0.031 C 
ATOM     59  C   UNL     1      -8.387   4.904  -3.909  1.00  0.00     0.029 A 
ATOM     60  C   UNL     1      -9.358   4.574  -4.857  1.00  0.00     0.049 A 
ATOM     61  H   UNL     1      -9.612   5.592  -6.684  1.00  0.00     0.167 HD
ATOM     62  C   UNL     1     -11.030   3.046  -5.899  1.00  0.00     0.074 A 
ATOM     63  C   UNL     1     -10.774   3.196  -7.331  1.00  0.00     0.031 C 
ATOM     64  C   UNL     1     -10.464   3.641  -4.806  1.00  0.00     0.031 A 
BRANCH  51  65
ATOM     65  C   UNL     1      -7.192   6.090  -8.384  1.00  0.00    -0.014 A 
ATOM     66  C   UNL     1      -7.764   7.369  -8.249  1.00  0.00     0.010 A 
ATOM     67  C   UNL     1      -7.170   5.529  -9.678  1.00  0.00     0.010 A 
ATOM     68  C   UNL     1      -8.340   8.023  -9.343  1.00  0.00     0.020 A 
ATOM     69  C   UNL     1      -7.697   6.192 -10.784  1.00  0.00     0.020 A 
ATOM     70  C   UNL     1      -8.309   7.423 -10.603  1.00  0.00     0.054 A 
BRANCH  70  71
ATOM     71  S   UNL     1      -9.130   8.238 -11.991  1.00  0.00     0.124 S 
ATOM     72  O   UNL     1     -10.532   8.174 -11.590  1.00  0.00    -0.237 OA
ATOM     73  O   UNL     1      -8.522   9.566 -11.971  1.00  0.00    -0.237 OA
ATOM     74  O   UNL     1      -8.766   7.408 -13.137  1.00  0.00    -0.744 OA
ENDBRANCH  70  71
ENDBRANCH  51  65
BRANCH  52  75
ATOM     75  C   UNL     1     -12.053  -1.119  -7.906  1.00  0.00    -0.014 A 
ATOM     76  C   UNL     1     -13.361  -0.782  -8.310  1.00  0.00     0.010 A 
ATOM     77  C   UNL     1     -11.418  -2.176  -8.588  1.00  0.00     0.010 A 
ATOM     78  C   UNL     1     -13.967  -1.413  -9.413  1.00  0.00     0.020 A 
ATOM     79  C   UNL     1     -12.019  -2.817  -9.679  1.00  0.00     0.020 A 
ATOM     80  C   UNL     1     -13.278  -2.408 -10.110  1.00  0.00     0.054 A 
BRANCH  80  81
ATOM     81  S   UNL     1     -13.956  -3.053 -11.669  1.00  0.00     0.124 S 
ATOM     82  O   UNL     1     -15.064  -3.883 -11.210  1.00  0.00    -0.237 OA
ATOM     83  O   UNL     1     -14.330  -1.834 -12.382  1.00  0.00    -0.237 OA
ATOM     84  O   UNL     1     -12.833  -3.784 -12.254  1.00  0.00    -0.744 OA
ENDBRANCH  80  81
ENDBRANCH  52  75
BRANCH  64  85
ATOM     85  C   UNL     1     -10.844   3.138  -3.432  1.00  0.00    -0.014 A 
ATOM     86  C   UNL     1     -10.616   1.820  -2.985  1.00  0.00     0.010 A 
ATOM     87  C   UNL     1     -11.300   4.090  -2.504  1.00  0.00     0.010 A 
ATOM     88  C   UNL     1     -10.866   1.464  -1.651  1.00  0.00     0.020 A 
ATOM     89  C   UNL     1     -11.530   3.747  -1.171  1.00  0.00     0.020 A 
ATOM     90  C   UNL     1     -11.324   2.432  -0.752  1.00  0.00     0.054 A 
BRANCH  90  91
ATOM     91  S   UNL     1     -11.611   1.982   0.982  1.00  0.00     0.124 S 
ATOM     92  O   UNL     1     -12.783   1.115   0.893  1.00  0.00    -0.237 OA
ATOM     93  O   UNL     1     -10.364   1.319   1.358  1.00  0.00    -0.237 OA
ATOM     94  O   UNL     1     -11.843   3.267   1.642  1.00  0.00    -0.744 OA
ENDBRANCH  90  91
ENDBRANCH  64  85
ENDBRANCH  38  39
ENDBRANCH  31  33
ENDBRANCH  30  31
ENDBRANCH  29  30
ENDBRANCH  28  29
ENDBRANCH  27  28
ENDBRANCH  26  27
ENDBRANCH   1  26
TORSDOF 25
