REMARK SMILES COc1cc(C)cc2c1[C@@H](C)[C@@H](CC(=O)N[C@@H](Cc1c[nH]c3ccccc13)C(=O)OCCOCCOCCOC(=O)c1ccc(-c3c4nc(c(-c5ccc(S(=O)(=O)[O-])cc5)c5ccc([nH]5)c(-c5ccc(S(=O)(=O)[O-])cc5)c5nc(c(-c6ccc(S(=O)(=O)[O-])cc6)c6ccc3[nH]6)C=C5)C=C4)cc1)C(=O)O2
REMARK SMILES IDX 34 1 33 2 32 3 31 4 30 5 28 6 29 7 17 8 16 9 14 10 15 11
REMARK SMILES IDX 13 13 12 14 3 15 4 16 9 17 5 18 8 19 10 20 6 21 7 22 104 23
REMARK SMILES IDX 11 24 102 25 103 26 2 27 1 28 18 29 19 30 20 31 27 32 21 33
REMARK SMILES IDX 22 34 26 35 23 37 25 38 24 39 35 40 36 41 37 42 38 43 39 44
REMARK SMILES IDX 40 45 41 46 42 47 43 48 101 49 44 50 100 51 45 52 46 53
REMARK SMILES IDX 47 54 94 55 48 56 99 57 93 58 95 59 49 60 98 61 92 62 91 63
REMARK SMILES IDX 50 65 80 66 61 67 79 68 62 69 65 70 78 71 96 72 63 73 64 74
REMARK SMILES IDX 77 76 97 77 66 78 51 79 52 80 60 81 53 82 59 83 54 84 55 85
REMARK SMILES IDX 56 86 57 87 58 88 81 89 82 90 90 91 83 92 89 93 84 94 85 95
REMARK SMILES IDX 86 96 87 97 88 98 67 99 68 100 76 101 69 102 75 103 70 104
REMARK SMILES IDX 71 105 72 106 73 107 74 108
REMARK H PARENT 16 12 21 36 95 64 65 75
REMARK Flexibility Score: inf
ROOT
ATOM      1  C   UNL     1       0.662   7.048  -3.478  1.00  0.00     0.188 C 
ENDROOT
BRANCH   1   2
ATOM      2  O   UNL     1       1.346   7.990  -4.306  1.00  0.00    -0.376 OA
BRANCH   2   3
ATOM      3  C   UNL     1       0.531   8.966  -4.964  1.00  0.00     0.202 C 
BRANCH   3   4
ATOM      4  C   UNL     1      -0.452   8.387  -5.987  1.00  0.00     0.261 C 
BRANCH   4   5
ATOM      5  O   UNL     1      -1.480   7.609  -5.344  1.00  0.00    -0.462 OA
BRANCH   5   6
ATOM      6  C   UNL     1      -1.825   6.474  -5.995  1.00  0.00     0.329 C 
ATOM      7  O   UNL     1      -1.521   6.231  -7.160  1.00  0.00    -0.250 OA
BRANCH   6   8
ATOM      8  C   UNL     1      -2.523   5.445  -5.093  1.00  0.00     0.196 C 
BRANCH   8   9
ATOM      9  N   UNL     1      -2.846   5.673  -3.682  1.00  0.00    -0.342 N 
ATOM     10  C   UNL     1      -3.187   4.668  -2.798  1.00  0.00     0.221 C 
ATOM     11  O   UNL     1      -4.151   4.813  -2.049  1.00  0.00    -0.275 OA
ATOM     12  H   UNL     1      -2.820   6.597  -3.345  1.00  0.00     0.164 HD
BRANCH  10  13
ATOM     13  C   UNL     1      -2.254   3.470  -2.639  1.00  0.00     0.116 C 
BRANCH  13  14
ATOM     14  C   UNL     1      -2.625   2.115  -3.291  1.00  0.00     0.116 C 
ATOM     15  C   UNL     1       0.855   0.759  -2.626  1.00  0.00     0.126 A 
ATOM     16  C   UNL     1       2.119   1.224  -3.024  1.00  0.00     0.050 A 
ATOM     17  C   UNL     1      -0.296   1.233  -3.258  1.00  0.00     0.041 A 
ATOM     18  C   UNL     1       2.258   2.184  -4.042  1.00  0.00    -0.044 A 
ATOM     19  C   UNL     1      -0.113   2.071  -4.369  1.00  0.00     0.138 A 
ATOM     20  C   UNL     1      -1.728   0.917  -2.852  1.00  0.00     0.038 C 
ATOM     21  C   UNL     1       3.591   2.766  -4.412  1.00  0.00     0.044 C 
ATOM     22  C   UNL     1       1.123   2.597  -4.728  1.00  0.00     0.051 A 
ATOM     23  O   UNL     1      -1.183   2.395  -5.222  1.00  0.00    -0.426 OA
ATOM     24  C   UNL     1      -1.982   0.577  -1.379  1.00  0.00     0.014 C 
ATOM     25  C   UNL     1      -2.464   2.117  -4.786  1.00  0.00     0.315 C 
ATOM     26  O   UNL     1      -3.387   1.927  -5.568  1.00  0.00    -0.251 OA
BRANCH  15  27
ATOM     27  O   UNL     1       0.715  -0.267  -1.733  1.00  0.00    -0.496 OA
ATOM     28  C   UNL     1       1.383  -0.068  -0.490  1.00  0.00     0.278 C 
ENDBRANCH  15  27
ENDBRANCH  13  14
ENDBRANCH  10  13
ENDBRANCH   8   9
BRANCH   8  29
ATOM     29  C   UNL     1      -3.742   4.916  -5.833  1.00  0.00     0.074 C 
BRANCH  29  30
ATOM     30  C   UNL     1      -4.903   5.798  -6.178  1.00  0.00    -0.020 A 
ATOM     31  C   UNL     1      -5.330   5.952  -7.485  1.00  0.00     0.087 A 
ATOM     32  C   UNL     1      -5.964   6.311  -5.355  1.00  0.00     0.003 A 
ATOM     33  N   UNL     1      -6.695   5.896  -7.414  1.00  0.00    -0.361 N 
ATOM     34  C   UNL     1      -7.107   6.269  -6.160  1.00  0.00     0.046 A 
ATOM     35  C   UNL     1      -6.141   6.684  -4.005  1.00  0.00     0.010 A 
ATOM     36  H   UNL     1      -7.290   5.628  -8.151  1.00  0.00     0.166 HD
ATOM     37  C   UNL     1      -8.400   6.506  -5.680  1.00  0.00     0.026 A 
ATOM     38  C   UNL     1      -7.416   7.031  -3.533  1.00  0.00     0.001 A 
ATOM     39  C   UNL     1      -8.531   6.920  -4.355  1.00  0.00     0.002 A 
ENDBRANCH  29  30
ENDBRANCH   8  29
ENDBRANCH   6   8
ENDBRANCH   5   6
ENDBRANCH   4   5
ENDBRANCH   3   4
ENDBRANCH   2   3
ENDBRANCH   1   2
BRANCH   1  40
ATOM     40  C   UNL     1      -0.149   7.681  -2.343  1.00  0.00     0.188 C 
BRANCH  40  41
ATOM     41  O   UNL     1      -1.245   8.453  -2.807  1.00  0.00    -0.376 OA
BRANCH  41  42
ATOM     42  C   UNL     1      -1.975   9.270  -1.897  1.00  0.00     0.202 C 
BRANCH  42  43
ATOM     43  C   UNL     1      -1.378   9.726  -0.551  1.00  0.00     0.261 C 
BRANCH  43  44
ATOM     44  O   UNL     1      -0.655   8.735   0.192  1.00  0.00    -0.460 OA
BRANCH  44  45
ATOM     45  C   UNL     1      -1.329   7.630   0.583  1.00  0.00     0.338 C 
ATOM     46  O   UNL     1      -2.538   7.473   0.534  1.00  0.00    -0.246 OA
BRANCH  45  47
ATOM     47  C   UNL     1      -0.325   6.554   0.825  1.00  0.00     0.060 A 
ATOM     48  C   UNL     1       0.963   6.833   1.300  1.00  0.00     0.016 A 
ATOM     49  C   UNL     1      -0.653   5.245   0.450  1.00  0.00     0.016 A 
ATOM     50  C   UNL     1       1.901   5.803   1.435  1.00  0.00     0.010 A 
ATOM     51  C   UNL     1       0.292   4.219   0.565  1.00  0.00     0.010 A 
ATOM     52  C   UNL     1       1.569   4.482   1.088  1.00  0.00    -0.014 A 
BRANCH  52  53
ATOM     53  C   UNL     1       2.440   3.356   1.513  1.00  0.00     0.031 A 
ATOM     54  C   UNL     1       3.480   2.732   0.634  1.00  0.00     0.074 A 
ATOM     55  C   UNL     1       2.282   2.895   2.767  1.00  0.00     0.049 A 
ATOM     56  N   UNL     1       4.190   1.650   0.846  1.00  0.00    -0.248 NA
ATOM     57  C   UNL     1       3.763   3.396  -0.641  1.00  0.00     0.031 C 
ATOM     58  C   UNL     1       1.367   3.468   3.755  1.00  0.00     0.029 A 
ATOM     59  N   UNL     1       2.914   1.881   3.438  1.00  0.00    -0.354 N 
ATOM     60  C   UNL     1       4.930   1.441  -0.312  1.00  0.00     0.074 A 
ATOM     61  C   UNL     1       4.666   2.575  -1.167  1.00  0.00     0.031 C 
ATOM     62  C   UNL     1       1.552   2.847   4.927  1.00  0.00     0.029 A 
ATOM     63  C   UNL     1       2.556   1.798   4.761  1.00  0.00     0.049 A 
ATOM     64  H   UNL     1       3.562   1.273   3.014  1.00  0.00     0.167 HD
ATOM     65  C   UNL     1       5.694   0.368  -0.643  1.00  0.00     0.031 A 
ATOM     66  C   UNL     1       3.001   0.989   5.742  1.00  0.00     0.031 A 
ATOM     67  C   UNL     1       6.067  -0.668   0.292  1.00  0.00     0.049 A 
ATOM     68  C   UNL     1       4.051  -0.038   5.440  1.00  0.00     0.074 A 
ATOM     69  C   UNL     1       6.872  -1.776   0.075  1.00  0.00     0.029 A 
ATOM     70  N   UNL     1       5.735  -0.682   1.637  1.00  0.00    -0.354 N 
ATOM     71  N   UNL     1       4.614  -0.320   4.290  1.00  0.00    -0.248 NA
ATOM     72  C   UNL     1       4.537  -0.850   6.564  1.00  0.00     0.031 C 
ATOM     73  C   UNL     1       7.019  -2.462   1.283  1.00  0.00     0.029 A 
ATOM     74  C   UNL     1       6.352  -1.750   2.265  1.00  0.00     0.049 A 
ATOM     75  H   UNL     1       5.147  -0.029   2.080  1.00  0.00     0.167 HD
ATOM     76  C   UNL     1       5.519  -1.341   4.553  1.00  0.00     0.074 A 
ATOM     77  C   UNL     1       5.459  -1.602   5.975  1.00  0.00     0.031 C 
ATOM     78  C   UNL     1       6.312  -2.009   3.682  1.00  0.00     0.031 A 
BRANCH  65  79
ATOM     79  C   UNL     1       6.157   0.193  -2.074  1.00  0.00    -0.014 A 
ATOM     80  C   UNL     1       5.707  -0.935  -2.797  1.00  0.00     0.010 A 
ATOM     81  C   UNL     1       7.119   1.026  -2.665  1.00  0.00     0.010 A 
ATOM     82  C   UNL     1       6.236  -1.248  -4.053  1.00  0.00     0.020 A 
ATOM     83  C   UNL     1       7.620   0.741  -3.942  1.00  0.00     0.020 A 
ATOM     84  C   UNL     1       7.198  -0.410  -4.614  1.00  0.00     0.054 A 
BRANCH  84  85
ATOM     85  S   UNL     1       7.900  -0.825  -6.237  1.00  0.00     0.124 S 
ATOM     86  O   UNL     1       8.960  -1.762  -5.882  1.00  0.00    -0.237 OA
ATOM     87  O   UNL     1       6.761  -1.398  -6.950  1.00  0.00    -0.237 OA
ATOM     88  O   UNL     1       8.350   0.470  -6.744  1.00  0.00    -0.744 OA
ENDBRANCH  84  85
ENDBRANCH  65  79
BRANCH  66  89
ATOM     89  C   UNL     1       2.506   1.218   7.123  1.00  0.00    -0.014 A 
ATOM     90  C   UNL     1       1.171   0.940   7.468  1.00  0.00     0.010 A 
ATOM     91  C   UNL     1       3.345   1.845   8.060  1.00  0.00     0.010 A 
ATOM     92  C   UNL     1       0.666   1.343   8.705  1.00  0.00     0.020 A 
ATOM     93  C   UNL     1       2.852   2.220   9.311  1.00  0.00     0.020 A 
ATOM     94  C   UNL     1       1.507   1.997   9.611  1.00  0.00     0.054 A 
BRANCH  94  95
ATOM     95  S   UNL     1       0.816   2.578  11.183  1.00  0.00     0.124 S 
ATOM     96  O   UNL     1       0.104   3.783  10.767  1.00  0.00    -0.237 OA
ATOM     97  O   UNL     1      -0.026   1.458  11.595  1.00  0.00    -0.237 OA
ATOM     98  O   UNL     1       1.998   2.803  12.011  1.00  0.00    -0.744 OA
ENDBRANCH  94  95
ENDBRANCH  66  89
BRANCH  78  99
ATOM     99  C   UNL     1       7.201  -3.106   4.206  1.00  0.00    -0.014 A 
ATOM    100  C   UNL     1       8.599  -2.954   4.157  1.00  0.00     0.010 A 
ATOM    101  C   UNL     1       6.660  -4.339   4.609  1.00  0.00     0.010 A 
ATOM    102  C   UNL     1       9.441  -4.024   4.473  1.00  0.00     0.020 A 
ATOM    103  C   UNL     1       7.499  -5.405   4.948  1.00  0.00     0.020 A 
ATOM    104  C   UNL     1       8.884  -5.248   4.854  1.00  0.00     0.054 A 
BRANCH 104 105
ATOM    105  S   UNL     1       9.992  -6.639   5.215  1.00  0.00     0.124 S 
ATOM    106  O   UNL     1      10.426  -7.040   3.880  1.00  0.00    -0.237 OA
ATOM    107  O   UNL     1      11.018  -6.023   6.052  1.00  0.00    -0.237 OA
ATOM    108  O   UNL     1       9.128  -7.595   5.904  1.00  0.00    -0.744 OA
ENDBRANCH 104 105
ENDBRANCH  78  99
ENDBRANCH  52  53
ENDBRANCH  45  47
ENDBRANCH  44  45
ENDBRANCH  43  44
ENDBRANCH  42  43
ENDBRANCH  41  42
ENDBRANCH  40  41
ENDBRANCH   1  40
TORSDOF 26
