REMARK SMILES CC[C@H]1CN(C(=O)N(CC(=O)OCCOCCOCCOC(=O)c2ccc(-c3c4nc(c(-c5ccc(S(=O)(=O)[O-])cc5)c5ccc([nH]5)c(-c5ccc(S(=O)(=O)[O-])cc5)c5nc(c(-c6ccc(S(=O)(=O)[O-])cc6)c6ccc3[nH]6)C=C5)C=C4)cc2)C(C)(C)C)CC[N@@H+]1C
REMARK SMILES IDX 16 1 15 2 14 3 13 4 12 5 10 6 11 7 9 8 8 9 6 10 7 11 5 12
REMARK SMILES IDX 3 13 4 14 90 15 89 16 91 17 88 19 2 20 1 21 84 22 85 23
REMARK SMILES IDX 86 24 87 25 17 26 18 27 19 28 20 29 21 30 22 31 23 32 24 33
REMARK SMILES IDX 25 34 83 35 26 36 82 37 27 38 28 39 29 40 76 41 30 42 81 43
REMARK SMILES IDX 75 44 77 45 31 46 80 47 74 48 73 49 32 51 62 52 43 53 61 54
REMARK SMILES IDX 44 55 47 56 60 57 78 58 45 59 46 60 59 62 79 63 48 64 33 65
REMARK SMILES IDX 34 66 42 67 35 68 41 69 36 70 37 71 38 72 39 73 40 74 63 75
REMARK SMILES IDX 64 76 72 77 65 78 71 79 66 80 67 81 68 82 69 83 70 84 49 85
REMARK SMILES IDX 50 86 58 87 51 88 57 89 52 90 53 91 54 92 55 93 56 94
REMARK H PARENT 90 18 77 50 47 61
REMARK Flexibility Score: inf
ROOT
ATOM      1  C   UNL     1      -4.394  -5.061  -5.612  1.00  0.00     0.188 C 
ENDROOT
BRANCH   1   2
ATOM      2  O   UNL     1      -4.644  -3.982  -6.509  1.00  0.00    -0.376 OA
BRANCH   2   3
ATOM      3  C   UNL     1      -3.583  -3.450  -7.287  1.00  0.00     0.202 C 
BRANCH   3   4
ATOM      4  C   UNL     1      -2.777  -2.340  -6.609  1.00  0.00     0.261 C 
BRANCH   4   5
ATOM      5  O   UNL     1      -1.891  -2.800  -5.570  1.00  0.00    -0.462 OA
BRANCH   5   6
ATOM      6  C   UNL     1      -2.351  -2.633  -4.302  1.00  0.00     0.325 C 
ATOM      7  O   UNL     1      -3.486  -2.261  -4.021  1.00  0.00    -0.250 OA
BRANCH   6   8
ATOM      8  C   UNL     1      -1.238  -2.649  -3.259  1.00  0.00     0.244 C 
BRANCH   8   9
ATOM      9  N   UNL     1      -0.084  -3.566  -3.229  1.00  0.00    -0.309 N 
BRANCH   9  10
ATOM     10  C   UNL     1       1.170  -3.183  -3.676  1.00  0.00     0.321 C 
ATOM     11  O   UNL     1       1.895  -3.974  -4.284  1.00  0.00    -0.248 OA
BRANCH  10  12
ATOM     12  N   UNL     1       1.654  -1.931  -3.320  1.00  0.00    -0.313 N 
ATOM     13  C   UNL     1       1.438   0.416  -2.463  1.00  0.00     0.203 C 
ATOM     14  C   UNL     1       1.191  -1.093  -2.203  1.00  0.00     0.186 C 
ATOM     15  N   UNL     1       2.879   0.701  -2.713  1.00  0.00    -0.332 N 
ATOM     16  C   UNL     1       3.397  -0.159  -3.799  1.00  0.00     0.284 C 
ATOM     17  C   UNL     1       3.677   0.555  -1.495  1.00  0.00     0.333 C 
ATOM     18  H   UNL     1       2.959   1.674  -3.009  1.00  0.00     0.348 HD
ATOM     19  C   UNL     1       3.043  -1.656  -3.709  1.00  0.00     0.183 C 
BRANCH  13  20
ATOM     20  C   UNL     1       0.615   1.013  -3.639  1.00  0.00     0.063 C 
ATOM     21  C   UNL     1      -0.897   1.013  -3.459  1.00  0.00     0.010 C 
ENDBRANCH  13  20
ENDBRANCH  10  12
ENDBRANCH   9  10
BRANCH   9  22
ATOM     22  C   UNL     1      -0.257  -4.984  -2.761  1.00  0.00     0.037 C 
ATOM     23  C   UNL     1      -0.018  -6.012  -3.890  1.00  0.00     0.034 C 
ATOM     24  C   UNL     1       0.752  -5.280  -1.623  1.00  0.00     0.034 C 
ATOM     25  C   UNL     1      -1.648  -5.232  -2.147  1.00  0.00     0.034 C 
ENDBRANCH   9  22
ENDBRANCH   8   9
ENDBRANCH   6   8
ENDBRANCH   5   6
ENDBRANCH   4   5
ENDBRANCH   3   4
ENDBRANCH   2   3
ENDBRANCH   1   2
BRANCH   1  26
ATOM     26  C   UNL     1      -3.036  -5.772  -5.650  1.00  0.00     0.188 C 
BRANCH  26  27
ATOM     27  O   UNL     1      -2.655  -6.376  -6.882  1.00  0.00    -0.376 OA
BRANCH  27  28
ATOM     28  C   UNL     1      -3.552  -7.349  -7.409  1.00  0.00     0.202 C 
BRANCH  28  29
ATOM     29  C   UNL     1      -3.702  -8.586  -6.523  1.00  0.00     0.261 C 
BRANCH  29  30
ATOM     30  O   UNL     1      -4.538  -8.289  -5.386  1.00  0.00    -0.460 OA
BRANCH  30  31
ATOM     31  C   UNL     1      -4.211  -8.958  -4.260  1.00  0.00     0.338 C 
ATOM     32  O   UNL     1      -3.337  -9.806  -4.131  1.00  0.00    -0.246 OA
BRANCH  31  33
ATOM     33  C   UNL     1      -5.011  -8.472  -3.127  1.00  0.00     0.060 A 
ATOM     34  C   UNL     1      -4.565  -7.361  -2.410  1.00  0.00     0.016 A 
ATOM     35  C   UNL     1      -6.084  -9.224  -2.658  1.00  0.00     0.016 A 
ATOM     36  C   UNL     1      -5.135  -7.037  -1.179  1.00  0.00     0.010 A 
ATOM     37  C   UNL     1      -6.684  -8.875  -1.444  1.00  0.00     0.010 A 
ATOM     38  C   UNL     1      -6.184  -7.809  -0.668  1.00  0.00    -0.014 A 
BRANCH  38  39
ATOM     39  C   UNL     1      -6.672  -7.620   0.726  1.00  0.00     0.031 A 
ATOM     40  C   UNL     1      -6.472  -8.732   1.724  1.00  0.00     0.074 A 
ATOM     41  C   UNL     1      -7.267  -6.479   1.123  1.00  0.00     0.049 A 
ATOM     42  N   UNL     1      -7.030  -8.909   2.894  1.00  0.00    -0.248 NA
ATOM     43  C   UNL     1      -5.521  -9.790   1.345  1.00  0.00     0.031 C 
ATOM     44  C   UNL     1      -7.431  -5.273   0.312  1.00  0.00     0.029 A 
ATOM     45  N   UNL     1      -7.851  -6.155   2.325  1.00  0.00    -0.354 N 
ATOM     46  C   UNL     1      -6.553 -10.130   3.358  1.00  0.00     0.074 A 
ATOM     47  C   UNL     1      -5.647 -10.641   2.353  1.00  0.00     0.031 C 
ATOM     48  C   UNL     1      -8.059  -4.336   1.043  1.00  0.00     0.029 A 
ATOM     49  C   UNL     1      -8.419  -4.903   2.340  1.00  0.00     0.049 A 
ATOM     50  H   UNL     1      -7.862  -6.762   3.100  1.00  0.00     0.167 HD
ATOM     51  C   UNL     1      -6.856 -10.774   4.511  1.00  0.00     0.031 A 
ATOM     52  C   UNL     1      -9.188  -4.300   3.269  1.00  0.00     0.031 A 
ATOM     53  C   UNL     1      -7.730 -10.245   5.524  1.00  0.00     0.049 A 
ATOM     54  C   UNL     1      -9.567  -5.053   4.515  1.00  0.00     0.074 A 
ATOM     55  C   UNL     1      -8.133 -10.832   6.711  1.00  0.00     0.029 A 
ATOM     56  N   UNL     1      -8.317  -8.991   5.477  1.00  0.00    -0.354 N 
ATOM     57  N   UNL     1      -9.209  -6.258   4.891  1.00  0.00    -0.248 NA
ATOM     58  C   UNL     1     -10.478  -4.375   5.449  1.00  0.00     0.031 C 
ATOM     59  C   UNL     1      -8.988  -9.940   7.370  1.00  0.00     0.029 A 
ATOM     60  C   UNL     1      -9.083  -8.784   6.611  1.00  0.00     0.049 A 
ATOM     61  H   UNL     1      -8.207  -8.342   4.745  1.00  0.00     0.167 HD
ATOM     62  C   UNL     1      -9.846  -6.479   6.108  1.00  0.00     0.074 A 
ATOM     63  C   UNL     1     -10.595  -5.277   6.414  1.00  0.00     0.031 C 
ATOM     64  C   UNL     1      -9.820  -7.581   6.898  1.00  0.00     0.031 A 
BRANCH  51  65
ATOM     65  C   UNL     1      -6.289 -12.155   4.698  1.00  0.00    -0.014 A 
ATOM     66  C   UNL     1      -4.936 -12.359   5.023  1.00  0.00     0.010 A 
ATOM     67  C   UNL     1      -7.133 -13.270   4.545  1.00  0.00     0.010 A 
ATOM     68  C   UNL     1      -4.429 -13.656   5.144  1.00  0.00     0.020 A 
ATOM     69  C   UNL     1      -6.635 -14.567   4.688  1.00  0.00     0.020 A 
ATOM     70  C   UNL     1      -5.279 -14.752   4.964  1.00  0.00     0.054 A 
BRANCH  70  71
ATOM     71  S   UNL     1      -4.600 -16.427   5.118  1.00  0.00     0.124 S 
ATOM     72  O   UNL     1      -3.917 -16.592   3.837  1.00  0.00    -0.237 OA
ATOM     73  O   UNL     1      -3.727 -16.318   6.285  1.00  0.00    -0.237 OA
ATOM     74  O   UNL     1      -5.782 -17.264   5.307  1.00  0.00    -0.744 OA
ENDBRANCH  70  71
ENDBRANCH  51  65
BRANCH  52  75
ATOM     75  C   UNL     1      -9.710  -2.928   3.023  1.00  0.00    -0.014 A 
ATOM     76  C   UNL     1      -9.227  -1.837   3.766  1.00  0.00     0.010 A 
ATOM     77  C   UNL     1     -10.687  -2.705   2.036  1.00  0.00     0.010 A 
ATOM     78  C   UNL     1      -9.714  -0.548   3.527  1.00  0.00     0.020 A 
ATOM     79  C   UNL     1     -11.157  -1.415   1.776  1.00  0.00     0.020 A 
ATOM     80  C   UNL     1     -10.674  -0.345   2.531  1.00  0.00     0.054 A 
BRANCH  80  81
ATOM     81  S   UNL     1     -11.242   1.344   2.185  1.00  0.00     0.124 S 
ATOM     82  O   UNL     1     -12.199   1.568   3.264  1.00  0.00    -0.237 OA
ATOM     83  O   UNL     1     -10.007   2.119   2.263  1.00  0.00    -0.237 OA
ATOM     84  O   UNL     1     -11.818   1.240   0.846  1.00  0.00    -0.744 OA
ENDBRANCH  80  81
ENDBRANCH  52  75
BRANCH  64  85
ATOM     85  C   UNL     1     -10.600  -7.527   8.182  1.00  0.00    -0.014 A 
ATOM     86  C   UNL     1     -11.998  -7.671   8.186  1.00  0.00     0.010 A 
ATOM     87  C   UNL     1      -9.918  -7.379   9.403  1.00  0.00     0.010 A 
ATOM     88  C   UNL     1     -12.705  -7.643   9.391  1.00  0.00     0.020 A 
ATOM     89  C   UNL     1     -10.620  -7.370  10.611  1.00  0.00     0.020 A 
ATOM     90  C   UNL     1     -12.012  -7.488  10.596  1.00  0.00     0.054 A 
BRANCH  90  91
ATOM     91  S   UNL     1     -12.943  -7.497  12.152  1.00  0.00     0.124 S 
ATOM     92  O   UNL     1     -13.500  -6.147  12.180  1.00  0.00    -0.237 OA
ATOM     93  O   UNL     1     -13.911  -8.572  11.945  1.00  0.00    -0.237 OA
ATOM     94  O   UNL     1     -11.924  -7.773  13.162  1.00  0.00    -0.744 OA
ENDBRANCH  90  91
ENDBRANCH  64  85
ENDBRANCH  38  39
ENDBRANCH  31  33
ENDBRANCH  30  31
ENDBRANCH  29  30
ENDBRANCH  28  29
ENDBRANCH  27  28
ENDBRANCH  26  27
ENDBRANCH   1  26
TORSDOF 25
