REMARK SMILES O=C(COc1cc(-c2ccccc2)nc(NCc2ccc(Cl)cc2)n1)OCCOCCOCCOC(=O)c1ccc(-c2c3nc(c(-c4ccc(S(=O)(=O)[O-])cc4)c4ccc([nH]4)c(-c4ccc(S(=O)(=O)[O-])cc4)c4nc(c(-c5ccc(S(=O)(=O)[O-])cc5)c5ccc2[nH]5)C=C4)C=C3)cc1
REMARK SMILES IDX 30 1 29 2 28 3 27 4 26 5 2 6 1 7 3 8 4 9 5 10 6 11 25 12
REMARK SMILES IDX 7 13 15 14 14 15 8 16 9 17 13 18 10 19 12 20 11 21 16 22
REMARK SMILES IDX 17 24 18 25 19 26 24 27 20 28 23 29 21 30 22 31 31 32 32 33
REMARK SMILES IDX 33 34 34 35 35 36 36 37 37 38 38 39 39 40 97 41 40 42 96 43
REMARK SMILES IDX 41 44 42 45 43 46 90 47 44 48 95 49 89 50 91 51 45 52 94 53
REMARK SMILES IDX 88 54 87 55 46 57 76 58 57 59 75 60 58 61 61 62 74 63 92 64
REMARK SMILES IDX 59 65 60 66 73 68 93 69 62 70 47 71 48 72 56 73 49 74 55 75
REMARK SMILES IDX 50 76 51 77 52 78 53 79 54 80 77 81 78 82 86 83 79 84 85 85
REMARK SMILES IDX 80 86 81 87 82 88 83 89 84 90 63 91 64 92 72 93 65 94 71 95
REMARK SMILES IDX 66 96 67 97 68 98 69 99 70 100
REMARK H PARENT 16 23 91 56 61 67
REMARK Flexibility Score: inf
ROOT
ATOM      1  C   UNL     1       3.665  -1.143  -1.866  1.00  0.00     0.188 C 
ENDROOT
BRANCH   1   2
ATOM      2  O   UNL     1       4.825  -1.272  -1.050  1.00  0.00    -0.376 OA
BRANCH   2   3
ATOM      3  C   UNL     1       5.061  -0.199  -0.157  1.00  0.00     0.202 C 
BRANCH   3   4
ATOM      4  C   UNL     1       4.228  -0.359   1.111  1.00  0.00     0.261 C 
BRANCH   4   5
ATOM      5  O   UNL     1       2.789  -0.317   0.925  1.00  0.00    -0.461 OA
BRANCH   5   6
ATOM      6  C   UNL     1       2.042   0.647   0.343  1.00  0.00     0.344 C 
ATOM      7  O   UNL     1       0.854   0.436   0.106  1.00  0.00    -0.248 OA
BRANCH   6   8
ATOM      8  C   UNL     1       2.684   1.975  -0.021  1.00  0.00     0.353 C 
BRANCH   8   9
ATOM      9  O   UNL     1       3.806   2.339   0.762  1.00  0.00    -0.466 OA
BRANCH   9  10
ATOM     10  C   UNL     1       3.431   3.032   1.872  1.00  0.00     0.219 A 
ATOM     11  C   UNL     1       2.532   2.547   2.775  1.00  0.00     0.097 A 
ATOM     12  N   UNL     1       4.003   4.220   1.968  1.00  0.00    -0.177 NA
ATOM     13  C   UNL     1       2.132   3.427   3.750  1.00  0.00     0.080 A 
ATOM     14  C   UNL     1       3.590   5.017   2.952  1.00  0.00     0.226 A 
ATOM     15  N   UNL     1       2.640   4.675   3.842  1.00  0.00    -0.213 NA
BRANCH  13  16
ATOM     16  C   UNL     1       1.031   3.018   4.636  1.00  0.00     0.000 A 
ATOM     17  C   UNL     1      -0.163   3.749   4.685  1.00  0.00     0.010 A 
ATOM     18  C   UNL     1       1.074   1.775   5.301  1.00  0.00     0.010 A 
ATOM     19  C   UNL     1      -1.290   3.235   5.336  1.00  0.00     0.001 A 
ATOM     20  C   UNL     1      -0.050   1.261   5.951  1.00  0.00     0.001 A 
ATOM     21  C   UNL     1      -1.235   1.988   5.958  1.00  0.00     0.000 A 
ENDBRANCH  13  16
BRANCH  14  22
ATOM     22  N   UNL     1       4.148   6.260   3.037  1.00  0.00    -0.350 N 
ATOM     23  H   UNL     1       3.998   6.808   3.842  1.00  0.00     0.164 HD
BRANCH  22  24
ATOM     24  C   UNL     1       4.960   6.782   1.955  1.00  0.00     0.152 C 
BRANCH  24  25
ATOM     25  C   UNL     1       4.279   8.004   1.397  1.00  0.00    -0.029 A 
ATOM     26  C   UNL     1       4.720   9.284   1.752  1.00  0.00     0.007 A 
ATOM     27  C   UNL     1       3.151   7.867   0.570  1.00  0.00     0.007 A 
ATOM     28  C   UNL     1       4.001  10.408   1.347  1.00  0.00     0.021 A 
ATOM     29  C   UNL     1       2.434   8.993   0.167  1.00  0.00     0.021 A 
ATOM     30  C   UNL     1       2.843  10.257   0.585  1.00  0.00     0.041 A 
ATOM     31  Cl  UNL     1       1.871  11.630   0.211  1.00  0.00    -0.084 Cl
ENDBRANCH  24  25
ENDBRANCH  22  24
ENDBRANCH  14  22
ENDBRANCH   9  10
ENDBRANCH   8   9
ENDBRANCH   6   8
ENDBRANCH   5   6
ENDBRANCH   4   5
ENDBRANCH   3   4
ENDBRANCH   2   3
ENDBRANCH   1   2
BRANCH   1  32
ATOM     32  C   UNL     1       2.660  -2.279  -1.620  1.00  0.00     0.188 C 
BRANCH  32  33
ATOM     33  O   UNL     1       3.150  -3.615  -1.536  1.00  0.00    -0.376 OA
BRANCH  33  34
ATOM     34  C   UNL     1       4.338  -3.952  -2.237  1.00  0.00     0.202 C 
BRANCH  34  35
ATOM     35  C   UNL     1       4.218  -4.059  -3.762  1.00  0.00     0.261 C 
BRANCH  35  36
ATOM     36  O   UNL     1       3.922  -2.805  -4.412  1.00  0.00    -0.460 OA
BRANCH  36  37
ATOM     37  C   UNL     1       2.660  -2.664  -4.889  1.00  0.00     0.338 C 
ATOM     38  O   UNL     1       1.780  -3.511  -4.880  1.00  0.00    -0.246 OA
BRANCH  37  39
ATOM     39  C   UNL     1       2.405  -1.256  -5.287  1.00  0.00     0.060 A 
ATOM     40  C   UNL     1       1.238  -0.638  -4.816  1.00  0.00     0.016 A 
ATOM     41  C   UNL     1       3.254  -0.562  -6.153  1.00  0.00     0.016 A 
ATOM     42  C   UNL     1       0.898   0.654  -5.233  1.00  0.00     0.010 A 
ATOM     43  C   UNL     1       2.900   0.726  -6.588  1.00  0.00     0.010 A 
ATOM     44  C   UNL     1       1.707   1.335  -6.152  1.00  0.00    -0.014 A 
BRANCH  44  45
ATOM     45  C   UNL     1       1.247   2.614  -6.764  1.00  0.00     0.031 A 
ATOM     46  C   UNL     1       0.567   2.577  -8.110  1.00  0.00     0.074 A 
ATOM     47  C   UNL     1       1.446   3.799  -6.152  1.00  0.00     0.049 A 
ATOM     48  N   UNL     1       0.205   3.570  -8.881  1.00  0.00    -0.248 NA
ATOM     49  C   UNL     1       0.259   1.245  -8.658  1.00  0.00     0.031 C 
ATOM     50  C   UNL     1       2.066   3.982  -4.840  1.00  0.00     0.029 A 
ATOM     51  N   UNL     1       1.179   5.081  -6.576  1.00  0.00    -0.354 N 
ATOM     52  C   UNL     1      -0.358   2.987 -10.012  1.00  0.00     0.074 A 
ATOM     53  C   UNL     1      -0.286   1.553  -9.828  1.00  0.00     0.031 C 
ATOM     54  C   UNL     1       2.186   5.299  -4.593  1.00  0.00     0.029 A 
ATOM     55  C   UNL     1       1.682   6.054  -5.741  1.00  0.00     0.049 A 
ATOM     56  H   UNL     1       0.676   5.284  -7.398  1.00  0.00     0.167 HD
ATOM     57  C   UNL     1      -0.882   3.588 -11.106  1.00  0.00     0.031 A 
ATOM     58  C   UNL     1       1.788   7.390  -5.908  1.00  0.00     0.031 A 
ATOM     59  C   UNL     1      -0.955   5.011 -11.299  1.00  0.00     0.049 A 
ATOM     60  C   UNL     1       1.269   8.030  -7.180  1.00  0.00     0.074 A 
ATOM     61  C   UNL     1      -1.514   5.705 -12.360  1.00  0.00     0.029 A 
ATOM     62  N   UNL     1      -0.440   5.957 -10.431  1.00  0.00    -0.354 N 
ATOM     63  N   UNL     1       0.671   7.467  -8.204  1.00  0.00    -0.248 NA
ATOM     64  C   UNL     1       1.449   9.484  -7.324  1.00  0.00     0.031 C 
ATOM     65  C   UNL     1      -1.281   7.069 -12.162  1.00  0.00     0.029 A 
ATOM     66  C   UNL     1      -0.627   7.226 -10.952  1.00  0.00     0.049 A 
ATOM     67  H   UNL     1      -0.005   5.758  -9.570  1.00  0.00     0.167 HD
ATOM     68  C   UNL     1       0.398   8.500  -9.100  1.00  0.00     0.074 A 
ATOM     69  C   UNL     1       0.863   9.724  -8.488  1.00  0.00     0.031 C 
ATOM     70  C   UNL     1      -0.176   8.441 -10.327  1.00  0.00     0.031 A 
BRANCH  57  71
ATOM     71  C   UNL     1      -1.400   2.713 -12.215  1.00  0.00    -0.014 A 
ATOM     72  C   UNL     1      -2.638   2.058 -12.106  1.00  0.00     0.010 A 
ATOM     73  C   UNL     1      -0.682   2.633 -13.424  1.00  0.00     0.010 A 
ATOM     74  C   UNL     1      -3.145   1.327 -13.184  1.00  0.00     0.020 A 
ATOM     75  C   UNL     1      -1.195   1.919 -14.509  1.00  0.00     0.020 A 
ATOM     76  C   UNL     1      -2.421   1.264 -14.380  1.00  0.00     0.054 A 
BRANCH  76  77
ATOM     77  S   UNL     1      -3.133   0.360 -15.782  1.00  0.00     0.124 S 
ATOM     78  O   UNL     1      -2.978  -1.028 -15.354  1.00  0.00    -0.237 OA
ATOM     79  O   UNL     1      -4.507   0.855 -15.819  1.00  0.00    -0.237 OA
ATOM     80  O   UNL     1      -2.300   0.759 -16.913  1.00  0.00    -0.744 OA
ENDBRANCH  76  77
ENDBRANCH  57  71
BRANCH  58  81
ATOM     81  C   UNL     1       2.570   8.219  -4.939  1.00  0.00    -0.014 A 
ATOM     82  C   UNL     1       1.991   9.283  -4.223  1.00  0.00     0.010 A 
ATOM     83  C   UNL     1       3.963   8.033  -4.867  1.00  0.00     0.010 A 
ATOM     84  C   UNL     1       2.803  10.207  -3.548  1.00  0.00     0.020 A 
ATOM     85  C   UNL     1       4.770   8.927  -4.163  1.00  0.00     0.020 A 
ATOM     86  C   UNL     1       4.192  10.038  -3.551  1.00  0.00     0.054 A 
BRANCH  86  87
ATOM     87  S   UNL     1       5.262  11.345  -2.877  1.00  0.00     0.124 S 
ATOM     88  O   UNL     1       5.044  12.430  -3.828  1.00  0.00    -0.237 OA
ATOM     89  O   UNL     1       4.723  11.560  -1.541  1.00  0.00    -0.237 OA
ATOM     90  O   UNL     1       6.595  10.745  -2.909  1.00  0.00    -0.744 OA
ENDBRANCH  86  87
ENDBRANCH  58  81
BRANCH  70  91
ATOM     91  C   UNL     1      -0.368   9.731 -11.083  1.00  0.00    -0.014 A 
ATOM     92  C   UNL     1       0.718  10.390 -11.685  1.00  0.00     0.010 A 
ATOM     93  C   UNL     1      -1.665  10.249 -11.262  1.00  0.00     0.010 A 
ATOM     94  C   UNL     1       0.514  11.551 -12.438  1.00  0.00     0.020 A 
ATOM     95  C   UNL     1      -1.876  11.395 -12.034  1.00  0.00     0.020 A 
ATOM     96  C   UNL     1      -0.783  12.045 -12.610  1.00  0.00     0.054 A 
BRANCH  96  97
ATOM     97  S   UNL     1      -1.031  13.515 -13.646  1.00  0.00     0.124 S 
ATOM     98  O   UNL     1      -0.545  14.585 -12.780  1.00  0.00    -0.237 OA
ATOM     99  O   UNL     1      -0.203  13.228 -14.816  1.00  0.00    -0.237 OA
ATOM    100  O   UNL     1      -2.470  13.523 -13.898  1.00  0.00    -0.744 OA
ENDBRANCH  96  97
ENDBRANCH  70  91
ENDBRANCH  44  45
ENDBRANCH  37  39
ENDBRANCH  36  37
ENDBRANCH  35  36
ENDBRANCH  34  35
ENDBRANCH  33  34
ENDBRANCH  32  33
ENDBRANCH   1  32
TORSDOF 26
