REMARK SMILES CC(C)(C)OC(=O)N[C@H](Cc1ccc(O)c(Cl)c1)C(=O)OCCOCCOCCOC(=O)c1ccc(-c2c3nc(c(-c4ccc(S(=O)(=O)[O-])cc4)c4ccc([nH]4)c(-c4ccc(S(=O)(=O)[O-])cc4)c4nc(c(-c5ccc(S(=O)(=O)[O-])cc5)c5ccc2[nH]5)C=C4)C=C3)cc1
REMARK SMILES IDX 25 1 24 2 23 3 22 4 21 5 19 6 20 7 9 8 8 9 6 10 7 11 5 13
REMARK SMILES IDX 2 14 1 15 3 16 4 17 10 18 11 19 12 20 18 21 13 22 16 23
REMARK SMILES IDX 14 24 17 25 15 26 26 28 27 29 28 30 29 31 30 32 31 33 32 34
REMARK SMILES IDX 33 35 34 36 92 37 35 38 91 39 36 40 37 41 38 42 85 43 39 44
REMARK SMILES IDX 90 45 84 46 86 47 40 48 89 49 83 50 82 51 41 53 71 54 52 55
REMARK SMILES IDX 70 56 53 57 56 58 69 59 87 60 54 61 55 62 68 64 88 65 57 66
REMARK SMILES IDX 42 67 43 68 51 69 44 70 50 71 45 72 46 73 47 74 48 75 49 76
REMARK SMILES IDX 72 77 73 78 81 79 74 80 80 81 75 82 76 83 77 84 78 85 79 86
REMARK SMILES IDX 58 87 59 88 67 89 60 90 66 91 61 92 62 93 63 94 64 95 65 96
REMARK H PARENT 8 12 15 27 86 52 56 63
REMARK Flexibility Score: inf
ROOT
ATOM      1  C   UNL     1      -0.618   3.788   4.711  1.00  0.00     0.188 C 
ENDROOT
BRANCH   1   2
ATOM      2  O   UNL     1      -0.775   4.539   5.903  1.00  0.00    -0.376 OA
BRANCH   2   3
ATOM      3  C   UNL     1      -0.245   5.859   5.949  1.00  0.00     0.202 C 
BRANCH   3   4
ATOM      4  C   UNL     1       1.153   6.144   5.367  1.00  0.00     0.261 C 
BRANCH   4   5
ATOM      5  O   UNL     1       1.342   5.766   3.978  1.00  0.00    -0.462 OA
BRANCH   5   6
ATOM      6  C   UNL     1       2.489   5.100   3.709  1.00  0.00     0.329 C 
ATOM      7  O   UNL     1       3.362   4.906   4.558  1.00  0.00    -0.250 OA
BRANCH   6   8
ATOM      8  C   UNL     1       2.685   4.557   2.268  1.00  0.00     0.199 C 
BRANCH   8   9
ATOM      9  N   UNL     1       4.027   5.058   1.925  1.00  0.00    -0.308 N 
ATOM     10  C   UNL     1       4.343   6.261   1.367  1.00  0.00     0.408 C 
ATOM     11  O   UNL     1       5.496   6.654   1.310  1.00  0.00    -0.225 OA
ATOM     12  H   UNL     1       4.781   4.456   2.122  1.00  0.00     0.168 HD
BRANCH  10  13
ATOM     13  O   UNL     1       3.265   6.893   0.848  1.00  0.00    -0.444 OA
BRANCH  13  14
ATOM     14  C   UNL     1       3.423   7.923  -0.158  1.00  0.00     0.106 C 
ATOM     15  C   UNL     1       2.009   8.160  -0.720  1.00  0.00     0.056 C 
ATOM     16  C   UNL     1       4.310   7.447  -1.317  1.00  0.00     0.056 C 
ATOM     17  C   UNL     1       3.930   9.214   0.481  1.00  0.00     0.056 C 
ENDBRANCH  13  14
ENDBRANCH  10  13
ENDBRANCH   8   9
BRANCH   8  18
ATOM     18  C   UNL     1       1.663   4.724   1.108  1.00  0.00     0.072 C 
BRANCH  18  19
ATOM     19  C   UNL     1       0.906   3.518   0.546  1.00  0.00    -0.044 A 
ATOM     20  C   UNL     1      -0.259   3.756  -0.213  1.00  0.00     0.008 A 
ATOM     21  C   UNL     1       1.391   2.203   0.599  1.00  0.00     0.028 A 
ATOM     22  C   UNL     1      -0.944   2.715  -0.855  1.00  0.00     0.048 A 
ATOM     23  C   UNL     1       0.715   1.160  -0.053  1.00  0.00     0.083 A 
ATOM     24  C   UNL     1      -0.459   1.414  -0.765  1.00  0.00     0.134 A 
ATOM     25  Cl  UNL     1       1.371  -0.434   0.053  1.00  0.00    -0.080 Cl
BRANCH  24  26
ATOM     26  O   UNL     1      -1.137   0.387  -1.359  1.00  0.00    -0.506 OA
ATOM     27  H   UNL     1      -1.925   0.559  -1.835  1.00  0.00     0.293 HD
ENDBRANCH  24  26
ENDBRANCH  18  19
ENDBRANCH   8  18
ENDBRANCH   6   8
ENDBRANCH   5   6
ENDBRANCH   4   5
ENDBRANCH   3   4
ENDBRANCH   2   3
ENDBRANCH   1   2
BRANCH   1  28
ATOM     28  C   UNL     1      -1.018   4.443   3.381  1.00  0.00     0.188 C 
BRANCH  28  29
ATOM     29  O   UNL     1      -1.427   5.784   3.415  1.00  0.00    -0.376 OA
BRANCH  29  30
ATOM     30  C   UNL     1      -2.803   6.099   3.514  1.00  0.00     0.202 C 
BRANCH  30  31
ATOM     31  C   UNL     1      -3.933   5.101   3.849  1.00  0.00     0.261 C 
BRANCH  31  32
ATOM     32  O   UNL     1      -3.628   3.705   3.929  1.00  0.00    -0.460 OA
BRANCH  32  33
ATOM     33  C   UNL     1      -3.835   2.978   2.802  1.00  0.00     0.338 C 
ATOM     34  O   UNL     1      -4.211   3.392   1.720  1.00  0.00    -0.246 OA
BRANCH  33  35
ATOM     35  C   UNL     1      -3.323   1.611   3.033  1.00  0.00     0.060 A 
ATOM     36  C   UNL     1      -2.089   1.250   2.482  1.00  0.00     0.016 A 
ATOM     37  C   UNL     1      -4.068   0.676   3.748  1.00  0.00     0.016 A 
ATOM     38  C   UNL     1      -1.598  -0.043   2.626  1.00  0.00     0.010 A 
ATOM     39  C   UNL     1      -3.583  -0.633   3.873  1.00  0.00     0.010 A 
ATOM     40  C   UNL     1      -2.357  -1.007   3.289  1.00  0.00    -0.014 A 
BRANCH  40  41
ATOM     41  C   UNL     1      -1.958  -2.434   3.193  1.00  0.00     0.031 A 
ATOM     42  C   UNL     1      -2.750  -3.338   2.289  1.00  0.00     0.074 A 
ATOM     43  C   UNL     1      -0.874  -2.913   3.833  1.00  0.00     0.049 A 
ATOM     44  N   UNL     1      -2.695  -4.637   2.157  1.00  0.00    -0.248 NA
ATOM     45  C   UNL     1      -3.743  -2.686   1.418  1.00  0.00     0.031 C 
ATOM     46  C   UNL     1       0.059  -2.124   4.636  1.00  0.00     0.029 A 
ATOM     47  N   UNL     1      -0.376  -4.192   3.902  1.00  0.00    -0.354 N 
ATOM     48  C   UNL     1      -3.672  -4.962   1.224  1.00  0.00     0.074 A 
ATOM     49  C   UNL     1      -4.313  -3.727   0.831  1.00  0.00     0.031 C 
ATOM     50  C   UNL     1       1.014  -2.937   5.120  1.00  0.00     0.029 A 
ATOM     51  C   UNL     1       0.723  -4.312   4.720  1.00  0.00     0.049 A 
ATOM     52  H   UNL     1      -0.769  -4.950   3.413  1.00  0.00     0.167 HD
ATOM     53  C   UNL     1      -4.009  -6.182   0.744  1.00  0.00     0.031 A 
ATOM     54  C   UNL     1       1.390  -5.409   5.134  1.00  0.00     0.031 A 
ATOM     55  C   UNL     1      -3.352  -7.404   1.123  1.00  0.00     0.049 A 
ATOM     56  C   UNL     1       0.934  -6.769   4.668  1.00  0.00     0.074 A 
ATOM     57  C   UNL     1      -3.627  -8.693   0.702  1.00  0.00     0.029 A 
ATOM     58  N   UNL     1      -2.283  -7.490   2.002  1.00  0.00    -0.354 N 
ATOM     59  N   UNL     1      -0.035  -7.075   3.837  1.00  0.00    -0.248 NA
ATOM     60  C   UNL     1       1.656  -7.934   5.200  1.00  0.00     0.031 C 
ATOM     61  C   UNL     1      -2.767  -9.565   1.376  1.00  0.00     0.029 A 
ATOM     62  C   UNL     1      -1.905  -8.812   2.158  1.00  0.00     0.049 A 
ATOM     63  H   UNL     1      -1.857  -6.723   2.450  1.00  0.00     0.167 HD
ATOM     64  C   UNL     1      -0.016  -8.462   3.723  1.00  0.00     0.074 A 
ATOM     65  C   UNL     1       1.065  -8.935   4.562  1.00  0.00     0.031 C 
ATOM     66  C   UNL     1      -0.819  -9.270   2.988  1.00  0.00     0.031 A 
BRANCH  53  67
ATOM     67  C   UNL     1      -5.184  -6.263  -0.195  1.00  0.00    -0.014 A 
ATOM     68  C   UNL     1      -5.118  -5.770  -1.510  1.00  0.00     0.010 A 
ATOM     69  C   UNL     1      -6.370  -6.879   0.246  1.00  0.00     0.010 A 
ATOM     70  C   UNL     1      -6.230  -5.859  -2.353  1.00  0.00     0.020 A 
ATOM     71  C   UNL     1      -7.471  -7.000  -0.603  1.00  0.00     0.020 A 
ATOM     72  C   UNL     1      -7.399  -6.473  -1.893  1.00  0.00     0.054 A 
BRANCH  72  73
ATOM     73  S   UNL     1      -8.818  -6.595  -3.016  1.00  0.00     0.124 S 
ATOM     74  O   UNL     1      -9.263  -5.205  -3.091  1.00  0.00    -0.237 OA
ATOM     75  O   UNL     1      -8.216  -7.128  -4.235  1.00  0.00    -0.237 OA
ATOM     76  O   UNL     1      -9.732  -7.503  -2.326  1.00  0.00    -0.744 OA
ENDBRANCH  72  73
ENDBRANCH  53  67
BRANCH  54  77
ATOM     77  C   UNL     1       2.524  -5.277   6.093  1.00  0.00    -0.014 A 
ATOM     78  C   UNL     1       3.835  -5.614   5.715  1.00  0.00     0.010 A 
ATOM     79  C   UNL     1       2.291  -4.821   7.405  1.00  0.00     0.010 A 
ATOM     80  C   UNL     1       4.887  -5.512   6.633  1.00  0.00     0.020 A 
ATOM     81  C   UNL     1       3.343  -4.685   8.314  1.00  0.00     0.020 A 
ATOM     82  C   UNL     1       4.634  -5.043   7.925  1.00  0.00     0.054 A 
BRANCH  82  83
ATOM     83  S   UNL     1       6.021  -4.870   9.083  1.00  0.00     0.124 S 
ATOM     84  O   UNL     1       6.336  -6.261   9.391  1.00  0.00    -0.237 OA
ATOM     85  O   UNL     1       7.013  -4.158   8.281  1.00  0.00    -0.237 OA
ATOM     86  O   UNL     1       5.452  -4.098  10.186  1.00  0.00    -0.744 OA
ENDBRANCH  82  83
ENDBRANCH  54  77
BRANCH  66  87
ATOM     87  C   UNL     1      -0.534 -10.751   3.003  1.00  0.00    -0.014 A 
ATOM     88  C   UNL     1      -0.812 -11.543   4.130  1.00  0.00     0.010 A 
ATOM     89  C   UNL     1      -0.052 -11.370   1.833  1.00  0.00     0.010 A 
ATOM     90  C   UNL     1      -0.592 -12.924   4.094  1.00  0.00     0.020 A 
ATOM     91  C   UNL     1       0.140 -12.753   1.784  1.00  0.00     0.020 A 
ATOM     92  C   UNL     1      -0.122 -13.520   2.920  1.00  0.00     0.054 A 
BRANCH  92  93
ATOM     93  S   UNL     1       0.097 -15.321   2.881  1.00  0.00     0.124 S 
ATOM     94  O   UNL     1       1.267 -15.504   3.736  1.00  0.00    -0.237 OA
ATOM     95  O   UNL     1      -1.165 -15.808   3.432  1.00  0.00    -0.237 OA
ATOM     96  O   UNL     1       0.308 -15.616   1.466  1.00  0.00    -0.744 OA
ENDBRANCH  92  93
ENDBRANCH  66  87
ENDBRANCH  40  41
ENDBRANCH  33  35
ENDBRANCH  32  33
ENDBRANCH  31  32
ENDBRANCH  30  31
ENDBRANCH  29  30
ENDBRANCH  28  29
ENDBRANCH   1  28
TORSDOF 26
