REMARK SMILES Cc1ccc(S(=O)(=O)Nc2cc(C(=O)OCCOCCOCCOC(=O)c3ccc(-c4c5nc(c(-c6ccc(S(=O)(=O)[O-])cc6)c6ccc([nH]6)c(-c6ccc(S(=O)(=O)[O-])cc6)c6nc(c(-c7ccc(S(=O)(=O)[O-])cc7)c7ccc4[nH]7)C=C6)C=C5)cc3)ccc2C)c(Br)c1
REMARK SMILES IDX 19 1 18 2 17 3 16 4 15 5 13 6 14 7 12 8 10 9 11 10 89 11
REMARK SMILES IDX 88 12 90 13 87 14 9 15 6 17 7 18 8 19 5 20 1 21 2 22 3 23
REMARK SMILES IDX 93 24 4 25 91 26 92 27 20 28 21 29 22 30 23 31 24 32 25 33
REMARK SMILES IDX 26 34 27 35 28 36 86 37 29 38 85 39 30 40 31 41 32 42 79 43
REMARK SMILES IDX 33 44 84 45 78 46 80 47 34 48 83 49 77 50 76 51 35 53 65 54
REMARK SMILES IDX 46 55 64 56 47 57 50 58 63 59 81 60 48 61 49 62 62 64 82 65
REMARK SMILES IDX 51 66 36 67 37 68 45 69 38 70 44 71 39 72 40 73 41 74 42 75
REMARK SMILES IDX 43 76 66 77 67 78 75 79 68 80 74 81 69 82 70 83 71 84 72 85
REMARK SMILES IDX 73 86 52 87 53 88 61 89 54 90 60 91 55 92 56 93 57 94 58 95
REMARK SMILES IDX 59 96
REMARK H PARENT 9 16 80 52 50 63
REMARK Flexibility Score: inf
ROOT
ATOM      1  C   UNL     1      -6.270   2.101   5.436  1.00  0.00     0.188 C 
ENDROOT
BRANCH   1   2
ATOM      2  O   UNL     1      -5.290   1.074   5.162  1.00  0.00    -0.376 OA
BRANCH   2   3
ATOM      3  C   UNL     1      -3.850   1.045   5.343  1.00  0.00     0.202 C 
BRANCH   3   4
ATOM      4  C   UNL     1      -2.403   1.394   4.336  1.00  0.00     0.261 C 
BRANCH   4   5
ATOM      5  O   UNL     1      -2.000   2.605   3.156  1.00  0.00    -0.460 OA
BRANCH   5   6
ATOM      6  C   UNL     1      -2.456   3.055   1.865  1.00  0.00     0.338 C 
ATOM      7  O   UNL     1      -3.146   2.445   1.036  1.00  0.00    -0.246 OA
BRANCH   6   8
ATOM      8  C   UNL     1      -2.130   4.332   1.219  1.00  0.00     0.062 A 
ATOM      9  C   UNL     1      -0.561   5.251  -0.326  1.00  0.00     0.053 A 
ATOM     10  C   UNL     1      -0.817   4.530   0.849  1.00  0.00     0.042 A 
ATOM     11  C   UNL     1      -1.574   5.948  -1.026  1.00  0.00    -0.027 A 
ATOM     12  C   UNL     1      -2.897   5.753  -0.647  1.00  0.00     0.006 A 
ATOM     13  C   UNL     1      -1.312   6.789  -2.246  1.00  0.00     0.046 C 
ATOM     14  C   UNL     1      -3.168   4.921   0.433  1.00  0.00     0.016 A 
BRANCH   9  15
ATOM     15  N   UNL     1       0.742   5.197  -0.924  1.00  0.00    -0.279 N 
ATOM     16  H   UNL     1       1.239   6.025  -1.115  1.00  0.00     0.180 HD
BRANCH  15  17
ATOM     17  S   UNL     1       1.426   3.656  -1.304  1.00  0.00     0.263 S 
ATOM     18  O   UNL     1       1.935   3.233   0.009  1.00  0.00    -0.201 OA
ATOM     19  O   UNL     1       2.308   3.861  -2.404  1.00  0.00    -0.201 OA
BRANCH  17  20
ATOM     20  C   UNL     1       0.169   2.494  -1.779  1.00  0.00     0.101 A 
ATOM     21  C   UNL     1      -3.278  -0.036  -1.682  1.00  0.00     0.044 C 
ATOM     22  C   UNL     1      -2.043   0.787  -1.853  1.00  0.00    -0.050 A 
ATOM     23  C   UNL     1      -2.155   2.097  -2.309  1.00  0.00     0.005 A 
ATOM     24  C   UNL     1      -0.775   0.276  -1.551  1.00  0.00     0.020 A 
ATOM     25  C   UNL     1      -1.046   2.938  -2.301  1.00  0.00     0.024 A 
ATOM     26  C   UNL     1       0.335   1.130  -1.520  1.00  0.00     0.038 A 
ATOM     27  Br  UNL     1       2.036   0.332  -1.245  1.00  0.00    -0.049 Br
ENDBRANCH  17  20
ENDBRANCH  15  17
ENDBRANCH   9  15
ENDBRANCH   6   8
ENDBRANCH   5   6
ENDBRANCH   4   5
ENDBRANCH   3   4
ENDBRANCH   2   3
ENDBRANCH   1   2
BRANCH   1  28
ATOM     28  C   UNL     1      -6.073   3.182   6.477  1.00  0.00     0.188 C 
BRANCH  28  29
ATOM     29  O   UNL     1      -4.691   3.356   6.665  1.00  0.00    -0.376 OA
BRANCH  29  30
ATOM     30  C   UNL     1      -4.296   4.208   7.704  1.00  0.00     0.202 C 
BRANCH  30  31
ATOM     31  C   UNL     1      -4.786   5.658   7.562  1.00  0.00     0.261 C 
BRANCH  31  32
ATOM     32  O   UNL     1      -4.189   6.362   6.439  1.00  0.00    -0.460 OA
BRANCH  32  33
ATOM     33  C   UNL     1      -4.978   6.678   5.341  1.00  0.00     0.338 C 
ATOM     34  O   UNL     1      -5.583   7.729   5.261  1.00  0.00    -0.246 OA
BRANCH  33  35
ATOM     35  C   UNL     1      -4.815   5.647   4.250  1.00  0.00     0.060 A 
ATOM     36  C   UNL     1      -5.695   5.220   3.244  1.00  0.00     0.016 A 
ATOM     37  C   UNL     1      -3.745   4.859   4.408  1.00  0.00     0.016 A 
ATOM     38  C   UNL     1      -5.611   3.877   2.602  1.00  0.00     0.010 A 
ATOM     39  C   UNL     1      -3.926   3.533   4.024  1.00  0.00     0.010 A 
ATOM     40  C   UNL     1      -4.720   2.885   3.025  1.00  0.00    -0.014 A 
BRANCH  40  41
ATOM     41  C   UNL     1      -4.583   1.198   2.538  1.00  0.00     0.031 A 
ATOM     42  C   UNL     1      -3.224   0.160   2.118  1.00  0.00     0.074 A 
ATOM     43  C   UNL     1      -5.712   0.454   2.608  1.00  0.00     0.049 A 
ATOM     44  N   UNL     1      -3.174  -1.157   2.287  1.00  0.00    -0.248 NA
ATOM     45  C   UNL     1      -1.816   0.519   1.682  1.00  0.00     0.031 C 
ATOM     46  C   UNL     1      -5.874  -1.006   2.638  1.00  0.00     0.029 A 
ATOM     47  N   UNL     1      -7.027   0.906   2.644  1.00  0.00    -0.354 N 
ATOM     48  C   UNL     1      -1.868  -1.602   2.039  1.00  0.00     0.074 A 
ATOM     49  C   UNL     1      -1.066  -0.455   2.172  1.00  0.00     0.031 C 
ATOM     50  C   UNL     1      -7.147  -1.318   2.360  1.00  0.00     0.029 A 
ATOM     51  C   UNL     1      -7.799  -0.078   2.016  1.00  0.00     0.049 A 
ATOM     52  H   UNL     1      -7.350   1.751   3.033  1.00  0.00     0.167 HD
ATOM     53  C   UNL     1      -1.458  -2.730   1.379  1.00  0.00     0.031 A 
ATOM     54  C   UNL     1      -8.346   0.224   0.813  1.00  0.00     0.031 A 
ATOM     55  C   UNL     1      -2.610  -3.422   0.841  1.00  0.00     0.049 A 
ATOM     56  C   UNL     1      -7.731  -0.623  -0.282  1.00  0.00     0.074 A 
ATOM     57  C   UNL     1      -3.624  -4.142   1.442  1.00  0.00     0.029 A 
ATOM     58  N   UNL     1      -3.101  -3.019  -0.398  1.00  0.00    -0.354 N 
ATOM     59  N   UNL     1      -6.581  -1.259  -0.220  1.00  0.00    -0.248 NA
ATOM     60  C   UNL     1      -8.472  -0.920  -1.496  1.00  0.00     0.031 C 
ATOM     61  C   UNL     1      -4.790  -3.982   0.636  1.00  0.00     0.029 A 
ATOM     62  C   UNL     1      -4.474  -3.235  -0.494  1.00  0.00     0.049 A 
ATOM     63  H   UNL     1      -2.549  -2.631  -1.114  1.00  0.00     0.167 HD
ATOM     64  C   UNL     1      -6.413  -2.026  -1.347  1.00  0.00     0.074 A 
ATOM     65  C   UNL     1      -7.660  -1.819  -2.072  1.00  0.00     0.031 C 
ATOM     66  C   UNL     1      -5.287  -2.764  -1.637  1.00  0.00     0.031 A 
BRANCH  53  67
ATOM     67  C   UNL     1       0.034  -3.117   1.183  1.00  0.00    -0.014 A 
ATOM     68  C   UNL     1       0.418  -4.461   1.044  1.00  0.00     0.010 A 
ATOM     69  C   UNL     1       1.127  -2.213   1.211  1.00  0.00     0.010 A 
ATOM     70  C   UNL     1       1.783  -4.865   1.075  1.00  0.00     0.020 A 
ATOM     71  C   UNL     1       2.478  -2.591   1.321  1.00  0.00     0.020 A 
ATOM     72  C   UNL     1       2.803  -3.930   1.274  1.00  0.00     0.054 A 
BRANCH  72  73
ATOM     73  S   UNL     1       4.532  -4.455   1.472  1.00  0.00     0.124 S 
ATOM     74  O   UNL     1       4.470  -5.285   2.673  1.00  0.00    -0.237 OA
ATOM     75  O   UNL     1       4.796  -5.168   0.227  1.00  0.00    -0.237 OA
ATOM     76  O   UNL     1       5.267  -3.201   1.636  1.00  0.00    -0.744 OA
ENDBRANCH  72  73
ENDBRANCH  53  67
BRANCH  54  77
ATOM     77  C   UNL     1      -8.912   1.621   0.808  1.00  0.00    -0.014 A 
ATOM     78  C   UNL     1      -9.857   1.896   1.838  1.00  0.00     0.010 A 
ATOM     79  C   UNL     1      -8.284   2.721   0.200  1.00  0.00     0.010 A 
ATOM     80  C   UNL     1     -10.019   3.179   2.371  1.00  0.00     0.020 A 
ATOM     81  C   UNL     1      -8.498   4.033   0.695  1.00  0.00     0.020 A 
ATOM     82  C   UNL     1      -9.306   4.237   1.823  1.00  0.00     0.054 A 
BRANCH  82  83
ATOM     83  S   UNL     1      -9.311   5.809   2.748  1.00  0.00     0.124 S 
ATOM     84  O   UNL     1     -10.725   6.166   2.767  1.00  0.00    -0.237 OA
ATOM     85  O   UNL     1      -8.754   5.401   4.040  1.00  0.00    -0.237 OA
ATOM     86  O   UNL     1      -8.457   6.679   1.944  1.00  0.00    -0.744 OA
ENDBRANCH  82  83
ENDBRANCH  54  77
BRANCH  66  87
ATOM     87  C   UNL     1      -4.914  -3.130  -3.079  1.00  0.00    -0.014 A 
ATOM     88  C   UNL     1      -5.646  -2.696  -4.202  1.00  0.00     0.010 A 
ATOM     89  C   UNL     1      -3.721  -3.829  -3.377  1.00  0.00     0.010 A 
ATOM     90  C   UNL     1      -5.307  -3.039  -5.513  1.00  0.00     0.020 A 
ATOM     91  C   UNL     1      -3.316  -4.105  -4.696  1.00  0.00     0.020 A 
ATOM     92  C   UNL     1      -4.143  -3.749  -5.755  1.00  0.00     0.054 A 
BRANCH  92  93
ATOM     93  S   UNL     1      -3.730  -4.152  -7.467  1.00  0.00     0.124 S 
ATOM     94  O   UNL     1      -4.623  -5.278  -7.730  1.00  0.00    -0.237 OA
ATOM     95  O   UNL     1      -4.060  -2.917  -8.176  1.00  0.00    -0.237 OA
ATOM     96  O   UNL     1      -2.308  -4.474  -7.414  1.00  0.00    -0.744 OA
ENDBRANCH  92  93
ENDBRANCH  66  87
ENDBRANCH  40  41
ENDBRANCH  33  35
ENDBRANCH  32  33
ENDBRANCH  31  32
ENDBRANCH  30  31
ENDBRANCH  29  30
ENDBRANCH  28  29
ENDBRANCH   1  28
TORSDOF 23
