REMARK SMILES C[C@@H](C(=O)OCCOCCOCCOC(=O)c1ccc(-c2c3nc(c(-c4ccc(S(=O)(=O)[O-])cc4)c4ccc([nH]4)c(-c4ccc(S(=O)(=O)[O-])cc4)c4nc(c(-c5ccc(S(=O)(=O)[O-])cc5)c5ccc2[nH]5)C=C4)C=C3)cc1)c1ccc(C[C@H]2CCCC2=O)cc1Cl
REMARK SMILES IDX 9 1 8 2 7 3 6 4 5 5 3 6 4 7 2 8 1 9 77 10 78 11 89 12 79 13
REMARK SMILES IDX 88 14 90 15 80 16 81 17 82 18 83 19 86 20 84 21 85 22 87 23
REMARK SMILES IDX 10 24 11 25 12 26 13 27 14 28 15 29 16 30 17 31 18 32 76 33
REMARK SMILES IDX 19 34 75 35 20 36 21 37 22 38 69 39 23 40 74 41 68 42 70 43
REMARK SMILES IDX 24 44 73 45 67 46 66 47 25 49 55 50 36 51 54 52 37 53 40 54
REMARK SMILES IDX 53 55 71 56 38 57 39 58 52 60 72 61 41 62 26 63 27 64 35 65
REMARK SMILES IDX 28 66 34 67 29 68 30 69 31 70 32 71 33 72 56 73 57 74 65 75
REMARK SMILES IDX 58 76 64 77 59 78 60 79 61 80 62 81 63 82 42 83 43 84 51 85
REMARK SMILES IDX 44 86 50 87 45 88 46 89 47 90 48 91 49 92
REMARK H PARENT 70 48 40 59
REMARK Flexibility Score: inf
ROOT
ATOM      1  C   UNL     1       0.884  -3.596  -0.768  1.00  0.00     0.188 C 
ENDROOT
BRANCH   1   2
ATOM      2  O   UNL     1       1.762  -4.491  -1.422  1.00  0.00    -0.376 OA
BRANCH   2   3
ATOM      3  C   UNL     1       2.222  -4.151  -2.719  1.00  0.00     0.202 C 
BRANCH   3   4
ATOM      4  C   UNL     1       2.791  -2.746  -2.966  1.00  0.00     0.261 C 
BRANCH   4   5
ATOM      5  O   UNL     1       2.000  -1.687  -2.400  1.00  0.00    -0.463 OA
BRANCH   5   6
ATOM      6  C   UNL     1       1.262  -0.891  -3.215  1.00  0.00     0.313 C 
ATOM      7  O   UNL     1       1.235  -0.998  -4.435  1.00  0.00    -0.252 OA
BRANCH   6   8
ATOM      8  C   UNL     1       0.511   0.190  -2.435  1.00  0.00     0.127 C 
ATOM      9  C   UNL     1       1.190   0.559  -1.094  1.00  0.00     0.025 C 
BRANCH   8  10
ATOM     10  C   UNL     1      -1.006   0.067  -2.236  1.00  0.00    -0.015 A 
ATOM     11  C   UNL     1      -1.639   1.217  -1.712  1.00  0.00     0.006 A 
ATOM     12  C   UNL     1      -1.843  -1.026  -2.503  1.00  0.00     0.045 A 
ATOM     13  C   UNL     1      -3.006   1.260  -1.417  1.00  0.00     0.004 A 
ATOM     14  C   UNL     1      -3.209  -0.992  -2.147  1.00  0.00     0.024 A 
ATOM     15  Cl  UNL     1      -1.353  -2.452  -3.341  1.00  0.00    -0.084 Cl
ATOM     16  C   UNL     1      -3.810   0.136  -1.571  1.00  0.00    -0.046 A 
BRANCH  16  17
ATOM     17  C   UNL     1      -5.308   0.159  -1.332  1.00  0.00     0.047 C 
BRANCH  17  18
ATOM     18  C   UNL     1      -5.906   0.681  -0.014  1.00  0.00     0.060 C 
ATOM     19  C   UNL     1      -5.559  -0.103   1.253  1.00  0.00     0.012 C 
ATOM     20  C   UNL     1      -5.459   2.072   0.364  1.00  0.00     0.136 C 
ATOM     21  C   UNL     1      -4.369   0.612   1.876  1.00  0.00     0.009 C 
ATOM     22  C   UNL     1      -4.626   2.091   1.621  1.00  0.00     0.076 C 
ATOM     23  O   UNL     1      -5.722   3.080  -0.281  1.00  0.00    -0.299 OA
ENDBRANCH  17  18
ENDBRANCH  16  17
ENDBRANCH   8  10
ENDBRANCH   6   8
ENDBRANCH   5   6
ENDBRANCH   4   5
ENDBRANCH   3   4
ENDBRANCH   2   3
ENDBRANCH   1   2
BRANCH   1  24
ATOM     24  C   UNL     1       1.557  -2.806   0.369  1.00  0.00     0.188 C 
BRANCH  24  25
ATOM     25  O   UNL     1       2.890  -3.119   0.747  1.00  0.00    -0.376 OA
BRANCH  25  26
ATOM     26  C   UNL     1       3.229  -4.487   0.927  1.00  0.00     0.202 C 
BRANCH  26  27
ATOM     27  C   UNL     1       2.360  -5.357   1.852  1.00  0.00     0.261 C 
BRANCH  27  28
ATOM     28  O   UNL     1       0.946  -5.365   1.568  1.00  0.00    -0.460 OA
BRANCH  28  29
ATOM     29  C   UNL     1       0.147  -4.819   2.523  1.00  0.00     0.338 C 
ATOM     30  O   UNL     1       0.499  -4.342   3.586  1.00  0.00    -0.246 OA
BRANCH  29  31
ATOM     31  C   UNL     1      -1.249  -4.720   2.040  1.00  0.00     0.060 A 
ATOM     32  C   UNL     1      -1.787  -3.450   1.790  1.00  0.00     0.016 A 
ATOM     33  C   UNL     1      -2.059  -5.851   1.938  1.00  0.00     0.016 A 
ATOM     34  C   UNL     1      -3.135  -3.309   1.456  1.00  0.00     0.010 A 
ATOM     35  C   UNL     1      -3.421  -5.702   1.633  1.00  0.00     0.010 A 
ATOM     36  C   UNL     1      -3.977  -4.428   1.420  1.00  0.00    -0.014 A 
BRANCH  36  37
ATOM     37  C   UNL     1      -5.454  -4.252   1.333  1.00  0.00     0.031 A 
ATOM     38  C   UNL     1      -6.270  -4.290   2.599  1.00  0.00     0.074 A 
ATOM     39  C   UNL     1      -6.074  -4.039   0.157  1.00  0.00     0.049 A 
ATOM     40  N   UNL     1      -7.568  -4.227   2.751  1.00  0.00    -0.248 NA
ATOM     41  C   UNL     1      -5.520  -4.427   3.857  1.00  0.00     0.031 C 
ATOM     42  C   UNL     1      -5.410  -3.944  -1.138  1.00  0.00     0.029 A 
ATOM     43  N   UNL     1      -7.406  -3.857  -0.134  1.00  0.00    -0.354 N 
ATOM     44  C   UNL     1      -7.796  -4.364   4.116  1.00  0.00     0.074 A 
ATOM     45  C   UNL     1      -6.500  -4.505   4.746  1.00  0.00     0.031 C 
ATOM     46  C   UNL     1      -6.333  -3.696  -2.085  1.00  0.00     0.029 A 
ATOM     47  C   UNL     1      -7.662  -3.674  -1.473  1.00  0.00     0.049 A 
ATOM     48  H   UNL     1      -8.112  -3.859   0.553  1.00  0.00     0.167 HD
ATOM     49  C   UNL     1      -8.975  -4.389   4.785  1.00  0.00     0.031 A 
ATOM     50  C   UNL     1      -8.830  -3.533  -2.135  1.00  0.00     0.031 A 
ATOM     51  C   UNL     1     -10.268  -4.271   4.162  1.00  0.00     0.049 A 
ATOM     52  C   UNL     1     -10.133  -3.605  -1.375  1.00  0.00     0.074 A 
ATOM     53  C   UNL     1     -11.515  -4.293   4.763  1.00  0.00     0.029 A 
ATOM     54  N   UNL     1     -10.484  -4.118   2.801  1.00  0.00    -0.354 N 
ATOM     55  N   UNL     1     -10.330  -3.740  -0.085  1.00  0.00    -0.248 NA
ATOM     56  C   UNL     1     -11.372  -3.525  -2.165  1.00  0.00     0.031 C 
ATOM     57  C   UNL     1     -12.487  -4.215   3.759  1.00  0.00     0.029 A 
ATOM     58  C   UNL     1     -11.844  -4.068   2.541  1.00  0.00     0.049 A 
ATOM     59  H   UNL     1      -9.776  -4.055   2.120  1.00  0.00     0.167 HD
ATOM     60  C   UNL     1     -11.713  -3.751   0.090  1.00  0.00     0.074 A 
ATOM     61  C   UNL     1     -12.302  -3.578  -1.221  1.00  0.00     0.031 C 
ATOM     62  C   UNL     1     -12.428  -3.899   1.233  1.00  0.00     0.031 A 
BRANCH  49  63
ATOM     63  C   UNL     1      -8.920  -4.617   6.274  1.00  0.00    -0.014 A 
ATOM     64  C   UNL     1      -8.432  -3.632   7.151  1.00  0.00     0.010 A 
ATOM     65  C   UNL     1      -9.392  -5.832   6.804  1.00  0.00     0.010 A 
ATOM     66  C   UNL     1      -8.374  -3.877   8.525  1.00  0.00     0.020 A 
ATOM     67  C   UNL     1      -9.366  -6.068   8.181  1.00  0.00     0.020 A 
ATOM     68  C   UNL     1      -8.838  -5.096   9.031  1.00  0.00     0.054 A 
BRANCH  68  69
ATOM     69  S   UNL     1      -8.759  -5.381  10.820  1.00  0.00     0.124 S 
ATOM     70  O   UNL     1      -7.324  -5.550  11.034  1.00  0.00    -0.237 OA
ATOM     71  O   UNL     1      -9.335  -4.155  11.365  1.00  0.00    -0.237 OA
ATOM     72  O   UNL     1      -9.563  -6.585  11.016  1.00  0.00    -0.744 OA
ENDBRANCH  68  69
ENDBRANCH  49  63
BRANCH  50  73
ATOM     73  C   UNL     1      -8.836  -3.347  -3.616  1.00  0.00    -0.014 A 
ATOM     74  C   UNL     1      -9.289  -2.144  -4.188  1.00  0.00     0.010 A 
ATOM     75  C   UNL     1      -8.401  -4.381  -4.466  1.00  0.00     0.010 A 
ATOM     76  C   UNL     1      -9.317  -1.984  -5.577  1.00  0.00     0.020 A 
ATOM     77  C   UNL     1      -8.393  -4.211  -5.853  1.00  0.00     0.020 A 
ATOM     78  C   UNL     1      -8.862  -3.017  -6.401  1.00  0.00     0.054 A 
BRANCH  78  79
ATOM     79  S   UNL     1      -8.851  -2.767  -8.198  1.00  0.00     0.124 S 
ATOM     80  O   UNL     1     -10.271  -2.850  -8.525  1.00  0.00    -0.237 OA
ATOM     81  O   UNL     1      -8.247  -1.444  -8.328  1.00  0.00    -0.237 OA
ATOM     82  O   UNL     1      -8.030  -3.870  -8.691  1.00  0.00    -0.744 OA
ENDBRANCH  78  79
ENDBRANCH  50  73
BRANCH  62  83
ATOM     83  C   UNL     1     -13.934  -3.849   1.136  1.00  0.00    -0.014 A 
ATOM     84  C   UNL     1     -14.668  -4.894   0.546  1.00  0.00     0.010 A 
ATOM     85  C   UNL     1     -14.630  -2.765   1.704  1.00  0.00     0.010 A 
ATOM     86  C   UNL     1     -16.065  -4.841   0.499  1.00  0.00     0.020 A 
ATOM     87  C   UNL     1     -16.027  -2.722   1.685  1.00  0.00     0.020 A 
ATOM     88  C   UNL     1     -16.736  -3.755   1.070  1.00  0.00     0.054 A 
BRANCH  88  89
ATOM     89  S   UNL     1     -18.551  -3.732   1.036  1.00  0.00     0.124 S 
ATOM     90  O   UNL     1     -18.825  -3.467  -0.374  1.00  0.00    -0.237 OA
ATOM     91  O   UNL     1     -18.897  -5.072   1.502  1.00  0.00    -0.237 OA
ATOM     92  O   UNL     1     -18.901  -2.649   1.952  1.00  0.00    -0.744 OA
ENDBRANCH  88  89
ENDBRANCH  62  83
ENDBRANCH  36  37
ENDBRANCH  29  31
ENDBRANCH  28  29
ENDBRANCH  27  28
ENDBRANCH  26  27
ENDBRANCH  25  26
ENDBRANCH  24  25
ENDBRANCH   1  24
TORSDOF 23
