REMARK SMILES COC(=O)[C@@H]1CCN(C(=O)NC(=O)COCC(=O)OCCOCCOCCOC(=O)c2ccc(-c3c4nc(c(-c5ccc(S(=O)(=O)[O-])cc5)c5ccc([nH]5)c(-c5ccc(S(=O)(=O)[O-])cc5)c5nc(c(-c6ccc(S(=O)(=O)[O-])cc6)c6ccc3[nH]6)C=C5)C=C4)cc2)C1
REMARK SMILES IDX 22 1 21 2 20 3 19 4 17 5 18 6 16 7 15 8 14 9 12 10 9 11
REMARK SMILES IDX 10 12 11 13 13 15 8 16 5 17 6 18 91 19 7 20 3 21 4 22 2 23
REMARK SMILES IDX 1 24 23 25 24 26 25 27 26 28 27 29 28 30 29 31 30 32 31 33
REMARK SMILES IDX 32 34 90 35 33 36 89 37 34 38 35 39 36 40 83 41 37 42 88 43
REMARK SMILES IDX 82 44 84 45 38 46 87 47 81 48 80 49 39 51 69 52 50 53 68 54
REMARK SMILES IDX 51 55 54 56 67 57 85 58 52 59 53 60 66 62 86 63 55 64 40 65
REMARK SMILES IDX 41 66 49 67 42 68 48 69 43 70 44 71 45 72 46 73 47 74 70 75
REMARK SMILES IDX 71 76 79 77 72 78 78 79 73 80 74 81 75 82 76 83 77 84 56 85
REMARK SMILES IDX 57 86 65 87 58 88 64 89 59 90 60 91 61 92 62 93 63 94
REMARK H PARENT 11 14 84 50 54 61
REMARK Flexibility Score: inf
ROOT
ATOM      1  O   UNL     1      -1.489  -0.352  -5.383  1.00  0.00    -0.376 OA
ENDROOT
BRANCH   1   2
ATOM      2  C   UNL     1      -0.767  -1.263  -4.563  1.00  0.00     0.202 C 
BRANCH   2   3
ATOM      3  C   UNL     1       0.626  -0.823  -4.081  1.00  0.00     0.261 C 
BRANCH   3   4
ATOM      4  O   UNL     1       0.701   0.486  -3.476  1.00  0.00    -0.462 OA
BRANCH   4   5
ATOM      5  C   UNL     1       1.425   1.414  -4.172  1.00  0.00     0.332 C 
ATOM      6  O   UNL     1       1.990   1.197  -5.239  1.00  0.00    -0.250 OA
BRANCH   5   7
ATOM      7  C   UNL     1       1.530   2.775  -3.455  1.00  0.00     0.283 C 
BRANCH   7   8
ATOM      8  O   UNL     1       0.644   3.112  -2.398  1.00  0.00    -0.360 OA
BRANCH   8   9
ATOM      9  C   UNL     1      -0.581   3.659  -2.841  1.00  0.00     0.261 C 
BRANCH   9  10
ATOM     10  C   UNL     1      -0.821   5.162  -2.667  1.00  0.00     0.254 C 
ATOM     11  C   UNL     1      -0.117   5.593  -0.420  1.00  0.00     0.324 C 
ATOM     12  O   UNL     1       0.643   6.538  -0.211  1.00  0.00    -0.248 OA
ATOM     13  N   UNL     1      -1.035   5.683  -1.419  1.00  0.00    -0.276 N 
ATOM     14  H   UNL     1      -1.888   6.141  -1.237  1.00  0.00     0.174 HD
ATOM     15  O   UNL     1      -0.909   5.905  -3.647  1.00  0.00    -0.272 OA
BRANCH  11  16
ATOM     16  N   UNL     1      -0.152   4.499   0.394  1.00  0.00    -0.324 N 
ATOM     17  C   UNL     1       0.442   3.101   2.217  1.00  0.00     0.120 C 
ATOM     18  C   UNL     1      -1.044   2.926   1.895  1.00  0.00     0.039 C 
ATOM     19  C   UNL     1       0.852   4.337   1.435  1.00  0.00     0.136 C 
ATOM     20  C   UNL     1      -1.182   3.478   0.482  1.00  0.00     0.122 C 
BRANCH  17  21
ATOM     21  C   UNL     1       1.287   1.898   1.859  1.00  0.00     0.310 C 
ATOM     22  O   UNL     1       2.171   1.459   2.584  1.00  0.00    -0.252 OA
BRANCH  21  23
ATOM     23  O   UNL     1       0.928   1.362   0.665  1.00  0.00    -0.469 OA
ATOM     24  C   UNL     1       1.570   0.132   0.337  1.00  0.00     0.282 C 
ENDBRANCH  21  23
ENDBRANCH  17  21
ENDBRANCH  11  16
ENDBRANCH   9  10
ENDBRANCH   8   9
ENDBRANCH   7   8
ENDBRANCH   5   7
ENDBRANCH   4   5
ENDBRANCH   3   4
ENDBRANCH   2   3
ENDBRANCH   1   2
BRANCH   1  25
ATOM     25  C   UNL     1      -1.974   0.817  -4.740  1.00  0.00     0.188 C 
BRANCH  25  26
ATOM     26  C   UNL     1      -2.993   0.609  -3.620  1.00  0.00     0.188 C 
BRANCH  26  27
ATOM     27  O   UNL     1      -2.533  -0.196  -2.540  1.00  0.00    -0.376 OA
BRANCH  27  28
ATOM     28  C   UNL     1      -3.361  -0.226  -1.372  1.00  0.00     0.202 C 
BRANCH  28  29
ATOM     29  C   UNL     1      -4.891  -0.277  -1.573  1.00  0.00     0.261 C 
BRANCH  29  30
ATOM     30  O   UNL     1      -5.456   0.848  -2.282  1.00  0.00    -0.460 OA
BRANCH  30  31
ATOM     31  C   UNL     1      -5.236   2.085  -1.777  1.00  0.00     0.338 C 
ATOM     32  O   UNL     1      -4.747   2.346  -0.689  1.00  0.00    -0.246 OA
BRANCH  31  33
ATOM     33  C   UNL     1      -5.399   3.072  -2.879  1.00  0.00     0.060 A 
ATOM     34  C   UNL     1      -4.422   4.069  -3.010  1.00  0.00     0.016 A 
ATOM     35  C   UNL     1      -6.421   2.977  -3.826  1.00  0.00     0.016 A 
ATOM     36  C   UNL     1      -4.457   4.964  -4.083  1.00  0.00     0.010 A 
ATOM     37  C   UNL     1      -6.474   3.893  -4.886  1.00  0.00     0.010 A 
ATOM     38  C   UNL     1      -5.498   4.899  -5.018  1.00  0.00    -0.014 A 
BRANCH  38  39
ATOM     39  C   UNL     1      -5.653   5.970  -6.038  1.00  0.00     0.031 A 
ATOM     40  C   UNL     1      -6.619   7.091  -5.764  1.00  0.00     0.074 A 
ATOM     41  C   UNL     1      -4.927   5.987  -7.172  1.00  0.00     0.049 A 
ATOM     42  N   UNL     1      -6.987   8.078  -6.538  1.00  0.00    -0.248 NA
ATOM     43  C   UNL     1      -7.243   7.101  -4.432  1.00  0.00     0.031 C 
ATOM     44  C   UNL     1      -3.876   5.034  -7.522  1.00  0.00     0.029 A 
ATOM     45  N   UNL     1      -4.966   6.852  -8.240  1.00  0.00    -0.354 N 
ATOM     46  C   UNL     1      -7.894   8.823  -5.794  1.00  0.00     0.074 A 
ATOM     47  C   UNL     1      -8.031   8.163  -4.513  1.00  0.00     0.031 C 
ATOM     48  C   UNL     1      -3.369   5.368  -8.723  1.00  0.00     0.029 A 
ATOM     49  C   UNL     1      -4.096   6.522  -9.253  1.00  0.00     0.049 A 
ATOM     50  H   UNL     1      -5.561   7.635  -8.277  1.00  0.00     0.167 HD
ATOM     51  C   UNL     1      -8.558   9.951  -6.143  1.00  0.00     0.031 A 
ATOM     52  C   UNL     1      -3.928   7.062 -10.479  1.00  0.00     0.031 A 
ATOM     53  C   UNL     1      -8.443  10.598  -7.421  1.00  0.00     0.049 A 
ATOM     54  C   UNL     1      -4.790   8.225 -10.906  1.00  0.00     0.074 A 
ATOM     55  C   UNL     1      -9.097  11.732  -7.872  1.00  0.00     0.029 A 
ATOM     56  N   UNL     1      -7.633  10.165  -8.459  1.00  0.00    -0.354 N 
ATOM     57  N   UNL     1      -5.671   8.900 -10.206  1.00  0.00    -0.248 NA
ATOM     58  C   UNL     1      -4.651   8.684 -12.297  1.00  0.00     0.031 C 
ATOM     59  C   UNL     1      -8.730  11.947  -9.205  1.00  0.00     0.029 A 
ATOM     60  C   UNL     1      -7.801  10.983  -9.564  1.00  0.00     0.049 A 
ATOM     61  H   UNL     1      -7.026   9.391  -8.417  1.00  0.00     0.167 HD
ATOM     62  C   UNL     1      -6.180   9.869 -11.067  1.00  0.00     0.074 A 
ATOM     63  C   UNL     1      -5.499   9.704 -12.334  1.00  0.00     0.031 C 
ATOM     64  C   UNL     1      -7.130  10.807 -10.828  1.00  0.00     0.031 A 
BRANCH  51  65
ATOM     65  C   UNL     1      -9.526  10.513  -5.138  1.00  0.00    -0.014 A 
ATOM     66  C   UNL     1      -9.081  11.153  -3.967  1.00  0.00     0.010 A 
ATOM     67  C   UNL     1     -10.908  10.398  -5.374  1.00  0.00     0.010 A 
ATOM     68  C   UNL     1     -10.002  11.620  -3.026  1.00  0.00     0.020 A 
ATOM     69  C   UNL     1     -11.832  10.887  -4.448  1.00  0.00     0.020 A 
ATOM     70  C   UNL     1     -11.372  11.475  -3.268  1.00  0.00     0.054 A 
BRANCH  70  71
ATOM     71  S   UNL     1     -12.546  12.070  -2.021  1.00  0.00     0.124 S 
ATOM     72  O   UNL     1     -12.396  11.070  -0.967  1.00  0.00    -0.237 OA
ATOM     73  O   UNL     1     -12.031  13.399  -1.703  1.00  0.00    -0.237 OA
ATOM     74  O   UNL     1     -13.831  12.052  -2.716  1.00  0.00    -0.744 OA
ENDBRANCH  70  71
ENDBRANCH  51  65
BRANCH  52  75
ATOM     75  C   UNL     1      -2.943   6.468 -11.428  1.00  0.00    -0.014 A 
ATOM     76  C   UNL     1      -1.796   7.182 -11.818  1.00  0.00     0.010 A 
ATOM     77  C   UNL     1      -3.157   5.181 -11.957  1.00  0.00     0.010 A 
ATOM     78  C   UNL     1      -0.884   6.621 -12.720  1.00  0.00     0.020 A 
ATOM     79  C   UNL     1      -2.234   4.606 -12.836  1.00  0.00     0.020 A 
ATOM     80  C   UNL     1      -1.106   5.334 -13.218  1.00  0.00     0.054 A 
BRANCH  80  81
ATOM     81  S   UNL     1       0.121   4.600 -14.336  1.00  0.00     0.124 S 
ATOM     82  O   UNL     1      -0.102   5.351 -15.568  1.00  0.00    -0.237 OA
ATOM     83  O   UNL     1       1.379   4.875 -13.647  1.00  0.00    -0.237 OA
ATOM     84  O   UNL     1      -0.260   3.190 -14.385  1.00  0.00    -0.744 OA
ENDBRANCH  80  81
ENDBRANCH  52  75
BRANCH  64  85
ATOM     85  C   UNL     1      -7.501  11.740 -11.952  1.00  0.00    -0.014 A 
ATOM     86  C   UNL     1      -8.285  11.295 -13.031  1.00  0.00     0.010 A 
ATOM     87  C   UNL     1      -7.142  13.099 -11.883  1.00  0.00     0.010 A 
ATOM     88  C   UNL     1      -8.695  12.189 -14.025  1.00  0.00     0.020 A 
ATOM     89  C   UNL     1      -7.570  14.001 -12.862  1.00  0.00     0.020 A 
ATOM     90  C   UNL     1      -8.341  13.539 -13.931  1.00  0.00     0.054 A 
BRANCH  90  91
ATOM     91  S   UNL     1      -8.952  14.691 -15.192  1.00  0.00     0.124 S 
ATOM     92  O   UNL     1      -8.150  14.325 -16.356  1.00  0.00    -0.237 OA
ATOM     93  O   UNL     1     -10.371  14.352 -15.275  1.00  0.00    -0.237 OA
ATOM     94  O   UNL     1      -8.665  16.009 -14.628  1.00  0.00    -0.744 OA
ENDBRANCH  90  91
ENDBRANCH  64  85
ENDBRANCH  38  39
ENDBRANCH  31  33
ENDBRANCH  30  31
ENDBRANCH  29  30
ENDBRANCH  28  29
ENDBRANCH  27  28
ENDBRANCH  26  27
ENDBRANCH  25  26
ENDBRANCH   1  25
TORSDOF 26
