REMARK SMILES Cc1c(CC(=O)OCCOCCOCCOC(=O)c2ccc(-c3c4nc(c(-c5ccc(S(=O)(=O)[O-])cc5)c5ccc([nH]5)c(-c5ccc(S(=O)(=O)[O-])cc5)c5nc(c(-c6ccc(S(=O)(=O)[O-])cc6)c6ccc3[nH]6)C=C5)C=C4)cc2)c2ccccc2n1C(=O)c1ccc(Cl)cc1
REMARK SMILES IDX 11 1 10 2 9 3 8 4 7 5 5 6 6 7 4 8 3 9 1 10 2 11 85 12 79 13
REMARK SMILES IDX 84 14 80 15 83 16 81 17 82 18 86 19 87 20 88 21 89 22 94 23
REMARK SMILES IDX 90 24 93 25 91 26 92 27 12 28 13 29 14 30 15 31 16 32 17 33
REMARK SMILES IDX 18 34 19 35 20 36 78 37 21 38 77 39 22 40 23 41 24 42 71 43
REMARK SMILES IDX 25 44 76 45 70 46 72 47 26 48 75 49 69 50 68 51 27 53 57 54
REMARK SMILES IDX 38 55 56 56 39 57 42 58 55 59 73 60 40 61 41 62 54 64 74 65
REMARK SMILES IDX 43 66 28 67 29 68 37 69 30 70 36 71 31 72 32 73 33 74 34 75
REMARK SMILES IDX 35 76 58 77 59 78 67 79 60 80 66 81 61 82 62 83 63 84 64 85
REMARK SMILES IDX 65 86 44 87 45 88 53 89 46 90 52 91 47 92 48 93 49 94 50 95
REMARK SMILES IDX 51 96
REMARK H PARENT 72 52 42 63
REMARK Flexibility Score: inf
ROOT
ATOM      1  C   UNL     1      -3.687  -2.381  -3.719  1.00  0.00     0.188 C 
ENDROOT
BRANCH   1   2
ATOM      2  O   UNL     1      -4.676  -2.866  -2.845  1.00  0.00    -0.376 OA
BRANCH   2   3
ATOM      3  C   UNL     1      -4.912  -2.210  -1.619  1.00  0.00     0.202 C 
BRANCH   3   4
ATOM      4  C   UNL     1      -3.793  -2.188  -0.563  1.00  0.00     0.261 C 
BRANCH   4   5
ATOM      5  O   UNL     1      -2.675  -1.277  -0.810  1.00  0.00    -0.463 OA
BRANCH   5   6
ATOM      6  C   UNL     1      -1.632  -1.896  -1.404  1.00  0.00     0.310 C 
ATOM      7  O   UNL     1      -1.738  -3.074  -1.736  1.00  0.00    -0.252 OA
BRANCH   6   8
ATOM      8  C   UNL     1      -0.345  -1.165  -1.711  1.00  0.00     0.160 C 
BRANCH   8   9
ATOM      9  C   UNL     1      -0.161   0.327  -1.826  1.00  0.00    -0.008 A 
ATOM     10  C   UNL     1       0.795   0.745   0.544  1.00  0.00     0.065 C 
ATOM     11  C   UNL     1       0.391   1.137  -0.839  1.00  0.00     0.028 A 
ATOM     12  N   UNL     1       0.591   2.416  -1.364  1.00  0.00    -0.280 N 
ATOM     13  C   UNL     1      -0.112   1.107  -3.034  1.00  0.00     0.004 A 
ATOM     14  C   UNL     1       0.492   2.326  -2.756  1.00  0.00     0.056 A 
ATOM     15  C   UNL     1      -0.414   0.857  -4.383  1.00  0.00     0.010 A 
ATOM     16  C   UNL     1       0.874   3.198  -3.813  1.00  0.00     0.027 A 
ATOM     17  C   UNL     1      -0.084   1.726  -5.428  1.00  0.00     0.001 A 
ATOM     18  C   UNL     1       0.579   2.892  -5.140  1.00  0.00     0.002 A 
BRANCH  12  19
ATOM     19  C   UNL     1       0.847   3.611  -0.633  1.00  0.00     0.262 C 
ATOM     20  O   UNL     1       1.128   3.570   0.538  1.00  0.00    -0.268 OA
BRANCH  19  21
ATOM     21  C   UNL     1       0.719   4.935  -1.290  1.00  0.00     0.040 A 
ATOM     22  C   UNL     1      -0.542   5.332  -1.755  1.00  0.00     0.015 A 
ATOM     23  C   UNL     1       1.883   5.610  -1.668  1.00  0.00     0.015 A 
ATOM     24  C   UNL     1      -0.630   6.376  -2.675  1.00  0.00     0.021 A 
ATOM     25  C   UNL     1       1.786   6.646  -2.601  1.00  0.00     0.021 A 
ATOM     26  C   UNL     1       0.535   7.010  -3.112  1.00  0.00     0.041 A 
ATOM     27  Cl  UNL     1       0.436   8.197  -4.354  1.00  0.00    -0.084 Cl
ENDBRANCH  19  21
ENDBRANCH  12  19
ENDBRANCH   8   9
ENDBRANCH   6   8
ENDBRANCH   5   6
ENDBRANCH   4   5
ENDBRANCH   3   4
ENDBRANCH   2   3
ENDBRANCH   1   2
BRANCH   1  28
ATOM     28  C   UNL     1      -3.335  -0.887  -3.769  1.00  0.00     0.188 C 
BRANCH  28  29
ATOM     29  O   UNL     1      -4.380   0.059  -3.749  1.00  0.00    -0.376 OA
BRANCH  29  30
ATOM     30  C   UNL     1      -5.295  -0.055  -4.827  1.00  0.00     0.202 C 
BRANCH  30  31
ATOM     31  C   UNL     1      -4.673  -0.197  -6.242  1.00  0.00     0.261 C 
BRANCH  31  32
ATOM     32  O   UNL     1      -4.017  -1.491  -6.447  1.00  0.00    -0.460 OA
BRANCH  32  33
ATOM     33  C   UNL     1      -2.818  -1.497  -7.105  1.00  0.00     0.338 C 
ATOM     34  O   UNL     1      -2.456  -0.606  -7.861  1.00  0.00    -0.246 OA
BRANCH  33  35
ATOM     35  C   UNL     1      -1.832  -2.469  -6.479  1.00  0.00     0.060 A 
ATOM     36  C   UNL     1      -2.029  -3.800  -6.097  1.00  0.00     0.016 A 
ATOM     37  C   UNL     1      -0.624  -1.888  -6.102  1.00  0.00     0.016 A 
ATOM     38  C   UNL     1      -1.107  -4.445  -5.203  1.00  0.00     0.010 A 
ATOM     39  C   UNL     1       0.236  -2.487  -5.169  1.00  0.00     0.010 A 
ATOM     40  C   UNL     1      -0.014  -3.756  -4.636  1.00  0.00    -0.014 A 
BRANCH  40  41
ATOM     41  C   UNL     1       1.134  -4.365  -3.882  1.00  0.00     0.031 A 
ATOM     42  C   UNL     1       2.075  -4.937  -4.849  1.00  0.00     0.074 A 
ATOM     43  C   UNL     1       1.536  -4.441  -2.581  1.00  0.00     0.049 A 
ATOM     44  N   UNL     1       1.883  -6.102  -5.370  1.00  0.00    -0.248 NA
ATOM     45  C   UNL     1       3.141  -4.148  -5.471  1.00  0.00     0.031 C 
ATOM     46  C   UNL     1       0.803  -4.110  -1.379  1.00  0.00     0.029 A 
ATOM     47  N   UNL     1       2.747  -4.843  -2.031  1.00  0.00    -0.354 N 
ATOM     48  C   UNL     1       2.997  -6.318  -6.140  1.00  0.00     0.074 A 
ATOM     49  C   UNL     1       3.536  -5.007  -6.417  1.00  0.00     0.031 C 
ATOM     50  C   UNL     1       1.598  -4.022  -0.292  1.00  0.00     0.029 A 
ATOM     51  C   UNL     1       2.908  -4.540  -0.665  1.00  0.00     0.049 A 
ATOM     52  H   UNL     1       3.440  -5.305  -2.556  1.00  0.00     0.167 HD
ATOM     53  C   UNL     1       3.576  -7.548  -6.142  1.00  0.00     0.031 A 
ATOM     54  C   UNL     1       3.638  -5.168   0.298  1.00  0.00     0.031 A 
ATOM     55  C   UNL     1       2.786  -8.504  -5.390  1.00  0.00     0.049 A 
ATOM     56  C   UNL     1       3.759  -6.582  -0.089  1.00  0.00     0.074 A 
ATOM     57  C   UNL     1       1.554  -9.107  -5.538  1.00  0.00     0.029 A 
ATOM     58  N   UNL     1       3.123  -8.596  -4.058  1.00  0.00    -0.354 N 
ATOM     59  N   UNL     1       2.762  -7.418  -0.061  1.00  0.00    -0.248 NA
ATOM     60  C   UNL     1       4.932  -7.014  -0.834  1.00  0.00     0.031 C 
ATOM     61  C   UNL     1       1.084  -9.392  -4.223  1.00  0.00     0.029 A 
ATOM     62  C   UNL     1       2.054  -9.007  -3.299  1.00  0.00     0.049 A 
ATOM     63  H   UNL     1       4.016  -8.394  -3.696  1.00  0.00     0.167 HD
ATOM     64  C   UNL     1       3.001  -8.251  -1.136  1.00  0.00     0.074 A 
ATOM     65  C   UNL     1       4.408  -8.066  -1.466  1.00  0.00     0.031 C 
ATOM     66  C   UNL     1       1.978  -8.775  -1.864  1.00  0.00     0.031 A 
BRANCH  53  67
ATOM     67  C   UNL     1       5.029  -7.782  -6.429  1.00  0.00    -0.014 A 
ATOM     68  C   UNL     1       6.003  -6.766  -6.407  1.00  0.00     0.010 A 
ATOM     69  C   UNL     1       5.487  -9.107  -6.551  1.00  0.00     0.010 A 
ATOM     70  C   UNL     1       7.357  -7.035  -6.573  1.00  0.00     0.020 A 
ATOM     71  C   UNL     1       6.851  -9.396  -6.672  1.00  0.00     0.020 A 
ATOM     72  C   UNL     1       7.774  -8.351  -6.706  1.00  0.00     0.054 A 
BRANCH  72  73
ATOM     73  S   UNL     1       9.543  -8.655  -6.881  1.00  0.00     0.124 S 
ATOM     74  O   UNL     1       9.811  -8.087  -8.200  1.00  0.00    -0.237 OA
ATOM     75  O   UNL     1      10.098  -7.913  -5.753  1.00  0.00    -0.237 OA
ATOM     76  O   UNL     1       9.652 -10.108  -6.790  1.00  0.00    -0.744 OA
ENDBRANCH  72  73
ENDBRANCH  53  67
BRANCH  54  77
ATOM     77  C   UNL     1       4.513  -4.544   1.325  1.00  0.00    -0.014 A 
ATOM     78  C   UNL     1       4.936  -3.209   1.193  1.00  0.00     0.010 A 
ATOM     79  C   UNL     1       5.135  -5.337   2.315  1.00  0.00     0.010 A 
ATOM     80  C   UNL     1       6.042  -2.730   1.909  1.00  0.00     0.020 A 
ATOM     81  C   UNL     1       6.242  -4.863   3.037  1.00  0.00     0.020 A 
ATOM     82  C   UNL     1       6.724  -3.579   2.783  1.00  0.00     0.054 A 
BRANCH  82  83
ATOM     83  S   UNL     1       8.308  -3.019   3.477  1.00  0.00     0.124 S 
ATOM     84  O   UNL     1       9.157  -2.980   2.289  1.00  0.00    -0.237 OA
ATOM     85  O   UNL     1       7.965  -1.718   4.045  1.00  0.00    -0.237 OA
ATOM     86  O   UNL     1       8.646  -4.053   4.452  1.00  0.00    -0.744 OA
ENDBRANCH  82  83
ENDBRANCH  54  77
BRANCH  66  87
ATOM     87  C   UNL     1       0.646  -8.989  -1.184  1.00  0.00    -0.014 A 
ATOM     88  C   UNL     1       0.144 -10.304  -1.190  1.00  0.00     0.010 A 
ATOM     89  C   UNL     1      -0.163  -7.969  -0.652  1.00  0.00     0.010 A 
ATOM     90  C   UNL     1      -1.145 -10.589  -0.740  1.00  0.00     0.020 A 
ATOM     91  C   UNL     1      -1.455  -8.252  -0.174  1.00  0.00     0.020 A 
ATOM     92  C   UNL     1      -1.946  -9.558  -0.250  1.00  0.00     0.054 A 
BRANCH  92  93
ATOM     93  S   UNL     1      -3.638  -9.968   0.261  1.00  0.00     0.124 S 
ATOM     94  O   UNL     1      -4.292 -10.231  -1.019  1.00  0.00    -0.237 OA
ATOM     95  O   UNL     1      -3.443 -11.140   1.112  1.00  0.00    -0.237 OA
ATOM     96  O   UNL     1      -4.098  -8.770   0.960  1.00  0.00    -0.744 OA
ENDBRANCH  92  93
ENDBRANCH  66  87
ENDBRANCH  40  41
ENDBRANCH  33  35
ENDBRANCH  32  33
ENDBRANCH  31  32
ENDBRANCH  30  31
ENDBRANCH  29  30
ENDBRANCH  28  29
ENDBRANCH   1  28
TORSDOF 23
