REMARK SMILES C[NH2+][C@]1(C(=O)OCCOCCOCCOC(=O)c2ccc(-c3c4nc(c(-c5ccc(S(=O)(=O)[O-])cc5)c5ccc([nH]5)c(-c5ccc(S(=O)(=O)[O-])cc5)c5nc(c(-c6ccc(S(=O)(=O)[O-])cc6)c6ccc3[nH]6)C=C5)C=C4)cc2)CC[C@H](SC2CCCCC2)C1
REMARK SMILES IDX 11 1 10 2 9 3 8 4 7 5 6 6 4 7 5 8 3 9 78 10 88 11 79 12
REMARK SMILES IDX 80 13 2 14 1 15 81 18 82 19 83 20 87 21 84 22 86 23 85 24
REMARK SMILES IDX 12 25 13 26 14 27 15 28 16 29 17 30 18 31 19 32 77 33 20 34
REMARK SMILES IDX 76 35 21 36 22 37 23 38 70 39 24 40 75 41 69 42 71 43 25 44
REMARK SMILES IDX 74 45 68 46 67 47 26 49 56 50 37 51 55 52 38 53 41 54 54 55
REMARK SMILES IDX 72 56 39 57 40 58 53 60 73 61 42 62 27 63 28 64 36 65 29 66
REMARK SMILES IDX 35 67 30 68 31 69 32 70 33 71 34 72 57 73 58 74 66 75 59 76
REMARK SMILES IDX 65 77 60 78 61 79 62 80 63 81 64 82 43 83 44 84 52 85 45 86
REMARK SMILES IDX 51 87 46 88 47 89 48 90 49 91 50 92
REMARK H PARENT 2 16 2 17 71 48 41 59
REMARK Flexibility Score: inf
ROOT
ATOM      1  C   UNL     1       1.392   2.890  -1.213  1.00  0.00     0.188 C 
ENDROOT
BRANCH   1   2
ATOM      2  C   UNL     1       2.293   2.189  -0.193  1.00  0.00     0.188 C 
BRANCH   2   3
ATOM      3  O   UNL     1       3.549   1.694  -0.634  1.00  0.00    -0.376 OA
BRANCH   3   4
ATOM      4  C   UNL     1       3.614   0.980  -1.865  1.00  0.00     0.202 C 
BRANCH   4   5
ATOM      5  C   UNL     1       2.640  -0.186  -2.121  1.00  0.00     0.261 C 
BRANCH   5   6
ATOM      6  O   UNL     1       1.240   0.167  -2.132  1.00  0.00    -0.459 OA
BRANCH   6   7
ATOM      7  C   UNL     1       0.412  -0.584  -1.352  1.00  0.00     0.368 C 
ATOM      8  O   UNL     1       0.787  -1.556  -0.703  1.00  0.00    -0.245 OA
BRANCH   7   9
ATOM      9  C   UNL     1      -1.071  -0.112  -1.359  1.00  0.00     0.195 C 
ATOM     10  C   UNL     1      -1.462   1.136  -2.167  1.00  0.00     0.082 C 
ATOM     11  C   UNL     1      -1.877  -1.172  -2.147  1.00  0.00     0.095 C 
ATOM     12  C   UNL     1      -2.952   0.981  -2.449  1.00  0.00     0.022 C 
ATOM     13  C   UNL     1      -3.228  -0.521  -2.500  1.00  0.00     0.054 C 
BRANCH   9  14
ATOM     14  N   UNL     1      -1.625  -0.048   0.019  1.00  0.00    -0.335 N 
ATOM     15  C   UNL     1      -0.914   0.784   0.972  1.00  0.00     0.331 C 
ATOM     16  H   UNL     1      -2.579   0.306  -0.048  1.00  0.00     0.347 HD
ATOM     17  H   UNL     1      -1.547  -0.998   0.383  1.00  0.00     0.347 HD
ENDBRANCH   9  14
BRANCH  13  18
ATOM     18  S   UNL     1      -4.536  -1.068  -1.329  1.00  0.00    -0.155 SA
BRANCH  18  19
ATOM     19  C   UNL     1      -6.075  -0.312  -1.990  1.00  0.00     0.047 C 
ATOM     20  C   UNL     1      -6.152   1.213  -1.855  1.00  0.00     0.014 C 
ATOM     21  C   UNL     1      -6.368  -0.771  -3.420  1.00  0.00     0.014 C 
ATOM     22  C   UNL     1      -7.497   1.748  -2.344  1.00  0.00     0.001 C 
ATOM     23  C   UNL     1      -7.708  -0.219  -3.907  1.00  0.00     0.001 C 
ATOM     24  C   UNL     1      -7.770   1.300  -3.778  1.00  0.00     0.000 C 
ENDBRANCH  18  19
ENDBRANCH  13  18
ENDBRANCH   7   9
ENDBRANCH   6   7
ENDBRANCH   5   6
ENDBRANCH   4   5
ENDBRANCH   3   4
ENDBRANCH   2   3
ENDBRANCH   1   2
BRANCH   1  25
ATOM     25  O   UNL     1       1.979   3.166  -2.458  1.00  0.00    -0.376 OA
BRANCH  25  26
ATOM     26  C   UNL     1       2.527   4.440  -2.717  1.00  0.00     0.202 C 
BRANCH  26  27
ATOM     27  C   UNL     1       3.093   5.360  -1.622  1.00  0.00     0.261 C 
BRANCH  27  28
ATOM     28  O   UNL     1       2.530   5.279  -0.307  1.00  0.00    -0.460 OA
BRANCH  28  29
ATOM     29  C   UNL     1       1.348   5.902  -0.091  1.00  0.00     0.338 C 
ATOM     30  O   UNL     1       0.688   6.517  -0.913  1.00  0.00    -0.246 OA
BRANCH  29  31
ATOM     31  C   UNL     1       0.883   5.521   1.266  1.00  0.00     0.060 A 
ATOM     32  C   UNL     1      -0.378   4.925   1.413  1.00  0.00     0.016 A 
ATOM     33  C   UNL     1       1.693   5.730   2.385  1.00  0.00     0.016 A 
ATOM     34  C   UNL     1      -0.842   4.568   2.684  1.00  0.00     0.010 A 
ATOM     35  C   UNL     1       1.219   5.390   3.656  1.00  0.00     0.010 A 
ATOM     36  C   UNL     1      -0.063   4.835   3.818  1.00  0.00    -0.014 A 
BRANCH  36  37
ATOM     37  C   UNL     1      -0.647   4.715   5.180  1.00  0.00     0.031 A 
ATOM     38  C   UNL     1      -1.201   5.954   5.833  1.00  0.00     0.074 A 
ATOM     39  C   UNL     1      -0.681   3.541   5.839  1.00  0.00     0.049 A 
ATOM     40  N   UNL     1      -1.698   6.111   7.033  1.00  0.00    -0.248 NA
ATOM     41  C   UNL     1      -1.191   7.182   5.019  1.00  0.00     0.031 C 
ATOM     42  C   UNL     1      -0.223   2.257   5.312  1.00  0.00     0.029 A 
ATOM     43  N   UNL     1      -1.115   3.248   7.110  1.00  0.00    -0.354 N 
ATOM     44  C   UNL     1      -2.052   7.452   7.122  1.00  0.00     0.074 A 
ATOM     45  C   UNL     1      -1.688   8.071   5.866  1.00  0.00     0.031 C 
ATOM     46  C   UNL     1      -0.388   1.315   6.258  1.00  0.00     0.029 A 
ATOM     47  C   UNL     1      -0.928   1.933   7.469  1.00  0.00     0.049 A 
ATOM     48  H   UNL     1      -1.522   3.916   7.707  1.00  0.00     0.167 HD
ATOM     49  C   UNL     1      -2.631   8.112   8.154  1.00  0.00     0.031 A 
ATOM     50  C   UNL     1      -1.143   1.307   8.645  1.00  0.00     0.031 A 
ATOM     51  C   UNL     1      -2.969   7.507   9.415  1.00  0.00     0.049 A 
ATOM     52  C   UNL     1      -1.702   2.084   9.813  1.00  0.00     0.074 A 
ATOM     53  C   UNL     1      -3.565   8.096  10.517  1.00  0.00     0.029 A 
ATOM     54  N   UNL     1      -2.728   6.184   9.750  1.00  0.00    -0.354 N 
ATOM     55  N   UNL     1      -2.059   3.345   9.873  1.00  0.00    -0.248 NA
ATOM     56  C   UNL     1      -1.893   1.347  11.072  1.00  0.00     0.031 C 
ATOM     57  C   UNL     1      -3.625   7.145  11.541  1.00  0.00     0.029 A 
ATOM     58  C   UNL     1      -3.135   5.945  11.053  1.00  0.00     0.049 A 
ATOM     59  H   UNL     1      -2.328   5.513   9.151  1.00  0.00     0.167 HD
ATOM     60  C   UNL     1      -2.549   3.542  11.162  1.00  0.00     0.074 A 
ATOM     61  C   UNL     1      -2.452   2.269  11.845  1.00  0.00     0.031 C 
ATOM     62  C   UNL     1      -3.038   4.674  11.727  1.00  0.00     0.031 A 
BRANCH  49  63
ATOM     63  C   UNL     1      -2.897   9.584   7.974  1.00  0.00    -0.014 A 
ATOM     64  C   UNL     1      -3.895  10.043   7.095  1.00  0.00     0.010 A 
ATOM     65  C   UNL     1      -2.161  10.520   8.723  1.00  0.00     0.010 A 
ATOM     66  C   UNL     1      -4.124  11.413   6.939  1.00  0.00     0.020 A 
ATOM     67  C   UNL     1      -2.408  11.889   8.593  1.00  0.00     0.020 A 
ATOM     68  C   UNL     1      -3.377  12.328   7.688  1.00  0.00     0.054 A 
BRANCH  68  69
ATOM     69  S   UNL     1      -3.708  14.098   7.479  1.00  0.00     0.124 S 
ATOM     70  O   UNL     1      -3.169  14.350   6.145  1.00  0.00    -0.237 OA
ATOM     71  O   UNL     1      -5.163  14.166   7.592  1.00  0.00    -0.237 OA
ATOM     72  O   UNL     1      -2.971  14.722   8.576  1.00  0.00    -0.744 OA
ENDBRANCH  68  69
ENDBRANCH  49  63
BRANCH  50  73
ATOM     73  C   UNL     1      -0.806  -0.138   8.795  1.00  0.00    -0.014 A 
ATOM     74  C   UNL     1      -1.817  -1.097   8.983  1.00  0.00     0.010 A 
ATOM     75  C   UNL     1       0.537  -0.560   8.772  1.00  0.00     0.010 A 
ATOM     76  C   UNL     1      -1.492  -2.446   9.162  1.00  0.00     0.020 A 
ATOM     77  C   UNL     1       0.864  -1.911   8.920  1.00  0.00     0.020 A 
ATOM     78  C   UNL     1      -0.152  -2.845   9.126  1.00  0.00     0.054 A 
BRANCH  78  79
ATOM     79  S   UNL     1       0.242  -4.606   9.315  1.00  0.00     0.124 S 
ATOM     80  O   UNL     1      -0.042  -4.832  10.729  1.00  0.00    -0.237 OA
ATOM     81  O   UNL     1      -0.681  -5.238   8.375  1.00  0.00    -0.237 OA
ATOM     82  O   UNL     1       1.652  -4.684   8.940  1.00  0.00    -0.744 OA
ENDBRANCH  78  79
ENDBRANCH  50  73
BRANCH  62  83
ATOM     83  C   UNL     1      -3.555   4.591  13.142  1.00  0.00    -0.014 A 
ATOM     84  C   UNL     1      -2.687   4.426  14.236  1.00  0.00     0.010 A 
ATOM     85  C   UNL     1      -4.934   4.747  13.385  1.00  0.00     0.010 A 
ATOM     86  C   UNL     1      -3.190   4.388  15.541  1.00  0.00     0.020 A 
ATOM     87  C   UNL     1      -5.437   4.741  14.689  1.00  0.00     0.020 A 
ATOM     88  C   UNL     1      -4.562   4.548  15.759  1.00  0.00     0.054 A 
BRANCH  88  89
ATOM     89  S   UNL     1      -5.184   4.541  17.464  1.00  0.00     0.124 S 
ATOM     90  O   UNL     1      -5.046   3.135  17.833  1.00  0.00    -0.237 OA
ATOM     91  O   UNL     1      -4.272   5.461  18.140  1.00  0.00    -0.237 OA
ATOM     92  O   UNL     1      -6.559   5.019  17.335  1.00  0.00    -0.744 OA
ENDBRANCH  88  89
ENDBRANCH  62  83
ENDBRANCH  36  37
ENDBRANCH  29  31
ENDBRANCH  28  29
ENDBRANCH  27  28
ENDBRANCH  26  27
ENDBRANCH  25  26
ENDBRANCH   1  25
TORSDOF 23
