REMARK SMILES CC(C)CCn1nc(C(=O)OCCOCCOCCOC(=O)c2ccc(-c3c4nc(c(-c5ccc(S(=O)(=O)[O-])cc5)c5ccc([nH]5)c(-c5ccc(S(=O)(=O)[O-])cc5)c5nc(c(-c6ccc(S(=O)(=O)[O-])cc6)c6ccc3[nH]6)C=C5)C=C4)cc2)c2c1CCN(C(=O)[C@@H]1CCc3nn(C)c(=O)n3C1)C2
REMARK SMILES IDX 15 1 14 2 13 3 12 4 11 5 9 6 10 7 8 8 6 9 7 10 84 11 83 12
REMARK SMILES IDX 85 13 101 14 86 15 87 16 5 17 4 18 2 19 1 20 3 21 88 22
REMARK SMILES IDX 89 23 90 24 91 25 100 26 92 27 99 28 93 29 97 30 94 31 95 32
REMARK SMILES IDX 98 33 96 34 16 35 17 36 18 37 19 38 20 39 21 40 22 41 23 42
REMARK SMILES IDX 24 43 82 44 25 45 81 46 26 47 27 48 28 49 75 50 29 51 80 52
REMARK SMILES IDX 74 53 76 54 30 55 79 56 73 57 72 58 31 60 61 61 42 62 60 63
REMARK SMILES IDX 43 64 46 65 59 66 77 67 44 68 45 69 58 71 78 72 47 73 32 74
REMARK SMILES IDX 33 75 41 76 34 77 40 78 35 79 36 80 37 81 38 82 39 83 62 84
REMARK SMILES IDX 63 85 71 86 64 87 70 88 65 89 66 90 67 91 68 92 69 93 48 94
REMARK SMILES IDX 49 95 57 96 50 97 56 98 51 99 52 100 53 101 54 102 55 103
REMARK H PARENT 76 59 46 70
REMARK Flexibility Score: inf
ROOT
ATOM      1  C   UNL     1      -2.716   7.292  -1.514  1.00  0.00     0.188 C 
ENDROOT
BRANCH   1   2
ATOM      2  O   UNL     1      -2.535   8.675  -1.241  1.00  0.00    -0.376 OA
BRANCH   2   3
ATOM      3  C   UNL     1      -1.337   9.323  -1.655  1.00  0.00     0.202 C 
BRANCH   3   4
ATOM      4  C   UNL     1       0.012   8.734  -1.211  1.00  0.00     0.261 C 
BRANCH   4   5
ATOM      5  O   UNL     1       0.225   7.381  -1.648  1.00  0.00    -0.458 OA
BRANCH   5   6
ATOM      6  C   UNL     1       0.341   6.442  -0.660  1.00  0.00     0.359 C 
ATOM      7  O   UNL     1       0.465   6.713   0.529  1.00  0.00    -0.244 OA
BRANCH   6   8
ATOM      8  C   UNL     1       0.206   5.064  -1.174  1.00  0.00     0.175 A 
ATOM      9  N   UNL     1      -0.296   2.966  -1.134  1.00  0.00    -0.268 N 
ATOM     10  N   UNL     1      -0.216   4.069  -0.362  1.00  0.00    -0.165 NA
ATOM     11  C   UNL     1       0.188   3.205  -2.380  1.00  0.00     0.046 A 
ATOM     12  C   UNL     1       0.416   4.567  -2.493  1.00  0.00     0.028 A 
ATOM     13  C   UNL     1       0.521   2.261  -3.461  1.00  0.00     0.078 C 
ATOM     14  C   UNL     1       0.866   5.235  -3.775  1.00  0.00     0.159 C 
ATOM     15  C   UNL     1       1.645   2.940  -4.244  1.00  0.00     0.126 C 
ATOM     16  N   UNL     1       1.193   4.201  -4.799  1.00  0.00    -0.338 N 
BRANCH   9  17
ATOM     17  C   UNL     1      -0.986   1.809  -0.586  1.00  0.00     0.145 C 
BRANCH  17  18
ATOM     18  C   UNL     1      -0.674   0.414  -1.145  1.00  0.00     0.027 C 
BRANCH  18  19
ATOM     19  C   UNL     1       0.766  -0.078  -0.895  1.00  0.00    -0.016 C 
ATOM     20  C   UNL     1       0.990  -0.478   0.561  1.00  0.00     0.007 C 
ATOM     21  C   UNL     1       1.085  -1.265  -1.812  1.00  0.00     0.007 C 
ENDBRANCH  18  19
ENDBRANCH  17  18
ENDBRANCH   9  17
BRANCH  16  22
ATOM     22  C   UNL     1       1.018   4.476  -6.141  1.00  0.00     0.227 C 
ATOM     23  O   UNL     1       0.600   5.588  -6.490  1.00  0.00    -0.274 OA
BRANCH  22  24
ATOM     24  C   UNL     1       1.340   3.455  -7.274  1.00  0.00     0.099 C 
ATOM     25  C   UNL     1       0.394   2.255  -7.447  1.00  0.00     0.023 C 
ATOM     26  C   UNL     1       2.816   3.097  -7.444  1.00  0.00     0.142 C 
ATOM     27  C   UNL     1       0.872   0.885  -6.956  1.00  0.00     0.078 C 
ATOM     28  N   UNL     1       3.164   1.817  -6.871  1.00  0.00    -0.278 N 
ATOM     29  C   UNL     1       2.325   0.800  -6.601  1.00  0.00     0.133 A 
ATOM     30  C   UNL     1       4.332   1.536  -6.206  1.00  0.00     0.345 A 
ATOM     31  N   UNL     1       2.826  -0.141  -5.854  1.00  0.00    -0.155 NA
ATOM     32  N   UNL     1       4.099   0.307  -5.577  1.00  0.00    -0.216 N 
ATOM     33  O   UNL     1       5.308   2.258  -6.087  1.00  0.00    -0.246 OA
ATOM     34  C   UNL     1       4.895  -0.240  -4.511  1.00  0.00     0.179 C 
ENDBRANCH  22  24
ENDBRANCH  16  22
ENDBRANCH   6   8
ENDBRANCH   5   6
ENDBRANCH   4   5
ENDBRANCH   3   4
ENDBRANCH   2   3
ENDBRANCH   1   2
BRANCH   1  35
ATOM     35  C   UNL     1      -2.419   6.726  -2.916  1.00  0.00     0.188 C 
BRANCH  35  36
ATOM     36  O   UNL     1      -1.681   7.584  -3.778  1.00  0.00    -0.376 OA
BRANCH  36  37
ATOM     37  C   UNL     1      -2.212   7.727  -5.097  1.00  0.00     0.202 C 
BRANCH  37  38
ATOM     38  C   UNL     1      -3.305   8.796  -5.164  1.00  0.00     0.261 C 
BRANCH  38  39
ATOM     39  O   UNL     1      -4.350   8.580  -4.220  1.00  0.00    -0.460 OA
BRANCH  39  40
ATOM     40  C   UNL     1      -5.078   7.458  -4.399  1.00  0.00     0.338 C 
ATOM     41  O   UNL     1      -4.931   6.623  -5.273  1.00  0.00    -0.246 OA
BRANCH  40  42
ATOM     42  C   UNL     1      -6.099   7.385  -3.343  1.00  0.00     0.060 A 
ATOM     43  C   UNL     1      -6.935   6.267  -3.358  1.00  0.00     0.016 A 
ATOM     44  C   UNL     1      -6.369   8.503  -2.539  1.00  0.00     0.016 A 
ATOM     45  C   UNL     1      -8.186   6.386  -2.799  1.00  0.00     0.010 A 
ATOM     46  C   UNL     1      -7.624   8.629  -1.991  1.00  0.00     0.010 A 
ATOM     47  C   UNL     1      -8.549   7.618  -2.246  1.00  0.00    -0.014 A 
BRANCH  47  48
ATOM     48  C   UNL     1      -9.967   7.908  -2.195  1.00  0.00     0.031 A 
ATOM     49  C   UNL     1     -10.698   7.469  -0.999  1.00  0.00     0.074 A 
ATOM     50  C   UNL     1     -10.552   8.605  -3.188  1.00  0.00     0.049 A 
ATOM     51  N   UNL     1     -11.649   6.600  -0.926  1.00  0.00    -0.248 NA
ATOM     52  C   UNL     1     -10.265   8.022   0.290  1.00  0.00     0.031 C 
ATOM     53  C   UNL     1      -9.887   9.368  -4.253  1.00  0.00     0.029 A 
ATOM     54  N   UNL     1     -11.870   8.883  -3.378  1.00  0.00    -0.354 N 
ATOM     55  C   UNL     1     -12.067   6.621   0.397  1.00  0.00     0.074 A 
ATOM     56  C   UNL     1     -11.095   7.400   1.126  1.00  0.00     0.031 C 
ATOM     57  C   UNL     1     -10.785  10.203  -4.818  1.00  0.00     0.029 A 
ATOM     58  C   UNL     1     -12.095   9.941  -4.245  1.00  0.00     0.049 A 
ATOM     59  H   UNL     1     -12.595   8.381  -2.940  1.00  0.00     0.167 HD
ATOM     60  C   UNL     1     -13.297   6.187   0.778  1.00  0.00     0.031 A 
ATOM     61  C   UNL     1     -13.254  10.624  -4.393  1.00  0.00     0.031 A 
ATOM     62  C   UNL     1     -13.954   5.407  -0.234  1.00  0.00     0.049 A 
ATOM     63  C   UNL     1     -14.352   9.780  -3.862  1.00  0.00     0.074 A 
ATOM     64  C   UNL     1     -13.678   4.220  -0.881  1.00  0.00     0.029 A 
ATOM     65  N   UNL     1     -14.944   6.023  -0.964  1.00  0.00    -0.354 N 
ATOM     66  N   UNL     1     -14.745   8.662  -4.407  1.00  0.00    -0.248 NA
ATOM     67  C   UNL     1     -14.785   9.982  -2.487  1.00  0.00     0.031 C 
ATOM     68  C   UNL     1     -14.218   4.367  -2.190  1.00  0.00     0.029 A 
ATOM     69  C   UNL     1     -14.799   5.635  -2.273  1.00  0.00     0.049 A 
ATOM     70  H   UNL     1     -15.632   6.632  -0.612  1.00  0.00     0.167 HD
ATOM     71  C   UNL     1     -15.128   7.855  -3.344  1.00  0.00     0.074 A 
ATOM     72  C   UNL     1     -15.249   8.761  -2.209  1.00  0.00     0.031 C 
ATOM     73  C   UNL     1     -15.040   6.494  -3.417  1.00  0.00     0.031 A 
BRANCH  60  74
ATOM     74  C   UNL     1     -14.037   6.779   1.944  1.00  0.00    -0.014 A 
ATOM     75  C   UNL     1     -15.187   6.134   2.433  1.00  0.00     0.010 A 
ATOM     76  C   UNL     1     -13.781   8.089   2.405  1.00  0.00     0.010 A 
ATOM     77  C   UNL     1     -16.063   6.790   3.307  1.00  0.00     0.020 A 
ATOM     78  C   UNL     1     -14.619   8.731   3.314  1.00  0.00     0.020 A 
ATOM     79  C   UNL     1     -15.778   8.091   3.728  1.00  0.00     0.054 A 
BRANCH  79  80
ATOM     80  S   UNL     1     -16.973   8.978   4.756  1.00  0.00     0.124 S 
ATOM     81  O   UNL     1     -18.033   9.265   3.796  1.00  0.00    -0.237 OA
ATOM     82  O   UNL     1     -17.297   7.993   5.784  1.00  0.00    -0.237 OA
ATOM     83  O   UNL     1     -16.221  10.138   5.229  1.00  0.00    -0.744 OA
ENDBRANCH  79  80
ENDBRANCH  60  74
BRANCH  61  84
ATOM     84  C   UNL     1     -13.387  12.081  -4.644  1.00  0.00    -0.014 A 
ATOM     85  C   UNL     1     -14.620  12.644  -5.016  1.00  0.00     0.010 A 
ATOM     86  C   UNL     1     -12.348  12.963  -4.275  1.00  0.00     0.010 A 
ATOM     87  C   UNL     1     -14.816  14.035  -4.977  1.00  0.00     0.020 A 
ATOM     88  C   UNL     1     -12.530  14.348  -4.251  1.00  0.00     0.020 A 
ATOM     89  C   UNL     1     -13.772  14.877  -4.581  1.00  0.00     0.054 A 
BRANCH  89  90
ATOM     90  S   UNL     1     -14.079  16.655  -4.382  1.00  0.00     0.124 S 
ATOM     91  O   UNL     1     -14.224  17.101  -5.765  1.00  0.00    -0.237 OA
ATOM     92  O   UNL     1     -15.297  16.678  -3.578  1.00  0.00    -0.237 OA
ATOM     93  O   UNL     1     -12.880  17.137  -3.698  1.00  0.00    -0.744 OA
ENDBRANCH  89  90
ENDBRANCH  61  84
BRANCH  73  94
ATOM     94  C   UNL     1     -14.867   5.854  -4.776  1.00  0.00    -0.014 A 
ATOM     95  C   UNL     1     -13.736   6.073  -5.585  1.00  0.00     0.010 A 
ATOM     96  C   UNL     1     -15.787   4.862  -5.163  1.00  0.00     0.010 A 
ATOM     97  C   UNL     1     -13.534   5.325  -6.754  1.00  0.00     0.020 A 
ATOM     98  C   UNL     1     -15.584   4.102  -6.320  1.00  0.00     0.020 A 
ATOM     99  C   UNL     1     -14.458   4.338  -7.111  1.00  0.00     0.054 A 
BRANCH  99 100
ATOM    100  S   UNL     1     -14.134   3.303  -8.567  1.00  0.00     0.124 S 
ATOM    101  O   UNL     1     -14.405   4.218  -9.673  1.00  0.00    -0.237 OA
ATOM    102  O   UNL     1     -12.733   2.923  -8.394  1.00  0.00    -0.237 OA
ATOM    103  O   UNL     1     -15.085   2.200  -8.429  1.00  0.00    -0.744 OA
ENDBRANCH  99 100
ENDBRANCH  73  94
ENDBRANCH  47  48
ENDBRANCH  40  42
ENDBRANCH  39  40
ENDBRANCH  38  39
ENDBRANCH  37  38
ENDBRANCH  36  37
ENDBRANCH  35  36
ENDBRANCH   1  35
TORSDOF 25
