REMARK SMILES Cc1c(Cl)cccc1NC(=O)C[C@](C)(C(=O)OCCOCCOCCOC(=O)c1ccc(-c2c3nc(c(-c4ccc(S(=O)(=O)[O-])cc4)c4ccc([nH]4)c(-c4ccc(S(=O)(=O)[O-])cc4)c4nc(c(-c5ccc(S(=O)(=O)[O-])cc5)c5ccc2[nH]5)C=C4)C=C3)cc1)c1ccccc1
REMARK SMILES IDX 21 1 20 2 19 3 18 4 17 5 15 6 16 7 13 8 14 9 12 10 10 11
REMARK SMILES IDX 9 12 11 14 8 15 1 16 2 17 3 18 4 19 5 20 7 21 6 22 89 23
REMARK SMILES IDX 90 24 94 25 91 26 93 27 92 28 22 29 23 30 24 31 25 32 26 33
REMARK SMILES IDX 27 34 28 35 29 36 30 37 88 38 31 39 87 40 32 41 33 42 34 43
REMARK SMILES IDX 81 44 35 45 86 46 80 47 82 48 36 49 85 50 79 51 78 52 37 54
REMARK SMILES IDX 67 55 48 56 66 57 49 58 52 59 65 60 83 61 50 62 51 63 64 65
REMARK SMILES IDX 84 66 53 67 38 68 39 69 47 70 40 71 46 72 41 73 42 74 43 75
REMARK SMILES IDX 44 76 45 77 68 78 69 79 77 80 70 81 76 82 71 83 72 84 73 85
REMARK SMILES IDX 74 86 75 87 54 88 55 89 63 90 56 91 62 92 57 93 58 94 59 95
REMARK SMILES IDX 60 96 61 97
REMARK H PARENT 9 13 82 53 52 64
REMARK Flexibility Score: inf
ROOT
ATOM      1  C   UNL     1      -8.002  -0.902  -1.752  1.00  0.00     0.188 C 
ENDROOT
BRANCH   1   2
ATOM      2  O   UNL     1      -8.353  -2.278  -1.700  1.00  0.00    -0.376 OA
BRANCH   2   3
ATOM      3  C   UNL     1      -7.433  -3.177  -1.087  1.00  0.00     0.202 C 
BRANCH   3   4
ATOM      4  C   UNL     1      -5.955  -3.071  -1.479  1.00  0.00     0.261 C 
BRANCH   4   5
ATOM      5  O   UNL     1      -5.343  -1.807  -1.141  1.00  0.00    -0.463 OA
BRANCH   5   6
ATOM      6  C   UNL     1      -4.334  -1.417  -1.962  1.00  0.00     0.316 C 
ATOM      7  O   UNL     1      -3.920  -2.125  -2.877  1.00  0.00    -0.251 OA
BRANCH   6   8
ATOM      8  C   UNL     1      -3.731  -0.012  -1.658  1.00  0.00     0.099 C 
ATOM      9  C   UNL     1      -4.291   0.718  -0.404  1.00  0.00     0.029 C 
BRANCH   8  10
ATOM     10  C   UNL     1      -2.196  -0.222  -1.429  1.00  0.00     0.123 C 
BRANCH  10  11
ATOM     11  C   UNL     1      -1.642  -1.641  -1.267  1.00  0.00     0.225 C 
ATOM     12  N   UNL     1      -2.061  -2.553  -0.344  1.00  0.00    -0.326 N 
ATOM     13  H   UNL     1      -1.728  -3.460  -0.534  1.00  0.00     0.169 HD
ATOM     14  O   UNL     1      -0.744  -2.021  -2.031  1.00  0.00    -0.275 OA
BRANCH  12  15
ATOM     15  C   UNL     1      -2.856  -2.503   0.816  1.00  0.00     0.045 A 
ATOM     16  C   UNL     1      -3.403  -5.008   0.583  1.00  0.00     0.048 C 
ATOM     17  C   UNL     1      -3.543  -3.663   1.258  1.00  0.00    -0.009 A 
ATOM     18  C   UNL     1      -4.402  -3.554   2.376  1.00  0.00     0.046 A 
ATOM     19  Cl  UNL     1      -5.323  -4.900   2.963  1.00  0.00    -0.084 Cl
ATOM     20  C   UNL     1      -4.553  -2.347   3.057  1.00  0.00     0.021 A 
ATOM     21  C   UNL     1      -2.949  -1.331   1.571  1.00  0.00     0.026 A 
ATOM     22  C   UNL     1      -3.807  -1.244   2.670  1.00  0.00     0.004 A 
ENDBRANCH  12  15
ENDBRANCH  10  11
ENDBRANCH   8  10
BRANCH   8  23
ATOM     23  C   UNL     1      -4.017   0.981  -2.837  1.00  0.00    -0.030 A 
ATOM     24  C   UNL     1      -3.616   2.333  -2.754  1.00  0.00     0.005 A 
ATOM     25  C   UNL     1      -4.766   0.611  -3.971  1.00  0.00     0.005 A 
ATOM     26  C   UNL     1      -3.985   3.268  -3.731  1.00  0.00     0.000 A 
ATOM     27  C   UNL     1      -5.110   1.541  -4.958  1.00  0.00     0.000 A 
ATOM     28  C   UNL     1      -4.735   2.872  -4.832  1.00  0.00     0.000 A 
ENDBRANCH   8  23
ENDBRANCH   6   8
ENDBRANCH   5   6
ENDBRANCH   4   5
ENDBRANCH   3   4
ENDBRANCH   2   3
ENDBRANCH   1   2
BRANCH   1  29
ATOM     29  C   UNL     1      -7.579  -0.223  -0.441  1.00  0.00     0.188 C 
BRANCH  29  30
ATOM     30  O   UNL     1      -7.555  -1.029   0.709  1.00  0.00    -0.376 OA
BRANCH  30  31
ATOM     31  C   UNL     1      -8.659  -1.039   1.593  1.00  0.00     0.202 C 
BRANCH  31  32
ATOM     32  C   UNL     1     -10.091  -0.599   1.228  1.00  0.00     0.261 C 
BRANCH  32  33
ATOM     33  O   UNL     1     -10.289   0.140   0.022  1.00  0.00    -0.460 OA
BRANCH  33  34
ATOM     34  C   UNL     1     -10.191   1.495   0.099  1.00  0.00     0.338 C 
ATOM     35  O   UNL     1      -9.957   2.156   1.082  1.00  0.00    -0.246 OA
BRANCH  34  36
ATOM     36  C   UNL     1     -10.149   1.986  -1.304  1.00  0.00     0.060 A 
ATOM     37  C   UNL     1      -9.026   2.709  -1.736  1.00  0.00     0.016 A 
ATOM     38  C   UNL     1     -11.152   1.632  -2.209  1.00  0.00     0.016 A 
ATOM     39  C   UNL     1      -8.901   3.073  -3.079  1.00  0.00     0.010 A 
ATOM     40  C   UNL     1     -11.044   2.029  -3.542  1.00  0.00     0.010 A 
ATOM     41  C   UNL     1      -9.928   2.763  -3.980  1.00  0.00    -0.014 A 
BRANCH  41  42
ATOM     42  C   UNL     1      -9.959   3.370  -5.330  1.00  0.00     0.031 A 
ATOM     43  C   UNL     1     -10.685   4.674  -5.493  1.00  0.00     0.074 A 
ATOM     44  C   UNL     1      -9.401   2.766  -6.394  1.00  0.00     0.049 A 
ATOM     45  N   UNL     1     -10.967   5.337  -6.582  1.00  0.00    -0.248 NA
ATOM     46  C   UNL     1     -11.166   5.309  -4.254  1.00  0.00     0.031 C 
ATOM     47  C   UNL     1      -8.625   1.529  -6.357  1.00  0.00     0.029 A 
ATOM     48  N   UNL     1      -9.416   3.116  -7.722  1.00  0.00    -0.354 N 
ATOM     49  C   UNL     1     -11.672   6.459  -6.164  1.00  0.00     0.074 A 
ATOM     50  C   UNL     1     -11.787   6.379  -4.724  1.00  0.00     0.031 C 
ATOM     51  C   UNL     1      -8.232   1.225  -7.608  1.00  0.00     0.029 A 
ATOM     52  C   UNL     1      -8.775   2.214  -8.538  1.00  0.00     0.049 A 
ATOM     53  H   UNL     1      -9.845   3.936  -8.058  1.00  0.00     0.167 HD
ATOM     54  C   UNL     1     -12.187   7.463  -6.912  1.00  0.00     0.031 A 
ATOM     55  C   UNL     1      -8.670   2.179  -9.883  1.00  0.00     0.031 A 
ATOM     56  C   UNL     1     -12.114   7.514  -8.345  1.00  0.00     0.049 A 
ATOM     57  C   UNL     1      -9.354   3.244 -10.704  1.00  0.00     0.074 A 
ATOM     58  C   UNL     1     -12.620   8.477  -9.199  1.00  0.00     0.029 A 
ATOM     59  N   UNL     1     -11.510   6.550  -9.139  1.00  0.00    -0.354 N 
ATOM     60  N   UNL     1     -10.015   4.303 -10.299  1.00  0.00    -0.248 NA
ATOM     61  C   UNL     1      -9.294   3.097 -12.167  1.00  0.00     0.031 C 
ATOM     62  C   UNL     1     -12.373   8.066 -10.513  1.00  0.00     0.029 A 
ATOM     63  C   UNL     1     -11.659   6.878 -10.475  1.00  0.00     0.049 A 
ATOM     64  H   UNL     1     -11.045   5.751  -8.802  1.00  0.00     0.167 HD
ATOM     65  C   UNL     1     -10.434   4.956 -11.455  1.00  0.00     0.074 A 
ATOM     66  C   UNL     1      -9.939   4.182 -12.575  1.00  0.00     0.031 C 
ATOM     67  C   UNL     1     -11.162   6.093 -11.579  1.00  0.00     0.031 A 
BRANCH  54  68
ATOM     68  C   UNL     1     -12.926   8.547  -6.177  1.00  0.00    -0.014 A 
ATOM     69  C   UNL     1     -12.243   9.468  -5.361  1.00  0.00     0.010 A 
ATOM     70  C   UNL     1     -14.325   8.633  -6.287  1.00  0.00     0.010 A 
ATOM     71  C   UNL     1     -12.953  10.418  -4.623  1.00  0.00     0.020 A 
ATOM     72  C   UNL     1     -15.036   9.601  -5.573  1.00  0.00     0.020 A 
ATOM     73  C   UNL     1     -14.346  10.472  -4.727  1.00  0.00     0.054 A 
BRANCH  73  74
ATOM     74  S   UNL     1     -15.244  11.703  -3.743  1.00  0.00     0.124 S 
ATOM     75  O   UNL     1     -15.152  11.137  -2.399  1.00  0.00    -0.237 OA
ATOM     76  O   UNL     1     -14.469  12.920  -3.966  1.00  0.00    -0.237 OA
ATOM     77  O   UNL     1     -16.583  11.704  -4.327  1.00  0.00    -0.744 OA
ENDBRANCH  73  74
ENDBRANCH  54  68
BRANCH  55  78
ATOM     78  C   UNL     1      -7.909   1.084 -10.548  1.00  0.00    -0.014 A 
ATOM     79  C   UNL     1      -6.704   1.363 -11.217  1.00  0.00     0.010 A 
ATOM     80  C   UNL     1      -8.385  -0.240 -10.526  1.00  0.00     0.010 A 
ATOM     81  C   UNL     1      -5.994   0.342 -11.857  1.00  0.00     0.020 A 
ATOM     82  C   UNL     1      -7.664  -1.268 -11.142  1.00  0.00     0.020 A 
ATOM     83  C   UNL     1      -6.477  -0.969 -11.812  1.00  0.00     0.054 A 
BRANCH  83  84
ATOM     84  S   UNL     1      -5.510  -2.285 -12.604  1.00  0.00     0.124 S 
ATOM     85  O   UNL     1      -5.738  -2.019 -14.020  1.00  0.00    -0.237 OA
ATOM     86  O   UNL     1      -4.158  -2.018 -12.119  1.00  0.00    -0.237 OA
ATOM     87  O   UNL     1      -6.118  -3.511 -12.090  1.00  0.00    -0.744 OA
ENDBRANCH  83  84
ENDBRANCH  55  78
BRANCH  67  88
ATOM     88  C   UNL     1     -11.458   6.592 -12.969  1.00  0.00    -0.014 A 
ATOM     89  C   UNL     1     -12.415   5.959 -13.780  1.00  0.00     0.010 A 
ATOM     90  C   UNL     1     -10.837   7.768 -13.431  1.00  0.00     0.010 A 
ATOM     91  C   UNL     1     -12.739   6.487 -15.033  1.00  0.00     0.020 A 
ATOM     92  C   UNL     1     -11.177   8.313 -14.672  1.00  0.00     0.020 A 
ATOM     93  C   UNL     1     -12.123   7.665 -15.469  1.00  0.00     0.054 A 
BRANCH  93  94
ATOM     94  S   UNL     1     -12.621   8.373 -17.063  1.00  0.00     0.124 S 
ATOM     95  O   UNL     1     -12.011   7.446 -18.012  1.00  0.00    -0.237 OA
ATOM     96  O   UNL     1     -14.079   8.330 -16.991  1.00  0.00    -0.237 OA
ATOM     97  O   UNL     1     -12.041   9.715 -17.044  1.00  0.00    -0.744 OA
ENDBRANCH  93  94
ENDBRANCH  67  88
ENDBRANCH  41  42
ENDBRANCH  34  36
ENDBRANCH  33  34
ENDBRANCH  32  33
ENDBRANCH  31  32
ENDBRANCH  30  31
ENDBRANCH  29  30
ENDBRANCH   1  29
TORSDOF 24
