REMARK SMILES CC(C)c1ccc([C@]2(C(=O)OCCOCCOCCOC(=O)c3ccc(-c4c5nc(c(-c6ccc(S(=O)(=O)[O-])cc6)c6ccc([nH]6)c(-c6ccc(S(=O)(=O)[O-])cc6)c6nc(c(-c7ccc(S(=O)(=O)[O-])cc7)c7ccc4[nH]7)C=C6)C=C5)cc3)CCC[C@@H]2C)cc1
REMARK SMILES IDX 16 1 15 2 14 3 13 4 12 5 11 6 9 7 10 8 8 9 83 10 86 11 84 12
REMARK SMILES IDX 85 13 87 14 7 15 4 16 5 17 89 18 6 19 88 20 2 21 1 22 3 23
REMARK SMILES IDX 17 24 18 25 19 26 20 27 21 28 22 29 23 30 24 31 82 32 25 33
REMARK SMILES IDX 81 34 26 35 27 36 28 37 75 38 29 39 80 40 74 41 76 42 30 43
REMARK SMILES IDX 79 44 73 45 72 46 31 48 61 49 42 50 60 51 43 52 46 53 59 54
REMARK SMILES IDX 77 55 44 56 45 57 58 59 78 60 47 61 32 62 33 63 41 64 34 65
REMARK SMILES IDX 40 66 35 67 36 68 37 69 38 70 39 71 62 72 63 73 71 74 64 75
REMARK SMILES IDX 70 76 65 77 66 78 67 79 68 80 69 81 48 82 49 83 57 84 50 85
REMARK SMILES IDX 56 86 51 87 52 88 53 89 54 90 55 91
REMARK H PARENT 76 47 46 58
REMARK Flexibility Score: inf
ROOT
ATOM      1  C   UNL     1      -5.618  -4.604   1.232  1.00  0.00     0.188 C 
ENDROOT
BRANCH   1   2
ATOM      2  C   UNL     1      -4.878  -4.417   2.561  1.00  0.00     0.188 C 
BRANCH   2   3
ATOM      3  O   UNL     1      -5.633  -4.496   3.764  1.00  0.00    -0.376 OA
BRANCH   3   4
ATOM      4  C   UNL     1      -6.903  -3.852   3.819  1.00  0.00     0.202 C 
BRANCH   4   5
ATOM      5  C   UNL     1      -6.989  -2.368   3.430  1.00  0.00     0.261 C 
BRANCH   5   6
ATOM      6  O   UNL     1      -6.608  -2.053   2.069  1.00  0.00    -0.463 OA
BRANCH   6   7
ATOM      7  C   UNL     1      -5.758  -0.996   1.921  1.00  0.00     0.316 C 
ATOM      8  O   UNL     1      -5.346  -0.335   2.871  1.00  0.00    -0.251 OA
BRANCH   7   9
ATOM      9  C   UNL     1      -5.401  -0.628   0.438  1.00  0.00     0.095 C 
ATOM     10  C   UNL     1      -6.043  -1.445  -0.710  1.00  0.00     0.024 C 
ATOM     11  C   UNL     1      -6.134   0.738   0.178  1.00  0.00     0.008 C 
ATOM     12  C   UNL     1      -7.513  -1.038  -0.767  1.00  0.00     0.002 C 
ATOM     13  C   UNL     1      -7.597   0.295  -0.029  1.00  0.00     0.005 C 
ATOM     14  C   UNL     1      -5.681   1.529  -1.063  1.00  0.00     0.009 C 
BRANCH   9  15
ATOM     15  C   UNL     1      -3.865  -0.621   0.344  1.00  0.00    -0.030 A 
ATOM     16  C   UNL     1      -1.014  -0.613   0.211  1.00  0.00    -0.045 A 
ATOM     17  C   UNL     1      -1.718   0.540   0.561  1.00  0.00     0.004 A 
ATOM     18  C   UNL     1      -1.747  -1.786  -0.013  1.00  0.00     0.004 A 
ATOM     19  C   UNL     1      -3.116   0.527   0.648  1.00  0.00     0.005 A 
ATOM     20  C   UNL     1      -3.147  -1.790   0.043  1.00  0.00     0.005 A 
BRANCH  16  21
ATOM     21  C   UNL     1       0.503  -0.664   0.153  1.00  0.00     0.013 C 
ATOM     22  C   UNL     1       1.169   0.600  -0.396  1.00  0.00     0.012 C 
ATOM     23  C   UNL     1       1.056  -0.976   1.539  1.00  0.00     0.012 C 
ENDBRANCH  16  21
ENDBRANCH   9  15
ENDBRANCH   7   9
ENDBRANCH   6   7
ENDBRANCH   5   6
ENDBRANCH   4   5
ENDBRANCH   3   4
ENDBRANCH   2   3
ENDBRANCH   1   2
BRANCH   1  24
ATOM     24  O   UNL     1      -6.954  -5.046   1.356  1.00  0.00    -0.376 OA
BRANCH  24  25
ATOM     25  C   UNL     1      -7.316  -6.241   0.691  1.00  0.00     0.202 C 
BRANCH  25  26
ATOM     26  C   UNL     1      -6.606  -7.505   1.192  1.00  0.00     0.261 C 
BRANCH  26  27
ATOM     27  O   UNL     1      -5.170  -7.478   1.109  1.00  0.00    -0.460 OA
BRANCH  27  28
ATOM     28  C   UNL     1      -4.620  -7.414  -0.127  1.00  0.00     0.338 C 
ATOM     29  O   UNL     1      -5.218  -7.429  -1.190  1.00  0.00    -0.246 OA
BRANCH  28  30
ATOM     30  C   UNL     1      -3.184  -7.074   0.035  1.00  0.00     0.060 A 
ATOM     31  C   UNL     1      -2.638  -6.047  -0.747  1.00  0.00     0.016 A 
ATOM     32  C   UNL     1      -2.391  -7.730   0.981  1.00  0.00     0.016 A 
ATOM     33  C   UNL     1      -1.294  -5.693  -0.594  1.00  0.00     0.010 A 
ATOM     34  C   UNL     1      -1.042  -7.386   1.119  1.00  0.00     0.010 A 
ATOM     35  C   UNL     1      -0.479  -6.378   0.322  1.00  0.00    -0.014 A 
BRANCH  35  36
ATOM     36  C   UNL     1       0.993  -6.168   0.311  1.00  0.00     0.031 A 
ATOM     37  C   UNL     1       1.806  -6.900  -0.720  1.00  0.00     0.074 A 
ATOM     38  C   UNL     1       1.609  -5.375   1.206  1.00  0.00     0.049 A 
ATOM     39  N   UNL     1       3.094  -6.858  -0.942  1.00  0.00    -0.248 NA
ATOM     40  C   UNL     1       1.068  -7.820  -1.600  1.00  0.00     0.031 C 
ATOM     41  C   UNL     1       0.945  -4.640   2.277  1.00  0.00     0.029 A 
ATOM     42  N   UNL     1       2.937  -5.039   1.342  1.00  0.00    -0.354 N 
ATOM     43  C   UNL     1       3.328  -7.773  -1.961  1.00  0.00     0.074 A 
ATOM     44  C   UNL     1       2.047  -8.340  -2.325  1.00  0.00     0.031 C 
ATOM     45  C   UNL     1       1.861  -3.902   2.930  1.00  0.00     0.029 A 
ATOM     46  C   UNL     1       3.176  -4.105   2.326  1.00  0.00     0.049 A 
ATOM     47  H   UNL     1       3.650  -5.429   0.787  1.00  0.00     0.167 HD
ATOM     48  C   UNL     1       4.505  -8.137  -2.521  1.00  0.00     0.031 A 
ATOM     49  C   UNL     1       4.315  -3.468   2.676  1.00  0.00     0.031 A 
ATOM     50  C   UNL     1       5.787  -7.619  -2.125  1.00  0.00     0.049 A 
ATOM     51  C   UNL     1       5.609  -3.846   1.992  1.00  0.00     0.074 A 
ATOM     52  C   UNL     1       7.037  -7.960  -2.609  1.00  0.00     0.029 A 
ATOM     53  N   UNL     1       5.986  -6.660  -1.144  1.00  0.00    -0.354 N 
ATOM     54  N   UNL     1       5.809  -4.692   1.008  1.00  0.00    -0.248 NA
ATOM     55  C   UNL     1       6.838  -3.205   2.487  1.00  0.00     0.031 C 
ATOM     56  C   UNL     1       7.997  -7.248  -1.883  1.00  0.00     0.029 A 
ATOM     57  C   UNL     1       7.340  -6.411  -0.995  1.00  0.00     0.049 A 
ATOM     58  H   UNL     1       5.270  -6.222  -0.629  1.00  0.00     0.167 HD
ATOM     59  C   UNL     1       7.183  -4.693   0.781  1.00  0.00     0.074 A 
ATOM     60  C   UNL     1       7.759  -3.724   1.687  1.00  0.00     0.031 C 
ATOM     61  C   UNL     1       7.906  -5.450  -0.082  1.00  0.00     0.031 A 
BRANCH  48  62
ATOM     62  C   UNL     1       4.457  -9.212  -3.571  1.00  0.00    -0.014 A 
ATOM     63  C   UNL     1       3.925  -8.964  -4.849  1.00  0.00     0.010 A 
ATOM     64  C   UNL     1       4.956 -10.493  -3.271  1.00  0.00     0.010 A 
ATOM     65  C   UNL     1       3.854  -9.991  -5.793  1.00  0.00     0.020 A 
ATOM     66  C   UNL     1       4.915 -11.514  -4.223  1.00  0.00     0.020 A 
ATOM     67  C   UNL     1       4.347 -11.260  -5.472  1.00  0.00     0.054 A 
BRANCH  67  68
ATOM     68  S   UNL     1       4.250 -12.571  -6.721  1.00  0.00     0.124 S 
ATOM     69  O   UNL     1       2.820 -12.866  -6.737  1.00  0.00    -0.237 OA
ATOM     70  O   UNL     1       4.769 -11.912  -7.917  1.00  0.00    -0.237 OA
ATOM     71  O   UNL     1       5.098 -13.630  -6.179  1.00  0.00    -0.744 OA
ENDBRANCH  67  68
ENDBRANCH  48  62
BRANCH  49  72
ATOM     72  C   UNL     1       4.305  -2.383   3.706  1.00  0.00    -0.014 A 
ATOM     73  C   UNL     1       4.651  -1.064   3.348  1.00  0.00     0.010 A 
ATOM     74  C   UNL     1       3.981  -2.652   5.047  1.00  0.00     0.010 A 
ATOM     75  C   UNL     1       4.694  -0.048   4.308  1.00  0.00     0.020 A 
ATOM     76  C   UNL     1       3.986  -1.631   6.004  1.00  0.00     0.020 A 
ATOM     77  C   UNL     1       4.360  -0.338   5.632  1.00  0.00     0.054 A 
BRANCH  77  78
ATOM     78  S   UNL     1       4.382   1.000   6.859  1.00  0.00     0.124 S 
ATOM     79  O   UNL     1       5.811   1.162   7.105  1.00  0.00    -0.237 OA
ATOM     80  O   UNL     1       3.735   2.098   6.145  1.00  0.00    -0.237 OA
ATOM     81  O   UNL     1       3.612   0.452   7.973  1.00  0.00    -0.744 OA
ENDBRANCH  77  78
ENDBRANCH  49  72
BRANCH  61  82
ATOM     82  C   UNL     1       9.404  -5.277  -0.088  1.00  0.00    -0.014 A 
ATOM     83  C   UNL     1      10.192  -5.725   0.988  1.00  0.00     0.010 A 
ATOM     84  C   UNL     1      10.041  -4.731  -1.218  1.00  0.00     0.010 A 
ATOM     85  C   UNL     1      11.585  -5.605   0.946  1.00  0.00     0.020 A 
ATOM     86  C   UNL     1      11.434  -4.635  -1.276  1.00  0.00     0.020 A 
ATOM     87  C   UNL     1      12.197  -5.062  -0.188  1.00  0.00     0.054 A 
BRANCH  87  88
ATOM     88  S   UNL     1      14.009  -4.965  -0.239  1.00  0.00     0.124 S 
ATOM     89  O   UNL     1      14.283  -3.889   0.709  1.00  0.00    -0.237 OA
ATOM     90  O   UNL     1      14.413  -6.301   0.194  1.00  0.00    -0.237 OA
ATOM     91  O   UNL     1      14.301  -4.655  -1.636  1.00  0.00    -0.744 OA
ENDBRANCH  87  88
ENDBRANCH  61  82
ENDBRANCH  35  36
ENDBRANCH  28  30
ENDBRANCH  27  28
ENDBRANCH  26  27
ENDBRANCH  25  26
ENDBRANCH  24  25
ENDBRANCH   1  24
TORSDOF 22
