REMARK SMILES C[C@@](NC(=O)[C@H]1COc2ccccc21)(C(=O)OCCOCCOCCOC(=O)c1ccc(-c2c3nc(c(-c4ccc(S(=O)(=O)[O-])cc4)c4ccc([nH]4)c(-c4ccc(S(=O)(=O)[O-])cc4)c4nc(c(-c5ccc(S(=O)(=O)[O-])cc5)c5ccc2[nH]5)C=C4)C=C3)cc1)C(F)(F)F
REMARK SMILES IDX 22 1 21 2 20 3 19 4 18 5 17 6 15 7 16 8 2 9 1 10 3 11 4 12
REMARK SMILES IDX 5 14 6 15 7 16 14 17 8 18 9 19 13 20 10 21 12 22 11 23 89 24
REMARK SMILES IDX 90 25 91 26 92 27 23 28 24 29 25 30 26 31 27 32 28 33 29 34
REMARK SMILES IDX 30 35 88 36 31 37 87 38 32 39 33 40 34 41 81 42 35 43 86 44
REMARK SMILES IDX 80 45 82 46 36 47 85 48 79 49 78 50 37 52 67 53 48 54 66 55
REMARK SMILES IDX 49 56 52 57 65 58 83 59 50 60 51 61 64 63 84 64 53 65 38 66
REMARK SMILES IDX 39 67 47 68 40 69 46 70 41 71 42 72 43 73 44 74 45 75 68 76
REMARK SMILES IDX 69 77 77 78 70 79 76 80 71 81 72 82 73 83 74 84 75 85 54 86
REMARK SMILES IDX 55 87 63 88 56 89 62 90 57 91 58 92 59 93 60 94 61 95
REMARK H PARENT 3 13 82 51 52 62
REMARK Flexibility Score: inf
ROOT
ATOM      1  C   UNL     1      -1.511  -0.965  -1.561  1.00  0.00     0.188 C 
ENDROOT
BRANCH   1   2
ATOM      2  C   UNL     1      -2.614  -1.897  -1.032  1.00  0.00     0.188 C 
BRANCH   2   3
ATOM      3  O   UNL     1      -3.815  -1.201  -0.763  1.00  0.00    -0.376 OA
BRANCH   3   4
ATOM      4  C   UNL     1      -4.106  -0.989   0.601  1.00  0.00     0.202 C 
BRANCH   4   5
ATOM      5  C   UNL     1      -3.111  -0.193   1.448  1.00  0.00     0.261 C 
BRANCH   5   6
ATOM      6  O   UNL     1      -1.695  -0.285   1.168  1.00  0.00    -0.461 OA
BRANCH   6   7
ATOM      7  C   UNL     1      -0.941  -1.240   1.791  1.00  0.00     0.341 C 
ATOM      8  O   UNL     1      -1.437  -2.217   2.331  1.00  0.00    -0.249 OA
BRANCH   7   9
ATOM      9  C   UNL     1       0.535  -0.800   1.935  1.00  0.00     0.231 C 
ATOM     10  C   UNL     1       0.953   0.345   0.992  1.00  0.00     0.058 C 
BRANCH   9  11
ATOM     11  N   UNL     1       0.927  -0.405   3.351  1.00  0.00    -0.332 N 
ATOM     12  C   UNL     1       0.282   0.353   4.301  1.00  0.00     0.232 C 
ATOM     13  H   UNL     1       1.801  -0.755   3.640  1.00  0.00     0.164 HD
ATOM     14  O   UNL     1       0.964   0.980   5.107  1.00  0.00    -0.274 OA
BRANCH  12  15
ATOM     15  C   UNL     1      -1.218   0.286   4.353  1.00  0.00     0.150 C 
ATOM     16  C   UNL     1      -1.698  -0.996   5.050  1.00  0.00     0.248 C 
ATOM     17  C   UNL     1      -2.023   1.296   5.075  1.00  0.00     0.010 A 
ATOM     18  O   UNL     1      -2.458  -0.656   6.234  1.00  0.00    -0.492 OA
ATOM     19  C   UNL     1      -2.759   0.666   6.064  1.00  0.00     0.123 A 
ATOM     20  C   UNL     1      -2.278   2.613   4.729  1.00  0.00     0.008 A 
ATOM     21  C   UNL     1      -3.767   1.310   6.748  1.00  0.00     0.047 A 
ATOM     22  C   UNL     1      -3.306   3.280   5.399  1.00  0.00     0.001 A 
ATOM     23  C   UNL     1      -4.050   2.631   6.398  1.00  0.00     0.004 A 
ENDBRANCH  12  15
ENDBRANCH   9  11
BRANCH   9  24
ATOM     24  C   UNL     1       1.301  -2.070   1.495  1.00  0.00     0.422 C 
ATOM     25  F   UNL     1       0.930  -2.486   0.263  1.00  0.00    -0.168 F 
ATOM     26  F   UNL     1       2.634  -1.813   1.442  1.00  0.00    -0.168 F 
ATOM     27  F   UNL     1       1.140  -3.097   2.353  1.00  0.00    -0.168 F 
ENDBRANCH   9  24
ENDBRANCH   7   9
ENDBRANCH   6   7
ENDBRANCH   5   6
ENDBRANCH   4   5
ENDBRANCH   3   4
ENDBRANCH   2   3
ENDBRANCH   1   2
BRANCH   1  28
ATOM     28  O   UNL     1      -1.801   0.386  -1.891  1.00  0.00    -0.376 OA
BRANCH  28  29
ATOM     29  C   UNL     1      -2.989   0.672  -2.620  1.00  0.00     0.202 C 
BRANCH  29  30
ATOM     30  C   UNL     1      -3.316  -0.090  -3.920  1.00  0.00     0.261 C 
BRANCH  30  31
ATOM     31  O   UNL     1      -2.972  -1.485  -3.947  1.00  0.00    -0.460 OA
BRANCH  31  32
ATOM     32  C   UNL     1      -1.827  -1.798  -4.609  1.00  0.00     0.338 C 
ATOM     33  O   UNL     1      -1.111  -1.030  -5.231  1.00  0.00    -0.246 OA
BRANCH  32  34
ATOM     34  C   UNL     1      -1.421  -3.178  -4.243  1.00  0.00     0.060 A 
ATOM     35  C   UNL     1      -0.141  -3.367  -3.694  1.00  0.00     0.016 A 
ATOM     36  C   UNL     1      -2.285  -4.262  -4.394  1.00  0.00     0.016 A 
ATOM     37  C   UNL     1       0.280  -4.635  -3.297  1.00  0.00     0.010 A 
ATOM     38  C   UNL     1      -1.843  -5.544  -4.045  1.00  0.00     0.010 A 
ATOM     39  C   UNL     1      -0.550  -5.738  -3.521  1.00  0.00    -0.014 A 
BRANCH  39  40
ATOM     40  C   UNL     1       0.027  -7.102  -3.462  1.00  0.00     0.031 A 
ATOM     41  C   UNL     1       0.606  -7.666  -4.733  1.00  0.00     0.074 A 
ATOM     42  C   UNL     1       0.062  -7.820  -2.325  1.00  0.00     0.049 A 
ATOM     43  N   UNL     1       1.103  -8.852  -4.964  1.00  0.00    -0.248 NA
ATOM     44  C   UNL     1       0.624  -6.765  -5.899  1.00  0.00     0.031 C 
ATOM     45  C   UNL     1      -0.398  -7.364  -1.014  1.00  0.00     0.029 A 
ATOM     46  N   UNL     1       0.503  -9.101  -2.101  1.00  0.00    -0.354 N 
ATOM     47  C   UNL     1       1.483  -8.844  -6.301  1.00  0.00     0.074 A 
ATOM     48  C   UNL     1       1.144  -7.544  -6.835  1.00  0.00     0.031 C 
ATOM     49  C   UNL     1      -0.234  -8.362  -0.126  1.00  0.00     0.029 A 
ATOM     50  C   UNL     1       0.309  -9.535  -0.810  1.00  0.00     0.049 A 
ATOM     51  H   UNL     1       0.919  -9.657  -2.799  1.00  0.00     0.167 HD
ATOM     52  C   UNL     1       2.060  -9.831  -7.024  1.00  0.00     0.031 A 
ATOM     53  C   UNL     1       0.520 -10.747  -0.257  1.00  0.00     0.031 A 
ATOM     54  C   UNL     1       2.376 -11.131  -6.502  1.00  0.00     0.049 A 
ATOM     55  C   UNL     1       1.077 -11.863  -1.108  1.00  0.00     0.074 A 
ATOM     56  C   UNL     1       2.958 -12.201  -7.157  1.00  0.00     0.029 A 
ATOM     57  N   UNL     1       2.127 -11.542  -5.202  1.00  0.00    -0.354 N 
ATOM     58  N   UNL     1       1.440 -11.840  -2.369  1.00  0.00    -0.248 NA
ATOM     59  C   UNL     1       1.256 -13.171  -0.458  1.00  0.00     0.031 C 
ATOM     60  C   UNL     1       3.011 -13.278  -6.268  1.00  0.00     0.029 A 
ATOM     61  C   UNL     1       2.520 -12.859  -5.042  1.00  0.00     0.049 A 
ATOM     62  H   UNL     1       1.729 -10.981  -4.498  1.00  0.00     0.167 HD
ATOM     63  C   UNL     1       1.921 -13.116  -2.651  1.00  0.00     0.074 A 
ATOM     64  C   UNL     1       1.810 -13.884  -1.429  1.00  0.00     0.031 C 
ATOM     65  C   UNL     1       2.412 -13.608  -3.816  1.00  0.00     0.031 A 
BRANCH  52  66
ATOM     66  C   UNL     1       2.344  -9.550  -8.473  1.00  0.00    -0.014 A 
ATOM     67  C   UNL     1       3.384  -8.685  -8.858  1.00  0.00     0.010 A 
ATOM     68  C   UNL     1       1.576 -10.187  -9.465  1.00  0.00     0.010 A 
ATOM     69  C   UNL     1       3.632  -8.439 -10.211  1.00  0.00     0.020 A 
ATOM     70  C   UNL     1       1.838  -9.963 -10.819  1.00  0.00     0.020 A 
ATOM     71  C   UNL     1       2.856  -9.080 -11.182  1.00  0.00     0.054 A 
BRANCH  71  72
ATOM     72  S   UNL     1       3.221  -8.767 -12.931  1.00  0.00     0.124 S 
ATOM     73  O   UNL     1       2.721  -7.405 -13.104  1.00  0.00    -0.237 OA
ATOM     74  O   UNL     1       4.673  -8.915 -12.986  1.00  0.00    -0.237 OA
ATOM     75  O   UNL     1       2.465  -9.801 -13.633  1.00  0.00    -0.744 OA
ENDBRANCH  71  72
ENDBRANCH  52  66
BRANCH  53  76
ATOM     76  C   UNL     1       0.170 -10.993   1.170  1.00  0.00    -0.014 A 
ATOM     77  C   UNL     1       1.172 -11.241   2.126  1.00  0.00     0.010 A 
ATOM     78  C   UNL     1      -1.177 -11.014   1.575  1.00  0.00     0.010 A 
ATOM     79  C   UNL     1       0.832 -11.529   3.452  1.00  0.00     0.020 A 
ATOM     80  C   UNL     1      -1.520 -11.273   2.905  1.00  0.00     0.020 A 
ATOM     81  C   UNL     1      -0.513 -11.544   3.833  1.00  0.00     0.054 A 
BRANCH  81  82
ATOM     82  S   UNL     1      -0.930 -11.886   5.566  1.00  0.00     0.124 S 
ATOM     83  O   UNL     1      -0.685 -13.322   5.658  1.00  0.00    -0.237 OA
ATOM     84  O   UNL     1       0.009 -11.035   6.291  1.00  0.00    -0.237 OA
ATOM     85  O   UNL     1      -2.331 -11.482   5.665  1.00  0.00    -0.744 OA
ENDBRANCH  81  82
ENDBRANCH  53  76
BRANCH  65  86
ATOM     86  C   UNL     1       2.917 -15.027  -3.822  1.00  0.00    -0.014 A 
ATOM     87  C   UNL     1       2.033 -16.120  -3.775  1.00  0.00     0.010 A 
ATOM     88  C   UNL     1       4.297 -15.268  -3.953  1.00  0.00     0.010 A 
ATOM     89  C   UNL     1       2.525 -17.428  -3.828  1.00  0.00     0.020 A 
ATOM     90  C   UNL     1       4.790 -16.573  -4.034  1.00  0.00     0.020 A 
ATOM     91  C   UNL     1       3.900 -17.646  -3.958  1.00  0.00     0.054 A 
BRANCH  91  92
ATOM     92  S   UNL     1       4.509 -19.351  -4.074  1.00  0.00     0.124 S 
ATOM     93  O   UNL     1       4.369 -19.819  -2.698  1.00  0.00    -0.237 OA
ATOM     94  O   UNL     1       3.593 -19.954  -5.040  1.00  0.00    -0.237 OA
ATOM     95  O   UNL     1       5.885 -19.197  -4.543  1.00  0.00    -0.744 OA
ENDBRANCH  91  92
ENDBRANCH  65  86
ENDBRANCH  39  40
ENDBRANCH  32  34
ENDBRANCH  31  32
ENDBRANCH  30  31
ENDBRANCH  29  30
ENDBRANCH  28  29
ENDBRANCH   1  28
TORSDOF 23
