REMARK SMILES CC(C)(C)OC(=O)N1[C@@H](C(=O)OCCOCCOCCOC(=O)c2ccc(-c3c4nc(c(-c5ccc(S(=O)(=O)[O-])cc5)c5ccc([nH]5)c(-c5ccc(S(=O)(=O)[O-])cc5)c5nc(c(-c6ccc(S(=O)(=O)[O-])cc6)c6ccc3[nH]6)C=C5)C=C4)cc2)C[C@H]2CCCC[C@@H]21
REMARK SMILES IDX 16 1 15 2 14 3 13 4 12 5 10 6 11 7 9 8 8 9 90 10 84 11 85 12
REMARK SMILES IDX 89 13 86 14 88 15 87 16 6 17 7 18 5 19 2 20 1 21 3 22 4 23
REMARK SMILES IDX 17 24 18 25 19 26 20 27 21 28 22 29 23 30 24 31 25 32 83 33
REMARK SMILES IDX 26 34 82 35 27 36 28 37 29 38 76 39 30 40 81 41 75 42 77 43
REMARK SMILES IDX 31 44 80 45 74 46 73 47 32 49 62 50 43 51 61 52 44 53 47 54
REMARK SMILES IDX 60 55 78 56 45 57 46 58 59 60 79 61 48 62 33 63 34 64 42 65
REMARK SMILES IDX 35 66 41 67 36 68 37 69 38 70 39 71 40 72 63 73 64 74 72 75
REMARK SMILES IDX 65 76 71 77 66 78 67 79 68 80 69 81 70 82 49 83 50 84 58 85
REMARK SMILES IDX 51 86 57 87 52 88 53 89 54 90 55 91 56 92
REMARK H PARENT 77 48 47 59
REMARK Flexibility Score: inf
ROOT
ATOM      1  C   UNL     1       2.664  -5.535   3.423  1.00  0.00     0.188 C 
ENDROOT
BRANCH   1   2
ATOM      2  O   UNL     1       3.833  -6.256   3.797  1.00  0.00    -0.376 OA
BRANCH   2   3
ATOM      3  C   UNL     1       5.117  -5.776   3.450  1.00  0.00     0.202 C 
BRANCH   3   4
ATOM      4  C   UNL     1       5.487  -5.670   1.961  1.00  0.00     0.261 C 
BRANCH   4   5
ATOM      5  O   UNL     1       4.559  -5.005   1.074  1.00  0.00    -0.462 OA
BRANCH   5   6
ATOM      6  C   UNL     1       3.624  -5.814   0.497  1.00  0.00     0.329 C 
ATOM      7  O   UNL     1       3.510  -7.006   0.767  1.00  0.00    -0.250 OA
BRANCH   6   8
ATOM      8  C   UNL     1       2.708  -5.072  -0.530  1.00  0.00     0.199 C 
ATOM      9  N   UNL     1       1.309  -4.788  -0.104  1.00  0.00    -0.291 N 
ATOM     10  C   UNL     1       0.506  -5.983  -0.287  1.00  0.00     0.092 C 
ATOM     11  C   UNL     1       2.526  -6.125  -1.660  1.00  0.00     0.043 C 
ATOM     12  C   UNL     1       1.050  -6.525  -1.609  1.00  0.00     0.014 C 
ATOM     13  C   UNL     1      -1.018  -5.903  -0.454  1.00  0.00     0.025 C 
ATOM     14  C   UNL     1       0.667  -7.994  -1.711  1.00  0.00     0.006 C 
ATOM     15  C   UNL     1      -1.595  -7.303  -0.702  1.00  0.00     0.002 C 
ATOM     16  C   UNL     1      -0.865  -8.092  -1.796  1.00  0.00     0.000 C 
BRANCH   9  17
ATOM     17  C   UNL     1       0.743  -3.638   0.401  1.00  0.00     0.411 C 
ATOM     18  O   UNL     1      -0.327  -3.661   1.003  1.00  0.00    -0.224 OA
BRANCH  17  19
ATOM     19  O   UNL     1       1.404  -2.476   0.157  1.00  0.00    -0.444 OA
BRANCH  19  20
ATOM     20  C   UNL     1       0.807  -1.205   0.614  1.00  0.00     0.106 C 
ATOM     21  C   UNL     1       1.406  -0.113  -0.284  1.00  0.00     0.056 C 
ATOM     22  C   UNL     1       1.222  -0.940   2.065  1.00  0.00     0.056 C 
ATOM     23  C   UNL     1      -0.731  -1.081   0.492  1.00  0.00     0.056 C 
ENDBRANCH  19  20
ENDBRANCH  17  19
ENDBRANCH   9  17
ENDBRANCH   6   8
ENDBRANCH   5   6
ENDBRANCH   4   5
ENDBRANCH   3   4
ENDBRANCH   2   3
ENDBRANCH   1   2
BRANCH   1  24
ATOM     24  C   UNL     1       2.730  -4.022   3.137  1.00  0.00     0.188 C 
BRANCH  24  25
ATOM     25  O   UNL     1       3.854  -3.387   3.698  1.00  0.00    -0.376 OA
BRANCH  25  26
ATOM     26  C   UNL     1       3.675  -2.567   4.829  1.00  0.00     0.202 C 
BRANCH  26  27
ATOM     27  C   UNL     1       2.795  -3.004   6.015  1.00  0.00     0.261 C 
BRANCH  27  28
ATOM     28  O   UNL     1       1.743  -3.948   5.761  1.00  0.00    -0.460 OA
BRANCH  28  29
ATOM     29  C   UNL     1       0.499  -3.452   5.560  1.00  0.00     0.338 C 
ATOM     30  O   UNL     1       0.185  -2.276   5.526  1.00  0.00    -0.246 OA
BRANCH  29  31
ATOM     31  C   UNL     1      -0.427  -4.566   5.245  1.00  0.00     0.060 A 
ATOM     32  C   UNL     1      -0.775  -4.790   3.913  1.00  0.00     0.016 A 
ATOM     33  C   UNL     1      -1.020  -5.331   6.247  1.00  0.00     0.016 A 
ATOM     34  C   UNL     1      -1.730  -5.747   3.568  1.00  0.00     0.010 A 
ATOM     35  C   UNL     1      -1.989  -6.290   5.904  1.00  0.00     0.010 A 
ATOM     36  C   UNL     1      -2.374  -6.484   4.563  1.00  0.00    -0.014 A 
BRANCH  36  37
ATOM     37  C   UNL     1      -3.558  -7.315   4.213  1.00  0.00     0.031 A 
ATOM     38  C   UNL     1      -4.933  -6.797   4.550  1.00  0.00     0.074 A 
ATOM     39  C   UNL     1      -3.436  -8.481   3.549  1.00  0.00     0.049 A 
ATOM     40  N   UNL     1      -6.097  -7.383   4.432  1.00  0.00    -0.248 NA
ATOM     41  C   UNL     1      -4.997  -5.431   5.093  1.00  0.00     0.031 C 
ATOM     42  C   UNL     1      -2.183  -9.050   3.058  1.00  0.00     0.029 A 
ATOM     43  N   UNL     1      -4.390  -9.395   3.170  1.00  0.00    -0.354 N 
ATOM     44  C   UNL     1      -7.030  -6.469   4.912  1.00  0.00     0.074 A 
ATOM     45  C   UNL     1      -6.291  -5.301   5.344  1.00  0.00     0.031 C 
ATOM     46  C   UNL     1      -2.445 -10.215   2.439  1.00  0.00     0.029 A 
ATOM     47  C   UNL     1      -3.875 -10.504   2.542  1.00  0.00     0.049 A 
ATOM     48  H   UNL     1      -5.353  -9.268   3.333  1.00  0.00     0.167 HD
ATOM     49  C   UNL     1      -8.378  -6.589   4.991  1.00  0.00     0.031 A 
ATOM     50  C   UNL     1      -4.478 -11.637   2.126  1.00  0.00     0.031 A 
ATOM     51  C   UNL     1      -9.111  -7.757   4.571  1.00  0.00     0.049 A 
ATOM     52  C   UNL     1      -5.963 -11.803   2.334  1.00  0.00     0.074 A 
ATOM     53  C   UNL     1     -10.474  -7.987   4.630  1.00  0.00     0.029 A 
ATOM     54  N   UNL     1      -8.540  -8.894   4.017  1.00  0.00    -0.354 N 
ATOM     55  N   UNL     1      -6.829 -10.953   2.833  1.00  0.00    -0.248 NA
ATOM     56  C   UNL     1      -6.550 -13.086   1.921  1.00  0.00     0.031 C 
ATOM     57  C   UNL     1     -10.720  -9.286   4.173  1.00  0.00     0.029 A 
ATOM     58  C   UNL     1      -9.520  -9.839   3.756  1.00  0.00     0.049 A 
ATOM     59  H   UNL     1      -7.580  -9.012   3.835  1.00  0.00     0.167 HD
ATOM     60  C   UNL     1      -8.067 -11.587   2.767  1.00  0.00     0.074 A 
ATOM     61  C   UNL     1      -7.838 -12.884   2.164  1.00  0.00     0.031 C 
ATOM     62  C   UNL     1      -9.283 -11.134   3.164  1.00  0.00     0.031 A 
BRANCH  49  63
ATOM     63  C   UNL     1      -9.136  -5.445   5.618  1.00  0.00    -0.014 A 
ATOM     64  C   UNL     1      -9.239  -4.191   4.987  1.00  0.00     0.010 A 
ATOM     65  C   UNL     1      -9.753  -5.629   6.869  1.00  0.00     0.010 A 
ATOM     66  C   UNL     1      -9.888  -3.129   5.624  1.00  0.00     0.020 A 
ATOM     67  C   UNL     1     -10.434  -4.580   7.493  1.00  0.00     0.020 A 
ATOM     68  C   UNL     1     -10.475  -3.329   6.877  1.00  0.00     0.054 A 
BRANCH  68  69
ATOM     69  S   UNL     1     -11.298  -1.930   7.687  1.00  0.00     0.124 S 
ATOM     70  O   UNL     1     -10.164  -1.090   8.065  1.00  0.00    -0.237 OA
ATOM     71  O   UNL     1     -12.147  -1.398   6.624  1.00  0.00    -0.237 OA
ATOM     72  O   UNL     1     -12.014  -2.546   8.802  1.00  0.00    -0.744 OA
ENDBRANCH  68  69
ENDBRANCH  49  63
BRANCH  50  73
ATOM     73  C   UNL     1      -3.675 -12.723   1.494  1.00  0.00    -0.014 A 
ATOM     74  C   UNL     1      -3.856 -13.052   0.138  1.00  0.00     0.010 A 
ATOM     75  C   UNL     1      -2.721 -13.435   2.244  1.00  0.00     0.010 A 
ATOM     76  C   UNL     1      -3.102 -14.071  -0.452  1.00  0.00     0.020 A 
ATOM     77  C   UNL     1      -1.943 -14.434   1.650  1.00  0.00     0.020 A 
ATOM     78  C   UNL     1      -2.143 -14.749   0.305  1.00  0.00     0.054 A 
BRANCH  78  79
ATOM     79  S   UNL     1      -1.126 -16.016  -0.504  1.00  0.00     0.124 S 
ATOM     80  O   UNL     1      -2.093 -17.085  -0.732  1.00  0.00    -0.237 OA
ATOM     81  O   UNL     1      -0.656 -15.321  -1.701  1.00  0.00    -0.237 OA
ATOM     82  O   UNL     1      -0.091 -16.309   0.484  1.00  0.00    -0.744 OA
ENDBRANCH  78  79
ENDBRANCH  50  73
BRANCH  62  83
ATOM     83  C   UNL     1     -10.473 -12.031   2.922  1.00  0.00    -0.014 A 
ATOM     84  C   UNL     1     -10.651 -13.230   3.636  1.00  0.00     0.010 A 
ATOM     85  C   UNL     1     -11.448 -11.648   1.982  1.00  0.00     0.010 A 
ATOM     86  C   UNL     1     -11.753 -14.051   3.379  1.00  0.00     0.020 A 
ATOM     87  C   UNL     1     -12.570 -12.448   1.747  1.00  0.00     0.020 A 
ATOM     88  C   UNL     1     -12.705 -13.656   2.433  1.00  0.00     0.054 A 
BRANCH  88  89
ATOM     89  S   UNL     1     -14.136 -14.730   2.132  1.00  0.00     0.124 S 
ATOM     90  O   UNL     1     -13.531 -15.848   1.413  1.00  0.00    -0.237 OA
ATOM     91  O   UNL     1     -14.602 -15.030   3.483  1.00  0.00    -0.237 OA
ATOM     92  O   UNL     1     -15.036 -13.895   1.339  1.00  0.00    -0.744 OA
ENDBRANCH  88  89
ENDBRANCH  62  83
ENDBRANCH  36  37
ENDBRANCH  29  31
ENDBRANCH  28  29
ENDBRANCH  27  28
ENDBRANCH  26  27
ENDBRANCH  25  26
ENDBRANCH  24  25
ENDBRANCH   1  24
TORSDOF 23
