REMARK SMILES CC(C)Cc1s/c(=N/C(=O)CCC(=O)Nc2nccs2)[nH]c1C(=O)OCCOCCOCCOC(=O)c1ccc(-c2c3nc(c(-c4ccc(S(=O)(=O)[O-])cc4)c4ccc([nH]4)c(-c4ccc(S(=O)(=O)[O-])cc4)c4nc(c(-c5ccc(S(=O)(=O)[O-])cc5)c5ccc2[nH]5)C=C4)C=C3)cc1
REMARK SMILES IDX 29 1 28 2 27 3 26 4 25 5 23 6 24 7 22 8 5 9 6 10 7 11 21 12
REMARK SMILES IDX 8 13 4 15 2 16 1 17 3 18 9 19 10 20 11 21 12 22 13 23 14 24
REMARK SMILES IDX 15 25 16 27 17 28 20 29 18 30 19 31 30 32 31 33 32 34 33 35
REMARK SMILES IDX 34 36 35 37 36 38 37 39 38 40 96 41 39 42 95 43 40 44 41 45
REMARK SMILES IDX 42 46 89 47 43 48 94 49 88 50 90 51 44 52 93 53 87 54 86 55
REMARK SMILES IDX 45 57 75 58 56 59 74 60 57 61 60 62 73 63 91 64 58 65 59 66
REMARK SMILES IDX 72 68 92 69 61 70 46 71 47 72 55 73 48 74 54 75 49 76 50 77
REMARK SMILES IDX 51 78 52 79 53 80 76 81 77 82 85 83 78 84 84 85 79 86 80 87
REMARK SMILES IDX 81 88 82 89 83 90 62 91 63 92 71 93 64 94 70 95 65 96 66 97
REMARK SMILES IDX 67 98 68 99 69 100
REMARK H PARENT 21 14 15 26 90 56 60 67
REMARK Flexibility Score: inf
ROOT
ATOM      1  C   UNL     1       0.953  -2.730  -0.696  1.00  0.00     0.188 C 
ENDROOT
BRANCH   1   2
ATOM      2  O   UNL     1       0.947  -2.780  -2.120  1.00  0.00    -0.376 OA
BRANCH   2   3
ATOM      3  C   UNL     1       0.720  -1.521  -2.756  1.00  0.00     0.202 C 
BRANCH   3   4
ATOM      4  C   UNL     1      -0.768  -1.168  -2.877  1.00  0.00     0.261 C 
BRANCH   4   5
ATOM      5  O   UNL     1      -1.301  -0.676  -1.629  1.00  0.00    -0.459 OA
BRANCH   5   6
ATOM      6  C   UNL     1      -2.115  -1.518  -0.951  1.00  0.00     0.356 C 
ATOM      7  O   UNL     1      -2.476  -2.623  -1.332  1.00  0.00    -0.244 OA
BRANCH   6   8
ATOM      8  C   UNL     1      -2.457  -1.018   0.411  1.00  0.00     0.140 A 
ATOM      9  C   UNL     1      -2.340   0.223   0.938  1.00  0.00     0.039 A 
ATOM     10  S   UNL     1      -3.011   0.242   2.596  1.00  0.00    -0.101 S 
ATOM     11  C   UNL     1      -3.276  -1.529   2.566  1.00  0.00     0.190 A 
ATOM     12  N   UNL     1      -2.959  -1.949   1.308  1.00  0.00    -0.325 N 
ATOM     13  N   UNL     1      -3.645  -2.141   3.634  1.00  0.00    -0.185 NA
ATOM     14  H   UNL     1      -3.083  -2.889   1.044  1.00  0.00     0.169 HD
BRANCH   9  15
ATOM     15  C   UNL     1      -1.850   1.516   0.336  1.00  0.00     0.052 C 
BRANCH  15  16
ATOM     16  C   UNL     1      -0.416   1.945   0.738  1.00  0.00    -0.012 C 
ATOM     17  C   UNL     1       0.654   0.949   0.304  1.00  0.00     0.008 C 
ATOM     18  C   UNL     1      -0.080   3.306   0.118  1.00  0.00     0.008 C 
ENDBRANCH  15  16
ENDBRANCH   9  15
BRANCH  13  19
ATOM     19  C   UNL     1      -3.644  -3.521   3.594  1.00  0.00     0.248 C 
ATOM     20  O   UNL     1      -3.373  -4.186   2.594  1.00  0.00    -0.273 OA
BRANCH  19  21
ATOM     21  C   UNL     1      -4.047  -4.197   4.895  1.00  0.00     0.112 C 
BRANCH  21  22
ATOM     22  C   UNL     1      -3.032  -4.131   6.029  1.00  0.00     0.110 C 
BRANCH  22  23
ATOM     23  C   UNL     1      -2.892  -2.748   6.636  1.00  0.00     0.226 C 
ATOM     24  O   UNL     1      -3.709  -2.354   7.476  1.00  0.00    -0.275 OA
ATOM     25  N   UNL     1      -1.885  -1.904   6.284  1.00  0.00    -0.302 N 
ATOM     26  H   UNL     1      -1.772  -1.093   6.830  1.00  0.00     0.172 HD
BRANCH  25  27
ATOM     27  C   UNL     1      -1.018  -2.076   5.249  1.00  0.00     0.189 A 
ATOM     28  N   UNL     1      -0.892  -3.101   4.448  1.00  0.00    -0.229 NA
ATOM     29  S   UNL     1      -0.069  -0.708   4.876  1.00  0.00    -0.105 S 
ATOM     30  C   UNL     1      -0.125  -2.745   3.364  1.00  0.00     0.125 A 
ATOM     31  C   UNL     1       0.399  -1.472   3.412  1.00  0.00     0.088 A 
ENDBRANCH  25  27
ENDBRANCH  22  23
ENDBRANCH  21  22
ENDBRANCH  19  21
ENDBRANCH  13  19
ENDBRANCH   6   8
ENDBRANCH   5   6
ENDBRANCH   4   5
ENDBRANCH   3   4
ENDBRANCH   2   3
ENDBRANCH   1   2
BRANCH   1  32
ATOM     32  C   UNL     1       2.348  -2.524  -0.121  1.00  0.00     0.188 C 
BRANCH  32  33
ATOM     33  O   UNL     1       2.906  -1.258  -0.489  1.00  0.00    -0.376 OA
BRANCH  33  34
ATOM     34  C   UNL     1       4.145  -1.374  -1.195  1.00  0.00     0.202 C 
BRANCH  34  35
ATOM     35  C   UNL     1       5.362  -1.522  -0.272  1.00  0.00     0.261 C 
BRANCH  35  36
ATOM     36  O   UNL     1       5.236  -2.684   0.566  1.00  0.00    -0.460 OA
BRANCH  36  37
ATOM     37  C   UNL     1       4.880  -2.420   1.851  1.00  0.00     0.338 C 
ATOM     38  O   UNL     1       4.848  -1.329   2.384  1.00  0.00    -0.246 OA
BRANCH  37  39
ATOM     39  C   UNL     1       4.304  -3.640   2.474  1.00  0.00     0.060 A 
ATOM     40  C   UNL     1       3.286  -3.438   3.414  1.00  0.00     0.016 A 
ATOM     41  C   UNL     1       4.696  -4.940   2.143  1.00  0.00     0.016 A 
ATOM     42  C   UNL     1       2.661  -4.520   4.027  1.00  0.00     0.010 A 
ATOM     43  C   UNL     1       4.090  -6.031   2.784  1.00  0.00     0.010 A 
ATOM     44  C   UNL     1       3.085  -5.821   3.745  1.00  0.00    -0.014 A 
BRANCH  44  45
ATOM     45  C   UNL     1       2.666  -6.897   4.673  1.00  0.00     0.031 A 
ATOM     46  C   UNL     1       3.533  -7.139   5.880  1.00  0.00     0.074 A 
ATOM     47  C   UNL     1       1.508  -7.565   4.523  1.00  0.00     0.049 A 
ATOM     48  N   UNL     1       3.379  -7.989   6.859  1.00  0.00    -0.248 NA
ATOM     49  C   UNL     1       4.730  -6.288   6.001  1.00  0.00     0.031 C 
ATOM     50  C   UNL     1       0.534  -7.354   3.453  1.00  0.00     0.029 A 
ATOM     51  N   UNL     1       0.950  -8.555   5.295  1.00  0.00    -0.354 N 
ATOM     52  C   UNL     1       4.457  -7.777   7.710  1.00  0.00     0.074 A 
ATOM     53  C   UNL     1       5.270  -6.736   7.122  1.00  0.00     0.031 C 
ATOM     54  C   UNL     1      -0.501  -8.196   3.634  1.00  0.00     0.029 A 
ATOM     55  C   UNL     1      -0.250  -9.022   4.814  1.00  0.00     0.049 A 
ATOM     56  H   UNL     1       1.371  -8.898   6.117  1.00  0.00     0.167 HD
ATOM     57  C   UNL     1       4.749  -8.392   8.880  1.00  0.00     0.031 A 
ATOM     58  C   UNL     1      -1.042 -10.015   5.269  1.00  0.00     0.031 A 
ATOM     59  C   UNL     1       3.959  -9.448   9.448  1.00  0.00     0.049 A 
ATOM     60  C   UNL     1      -0.642 -10.759   6.521  1.00  0.00     0.074 A 
ATOM     61  C   UNL     1       4.187 -10.164  10.609  1.00  0.00     0.029 A 
ATOM     62  N   UNL     1       2.791  -9.944   8.892  1.00  0.00    -0.354 N 
ATOM     63  N   UNL     1       0.392 -10.563   7.305  1.00  0.00    -0.248 NA
ATOM     64  C   UNL     1      -1.524 -11.853   6.952  1.00  0.00     0.031 C 
ATOM     65  C   UNL     1       3.183 -11.132  10.726  1.00  0.00     0.029 A 
ATOM     66  C   UNL     1       2.296 -10.974   9.672  1.00  0.00     0.049 A 
ATOM     67  H   UNL     1       2.374  -9.613   8.063  1.00  0.00     0.167 HD
ATOM     68  C   UNL     1       0.269 -11.490   8.337  1.00  0.00     0.074 A 
ATOM     69  C   UNL     1      -0.948 -12.234   8.084  1.00  0.00     0.031 C 
ATOM     70  C   UNL     1       1.086 -11.708   9.399  1.00  0.00     0.031 A 
BRANCH  57  71
ATOM     71  C   UNL     1       6.015  -7.969   9.573  1.00  0.00    -0.014 A 
ATOM     72  C   UNL     1       6.122  -6.716  10.203  1.00  0.00     0.010 A 
ATOM     73  C   UNL     1       7.122  -8.835   9.573  1.00  0.00     0.010 A 
ATOM     74  C   UNL     1       7.331  -6.319  10.782  1.00  0.00     0.020 A 
ATOM     75  C   UNL     1       8.323  -8.454  10.175  1.00  0.00     0.020 A 
ATOM     76  C   UNL     1       8.426  -7.189  10.758  1.00  0.00     0.054 A 
BRANCH  76  77
ATOM     77  S   UNL     1       9.983  -6.651  11.515  1.00  0.00     0.124 S 
ATOM     78  O   UNL     1      10.465  -5.669  10.546  1.00  0.00    -0.237 OA
ATOM     79  O   UNL     1       9.546  -6.105  12.797  1.00  0.00    -0.237 OA
ATOM     80  O   UNL     1      10.770  -7.879  11.600  1.00  0.00    -0.744 OA
ENDBRANCH  76  77
ENDBRANCH  57  71
BRANCH  58  81
ATOM     81  C   UNL     1      -2.278 -10.394   4.525  1.00  0.00    -0.014 A 
ATOM     82  C   UNL     1      -3.554 -10.189   5.080  1.00  0.00     0.010 A 
ATOM     83  C   UNL     1      -2.178 -10.998   3.257  1.00  0.00     0.010 A 
ATOM     84  C   UNL     1      -4.702 -10.598   4.393  1.00  0.00     0.020 A 
ATOM     85  C   UNL     1      -3.324 -11.383   2.555  1.00  0.00     0.020 A 
ATOM     86  C   UNL     1      -4.580 -11.192   3.133  1.00  0.00     0.054 A 
BRANCH  86  87
ATOM     87  S   UNL     1      -6.083 -11.681   2.241  1.00  0.00     0.124 S 
ATOM     88  O   UNL     1      -6.511 -12.860   2.988  1.00  0.00    -0.237 OA
ATOM     89  O   UNL     1      -6.932 -10.501   2.382  1.00  0.00    -0.237 OA
ATOM     90  O   UNL     1      -5.607 -11.939   0.884  1.00  0.00    -0.744 OA
ENDBRANCH  86  87
ENDBRANCH  58  81
BRANCH  70  91
ATOM     91  C   UNL     1       0.669 -12.766  10.388  1.00  0.00    -0.014 A 
ATOM     92  C   UNL     1       0.714 -14.133  10.063  1.00  0.00     0.010 A 
ATOM     93  C   UNL     1       0.257 -12.382  11.678  1.00  0.00     0.010 A 
ATOM     94  C   UNL     1       0.304 -15.094  10.992  1.00  0.00     0.020 A 
ATOM     95  C   UNL     1      -0.122 -13.341  12.620  1.00  0.00     0.020 A 
ATOM     96  C   UNL     1      -0.118 -14.691  12.263  1.00  0.00     0.054 A 
BRANCH  96  97
ATOM     97  S   UNL     1      -0.635 -15.955  13.456  1.00  0.00     0.124 S 
ATOM     98  O   UNL     1      -1.953 -16.329  12.949  1.00  0.00    -0.237 OA
ATOM     99  O   UNL     1       0.403 -16.973  13.318  1.00  0.00    -0.237 OA
ATOM    100  O   UNL     1      -0.637 -15.245  14.733  1.00  0.00    -0.744 OA
ENDBRANCH  96  97
ENDBRANCH  70  91
ENDBRANCH  44  45
ENDBRANCH  37  39
ENDBRANCH  36  37
ENDBRANCH  35  36
ENDBRANCH  34  35
ENDBRANCH  33  34
ENDBRANCH  32  33
ENDBRANCH   1  32
TORSDOF 27
