REMARK SMILES Cc1cc(S(=O)(=O)Nc2ccc(Cl)cc2F)ccc1OCC(=O)OCCOCCOCCOC(=O)c1ccc(-c2c3nc(c(-c4ccc(S(=O)(=O)[O-])cc4)c4ccc([nH]4)c(-c4ccc(S(=O)(=O)[O-])cc4)c4nc(c(-c5ccc(S(=O)(=O)[O-])cc5)c5ccc2[nH]5)C=C4)C=C3)cc1
REMARK SMILES IDX 28 1 27 2 26 3 25 4 24 5 22 6 23 7 21 8 20 9 19 10 1 11 2 12
REMARK SMILES IDX 3 13 4 14 18 15 17 16 5 17 6 18 7 19 8 20 9 22 10 23 15 24
REMARK SMILES IDX 11 25 14 26 16 27 12 28 13 29 29 30 30 31 31 32 32 33 33 34
REMARK SMILES IDX 34 35 35 36 36 37 37 38 95 39 38 40 94 41 39 42 40 43 41 44
REMARK SMILES IDX 88 45 42 46 93 47 87 48 89 49 43 50 92 51 86 52 85 53 44 55
REMARK SMILES IDX 74 56 55 57 73 58 56 59 59 60 72 61 90 62 57 63 58 64 71 66
REMARK SMILES IDX 91 67 60 68 45 69 46 70 54 71 47 72 53 73 48 74 49 75 50 76
REMARK SMILES IDX 51 77 52 78 75 79 76 80 84 81 77 82 83 83 78 84 79 85 80 86
REMARK SMILES IDX 81 87 82 88 61 89 62 90 70 91 63 92 69 93 64 94 65 95 66 96
REMARK SMILES IDX 67 97 68 98
REMARK H PARENT 8 21 89 54 59 65
REMARK Flexibility Score: inf
ROOT
ATOM      1  C   UNL     1       3.165  -1.182   3.750  1.00  0.00     0.188 C 
ENDROOT
BRANCH   1   2
ATOM      2  O   UNL     1       3.692  -0.001   4.392  1.00  0.00    -0.376 OA
BRANCH   2   3
ATOM      3  C   UNL     1       2.937   1.124   4.922  1.00  0.00     0.202 C 
BRANCH   3   4
ATOM      4  C   UNL     1       2.553   2.627   4.202  1.00  0.00     0.261 C 
BRANCH   4   5
ATOM      5  O   UNL     1       1.570   3.007   2.864  1.00  0.00    -0.461 OA
BRANCH   5   6
ATOM      6  C   UNL     1       1.489   3.645   1.466  1.00  0.00     0.344 C 
ATOM      7  O   UNL     1       2.303   4.175   0.691  1.00  0.00    -0.248 OA
BRANCH   6   8
ATOM      8  C   UNL     1       0.182   3.568   0.867  1.00  0.00     0.351 C 
BRANCH   8   9
ATOM      9  O   UNL     1      -0.050   2.331   1.487  1.00  0.00    -0.482 OA
BRANCH   9  10
ATOM     10  C   UNL     1       0.252   1.344   0.512  1.00  0.00     0.123 A 
ATOM     11  C   UNL     1       2.570  -1.122   0.304  1.00  0.00     0.048 C 
ATOM     12  C   UNL     1       1.169  -0.470   0.391  1.00  0.00    -0.008 A 
ATOM     13  C   UNL     1       0.196  -1.759  -0.506  1.00  0.00     0.029 A 
ATOM     14  C   UNL     1      -1.450  -1.377  -1.035  1.00  0.00     0.088 A 
ATOM     15  C   UNL     1      -1.366   1.527  -0.221  1.00  0.00     0.048 A 
ATOM     16  C   UNL     1      -2.103   0.203  -0.908  1.00  0.00     0.026 A 
BRANCH  14  17
ATOM     17  S   UNL     1      -2.697  -2.740  -0.988  1.00  0.00     0.262 S 
ATOM     18  O   UNL     1      -2.266  -3.761  -1.913  1.00  0.00    -0.201 OA
ATOM     19  O   UNL     1      -2.995  -3.063   0.394  1.00  0.00    -0.201 OA
BRANCH  17  20
ATOM     20  N   UNL     1      -4.278  -2.302  -1.513  1.00  0.00    -0.277 N 
ATOM     21  H   UNL     1      -4.756  -2.909  -2.123  1.00  0.00     0.180 HD
BRANCH  20  22
ATOM     22  C   UNL     1      -4.931  -1.086  -1.099  1.00  0.00     0.085 A 
ATOM     23  C   UNL     1      -5.366  -0.836   0.210  1.00  0.00     0.031 A 
ATOM     24  C   UNL     1      -5.053  -0.071  -2.062  1.00  0.00     0.148 A 
ATOM     25  C   UNL     1      -5.825   0.450   0.554  1.00  0.00     0.023 A 
ATOM     26  C   UNL     1      -5.458   1.215  -1.713  1.00  0.00     0.062 A 
ATOM     27  F   UNL     1      -4.569  -0.274  -3.297  1.00  0.00    -0.205 F 
ATOM     28  C   UNL     1      -5.829   1.474  -0.399  1.00  0.00     0.044 A 
ATOM     29  Cl  UNL     1      -6.225   3.083   0.065  1.00  0.00    -0.084 Cl
ENDBRANCH  20  22
ENDBRANCH  17  20
ENDBRANCH  14  17
ENDBRANCH   9  10
ENDBRANCH   8   9
ENDBRANCH   6   8
ENDBRANCH   5   6
ENDBRANCH   4   5
ENDBRANCH   3   4
ENDBRANCH   2   3
ENDBRANCH   1   2
BRANCH   1  30
ATOM     30  C   UNL     1       1.824  -1.847   4.108  1.00  0.00     0.188 C 
BRANCH  30  31
ATOM     31  O   UNL     1       0.952  -0.895   4.675  1.00  0.00    -0.376 OA
BRANCH  31  32
ATOM     32  C   UNL     1      -0.364  -1.269   5.051  1.00  0.00     0.202 C 
BRANCH  32  33
ATOM     33  C   UNL     1      -1.266  -2.039   4.044  1.00  0.00     0.261 C 
BRANCH  33  34
ATOM     34  O   UNL     1      -1.707  -1.258   2.878  1.00  0.00    -0.460 OA
BRANCH  34  35
ATOM     35  C   UNL     1      -1.140  -1.645   1.668  1.00  0.00     0.338 C 
ATOM     36  O   UNL     1      -0.721  -2.788   1.536  1.00  0.00    -0.246 OA
BRANCH  35  37
ATOM     37  C   UNL     1      -0.655  -0.290   0.784  1.00  0.00     0.060 A 
ATOM     38  C   UNL     1       0.214   0.281  -0.977  1.00  0.00     0.016 A 
ATOM     39  C   UNL     1       0.248   0.121   2.240  1.00  0.00     0.016 A 
ATOM     40  C   UNL     1       1.845   1.201  -0.816  1.00  0.00     0.010 A 
ATOM     41  C   UNL     1       1.767   0.823   2.120  1.00  0.00     0.010 A 
ATOM     42  C   UNL     1       2.599   1.492   0.790  1.00  0.00    -0.014 A 
BRANCH  42  43
ATOM     43  C   UNL     1       3.913   2.459   1.551  1.00  0.00     0.031 A 
ATOM     44  C   UNL     1       3.932   4.163   2.230  1.00  0.00     0.074 A 
ATOM     45  C   UNL     1       4.868   1.675   2.135  1.00  0.00     0.049 A 
ATOM     46  N   UNL     1       4.926   5.036   2.207  1.00  0.00    -0.248 NA
ATOM     47  C   UNL     1       2.745   5.069   2.869  1.00  0.00     0.031 C 
ATOM     48  C   UNL     1       5.707   1.948   3.312  1.00  0.00     0.029 A 
ATOM     49  N   UNL     1       5.292   0.395   1.769  1.00  0.00    -0.354 N 
ATOM     50  C   UNL     1       4.416   6.198   2.893  1.00  0.00     0.074 A 
ATOM     51  C   UNL     1       3.070   6.306   2.533  1.00  0.00     0.031 C 
ATOM     52  C   UNL     1       6.671   1.010   3.422  1.00  0.00     0.029 A 
ATOM     53  C   UNL     1       6.612   0.211   2.213  1.00  0.00     0.049 A 
ATOM     54  H   UNL     1       4.754  -0.269   1.280  1.00  0.00     0.167 HD
ATOM     55  C   UNL     1       4.802   6.581   4.169  1.00  0.00     0.031 A 
ATOM     56  C   UNL     1       7.590   0.130   1.267  1.00  0.00     0.031 A 
ATOM     57  C   UNL     1       5.996   5.851   4.501  1.00  0.00     0.049 A 
ATOM     58  C   UNL     1       8.382   1.432   1.278  1.00  0.00     0.074 A 
ATOM     59  C   UNL     1       6.379   4.925   5.445  1.00  0.00     0.029 A 
ATOM     60  N   UNL     1       6.931   5.804   3.497  1.00  0.00    -0.354 N 
ATOM     61  N   UNL     1       7.924   2.544   1.802  1.00  0.00    -0.248 NA
ATOM     62  C   UNL     1       9.783   1.563   0.891  1.00  0.00     0.031 C 
ATOM     63  C   UNL     1       7.526   4.242   4.905  1.00  0.00     0.029 A 
ATOM     64  C   UNL     1       7.816   4.777   3.657  1.00  0.00     0.049 A 
ATOM     65  H   UNL     1       6.960   6.439   2.745  1.00  0.00     0.167 HD
ATOM     66  C   UNL     1       8.925   3.455   1.935  1.00  0.00     0.074 A 
ATOM     67  C   UNL     1      10.061   2.817   1.298  1.00  0.00     0.031 C 
ATOM     68  C   UNL     1       8.808   4.642   2.601  1.00  0.00     0.031 A 
BRANCH  55  69
ATOM     69  C   UNL     1       3.986   7.432   5.207  1.00  0.00    -0.014 A 
ATOM     70  C   UNL     1       4.635   7.851   6.388  1.00  0.00     0.010 A 
ATOM     71  C   UNL     1       2.621   7.839   5.134  1.00  0.00     0.010 A 
ATOM     72  C   UNL     1       4.006   8.646   7.378  1.00  0.00     0.020 A 
ATOM     73  C   UNL     1       1.981   8.651   6.103  1.00  0.00     0.020 A 
ATOM     74  C   UNL     1       2.686   9.064   7.220  1.00  0.00     0.054 A 
BRANCH  74  75
ATOM     75  S   UNL     1       1.927  10.159   8.458  1.00  0.00     0.124 S 
ATOM     76  O   UNL     1       1.983   9.351   9.673  1.00  0.00    -0.237 OA
ATOM     77  O   UNL     1       2.808  11.323   8.434  1.00  0.00    -0.237 OA
ATOM     78  O   UNL     1       0.580  10.396   7.940  1.00  0.00    -0.744 OA
ENDBRANCH  74  75
ENDBRANCH  55  69
BRANCH  56  79
ATOM     79  C   UNL     1       7.162  -0.798   0.157  1.00  0.00    -0.014 A 
ATOM     80  C   UNL     1       7.032  -2.171   0.513  1.00  0.00     0.010 A 
ATOM     81  C   UNL     1       6.437  -0.360  -0.968  1.00  0.00     0.010 A 
ATOM     82  C   UNL     1       6.133  -3.030  -0.142  1.00  0.00     0.020 A 
ATOM     83  C   UNL     1       5.545  -1.230  -1.645  1.00  0.00     0.020 A 
ATOM     84  C   UNL     1       5.378  -2.551  -1.210  1.00  0.00     0.054 A 
BRANCH  84  85
ATOM     85  S   UNL     1       4.059  -3.631  -1.881  1.00  0.00     0.124 S 
ATOM     86  O   UNL     1       4.825  -4.682  -2.544  1.00  0.00    -0.237 OA
ATOM     87  O   UNL     1       3.348  -4.049  -0.674  1.00  0.00    -0.237 OA
ATOM     88  O   UNL     1       3.303  -2.752  -2.769  1.00  0.00    -0.744 OA
ENDBRANCH  84  85
ENDBRANCH  56  79
BRANCH  68  89
ATOM     89  C   UNL     1       9.576   5.888   2.193  1.00  0.00    -0.014 A 
ATOM     90  C   UNL     1      10.317   5.970   1.008  1.00  0.00     0.010 A 
ATOM     91  C   UNL     1       9.400   7.101   2.914  1.00  0.00     0.010 A 
ATOM     92  C   UNL     1      10.959   7.153   0.639  1.00  0.00     0.020 A 
ATOM     93  C   UNL     1       9.939   8.313   2.494  1.00  0.00     0.020 A 
ATOM     94  C   UNL     1      10.777   8.311   1.393  1.00  0.00     0.054 A 
BRANCH  94  95
ATOM     95  S   UNL     1      11.684   9.803   0.953  1.00  0.00     0.124 S 
ATOM     96  O   UNL     1      12.998   9.519   1.526  1.00  0.00    -0.237 OA
ATOM     97  O   UNL     1      11.621   9.803  -0.506  1.00  0.00    -0.237 OA
ATOM     98  O   UNL     1      10.934  10.872   1.606  1.00  0.00    -0.744 OA
ENDBRANCH  94  95
ENDBRANCH  68  89
ENDBRANCH  42  43
ENDBRANCH  35  37
ENDBRANCH  34  35
ENDBRANCH  33  34
ENDBRANCH  32  33
ENDBRANCH  31  32
ENDBRANCH  30  31
ENDBRANCH   1  30
TORSDOF 25
