REMARK SMILES CC1(C)CCSC[C@@]1(Nc1ccccc1Br)C(=O)OCCOCCOCCOC(=O)c1ccc(-c2c3nc(c(-c4ccc(S(=O)(=O)[O-])cc4)c4ccc([nH]4)c(-c4ccc(S(=O)(=O)[O-])cc4)c4nc(c(-c5ccc(S(=O)(=O)[O-])cc5)c5ccc2[nH]5)C=C4)C=C3)cc1
REMARK SMILES IDX 24 1 23 2 22 3 21 4 20 5 19 6 17 7 18 8 8 9 1 10 2 11 3 12
REMARK SMILES IDX 4 13 5 14 7 15 6 16 9 17 10 19 11 20 15 21 12 22 14 23 16 24
REMARK SMILES IDX 13 25 25 26 26 27 27 28 28 29 29 30 30 31 31 32 32 33 90 34
REMARK SMILES IDX 33 35 89 36 34 37 35 38 36 39 83 40 37 41 88 42 82 43 84 44
REMARK SMILES IDX 38 45 87 46 81 47 80 48 39 50 69 51 50 52 68 53 51 54 54 55
REMARK SMILES IDX 67 56 85 57 52 58 53 59 66 61 86 62 55 63 40 64 41 65 49 66
REMARK SMILES IDX 42 67 48 68 43 69 44 70 45 71 46 72 47 73 70 74 71 75 79 76
REMARK SMILES IDX 72 77 78 78 73 79 74 80 75 81 76 82 77 83 56 84 57 85 65 86
REMARK SMILES IDX 58 87 64 88 59 89 60 90 61 91 62 92 63 93
REMARK H PARENT 9 18 84 49 54 60
REMARK Flexibility Score: inf
ROOT
ATOM      1  C   UNL     1       0.598  -5.690   1.290  1.00  0.00     0.188 C 
ENDROOT
BRANCH   1   2
ATOM      2  C   UNL     1       1.855  -4.857   1.109  1.00  0.00     0.188 C 
BRANCH   2   3
ATOM      3  O   UNL     1       3.111  -5.527   1.100  1.00  0.00    -0.376 OA
BRANCH   3   4
ATOM      4  C   UNL     1       4.094  -4.899   0.253  1.00  0.00     0.202 C 
BRANCH   4   5
ATOM      5  C   UNL     1       4.214  -3.357   0.284  1.00  0.00     0.261 C 
BRANCH   5   6
ATOM      6  O   UNL     1       2.964  -2.653   0.109  1.00  0.00    -0.461 OA
BRANCH   6   7
ATOM      7  C   UNL     1       2.455  -2.445  -1.137  1.00  0.00     0.333 C 
ATOM      8  O   UNL     1       3.110  -2.634  -2.153  1.00  0.00    -0.249 OA
BRANCH   7   9
ATOM      9  C   UNL     1       0.936  -1.972  -1.086  1.00  0.00     0.150 C 
ATOM     10  C   UNL     1       1.695   0.184   0.172  1.00  0.00     0.014 C 
ATOM     11  C   UNL     1       0.656  -0.965   0.141  1.00  0.00     0.000 C 
ATOM     12  C   UNL     1       0.702  -1.625   1.552  1.00  0.00     0.014 C 
ATOM     13  C   UNL     1      -0.773  -0.352   0.038  1.00  0.00     0.020 C 
ATOM     14  C   UNL     1      -1.033   0.523  -1.174  1.00  0.00     0.070 C 
ATOM     15  C   UNL     1       0.720  -1.237  -2.452  1.00  0.00     0.110 C 
ATOM     16  S   UNL     1      -0.865  -0.362  -2.729  1.00  0.00    -0.159 SA
BRANCH   9  17
ATOM     17  N   UNL     1       0.005  -3.167  -0.920  1.00  0.00    -0.368 N 
ATOM     18  H   UNL     1      -0.180  -3.494  -0.010  1.00  0.00     0.161 HD
BRANCH  17  19
ATOM     19  C   UNL     1      -0.597  -3.820  -2.001  1.00  0.00     0.049 A 
ATOM     20  C   UNL     1      -1.943  -3.509  -2.283  1.00  0.00     0.027 A 
ATOM     21  C   UNL     1       0.065  -4.651  -2.909  1.00  0.00     0.041 A 
ATOM     22  C   UNL     1      -2.563  -3.910  -3.469  1.00  0.00     0.002 A 
ATOM     23  C   UNL     1      -0.535  -4.997  -4.116  1.00  0.00     0.018 A 
ATOM     24  Br  UNL     1       1.706  -5.523  -2.560  1.00  0.00    -0.049 Br
ATOM     25  C   UNL     1      -1.843  -4.631  -4.406  1.00  0.00     0.001 A 
ENDBRANCH  17  19
ENDBRANCH   9  17
ENDBRANCH   7   9
ENDBRANCH   6   7
ENDBRANCH   5   6
ENDBRANCH   4   5
ENDBRANCH   3   4
ENDBRANCH   2   3
ENDBRANCH   1   2
BRANCH   1  26
ATOM     26  O   UNL     1       0.464  -6.244   2.590  1.00  0.00    -0.376 OA
BRANCH  26  27
ATOM     27  C   UNL     1       1.226  -7.430   2.760  1.00  0.00     0.202 C 
BRANCH  27  28
ATOM     28  C   UNL     1       0.524  -8.706   2.273  1.00  0.00     0.261 C 
BRANCH  28  29
ATOM     29  O   UNL     1       0.132  -8.700   0.883  1.00  0.00    -0.460 OA
BRANCH  29  30
ATOM     30  C   UNL     1      -1.156  -8.325   0.635  1.00  0.00     0.338 C 
ATOM     31  O   UNL     1      -1.973  -7.972   1.464  1.00  0.00    -0.246 OA
BRANCH  30  32
ATOM     32  C   UNL     1      -1.447  -8.332  -0.830  1.00  0.00     0.060 A 
ATOM     33  C   UNL     1      -2.394  -7.427  -1.321  1.00  0.00     0.016 A 
ATOM     34  C   UNL     1      -0.874  -9.258  -1.710  1.00  0.00     0.016 A 
ATOM     35  C   UNL     1      -2.774  -7.463  -2.671  1.00  0.00     0.010 A 
ATOM     36  C   UNL     1      -1.266  -9.299  -3.063  1.00  0.00     0.010 A 
ATOM     37  C   UNL     1      -2.229  -8.409  -3.560  1.00  0.00    -0.014 A 
BRANCH  37  38
ATOM     38  C   UNL     1      -2.810  -8.537  -4.936  1.00  0.00     0.031 A 
ATOM     39  C   UNL     1      -4.186  -9.124  -5.080  1.00  0.00     0.074 A 
ATOM     40  C   UNL     1      -2.185  -8.098  -6.049  1.00  0.00     0.049 A 
ATOM     41  N   UNL     1      -4.940  -9.218  -6.145  1.00  0.00    -0.248 NA
ATOM     42  C   UNL     1      -4.766  -9.719  -3.868  1.00  0.00     0.031 C 
ATOM     43  C   UNL     1      -0.829  -7.580  -6.091  1.00  0.00     0.029 A 
ATOM     44  N   UNL     1      -2.629  -7.946  -7.347  1.00  0.00    -0.354 N 
ATOM     45  C   UNL     1      -6.070  -9.915  -5.742  1.00  0.00     0.074 A 
ATOM     46  C   UNL     1      -5.912 -10.194  -4.329  1.00  0.00     0.031 C 
ATOM     47  C   UNL     1      -0.616  -6.988  -7.280  1.00  0.00     0.029 A 
ATOM     48  C   UNL     1      -1.770  -7.215  -8.146  1.00  0.00     0.049 A 
ATOM     49  H   UNL     1      -3.478  -8.323  -7.673  1.00  0.00     0.167 HD
ATOM     50  C   UNL     1      -7.120 -10.338  -6.485  1.00  0.00     0.031 A 
ATOM     51  C   UNL     1      -1.891  -6.793  -9.426  1.00  0.00     0.031 A 
ATOM     52  C   UNL     1      -7.239 -10.159  -7.907  1.00  0.00     0.049 A 
ATOM     53  C   UNL     1      -3.061  -7.295 -10.240  1.00  0.00     0.074 A 
ATOM     54  C   UNL     1      -8.235 -10.617  -8.752  1.00  0.00     0.029 A 
ATOM     55  N   UNL     1      -6.318  -9.494  -8.703  1.00  0.00    -0.354 N 
ATOM     56  N   UNL     1      -4.121  -7.958  -9.844  1.00  0.00    -0.248 NA
ATOM     57  C   UNL     1      -3.012  -7.057 -11.692  1.00  0.00     0.031 C 
ATOM     58  C   UNL     1      -7.883 -10.287 -10.065  1.00  0.00     0.029 A 
ATOM     59  C   UNL     1      -6.709  -9.553 -10.031  1.00  0.00     0.049 A 
ATOM     60  H   UNL     1      -5.506  -9.046  -8.373  1.00  0.00     0.167 HD
ATOM     61  C   UNL     1      -4.851  -8.233 -10.997  1.00  0.00     0.074 A 
ATOM     62  C   UNL     1      -4.140  -7.622 -12.100  1.00  0.00     0.031 C 
ATOM     63  C   UNL     1      -5.994  -8.951 -11.130  1.00  0.00     0.031 A 
BRANCH  50  64
ATOM     64  C   UNL     1      -8.161 -11.149  -5.764  1.00  0.00    -0.014 A 
ATOM     65  C   UNL     1      -9.021 -10.563  -4.817  1.00  0.00     0.010 A 
ATOM     66  C   UNL     1      -8.235 -12.535  -5.997  1.00  0.00     0.010 A 
ATOM     67  C   UNL     1      -9.886 -11.361  -4.065  1.00  0.00     0.020 A 
ATOM     68  C   UNL     1      -9.123 -13.331  -5.271  1.00  0.00     0.020 A 
ATOM     69  C   UNL     1      -9.922 -12.742  -4.289  1.00  0.00     0.054 A 
BRANCH  69  70
ATOM     70  S   UNL     1     -11.023 -13.760  -3.271  1.00  0.00     0.124 S 
ATOM     71  O   UNL     1     -10.337 -13.745  -1.981  1.00  0.00    -0.237 OA
ATOM     72  O   UNL     1     -12.281 -13.019  -3.321  1.00  0.00    -0.237 OA
ATOM     73  O   UNL     1     -11.035 -15.050  -3.955  1.00  0.00    -0.744 OA
ENDBRANCH  69  70
ENDBRANCH  50  64
BRANCH  51  74
ATOM     74  C   UNL     1      -0.862  -5.912 -10.073  1.00  0.00    -0.014 A 
ATOM     75  C   UNL     1      -1.222  -4.655 -10.604  1.00  0.00     0.010 A 
ATOM     76  C   UNL     1       0.471  -6.335 -10.217  1.00  0.00     0.010 A 
ATOM     77  C   UNL     1      -0.279  -3.853 -11.262  1.00  0.00     0.020 A 
ATOM     78  C   UNL     1       1.427  -5.520 -10.834  1.00  0.00     0.020 A 
ATOM     79  C   UNL     1       1.044  -4.288 -11.365  1.00  0.00     0.054 A 
BRANCH  79  80
ATOM     80  S   UNL     1       2.271  -3.215 -12.169  1.00  0.00     0.124 S 
ATOM     81  O   UNL     1       1.906  -3.337 -13.577  1.00  0.00    -0.237 OA
ATOM     82  O   UNL     1       2.006  -1.916 -11.556  1.00  0.00    -0.237 OA
ATOM     83  O   UNL     1       3.548  -3.821 -11.799  1.00  0.00    -0.744 OA
ENDBRANCH  79  80
ENDBRANCH  51  74
BRANCH  63  84
ATOM     84  C   UNL     1      -6.571  -9.104 -12.515  1.00  0.00    -0.014 A 
ATOM     85  C   UNL     1      -5.955  -9.918 -13.484  1.00  0.00     0.010 A 
ATOM     86  C   UNL     1      -7.790  -8.476 -12.829  1.00  0.00     0.010 A 
ATOM     87  C   UNL     1      -6.534 -10.078 -14.747  1.00  0.00     0.020 A 
ATOM     88  C   UNL     1      -8.386  -8.656 -14.080  1.00  0.00     0.020 A 
ATOM     89  C   UNL     1      -7.748  -9.448 -15.036  1.00  0.00     0.054 A 
BRANCH  89  90
ATOM     90  S   UNL     1      -8.506  -9.712 -16.664  1.00  0.00     0.124 S 
ATOM     91  O   UNL     1      -7.626  -8.944 -17.540  1.00  0.00    -0.237 OA
ATOM     92  O   UNL     1      -8.437 -11.163 -16.817  1.00  0.00    -0.237 OA
ATOM     93  O   UNL     1      -9.856  -9.172 -16.510  1.00  0.00    -0.744 OA
ENDBRANCH  89  90
ENDBRANCH  63  84
ENDBRANCH  37  38
ENDBRANCH  30  32
ENDBRANCH  29  30
ENDBRANCH  28  29
ENDBRANCH  27  28
ENDBRANCH  26  27
ENDBRANCH   1  26
TORSDOF 22
