REMARK SMILES O=C(OCCOCCOCCOC(=O)[C@H](c1cnn(Cc2ccccc2)c1)[NH+]1CCOCC1)c1ccc(-c2c3nc(c(-c4ccc(S(=O)(=O)[O-])cc4)c4ccc([nH]4)c(-c4ccc(S(=O)(=O)[O-])cc4)c4nc(c(-c5ccc(S(=O)(=O)[O-])cc5)c5ccc2[nH]5)C=C4)C=C3)cc1
REMARK SMILES IDX 7 1 6 2 5 3 4 4 3 5 2 6 1 7 34 8 35 9 93 10 36 11 92 12
REMARK SMILES IDX 37 13 38 14 39 15 86 16 40 17 91 18 85 19 87 20 41 21 90 22
REMARK SMILES IDX 84 23 83 24 42 26 72 27 53 28 71 29 54 30 57 31 70 32 88 33
REMARK SMILES IDX 55 34 56 35 69 37 89 38 58 39 43 40 44 41 52 42 45 43 51 44
REMARK SMILES IDX 46 45 47 46 48 47 49 48 50 49 73 50 74 51 82 52 75 53 81 54
REMARK SMILES IDX 76 55 77 56 78 57 79 58 80 59 59 60 60 61 68 62 61 63 67 64
REMARK SMILES IDX 62 65 63 66 64 67 65 68 66 69 8 70 9 71 10 72 11 73 12 74
REMARK SMILES IDX 13 75 14 76 15 77 28 78 29 79 33 80 30 82 32 83 31 84 16 85
REMARK SMILES IDX 17 86 27 87 18 88 19 89 20 90 21 91 22 92 26 93 23 94 25 95
REMARK SMILES IDX 24 96
REMARK H PARENT 87 25 57 36 28 81
REMARK Flexibility Score: inf
ROOT
ATOM      1  C   UNL     1       2.119  -1.388  -1.438  1.00  0.00     0.188 C 
ENDROOT
BRANCH   1   2
ATOM      2  O   UNL     1       1.133  -1.560  -2.433  1.00  0.00    -0.376 OA
BRANCH   2   3
ATOM      3  C   UNL     1       0.550  -0.523  -3.199  1.00  0.00     0.202 C 
BRANCH   3   4
ATOM      4  C   UNL     1       0.895   0.970  -3.131  1.00  0.00     0.261 C 
BRANCH   4   5
ATOM      5  O   UNL     1       1.966   1.369  -2.286  1.00  0.00    -0.460 OA
BRANCH   5   6
ATOM      6  C   UNL     1       1.969   1.752  -0.996  1.00  0.00     0.338 C 
ATOM      7  O   UNL     1       2.995   2.264  -0.544  1.00  0.00    -0.246 OA
BRANCH   6   8
ATOM      8  C   UNL     1       0.860   1.467  -0.046  1.00  0.00     0.060 A 
ATOM      9  C   UNL     1      -0.458   1.161  -0.388  1.00  0.00     0.016 A 
ATOM     10  C   UNL     1       1.210   1.549   1.318  1.00  0.00     0.016 A 
ATOM     11  C   UNL     1      -1.440   1.159   0.583  1.00  0.00     0.010 A 
ATOM     12  C   UNL     1       0.237   1.526   2.297  1.00  0.00     0.010 A 
ATOM     13  C   UNL     1      -1.089   1.440   1.899  1.00  0.00    -0.014 A 
BRANCH  13  14
ATOM     14  C   UNL     1      -2.171   1.734   2.815  1.00  0.00     0.031 A 
ATOM     15  C   UNL     1      -3.037   0.585   3.163  1.00  0.00     0.074 A 
ATOM     16  C   UNL     1      -2.328   2.982   3.295  1.00  0.00     0.049 A 
ATOM     17  N   UNL     1      -4.286   0.412   2.883  1.00  0.00    -0.248 NA
ATOM     18  C   UNL     1      -2.389  -0.581   3.783  1.00  0.00     0.031 C 
ATOM     19  C   UNL     1      -1.392   4.109   3.199  1.00  0.00     0.029 A 
ATOM     20  N   UNL     1      -3.316   3.475   4.083  1.00  0.00    -0.354 N 
ATOM     21  C   UNL     1      -4.641  -0.792   3.482  1.00  0.00     0.074 A 
ATOM     22  C   UNL     1      -3.410  -1.434   3.869  1.00  0.00     0.031 C 
ATOM     23  C   UNL     1      -1.730   5.044   4.114  1.00  0.00     0.029 A 
ATOM     24  C   UNL     1      -2.977   4.648   4.745  1.00  0.00     0.049 A 
ATOM     25  H   UNL     1      -4.194   3.041   4.178  1.00  0.00     0.167 HD
ATOM     26  C   UNL     1      -5.925  -1.067   3.844  1.00  0.00     0.031 A 
ATOM     27  C   UNL     1      -3.628   5.194   5.803  1.00  0.00     0.031 A 
ATOM     28  C   UNL     1      -6.872  -0.220   3.174  1.00  0.00     0.049 A 
ATOM     29  C   UNL     1      -4.995   4.614   5.821  1.00  0.00     0.074 A 
ATOM     30  C   UNL     1      -7.205  -0.002   1.851  1.00  0.00     0.029 A 
ATOM     31  N   UNL     1      -7.373   0.853   3.873  1.00  0.00    -0.354 N 
ATOM     32  N   UNL     1      -5.882   4.843   4.891  1.00  0.00    -0.248 NA
ATOM     33  C   UNL     1      -5.221   3.412   6.609  1.00  0.00     0.031 C 
ATOM     34  C   UNL     1      -7.447   1.399   1.760  1.00  0.00     0.029 A 
ATOM     35  C   UNL     1      -7.321   1.943   3.040  1.00  0.00     0.049 A 
ATOM     36  H   UNL     1      -7.708   0.842   4.798  1.00  0.00     0.167 HD
ATOM     37  C   UNL     1      -6.518   3.625   4.693  1.00  0.00     0.074 A 
ATOM     38  C   UNL     1      -6.133   2.807   5.842  1.00  0.00     0.031 C 
ATOM     39  C   UNL     1      -7.067   3.299   3.485  1.00  0.00     0.031 A 
BRANCH  26  40
ATOM     40  C   UNL     1      -6.265  -1.842   5.091  1.00  0.00    -0.014 A 
ATOM     41  C   UNL     1      -7.603  -2.193   5.351  1.00  0.00     0.010 A 
ATOM     42  C   UNL     1      -5.343  -2.004   6.148  1.00  0.00     0.010 A 
ATOM     43  C   UNL     1      -8.001  -2.641   6.619  1.00  0.00     0.020 A 
ATOM     44  C   UNL     1      -5.718  -2.491   7.398  1.00  0.00     0.020 A 
ATOM     45  C   UNL     1      -7.054  -2.778   7.636  1.00  0.00     0.054 A 
BRANCH  45  46
ATOM     46  S   UNL     1      -7.586  -3.270   9.294  1.00  0.00     0.124 S 
ATOM     47  O   UNL     1      -8.383  -2.120   9.707  1.00  0.00    -0.237 OA
ATOM     48  O   UNL     1      -8.330  -4.498   9.027  1.00  0.00    -0.237 OA
ATOM     49  O   UNL     1      -6.328  -3.454  10.015  1.00  0.00    -0.744 OA
ENDBRANCH  45  46
ENDBRANCH  26  40
BRANCH  27  50
ATOM     50  C   UNL     1      -3.008   5.857   6.978  1.00  0.00    -0.014 A 
ATOM     51  C   UNL     1      -3.787   6.575   7.904  1.00  0.00     0.010 A 
ATOM     52  C   UNL     1      -1.677   5.556   7.338  1.00  0.00     0.010 A 
ATOM     53  C   UNL     1      -3.270   6.924   9.165  1.00  0.00     0.020 A 
ATOM     54  C   UNL     1      -1.153   5.909   8.586  1.00  0.00     0.020 A 
ATOM     55  C   UNL     1      -1.961   6.570   9.505  1.00  0.00     0.054 A 
BRANCH  55  56
ATOM     56  S   UNL     1      -1.363   6.858  11.197  1.00  0.00     0.124 S 
ATOM     57  O   UNL     1      -1.231   8.312  11.236  1.00  0.00    -0.237 OA
ATOM     58  O   UNL     1      -2.438   6.299  12.012  1.00  0.00    -0.237 OA
ATOM     59  O   UNL     1      -0.103   6.119  11.248  1.00  0.00    -0.744 OA
ENDBRANCH  55  56
ENDBRANCH  27  50
BRANCH  39  60
ATOM     60  C   UNL     1      -7.203   4.383   2.438  1.00  0.00    -0.014 A 
ATOM     61  C   UNL     1      -6.108   5.079   1.885  1.00  0.00     0.010 A 
ATOM     62  C   UNL     1      -8.476   4.591   1.880  1.00  0.00     0.010 A 
ATOM     63  C   UNL     1      -6.292   5.977   0.821  1.00  0.00     0.020 A 
ATOM     64  C   UNL     1      -8.662   5.469   0.809  1.00  0.00     0.020 A 
ATOM     65  C   UNL     1      -7.571   6.165   0.290  1.00  0.00     0.054 A 
BRANCH  65  66
ATOM     66  S   UNL     1      -7.799   7.290  -1.118  1.00  0.00     0.124 S 
ATOM     67  O   UNL     1      -7.543   8.598  -0.523  1.00  0.00    -0.237 OA
ATOM     68  O   UNL     1      -6.794   6.823  -2.071  1.00  0.00    -0.237 OA
ATOM     69  O   UNL     1      -9.183   7.057  -1.529  1.00  0.00    -0.744 OA
ENDBRANCH  65  66
ENDBRANCH  39  60
ENDBRANCH  13  14
ENDBRANCH   6   8
ENDBRANCH   5   6
ENDBRANCH   4   5
ENDBRANCH   3   4
ENDBRANCH   2   3
ENDBRANCH   1   2
BRANCH   1  70
ATOM     70  C   UNL     1       3.576  -1.059  -1.835  1.00  0.00     0.188 C 
BRANCH  70  71
ATOM     71  O   UNL     1       4.227  -1.653  -2.953  1.00  0.00    -0.376 OA
BRANCH  71  72
ATOM     72  C   UNL     1       3.469  -2.282  -3.958  1.00  0.00     0.202 C 
BRANCH  72  73
ATOM     73  C   UNL     1       3.218  -3.773  -3.718  1.00  0.00     0.261 C 
BRANCH  73  74
ATOM     74  O   UNL     1       2.715  -4.154  -2.426  1.00  0.00    -0.459 OA
BRANCH  74  75
ATOM     75  C   UNL     1       3.654  -4.234  -1.433  1.00  0.00     0.370 C 
ATOM     76  O   UNL     1       4.826  -3.895  -1.570  1.00  0.00    -0.245 OA
BRANCH  75  77
ATOM     77  C   UNL     1       3.085  -4.910  -0.164  1.00  0.00     0.329 C 
BRANCH  77  78
ATOM     78  N   UNL     1       3.676  -6.258   0.093  1.00  0.00    -0.315 N 
ATOM     79  C   UNL     1       5.023  -6.502  -0.476  1.00  0.00     0.292 C 
ATOM     80  C   UNL     1       2.796  -7.372  -0.302  1.00  0.00     0.292 C 
ATOM     81  H   UNL     1       3.779  -6.235   1.108  1.00  0.00     0.349 HD
ATOM     82  C   UNL     1       5.038  -6.894  -1.974  1.00  0.00     0.221 C 
ATOM     83  C   UNL     1       2.832  -7.707  -1.801  1.00  0.00     0.221 C 
ATOM     84  O   UNL     1       4.167  -8.000  -2.235  1.00  0.00    -0.370 OA
ENDBRANCH  77  78
BRANCH  77  85
ATOM     85  C   UNL     1       3.323  -4.040   1.056  1.00  0.00     0.059 A 
ATOM     86  C   UNL     1       4.552  -3.478   1.474  1.00  0.00     0.145 A 
ATOM     87  C   UNL     1       2.417  -3.546   1.988  1.00  0.00     0.119 A 
ATOM     88  N   UNL     1       4.429  -2.661   2.517  1.00  0.00    -0.181 NA
ATOM     89  N   UNL     1       3.132  -2.772   2.872  1.00  0.00    -0.268 N 
BRANCH  89  90
ATOM     90  C   UNL     1       2.619  -1.980   3.994  1.00  0.00     0.179 C 
BRANCH  90  91
ATOM     91  C   UNL     1       3.131  -2.445   5.343  1.00  0.00    -0.027 A 
ATOM     92  C   UNL     1       2.243  -2.853   6.349  1.00  0.00     0.005 A 
ATOM     93  C   UNL     1       4.505  -2.432   5.637  1.00  0.00     0.005 A 
ATOM     94  C   UNL     1       2.721  -3.276   7.594  1.00  0.00     0.000 A 
ATOM     95  C   UNL     1       4.983  -2.865   6.875  1.00  0.00     0.000 A 
ATOM     96  C   UNL     1       4.091  -3.293   7.852  1.00  0.00     0.000 A 
ENDBRANCH  90  91
ENDBRANCH  89  90
ENDBRANCH  77  85
ENDBRANCH  75  77
ENDBRANCH  74  75
ENDBRANCH  73  74
ENDBRANCH  72  73
ENDBRANCH  71  72
ENDBRANCH  70  71
ENDBRANCH   1  70
TORSDOF 24
