REMARK SMILES Cn1cc(S(=O)(=O)N2CCCc3cc(C(=O)OCCOCCOCCOC(=O)c4ccc(-c5c6nc(c(-c7ccc(S(=O)(=O)[O-])cc7)c7ccc([nH]7)c(-c7ccc(S(=O)(=O)[O-])cc7)c7nc(c(-c8ccc(S(=O)(=O)[O-])cc8)c8ccc5[nH]8)C=C7)C=C6)cc4)ccc32)cc1C(N)=O
REMARK SMILES IDX 21 1 20 2 19 3 18 4 17 5 15 6 16 7 14 8 8 9 9 10 91 11 10 12
REMARK SMILES IDX 12 13 90 14 11 15 13 16 89 17 5 18 6 19 7 20 4 21 1 22 2 23
REMARK SMILES IDX 3 24 93 25 92 26 94 27 95 28 96 29 22 32 23 33 24 34 25 35
REMARK SMILES IDX 26 36 27 37 28 38 29 39 30 40 88 41 31 42 87 43 32 44 33 45
REMARK SMILES IDX 34 46 81 47 35 48 86 49 80 50 82 51 36 52 85 53 79 54 78 55
REMARK SMILES IDX 37 57 67 58 48 59 66 60 49 61 52 62 65 63 83 64 50 65 51 66
REMARK SMILES IDX 64 68 84 69 53 70 38 71 39 72 47 73 40 74 46 75 41 76 42 77
REMARK SMILES IDX 43 78 44 79 45 80 68 81 69 82 77 83 70 84 76 85 71 86 72 87
REMARK SMILES IDX 73 88 74 89 75 90 54 91 55 92 63 93 56 94 62 95 57 96 58 97
REMARK SMILES IDX 59 98 60 99 61 100
REMARK H PARENT 95 30 95 31 82 56 52 67
REMARK Flexibility Score: inf
ROOT
ATOM      1  C   UNL     1      -9.328  -0.727  -4.664  1.00  0.00     0.188 C 
ENDROOT
BRANCH   1   2
ATOM      2  O   UNL     1     -10.280  -0.219  -5.592  1.00  0.00    -0.376 OA
BRANCH   2   3
ATOM      3  C   UNL     1      -9.928   0.857  -6.453  1.00  0.00     0.202 C 
BRANCH   3   4
ATOM      4  C   UNL     1      -9.322   2.142  -5.872  1.00  0.00     0.261 C 
BRANCH   4   5
ATOM      5  O   UNL     1      -8.191   1.931  -5.016  1.00  0.00    -0.460 OA
BRANCH   5   6
ATOM      6  C   UNL     1      -8.356   2.335  -3.731  1.00  0.00     0.338 C 
ATOM      7  O   UNL     1      -9.322   2.913  -3.264  1.00  0.00    -0.246 OA
BRANCH   6   8
ATOM      8  C   UNL     1      -7.254   1.818  -2.891  1.00  0.00     0.060 A 
ATOM      9  N   UNL     1      -4.192   0.443  -0.269  1.00  0.00    -0.266 N 
ATOM     10  C   UNL     1      -4.601  -0.363   0.919  1.00  0.00     0.136 C 
ATOM     11  C   UNL     1      -5.236   0.874  -1.173  1.00  0.00     0.055 A 
ATOM     12  C   UNL     1      -5.891   0.165   1.524  1.00  0.00     0.028 C 
ATOM     13  C   UNL     1      -6.586   0.783  -0.790  1.00  0.00    -0.023 A 
ATOM     14  C   UNL     1      -4.929   1.337  -2.461  1.00  0.00     0.028 A 
ATOM     15  C   UNL     1      -6.997   0.100   0.487  1.00  0.00     0.039 C 
ATOM     16  C   UNL     1      -7.585   1.273  -1.645  1.00  0.00     0.021 A 
ATOM     17  C   UNL     1      -5.926   1.820  -3.315  1.00  0.00     0.018 A 
BRANCH   9  18
ATOM     18  S   UNL     1      -2.882   1.519   0.028  1.00  0.00     0.265 S 
ATOM     19  O   UNL     1      -2.961   2.019   1.375  1.00  0.00    -0.201 OA
ATOM     20  O   UNL     1      -2.645   2.405  -1.102  1.00  0.00    -0.201 OA
BRANCH  18  21
ATOM     21  C   UNL     1      -1.437   0.553   0.033  1.00  0.00     0.106 A 
ATOM     22  C   UNL     1       2.143   0.110   0.033  1.00  0.00     0.150 C 
ATOM     23  N   UNL     1       0.705  -0.056   0.037  1.00  0.00    -0.345 N 
ATOM     24  C   UNL     1      -0.145   1.025   0.086  1.00  0.00     0.108 A 
ATOM     25  C   UNL     1      -0.020  -1.238  -0.028  1.00  0.00     0.107 A 
ATOM     26  C   UNL     1      -1.361  -0.856  -0.054  1.00  0.00     0.056 A 
BRANCH  25  27
ATOM     27  C   UNL     1       0.538  -2.579  -0.076  1.00  0.00     0.265 C 
ATOM     28  N   UNL     1      -0.363  -3.604  -0.034  1.00  0.00    -0.364 N 
ATOM     29  O   UNL     1       1.733  -2.848  -0.146  1.00  0.00    -0.268 OA
ATOM     30  H   UNL     1      -1.327  -3.411   0.022  1.00  0.00     0.160 HD
ATOM     31  H   UNL     1      -0.049  -4.537  -0.060  1.00  0.00     0.160 HD
ENDBRANCH  25  27
ENDBRANCH  18  21
ENDBRANCH   9  18
ENDBRANCH   6   8
ENDBRANCH   5   6
ENDBRANCH   4   5
ENDBRANCH   3   4
ENDBRANCH   2   3
ENDBRANCH   1   2
BRANCH   1  32
ATOM     32  C   UNL     1      -7.896  -1.058  -5.134  1.00  0.00     0.188 C 
BRANCH  32  33
ATOM     33  O   UNL     1      -7.634  -0.768  -6.486  1.00  0.00    -0.376 OA
BRANCH  33  34
ATOM     34  C   UNL     1      -7.764  -1.772  -7.475  1.00  0.00     0.202 C 
BRANCH  34  35
ATOM     35  C   UNL     1      -8.662  -3.022  -7.375  1.00  0.00     0.261 C 
BRANCH  35  36
ATOM     36  O   UNL     1      -9.221  -3.364  -6.106  1.00  0.00    -0.460 OA
BRANCH  36  37
ATOM     37  C   UNL     1      -8.527  -4.266  -5.375  1.00  0.00     0.338 C 
ATOM     38  O   UNL     1      -7.446  -4.758  -5.649  1.00  0.00    -0.246 OA
BRANCH  37  39
ATOM     39  C   UNL     1      -9.206  -4.439  -4.076  1.00  0.00     0.060 A 
ATOM     40  C   UNL     1      -8.510  -4.093  -2.912  1.00  0.00     0.016 A 
ATOM     41  C   UNL     1     -10.494  -4.977  -4.003  1.00  0.00     0.016 A 
ATOM     42  C   UNL     1      -9.083  -4.333  -1.664  1.00  0.00     0.010 A 
ATOM     43  C   UNL     1     -11.061  -5.230  -2.749  1.00  0.00     0.010 A 
ATOM     44  C   UNL     1     -10.340  -4.948  -1.575  1.00  0.00    -0.014 A 
BRANCH  44  45
ATOM     45  C   UNL     1     -10.793  -5.479  -0.266  1.00  0.00     0.031 A 
ATOM     46  C   UNL     1     -10.545  -6.934   0.040  1.00  0.00     0.074 A 
ATOM     47  C   UNL     1     -11.355  -4.681   0.659  1.00  0.00     0.049 A 
ATOM     48  N   UNL     1     -10.815  -7.611   1.125  1.00  0.00    -0.248 NA
ATOM     49  C   UNL     1      -9.897  -7.727  -1.019  1.00  0.00     0.031 C 
ATOM     50  C   UNL     1     -11.611  -3.249   0.504  1.00  0.00     0.029 A 
ATOM     51  N   UNL     1     -11.807  -4.968   1.923  1.00  0.00    -0.354 N 
ATOM     52  C   UNL     1     -10.365  -8.905   0.884  1.00  0.00     0.074 A 
ATOM     53  C   UNL     1      -9.841  -8.928  -0.464  1.00  0.00     0.031 C 
ATOM     54  C   UNL     1     -12.174  -2.783   1.634  1.00  0.00     0.029 A 
ATOM     55  C   UNL     1     -12.341  -3.885   2.579  1.00  0.00     0.049 A 
ATOM     56  H   UNL     1     -11.754  -5.867   2.323  1.00  0.00     0.167 HD
ATOM     57  C   UNL     1     -10.371  -9.976   1.712  1.00  0.00     0.031 A 
ATOM     58  C   UNL     1     -12.908  -3.798   3.800  1.00  0.00     0.031 A 
ATOM     59  C   UNL     1     -10.918  -9.967   3.042  1.00  0.00     0.049 A 
ATOM     60  C   UNL     1     -12.982  -5.028   4.671  1.00  0.00     0.074 A 
ATOM     61  C   UNL     1     -10.990 -11.007   3.953  1.00  0.00     0.029 A 
ATOM     62  N   UNL     1     -11.492  -8.862   3.652  1.00  0.00    -0.354 N 
ATOM     63  N   UNL     1     -12.537  -6.240   4.432  1.00  0.00    -0.248 NA
ATOM     64  C   UNL     1     -13.622  -4.870   5.985  1.00  0.00     0.031 C 
ATOM     65  C   UNL     1     -11.647 -10.542   5.097  1.00  0.00     0.029 A 
ATOM     66  C   UNL     1     -11.930  -9.197   4.922  1.00  0.00     0.049 A 
ATOM     67  H   UNL     1     -11.575  -7.971   3.242  1.00  0.00     0.167 HD
ATOM     68  C   UNL     1     -12.809  -6.976   5.583  1.00  0.00     0.074 A 
ATOM     69  C   UNL     1     -13.443  -6.071   6.518  1.00  0.00     0.031 C 
ATOM     70  C   UNL     1     -12.553  -8.283   5.845  1.00  0.00     0.031 A 
BRANCH  57  71
ATOM     71  C   UNL     1      -9.782 -11.257   1.185  1.00  0.00    -0.014 A 
ATOM     72  C   UNL     1      -8.393 -11.392   1.003  1.00  0.00     0.010 A 
ATOM     73  C   UNL     1     -10.620 -12.347   0.890  1.00  0.00     0.010 A 
ATOM     74  C   UNL     1      -7.857 -12.580   0.500  1.00  0.00     0.020 A 
ATOM     75  C   UNL     1     -10.085 -13.547   0.412  1.00  0.00     0.020 A 
ATOM     76  C   UNL     1      -8.708 -13.649   0.205  1.00  0.00     0.054 A 
BRANCH  76  77
ATOM     77  S   UNL     1      -7.983 -15.186  -0.428  1.00  0.00     0.124 S 
ATOM     78  O   UNL     1      -7.617 -14.806  -1.791  1.00  0.00    -0.237 OA
ATOM     79  O   UNL     1      -6.864 -15.411   0.482  1.00  0.00    -0.237 OA
ATOM     80  O   UNL     1      -9.073 -16.153  -0.323  1.00  0.00    -0.744 OA
ENDBRANCH  76  77
ENDBRANCH  57  71
BRANCH  58  81
ATOM     81  C   UNL     1     -13.460  -2.502   4.284  1.00  0.00    -0.014 A 
ATOM     82  C   UNL     1     -12.861  -1.824   5.361  1.00  0.00     0.010 A 
ATOM     83  C   UNL     1     -14.617  -1.961   3.696  1.00  0.00     0.010 A 
ATOM     84  C   UNL     1     -13.430  -0.649   5.863  1.00  0.00     0.020 A 
ATOM     85  C   UNL     1     -15.171  -0.771   4.175  1.00  0.00     0.020 A 
ATOM     86  C   UNL     1     -14.584  -0.133   5.269  1.00  0.00     0.054 A 
BRANCH  86  87
ATOM     87  S   UNL     1     -15.295   1.403   5.924  1.00  0.00     0.124 S 
ATOM     88  O   UNL     1     -15.910   0.945   7.166  1.00  0.00    -0.237 OA
ATOM     89  O   UNL     1     -14.119   2.255   6.076  1.00  0.00    -0.237 OA
ATOM     90  O   UNL     1     -16.228   1.819   4.879  1.00  0.00    -0.744 OA
ENDBRANCH  86  87
ENDBRANCH  58  81
BRANCH  70  91
ATOM     91  C   UNL     1     -12.903  -8.795   7.218  1.00  0.00    -0.014 A 
ATOM     92  C   UNL     1     -14.238  -8.966   7.624  1.00  0.00     0.010 A 
ATOM     93  C   UNL     1     -11.869  -9.132   8.112  1.00  0.00     0.010 A 
ATOM     94  C   UNL     1     -14.533  -9.411   8.916  1.00  0.00     0.020 A 
ATOM     95  C   UNL     1     -12.159  -9.607   9.393  1.00  0.00     0.020 A 
ATOM     96  C   UNL     1     -13.490  -9.722   9.795  1.00  0.00     0.054 A 
BRANCH  96  97
ATOM     97  S   UNL     1     -13.895 -10.304  11.465  1.00  0.00     0.124 S 
ATOM     98  O   UNL     1     -14.306  -9.068  12.125  1.00  0.00    -0.237 OA
ATOM     99  O   UNL     1     -14.962 -11.271  11.219  1.00  0.00    -0.237 OA
ATOM    100  O   UNL     1     -12.640 -10.879  11.944  1.00  0.00    -0.744 OA
ENDBRANCH  96  97
ENDBRANCH  70  91
ENDBRANCH  44  45
ENDBRANCH  37  39
ENDBRANCH  36  37
ENDBRANCH  35  36
ENDBRANCH  34  35
ENDBRANCH  33  34
ENDBRANCH  32  33
ENDBRANCH   1  32
TORSDOF 23
