REMARK SMILES O=C(/C=C/c1ccc(NC(=O)c2cc(C(F)(F)F)cc(C(F)(F)F)c2)cc1)OCCOCCOCCOC(=O)c1ccc(-c2c3nc(c(-c4ccc(S(=O)(=O)[O-])cc4)c4ccc([nH]4)c(-c4ccc(S(=O)(=O)[O-])cc4)c4nc(c(-c5ccc(S(=O)(=O)[O-])cc5)c5ccc2[nH]5)C=C4)C=C3)cc1
REMARK SMILES IDX 32 1 31 2 30 3 29 4 28 5 2 6 1 7 3 8 4 9 5 10 6 11 27 12
REMARK SMILES IDX 7 13 26 14 8 15 9 16 10 17 11 19 12 20 13 21 25 22 14 23
REMARK SMILES IDX 20 24 19 25 15 26 16 27 17 28 18 29 21 30 22 31 23 32 24 33
REMARK SMILES IDX 33 34 34 35 35 36 36 37 37 38 38 39 39 40 40 41 41 42 99 43
REMARK SMILES IDX 42 44 98 45 43 46 44 47 45 48 92 49 46 50 97 51 91 52 93 53
REMARK SMILES IDX 47 54 96 55 90 56 89 57 48 59 78 60 59 61 77 62 60 63 63 64
REMARK SMILES IDX 76 65 94 66 61 67 62 68 75 70 95 71 64 72 49 73 50 74 58 75
REMARK SMILES IDX 51 76 57 77 52 78 53 79 54 80 55 81 56 82 79 83 80 84 88 85
REMARK SMILES IDX 81 86 87 87 82 88 83 89 84 90 85 91 86 92 65 93 66 94 74 95
REMARK SMILES IDX 67 96 73 97 68 98 69 99 70 100 71 101 72 102
REMARK H PARENT 9 18 93 58 63 69
REMARK Flexibility Score: inf
ROOT
ATOM      1  C   UNL     1       3.257   1.245  -1.408  1.00  0.00     0.188 C 
ENDROOT
BRANCH   1   2
ATOM      2  O   UNL     1       4.560   0.852  -1.020  1.00  0.00    -0.376 OA
BRANCH   2   3
ATOM      3  C   UNL     1       4.911  -0.503  -0.828  1.00  0.00     0.202 C 
BRANCH   3   4
ATOM      4  C   UNL     1       3.909  -1.526  -0.283  1.00  0.00     0.261 C 
BRANCH   4   5
ATOM      5  O   UNL     1       2.705  -0.987   0.267  1.00  0.00    -0.460 OA
BRANCH   5   6
ATOM      6  C   UNL     1       2.639  -0.869   1.614  1.00  0.00     0.330 C 
ATOM      7  O   UNL     1       1.925  -1.558   2.323  1.00  0.00    -0.247 OA
BRANCH   6   8
ATOM      8  C   UNL     1       3.260   0.386   2.066  1.00  0.00     0.094 C 
ATOM      9  C   UNL     1       4.562   0.409   2.377  1.00  0.00     0.015 C 
BRANCH   9  10
ATOM     10  C   UNL     1       5.292   1.641   2.686  1.00  0.00    -0.025 A 
ATOM     11  C   UNL     1       6.559   1.820   2.125  1.00  0.00     0.010 A 
ATOM     12  C   UNL     1       4.803   2.616   3.557  1.00  0.00     0.010 A 
ATOM     13  C   UNL     1       7.325   2.951   2.425  1.00  0.00     0.027 A 
ATOM     14  C   UNL     1       5.565   3.756   3.844  1.00  0.00     0.027 A 
ATOM     15  C   UNL     1       6.827   3.945   3.266  1.00  0.00     0.041 A 
BRANCH  15  16
ATOM     16  N   UNL     1       7.537   5.105   3.634  1.00  0.00    -0.322 N 
ATOM     17  C   UNL     1       8.696   5.674   3.160  1.00  0.00     0.255 C 
ATOM     18  H   UNL     1       7.123   5.605   4.374  1.00  0.00     0.170 HD
ATOM     19  O   UNL     1       9.302   6.508   3.832  1.00  0.00    -0.269 OA
BRANCH  17  20
ATOM     20  C   UNL     1       9.231   5.357   1.819  1.00  0.00     0.041 A 
ATOM     21  C   UNL     1      10.593   5.056   1.698  1.00  0.00     0.027 A 
ATOM     22  C   UNL     1       8.407   5.383   0.687  1.00  0.00     0.027 A 
ATOM     23  C   UNL     1      11.135   4.714   0.450  1.00  0.00     0.057 A 
ATOM     24  C   UNL     1       8.924   5.027  -0.568  1.00  0.00     0.057 A 
ATOM     25  C   UNL     1      10.289   4.694  -0.672  1.00  0.00     0.026 A 
BRANCH  23  26
ATOM     26  C   UNL     1      12.599   4.359   0.339  1.00  0.00     0.416 C 
ATOM     27  F   UNL     1      13.419   5.383   0.696  1.00  0.00    -0.166 F 
ATOM     28  F   UNL     1      12.939   3.307   1.135  1.00  0.00    -0.166 F 
ATOM     29  F   UNL     1      12.974   4.002  -0.922  1.00  0.00    -0.166 F 
ENDBRANCH  23  26
BRANCH  24  30
ATOM     30  C   UNL     1       8.035   4.959  -1.788  1.00  0.00     0.416 C 
ATOM     31  F   UNL     1       8.511   5.710  -2.818  1.00  0.00    -0.166 F 
ATOM     32  F   UNL     1       7.933   3.689  -2.271  1.00  0.00    -0.166 F 
ATOM     33  F   UNL     1       6.761   5.383  -1.569  1.00  0.00    -0.166 F 
ENDBRANCH  24  30
ENDBRANCH  17  20
ENDBRANCH  15  16
ENDBRANCH   9  10
ENDBRANCH   6   8
ENDBRANCH   5   6
ENDBRANCH   4   5
ENDBRANCH   3   4
ENDBRANCH   2   3
ENDBRANCH   1   2
BRANCH   1  34
ATOM     34  C   UNL     1       2.586   0.618  -2.636  1.00  0.00     0.188 C 
BRANCH  34  35
ATOM     35  O   UNL     1       3.359   0.155  -3.733  1.00  0.00    -0.376 OA
BRANCH  35  36
ATOM     36  C   UNL     1       4.550   0.832  -4.104  1.00  0.00     0.202 C 
BRANCH  36  37
ATOM     37  C   UNL     1       4.441   2.255  -4.655  1.00  0.00     0.261 C 
BRANCH  37  38
ATOM     38  O   UNL     1       4.022   3.215  -3.673  1.00  0.00    -0.460 OA
BRANCH  38  39
ATOM     39  C   UNL     1       2.841   3.823  -3.935  1.00  0.00     0.338 C 
ATOM     40  O   UNL     1       2.116   3.629  -4.896  1.00  0.00    -0.246 OA
BRANCH  39  41
ATOM     41  C   UNL     1       2.444   4.702  -2.817  1.00  0.00     0.060 A 
ATOM     42  C   UNL     1       1.147   4.549  -2.313  1.00  0.00     0.016 A 
ATOM     43  C   UNL     1       3.269   5.728  -2.346  1.00  0.00     0.016 A 
ATOM     44  C   UNL     1       0.648   5.460  -1.385  1.00  0.00     0.010 A 
ATOM     45  C   UNL     1       2.760   6.649  -1.419  1.00  0.00     0.010 A 
ATOM     46  C   UNL     1       1.433   6.544  -0.967  1.00  0.00    -0.014 A 
BRANCH  46  47
ATOM     47  C   UNL     1       0.794   7.626  -0.176  1.00  0.00     0.031 A 
ATOM     48  C   UNL     1       0.273   8.849  -0.885  1.00  0.00     0.074 A 
ATOM     49  C   UNL     1       0.605   7.489   1.149  1.00  0.00     0.049 A 
ATOM     50  N   UNL     1      -0.385   9.870  -0.397  1.00  0.00    -0.248 NA
ATOM     51  C   UNL     1       0.520   8.929  -2.334  1.00  0.00     0.031 C 
ATOM     52  C   UNL     1       1.034   6.345   1.953  1.00  0.00     0.029 A 
ATOM     53  N   UNL     1      -0.011   8.322   2.050  1.00  0.00    -0.354 N 
ATOM     54  C   UNL     1      -0.646  10.705  -1.478  1.00  0.00     0.074 A 
ATOM     55  C   UNL     1      -0.041  10.090  -2.641  1.00  0.00     0.031 C 
ATOM     56  C   UNL     1       0.668   6.549   3.231  1.00  0.00     0.029 A 
ATOM     57  C   UNL     1      -0.007   7.842   3.337  1.00  0.00     0.049 A 
ATOM     58  H   UNL     1      -0.418   9.182   1.797  1.00  0.00     0.167 HD
ATOM     59  C   UNL     1      -1.337  11.870  -1.508  1.00  0.00     0.031 A 
ATOM     60  C   UNL     1      -0.487   8.384   4.474  1.00  0.00     0.031 A 
ATOM     61  C   UNL     1      -1.921  12.501  -0.354  1.00  0.00     0.049 A 
ATOM     62  C   UNL     1      -1.202   9.709   4.426  1.00  0.00     0.074 A 
ATOM     63  C   UNL     1      -2.633  13.687  -0.288  1.00  0.00     0.029 A 
ATOM     64  N   UNL     1      -1.861  12.001   0.937  1.00  0.00    -0.354 N 
ATOM     65  N   UNL     1      -1.455  10.472   3.390  1.00  0.00    -0.248 NA
ATOM     66  C   UNL     1      -1.707  10.236   5.702  1.00  0.00     0.031 C 
ATOM     67  C   UNL     1      -2.967  13.925   1.050  1.00  0.00     0.029 A 
ATOM     68  C   UNL     1      -2.506  12.862   1.809  1.00  0.00     0.049 A 
ATOM     69  H   UNL     1      -1.424  11.158   1.196  1.00  0.00     0.167 HD
ATOM     70  C   UNL     1      -2.163  11.562   3.888  1.00  0.00     0.074 A 
ATOM     71  C   UNL     1      -2.318  11.346   5.311  1.00  0.00     0.031 C 
ATOM     72  C   UNL     1      -2.641  12.645   3.226  1.00  0.00     0.031 A 
BRANCH  59  73
ATOM     73  C   UNL     1      -1.488  12.551  -2.841  1.00  0.00    -0.014 A 
ATOM     74  C   UNL     1      -2.382  12.052  -3.806  1.00  0.00     0.010 A 
ATOM     75  C   UNL     1      -0.770  13.728  -3.114  1.00  0.00     0.010 A 
ATOM     76  C   UNL     1      -2.534  12.705  -5.032  1.00  0.00     0.020 A 
ATOM     77  C   UNL     1      -0.935  14.396  -4.331  1.00  0.00     0.020 A 
ATOM     78  C   UNL     1      -1.807  13.872  -5.288  1.00  0.00     0.054 A 
BRANCH  78  79
ATOM     79  S   UNL     1      -2.048  14.719  -6.874  1.00  0.00     0.124 S 
ATOM     80  O   UNL     1      -1.325  13.845  -7.794  1.00  0.00    -0.237 OA
ATOM     81  O   UNL     1      -3.502  14.720  -7.021  1.00  0.00    -0.237 OA
ATOM     82  O   UNL     1      -1.446  16.032  -6.660  1.00  0.00    -0.744 OA
ENDBRANCH  78  79
ENDBRANCH  59  73
BRANCH  60  83
ATOM     83  C   UNL     1      -0.286   7.685   5.771  1.00  0.00    -0.014 A 
ATOM     84  C   UNL     1      -1.364   7.090   6.449  1.00  0.00     0.010 A 
ATOM     85  C   UNL     1       0.998   7.633   6.343  1.00  0.00     0.010 A 
ATOM     86  C   UNL     1      -1.165   6.475   7.689  1.00  0.00     0.020 A 
ATOM     87  C   UNL     1       1.205   6.997   7.569  1.00  0.00     0.020 A 
ATOM     88  C   UNL     1       0.118   6.434   8.242  1.00  0.00     0.054 A 
BRANCH  88  89
ATOM     89  S   UNL     1       0.373   5.592   9.828  1.00  0.00     0.124 S 
ATOM     90  O   UNL     1      -0.077   6.601  10.781  1.00  0.00    -0.237 OA
ATOM     91  O   UNL     1      -0.478   4.412   9.703  1.00  0.00    -0.237 OA
ATOM     92  O   UNL     1       1.808   5.315   9.834  1.00  0.00    -0.744 OA
ENDBRANCH  88  89
ENDBRANCH  60  83
BRANCH  72  93
ATOM     93  C   UNL     1      -3.389  13.671   4.036  1.00  0.00    -0.014 A 
ATOM     94  C   UNL     1      -2.713  14.529   4.922  1.00  0.00     0.010 A 
ATOM     95  C   UNL     1      -4.783  13.789   3.897  1.00  0.00     0.010 A 
ATOM     96  C   UNL     1      -3.425  15.455   5.690  1.00  0.00     0.020 A 
ATOM     97  C   UNL     1      -5.495  14.731   4.644  1.00  0.00     0.020 A 
ATOM     98  C   UNL     1      -4.813  15.544   5.553  1.00  0.00     0.054 A 
BRANCH  98  99
ATOM     99  S   UNL     1      -5.718  16.758   6.552  1.00  0.00     0.124 S 
ATOM    100  O   UNL     1      -5.779  16.095   7.851  1.00  0.00    -0.237 OA
ATOM    101  O   UNL     1      -4.858  17.937   6.489  1.00  0.00    -0.237 OA
ATOM    102  O   UNL     1      -6.997  16.891   5.858  1.00  0.00    -0.744 OA
ENDBRANCH  98  99
ENDBRANCH  72  93
ENDBRANCH  46  47
ENDBRANCH  39  41
ENDBRANCH  38  39
ENDBRANCH  37  38
ENDBRANCH  36  37
ENDBRANCH  35  36
ENDBRANCH  34  35
ENDBRANCH   1  34
TORSDOF 25
