REMARK SMILES O=C(OCCOCCOCCOC(=O)[C@@H]1CC(=O)N(CCO)C1)c1ccc(-c2c3nc(c(-c4ccc(S(=O)(=O)[O-])cc4)c4ccc([nH]4)c(-c4ccc(S(=O)(=O)[O-])cc4)c4nc(c(-c5ccc(S(=O)(=O)[O-])cc5)c5ccc2[nH]5)C=C4)C=C3)cc1
REMARK SMILES IDX 7 1 6 2 5 3 4 4 3 5 2 6 1 7 24 8 25 9 83 10 26 11 82 12
REMARK SMILES IDX 27 13 28 14 29 15 76 16 30 17 81 18 75 19 77 20 31 21 80 22
REMARK SMILES IDX 74 23 73 24 32 26 62 27 43 28 61 29 44 30 47 31 60 32 78 33
REMARK SMILES IDX 45 34 46 35 59 37 79 38 48 39 33 40 34 41 42 42 35 43 41 44
REMARK SMILES IDX 36 45 37 46 38 47 39 48 40 49 63 50 64 51 72 52 65 53 71 54
REMARK SMILES IDX 66 55 67 56 68 57 69 58 70 59 49 60 50 61 58 62 51 63 57 64
REMARK SMILES IDX 52 65 53 66 54 67 55 68 56 69 8 70 9 71 10 72 11 73 12 74
REMARK SMILES IDX 13 75 14 76 15 77 16 78 23 79 17 80 19 81 18 82 20 83 21 84
REMARK SMILES IDX 22 85
REMARK H PARENT 77 25 47 36 22 86
REMARK Flexibility Score: inf
ROOT
ATOM      1  C   UNL     1       2.615   0.941   1.727  1.00  0.00     0.188 C 
ENDROOT
BRANCH   1   2
ATOM      2  O   UNL     1       3.946   0.438   1.605  1.00  0.00    -0.376 OA
BRANCH   2   3
ATOM      3  C   UNL     1       4.788   1.169   0.705  1.00  0.00     0.202 C 
BRANCH   3   4
ATOM      4  C   UNL     1       4.415   1.119  -0.790  1.00  0.00     0.261 C 
BRANCH   4   5
ATOM      5  O   UNL     1       3.023   0.862  -1.046  1.00  0.00    -0.460 OA
BRANCH   5   6
ATOM      6  C   UNL     1       2.415  -0.325  -1.302  1.00  0.00     0.338 C 
ATOM      7  O   UNL     1       1.232  -0.318  -1.639  1.00  0.00    -0.246 OA
BRANCH   6   8
ATOM      8  C   UNL     1       3.093  -1.649  -1.155  1.00  0.00     0.060 A 
ATOM      9  C   UNL     1       4.210  -1.877  -0.356  1.00  0.00     0.016 A 
ATOM     10  C   UNL     1       2.519  -2.755  -1.805  1.00  0.00     0.016 A 
ATOM     11  C   UNL     1       4.810  -3.119  -0.270  1.00  0.00     0.010 A 
ATOM     12  C   UNL     1       3.085  -4.029  -1.685  1.00  0.00     0.010 A 
ATOM     13  C   UNL     1       4.256  -4.201  -0.939  1.00  0.00    -0.014 A 
BRANCH  13  14
ATOM     14  C   UNL     1       5.034  -5.450  -0.944  1.00  0.00     0.031 A 
ATOM     15  C   UNL     1       5.783  -5.798  -2.190  1.00  0.00     0.074 A 
ATOM     16  C   UNL     1       5.194  -6.140   0.200  1.00  0.00     0.049 A 
ATOM     17  N   UNL     1       6.527  -6.839  -2.435  1.00  0.00    -0.248 NA
ATOM     18  C   UNL     1       5.703  -4.834  -3.303  1.00  0.00     0.031 C 
ATOM     19  C   UNL     1       4.616  -5.766   1.493  1.00  0.00     0.029 A 
ATOM     20  N   UNL     1       5.910  -7.271   0.476  1.00  0.00    -0.354 N 
ATOM     21  C   UNL     1       6.974  -6.674  -3.739  1.00  0.00     0.074 A 
ATOM     22  C   UNL     1       6.420  -5.438  -4.237  1.00  0.00     0.031 C 
ATOM     23  C   UNL     1       5.006  -6.648   2.426  1.00  0.00     0.029 A 
ATOM     24  C   UNL     1       5.803  -7.683   1.784  1.00  0.00     0.049 A 
ATOM     25  H   UNL     1       6.451  -7.745  -0.197  1.00  0.00     0.167 HD
ATOM     26  C   UNL     1       7.772  -7.499  -4.451  1.00  0.00     0.031 A 
ATOM     27  C   UNL     1       6.265  -8.799   2.378  1.00  0.00     0.031 A 
ATOM     28  C   UNL     1       8.291  -8.728  -3.921  1.00  0.00     0.049 A 
ATOM     29  C   UNL     1       7.042  -9.762   1.524  1.00  0.00     0.074 A 
ATOM     30  C   UNL     1       9.058  -9.686  -4.555  1.00  0.00     0.029 A 
ATOM     31  N   UNL     1       8.087  -9.168  -2.618  1.00  0.00    -0.354 N 
ATOM     32  N   UNL     1       7.408  -9.633   0.269  1.00  0.00    -0.248 NA
ATOM     33  C   UNL     1       7.462 -11.018   2.154  1.00  0.00     0.031 C 
ATOM     34  C   UNL     1       9.262 -10.735  -3.654  1.00  0.00     0.029 A 
ATOM     35  C   UNL     1       8.690 -10.396  -2.435  1.00  0.00     0.049 A 
ATOM     36  H   UNL     1       7.587  -8.675  -1.928  1.00  0.00     0.167 HD
ATOM     37  C   UNL     1       8.123 -10.783  -0.035  1.00  0.00     0.074 A 
ATOM     38  C   UNL     1       8.155 -11.582   1.175  1.00  0.00     0.031 C 
ATOM     39  C   UNL     1       8.701 -11.150  -1.206  1.00  0.00     0.031 A 
BRANCH  26  40
ATOM     40  C   UNL     1       8.040  -7.135  -5.883  1.00  0.00    -0.014 A 
ATOM     41  C   UNL     1       8.870  -6.054  -6.231  1.00  0.00     0.010 A 
ATOM     42  C   UNL     1       7.436  -7.891  -6.904  1.00  0.00     0.010 A 
ATOM     43  C   UNL     1       9.069  -5.721  -7.574  1.00  0.00     0.020 A 
ATOM     44  C   UNL     1       7.655  -7.579  -8.247  1.00  0.00     0.020 A 
ATOM     45  C   UNL     1       8.462  -6.488  -8.573  1.00  0.00     0.054 A 
BRANCH  45  46
ATOM     46  S   UNL     1       8.769  -6.057 -10.308  1.00  0.00     0.124 S 
ATOM     47  O   UNL     1       8.034  -4.801 -10.441  1.00  0.00    -0.237 OA
ATOM     48  O   UNL     1      10.224  -5.941 -10.353  1.00  0.00    -0.237 OA
ATOM     49  O   UNL     1       8.212  -7.185 -11.050  1.00  0.00    -0.744 OA
ENDBRANCH  45  46
ENDBRANCH  26  40
BRANCH  27  50
ATOM     50  C   UNL     1       5.941  -9.101   3.800  1.00  0.00    -0.014 A 
ATOM     51  C   UNL     1       6.948  -9.202   4.776  1.00  0.00     0.010 A 
ATOM     52  C   UNL     1       4.604  -9.322   4.183  1.00  0.00     0.010 A 
ATOM     53  C   UNL     1       6.628  -9.543   6.096  1.00  0.00     0.020 A 
ATOM     54  C   UNL     1       4.278  -9.642   5.503  1.00  0.00     0.020 A 
ATOM     55  C   UNL     1       5.294  -9.763   6.450  1.00  0.00     0.054 A 
BRANCH  55  56
ATOM     56  S   UNL     1       4.891 -10.174   8.170  1.00  0.00     0.124 S 
ATOM     57  O   UNL     1       5.341 -11.558   8.265  1.00  0.00    -0.237 OA
ATOM     58  O   UNL     1       5.678  -9.197   8.919  1.00  0.00    -0.237 OA
ATOM     59  O   UNL     1       3.445  -9.975   8.236  1.00  0.00    -0.744 OA
ENDBRANCH  55  56
ENDBRANCH  27  50
BRANCH  39  60
ATOM     60  C   UNL     1       9.459 -12.446  -1.210  1.00  0.00    -0.014 A 
ATOM     61  C   UNL     1       8.793 -13.682  -1.157  1.00  0.00     0.010 A 
ATOM     62  C   UNL     1      10.859 -12.416  -1.338  1.00  0.00     0.010 A 
ATOM     63  C   UNL     1       9.522 -14.870  -1.202  1.00  0.00     0.020 A 
ATOM     64  C   UNL     1      11.587 -13.601  -1.421  1.00  0.00     0.020 A 
ATOM     65  C   UNL     1      10.914 -14.822  -1.339  1.00  0.00     0.054 A 
BRANCH  65  66
ATOM     66  S   UNL     1      11.830 -16.379  -1.457  1.00  0.00     0.124 S 
ATOM     67  O   UNL     1      11.750 -16.882  -0.088  1.00  0.00    -0.237 OA
ATOM     68  O   UNL     1      11.062 -17.127  -2.449  1.00  0.00    -0.237 OA
ATOM     69  O   UNL     1      13.162 -15.965  -1.892  1.00  0.00    -0.744 OA
ENDBRANCH  65  66
ENDBRANCH  39  60
ENDBRANCH  13  14
ENDBRANCH   6   8
ENDBRANCH   5   6
ENDBRANCH   4   5
ENDBRANCH   3   4
ENDBRANCH   2   3
ENDBRANCH   1   2
BRANCH   1  70
ATOM     70  C   UNL     1       2.061   0.855   3.151  1.00  0.00     0.188 C 
BRANCH  70  71
ATOM     71  O   UNL     1       2.718   1.614   4.164  1.00  0.00    -0.376 OA
BRANCH  71  72
ATOM     72  C   UNL     1       4.137   1.522   4.238  1.00  0.00     0.202 C 
BRANCH  72  73
ATOM     73  C   UNL     1       4.762   0.178   4.655  1.00  0.00     0.261 C 
BRANCH  73  74
ATOM     74  O   UNL     1       4.095  -0.966   4.102  1.00  0.00    -0.463 OA
BRANCH  74  75
ATOM     75  C   UNL     1       3.479  -1.785   5.000  1.00  0.00     0.311 C 
ATOM     76  O   UNL     1       3.627  -1.734   6.212  1.00  0.00    -0.252 OA
BRANCH  75  77
ATOM     77  C   UNL     1       2.499  -2.697   4.292  1.00  0.00     0.128 C 
ATOM     78  C   UNL     1       1.157  -2.655   5.020  1.00  0.00     0.117 C 
ATOM     79  C   UNL     1       2.922  -4.147   4.347  1.00  0.00     0.135 C 
ATOM     80  C   UNL     1       1.228  -3.840   5.953  1.00  0.00     0.223 C 
ATOM     81  N   UNL     1       2.241  -4.669   5.501  1.00  0.00    -0.339 N 
ATOM     82  O   UNL     1       0.455  -4.053   6.867  1.00  0.00    -0.275 OA
BRANCH  81  83
ATOM     83  C   UNL     1       2.511  -5.999   6.042  1.00  0.00     0.147 C 
BRANCH  83  84
ATOM     84  C   UNL     1       1.502  -7.036   5.544  1.00  0.00     0.177 C 
BRANCH  84  85
ATOM     85  O   UNL     1       1.654  -7.270   4.142  1.00  0.00    -0.395 OA
ATOM     86  H   UNL     1       1.499  -6.444   3.657  1.00  0.00     0.210 HD
ENDBRANCH  84  85
ENDBRANCH  83  84
ENDBRANCH  81  83
ENDBRANCH  75  77
ENDBRANCH  74  75
ENDBRANCH  73  74
ENDBRANCH  72  73
ENDBRANCH  71  72
ENDBRANCH  70  71
ENDBRANCH   1  70
TORSDOF 23
