REMARK SMILES C[C@H](NC(=O)c1cccc(NC(=O)c2ccccc2C(=O)OCCOCCOCCOC(=O)c2ccc(-c3c4nc(c(-c5ccc(S(=O)(=O)[O-])cc5)c5ccc([nH]5)c(-c5ccc(S(=O)(=O)[O-])cc5)c5nc(c(-c6ccc(S(=O)(=O)[O-])cc6)c6ccc3[nH]6)C=C5)C=C4)cc2)c1)c1ccccc1
REMARK SMILES IDX 26 1 25 2 24 3 23 4 22 5 20 6 21 7 19 8 14 9 15 10 16 11
REMARK SMILES IDX 18 12 17 13 12 14 11 15 13 17 10 18 6 19 7 20 94 21 8 22
REMARK SMILES IDX 9 23 4 24 3 25 5 27 2 28 1 29 95 30 96 31 100 32 97 33 99 34
REMARK SMILES IDX 98 35 27 36 28 37 29 38 30 39 31 40 32 41 33 42 34 43 35 44
REMARK SMILES IDX 93 45 36 46 92 47 37 48 38 49 39 50 86 51 40 52 91 53 85 54
REMARK SMILES IDX 87 55 41 56 90 57 84 58 83 59 42 61 72 62 53 63 71 64 54 65
REMARK SMILES IDX 57 66 70 67 88 68 55 69 56 70 69 72 89 73 58 74 43 75 44 76
REMARK SMILES IDX 52 77 45 78 51 79 46 80 47 81 48 82 49 83 50 84 73 85 74 86
REMARK SMILES IDX 82 87 75 88 81 89 76 90 77 91 78 92 79 93 80 94 59 95 60 96
REMARK SMILES IDX 68 97 61 98 67 99 62 100 63 101 64 102 65 103 66 104
REMARK H PARENT 11 16 3 26 87 60 57 71
REMARK Flexibility Score: inf
ROOT
ATOM      1  C   UNL     1       2.169   2.049   6.831  1.00  0.00     0.188 C 
ENDROOT
BRANCH   1   2
ATOM      2  O   UNL     1       0.985   2.082   6.056  1.00  0.00    -0.376 OA
BRANCH   2   3
ATOM      3  C   UNL     1       0.888   1.198   4.964  1.00  0.00     0.202 C 
BRANCH   3   4
ATOM      4  C   UNL     1       2.127   0.797   4.154  1.00  0.00     0.261 C 
BRANCH   4   5
ATOM      5  O   UNL     1       3.417   0.749   4.734  1.00  0.00    -0.460 OA
BRANCH   5   6
ATOM      6  C   UNL     1       4.228   1.778   4.430  1.00  0.00     0.339 C 
ATOM      7  O   UNL     1       3.923   2.826   3.903  1.00  0.00    -0.246 OA
BRANCH   6   8
ATOM      8  C   UNL     1       5.554   1.479   4.992  1.00  0.00     0.072 A 
ATOM      9  C   UNL     1       6.193   0.230   4.909  1.00  0.00     0.054 A 
ATOM     10  C   UNL     1       7.415   0.083   5.596  1.00  0.00     0.015 A 
ATOM     11  C   UNL     1       7.995   1.149   6.297  1.00  0.00     0.001 A 
ATOM     12  C   UNL     1       6.147   2.553   5.682  1.00  0.00     0.016 A 
ATOM     13  C   UNL     1       7.364   2.387   6.333  1.00  0.00     0.001 A 
BRANCH   9  14
ATOM     14  C   UNL     1       5.666  -1.013   4.261  1.00  0.00     0.256 C 
ATOM     15  N   UNL     1       5.022  -1.101   3.037  1.00  0.00    -0.322 N 
ATOM     16  H   UNL     1       4.656  -1.997   2.854  1.00  0.00     0.170 HD
ATOM     17  O   UNL     1       5.804  -2.068   4.892  1.00  0.00    -0.269 OA
BRANCH  15  18
ATOM     18  C   UNL     1       4.782  -0.181   2.000  1.00  0.00     0.042 A 
ATOM     19  C   UNL     1       3.226   0.596   0.277  1.00  0.00     0.041 A 
ATOM     20  C   UNL     1       3.903   1.827   0.290  1.00  0.00     0.014 A 
ATOM     21  C   UNL     1       3.705  -0.427   1.112  1.00  0.00     0.040 A 
ATOM     22  C   UNL     1       5.060   2.010   1.048  1.00  0.00     0.003 A 
ATOM     23  C   UNL     1       5.523   0.988   1.868  1.00  0.00     0.026 A 
BRANCH  19  24
ATOM     24  C   UNL     1       2.124   0.484  -0.731  1.00  0.00     0.251 C 
ATOM     25  N   UNL     1       0.853  -0.006  -0.528  1.00  0.00    -0.346 N 
ATOM     26  H   UNL     1       0.249   0.196  -1.279  1.00  0.00     0.164 HD
ATOM     27  O   UNL     1       2.359   0.942  -1.854  1.00  0.00    -0.269 OA
BRANCH  25  28
ATOM     28  C   UNL     1       0.191  -0.750   0.531  1.00  0.00     0.109 C 
ATOM     29  C   UNL     1       0.508  -0.232   1.903  1.00  0.00     0.036 C 
BRANCH  28  30
ATOM     30  C   UNL     1      -1.334  -0.725   0.481  1.00  0.00    -0.026 A 
ATOM     31  C   UNL     1      -2.041   0.490   0.533  1.00  0.00     0.006 A 
ATOM     32  C   UNL     1      -2.033  -1.921   0.721  1.00  0.00     0.006 A 
ATOM     33  C   UNL     1      -3.393   0.508   0.887  1.00  0.00     0.000 A 
ATOM     34  C   UNL     1      -3.385  -1.899   1.067  1.00  0.00     0.000 A 
ATOM     35  C   UNL     1      -4.059  -0.684   1.168  1.00  0.00     0.000 A 
ENDBRANCH  28  30
ENDBRANCH  25  28
ENDBRANCH  19  24
ENDBRANCH  15  18
ENDBRANCH   9  14
ENDBRANCH   6   8
ENDBRANCH   5   6
ENDBRANCH   4   5
ENDBRANCH   3   4
ENDBRANCH   2   3
ENDBRANCH   1   2
BRANCH   1  36
ATOM     36  C   UNL     1       2.686   0.684   7.351  1.00  0.00     0.188 C 
BRANCH  36  37
ATOM     37  O   UNL     1       1.946  -0.416   6.851  1.00  0.00    -0.376 OA
BRANCH  37  38
ATOM     38  C   UNL     1       1.062  -1.056   7.755  1.00  0.00     0.202 C 
BRANCH  38  39
ATOM     39  C   UNL     1       0.027  -0.235   8.554  1.00  0.00     0.261 C 
BRANCH  39  40
ATOM     40  O   UNL     1       0.392   1.090   8.974  1.00  0.00    -0.460 OA
BRANCH  40  41
ATOM     41  C   UNL     1       1.178   1.235  10.069  1.00  0.00     0.338 C 
ATOM     42  O   UNL     1       1.624   0.341  10.764  1.00  0.00    -0.246 OA
BRANCH  41  43
ATOM     43  C   UNL     1       1.617   2.657  10.114  1.00  0.00     0.060 A 
ATOM     44  C   UNL     1       2.987   2.955  10.001  1.00  0.00     0.016 A 
ATOM     45  C   UNL     1       0.679   3.694  10.130  1.00  0.00     0.016 A 
ATOM     46  C   UNL     1       3.417   4.284   9.905  1.00  0.00     0.010 A 
ATOM     47  C   UNL     1       1.115   5.024  10.083  1.00  0.00     0.010 A 
ATOM     48  C   UNL     1       2.487   5.327   9.995  1.00  0.00    -0.014 A 
BRANCH  48  49
ATOM     49  C   UNL     1       2.952   6.710  10.283  1.00  0.00     0.031 A 
ATOM     50  C   UNL     1       3.034   7.115  11.732  1.00  0.00     0.074 A 
ATOM     51  C   UNL     1       3.286   7.587   9.317  1.00  0.00     0.049 A 
ATOM     52  N   UNL     1       3.332   8.274  12.257  1.00  0.00    -0.248 NA
ATOM     53  C   UNL     1       2.734   6.065  12.723  1.00  0.00     0.031 C 
ATOM     54  C   UNL     1       3.296   7.314   7.881  1.00  0.00     0.029 A 
ATOM     55  N   UNL     1       3.671   8.905   9.410  1.00  0.00    -0.354 N 
ATOM     56  C   UNL     1       3.234   8.098  13.633  1.00  0.00     0.074 A 
ATOM     57  C   UNL     1       2.836   6.728  13.863  1.00  0.00     0.031 C 
ATOM     58  C   UNL     1       3.647   8.438   7.226  1.00  0.00     0.029 A 
ATOM     59  C   UNL     1       3.851   9.519   8.191  1.00  0.00     0.049 A 
ATOM     60  H   UNL     1       3.806   9.367  10.269  1.00  0.00     0.167 HD
ATOM     61  C   UNL     1       3.454   8.996  14.620  1.00  0.00     0.031 A 
ATOM     62  C   UNL     1       4.116  10.809   7.891  1.00  0.00     0.031 A 
ATOM     63  C   UNL     1       3.836  10.362  14.393  1.00  0.00     0.049 A 
ATOM     64  C   UNL     1       4.287  11.811   9.011  1.00  0.00     0.074 A 
ATOM     65  C   UNL     1       4.107  11.342  15.332  1.00  0.00     0.029 A 
ATOM     66  N   UNL     1       3.989  10.946  13.146  1.00  0.00    -0.354 N 
ATOM     67  N   UNL     1       4.234  11.620  10.309  1.00  0.00    -0.248 NA
ATOM     68  C   UNL     1       4.562  13.204   8.625  1.00  0.00     0.031 C 
ATOM     69  C   UNL     1       4.354  12.537  14.652  1.00  0.00     0.029 A 
ATOM     70  C   UNL     1       4.317  12.283  13.291  1.00  0.00     0.049 A 
ATOM     71  H   UNL     1       3.880  10.480  12.286  1.00  0.00     0.167 HD
ATOM     72  C   UNL     1       4.504  12.857  10.889  1.00  0.00     0.074 A 
ATOM     73  C   UNL     1       4.735  13.786   9.804  1.00  0.00     0.031 C 
ATOM     74  C   UNL     1       4.557  13.195  12.202  1.00  0.00     0.031 A 
BRANCH  61  75
ATOM     75  C   UNL     1       3.244   8.543  16.040  1.00  0.00    -0.014 A 
ATOM     76  C   UNL     1       4.134   7.651  16.663  1.00  0.00     0.010 A 
ATOM     77  C   UNL     1       2.172   9.074  16.781  1.00  0.00     0.010 A 
ATOM     78  C   UNL     1       3.946   7.285  17.998  1.00  0.00     0.020 A 
ATOM     79  C   UNL     1       1.998   8.733  18.124  1.00  0.00     0.020 A 
ATOM     80  C   UNL     1       2.883   7.834  18.722  1.00  0.00     0.054 A 
BRANCH  80  81
ATOM     81  S   UNL     1       2.703   7.391  20.471  1.00  0.00     0.124 S 
ATOM     82  O   UNL     1       2.288   5.992  20.387  1.00  0.00    -0.237 OA
ATOM     83  O   UNL     1       4.047   7.617  20.995  1.00  0.00    -0.237 OA
ATOM     84  O   UNL     1       1.682   8.313  20.961  1.00  0.00    -0.744 OA
ENDBRANCH  80  81
ENDBRANCH  61  75
BRANCH  62  85
ATOM     85  C   UNL     1       4.198  11.255   6.468  1.00  0.00    -0.014 A 
ATOM     86  C   UNL     1       5.404  11.738   5.927  1.00  0.00     0.010 A 
ATOM     87  C   UNL     1       3.048  11.245   5.657  1.00  0.00     0.010 A 
ATOM     88  C   UNL     1       5.451  12.228   4.617  1.00  0.00     0.020 A 
ATOM     89  C   UNL     1       3.098  11.702   4.336  1.00  0.00     0.020 A 
ATOM     90  C   UNL     1       4.296  12.207   3.829  1.00  0.00     0.054 A 
BRANCH  90  91
ATOM     91  S   UNL     1       4.387  12.822   2.124  1.00  0.00     0.124 S 
ATOM     92  O   UNL     1       4.525  14.261   2.327  1.00  0.00    -0.237 OA
ATOM     93  O   UNL     1       5.571  12.140   1.607  1.00  0.00    -0.237 OA
ATOM     94  O   UNL     1       3.121  12.392   1.536  1.00  0.00    -0.744 OA
ENDBRANCH  90  91
ENDBRANCH  62  85
BRANCH  74  95
ATOM     95  C   UNL     1       4.933  14.613  12.553  1.00  0.00    -0.014 A 
ATOM     96  C   UNL     1       4.060  15.689  12.313  1.00  0.00     0.010 A 
ATOM     97  C   UNL     1       6.157  14.859  13.203  1.00  0.00     0.010 A 
ATOM     98  C   UNL     1       4.421  16.988  12.684  1.00  0.00     0.020 A 
ATOM     99  C   UNL     1       6.506  16.150  13.607  1.00  0.00     0.020 A 
ATOM    100  C   UNL     1       5.641  17.210  13.331  1.00  0.00     0.054 A 
BRANCH 100 101
ATOM    101  S   UNL     1       6.065  18.898  13.842  1.00  0.00     0.124 S 
ATOM    102  O   UNL     1       6.340  19.543  12.562  1.00  0.00    -0.237 OA
ATOM    103  O   UNL     1       4.851  19.341  14.522  1.00  0.00    -0.237 OA
ATOM    104  O   UNL     1       7.227  18.717  14.710  1.00  0.00    -0.744 OA
ENDBRANCH 100 101
ENDBRANCH  74  95
ENDBRANCH  48  49
ENDBRANCH  41  43
ENDBRANCH  40  41
ENDBRANCH  39  40
ENDBRANCH  38  39
ENDBRANCH  37  38
ENDBRANCH  36  37
ENDBRANCH   1  36
TORSDOF 25
