REMARK SMILES O=C(C[NH2+]CC[NH+]1CCCCCC1)OCCOCCOCCOC(=O)c1ccc(-c2c3nc(c(-c4ccc(S(=O)(=O)[O-])cc4)c4ccc([nH]4)c(-c4ccc(S(=O)(=O)[O-])cc4)c4nc(c(-c5ccc(S(=O)(=O)[O-])cc5)c5ccc2[nH]5)C=C4)C=C3)cc1
REMARK SMILES IDX 16 1 15 2 14 3 2 4 1 5 3 6 4 7 5 10 6 11 7 12 8 14 9 15
REMARK SMILES IDX 10 16 11 17 13 19 12 20 17 22 18 23 19 24 20 25 21 26 22 27
REMARK SMILES IDX 23 28 24 29 25 30 26 31 27 32 85 33 28 34 84 35 29 36 30 37
REMARK SMILES IDX 31 38 78 39 32 40 83 41 77 42 79 43 33 44 82 45 76 46 75 47
REMARK SMILES IDX 34 49 64 50 45 51 63 52 46 53 49 54 62 55 80 56 47 57 48 58
REMARK SMILES IDX 61 60 81 61 50 62 35 63 36 64 44 65 37 66 43 67 38 68 39 69
REMARK SMILES IDX 40 70 41 71 42 72 65 73 66 74 74 75 67 76 73 77 68 78 69 79
REMARK SMILES IDX 70 80 71 81 72 82 51 83 52 84 60 85 53 86 59 87 54 88 55 89
REMARK SMILES IDX 56 90 57 91 58 92
REMARK H PARENT 4 8 4 9 7 13 79 48 49 59
REMARK Flexibility Score: 80.00
ROOT
ATOM      1  C   UNL     1       5.212  -0.924  -0.310  1.00  0.00     0.202 C 
ENDROOT
BRANCH   1   2
ATOM      2  C   UNL     1       4.985  -0.431   1.119  1.00  0.00     0.261 C 
BRANCH   2   3
ATOM      3  O   UNL     1       3.652  -0.028   1.495  1.00  0.00    -0.459 OA
BRANCH   3   4
ATOM      4  C   UNL     1       2.851   0.854   0.869  1.00  0.00     0.361 C 
ATOM      5  O   UNL     1       1.729   1.078   1.324  1.00  0.00    -0.245 OA
BRANCH   4   6
ATOM      6  C   UNL     1       3.322   1.536  -0.404  1.00  0.00     0.385 C 
BRANCH   6   7
ATOM      7  N   UNL     1       4.487   2.400  -0.156  1.00  0.00    -0.332 N 
ATOM      8  H   UNL     1       5.311   1.812  -0.028  1.00  0.00     0.346 HD
ATOM      9  H   UNL     1       4.296   2.954   0.678  1.00  0.00     0.346 HD
BRANCH   7  10
ATOM     10  C   UNL     1       4.734   3.329  -1.275  1.00  0.00     0.323 C 
BRANCH  10  11
ATOM     11  C   UNL     1       3.542   4.162  -1.834  1.00  0.00     0.324 C 
BRANCH  11  12
ATOM     12  N   UNL     1       2.861   5.145  -0.972  1.00  0.00    -0.330 N 
ATOM     13  H   UNL     1       1.910   5.215  -1.334  1.00  0.00     0.348 HD
BRANCH  12  14
ATOM     14  C   UNL     1       2.514   4.724   0.373  1.00  0.00     0.262 C 
BRANCH  14  15
ATOM     15  C   UNL     1       1.203   5.302   0.896  1.00  0.00     0.061 C 
BRANCH  15  16
ATOM     16  C   UNL     1       1.316   6.713   1.436  1.00  0.00     0.006 C 
BRANCH  16  17
ATOM     17  C   UNL     1       1.778   7.721   0.395  1.00  0.00     0.006 CG0
ATOM     18  G   UNL     1       3.231   7.512  -0.019  1.00  0.00     0.000 G0
ENDBRANCH  16  17
ENDBRANCH  15  16
ENDBRANCH  14  15
ENDBRANCH  12  14
BRANCH  12  19
ATOM     19  C   UNL     1       3.448   6.479  -1.126  1.00  0.00     0.262 C 
BRANCH  19  20
ATOM     20  C   UNL     1       3.231   7.512  -0.019  1.00  0.00     0.061 CG0
ATOM     21  G   UNL     1       1.778   7.721   0.395  1.00  0.00     0.000 G0
ENDBRANCH  19  20
ENDBRANCH  12  19
ENDBRANCH  11  12
ENDBRANCH  10  11
ENDBRANCH   7  10
ENDBRANCH   6   7
ENDBRANCH   4   6
ENDBRANCH   3   4
ENDBRANCH   2   3
ENDBRANCH   1   2
BRANCH   1  22
ATOM     22  O   UNL     1       4.432  -2.038  -0.715  1.00  0.00    -0.376 OA
BRANCH  22  23
ATOM     23  C   UNL     1       3.018  -1.935  -0.718  1.00  0.00     0.188 C 
BRANCH  23  24
ATOM     24  C   UNL     1       2.314  -3.203  -1.230  1.00  0.00     0.188 C 
BRANCH  24  25
ATOM     25  O   UNL     1       2.975  -4.447  -1.039  1.00  0.00    -0.376 OA
BRANCH  25  26
ATOM     26  C   UNL     1       4.268  -4.594  -1.625  1.00  0.00     0.202 C 
BRANCH  26  27
ATOM     27  C   UNL     1       4.422  -4.349  -3.137  1.00  0.00     0.261 C 
BRANCH  27  28
ATOM     28  O   UNL     1       4.021  -3.048  -3.622  1.00  0.00    -0.460 OA
BRANCH  28  29
ATOM     29  C   UNL     1       3.035  -3.069  -4.558  1.00  0.00     0.338 C 
ATOM     30  O   UNL     1       2.416  -4.043  -4.950  1.00  0.00    -0.246 OA
BRANCH  29  31
ATOM     31  C   UNL     1       2.737  -1.717  -5.071  1.00  0.00     0.060 A 
ATOM     32  C   UNL     1       1.573  -1.058  -4.657  1.00  0.00     0.016 A 
ATOM     33  C   UNL     1       3.492  -1.208  -6.129  1.00  0.00     0.016 A 
ATOM     34  C   UNL     1       1.151   0.105  -5.318  1.00  0.00     0.010 A 
ATOM     35  C   UNL     1       3.066  -0.049  -6.789  1.00  0.00     0.010 A 
ATOM     36  C   UNL     1       1.879   0.603  -6.409  1.00  0.00    -0.014 A 
BRANCH  36  37
ATOM     37  C   UNL     1       1.392   1.757  -7.214  1.00  0.00     0.031 A 
ATOM     38  C   UNL     1       0.720   1.523  -8.542  1.00  0.00     0.074 A 
ATOM     39  C   UNL     1       1.608   3.020  -6.799  1.00  0.00     0.049 A 
ATOM     40  N   UNL     1       0.378   2.393  -9.458  1.00  0.00    -0.248 NA
ATOM     41  C   UNL     1       0.389   0.130  -8.882  1.00  0.00     0.031 C 
ATOM     42  C   UNL     1       2.206   3.398  -5.520  1.00  0.00     0.029 A 
ATOM     43  N   UNL     1       1.377   4.220  -7.431  1.00  0.00    -0.354 N 
ATOM     44  C   UNL     1      -0.190   1.657 -10.491  1.00  0.00     0.074 A 
ATOM     45  C   UNL     1      -0.145   0.266 -10.089  1.00  0.00     0.031 C 
ATOM     46  C   UNL     1       2.328   4.736  -5.477  1.00  0.00     0.029 A 
ATOM     47  C   UNL     1       1.866   5.304  -6.741  1.00  0.00     0.049 A 
ATOM     48  H   UNL     1       0.906   4.295  -8.292  1.00  0.00     0.167 HD
ATOM     49  C   UNL     1      -0.697   2.097 -11.668  1.00  0.00     0.031 A 
ATOM     50  C   UNL     1       1.981   6.600  -7.098  1.00  0.00     0.031 A 
ATOM     51  C   UNL     1      -0.745   3.478 -12.075  1.00  0.00     0.049 A 
ATOM     52  C   UNL     1       1.501   7.050  -8.452  1.00  0.00     0.074 A 
ATOM     53  C   UNL     1      -1.293   4.013 -13.229  1.00  0.00     0.029 A 
ATOM     54  N   UNL     1      -0.213   4.537 -11.359  1.00  0.00    -0.354 N 
ATOM     55  N   UNL     1       0.923   6.347  -9.396  1.00  0.00    -0.248 NA
ATOM     56  C   UNL     1       1.694   8.469  -8.792  1.00  0.00     0.031 C 
ATOM     57  C   UNL     1      -1.036   5.387 -13.242  1.00  0.00     0.029 A 
ATOM     58  C   UNL     1      -0.376   5.715 -12.070  1.00  0.00     0.049 A 
ATOM     59  H   UNL     1       0.217   4.464 -10.477  1.00  0.00     0.167 HD
ATOM     60  C   UNL     1       0.668   7.242 -10.431  1.00  0.00     0.074 A 
ATOM     61  C   UNL     1       1.139   8.538  -9.995  1.00  0.00     0.031 C 
ATOM     62  C   UNL     1       0.096   7.005 -11.636  1.00  0.00     0.031 A 
BRANCH  49  63
ATOM     63  C   UNL     1      -1.218   1.075 -12.642  1.00  0.00    -0.014 A 
ATOM     64  C   UNL     1      -2.471   0.468 -12.459  1.00  0.00     0.010 A 
ATOM     65  C   UNL     1      -0.485   0.802 -13.812  1.00  0.00     0.010 A 
ATOM     66  C   UNL     1      -2.978  -0.406 -13.426  1.00  0.00     0.020 A 
ATOM     67  C   UNL     1      -0.997  -0.056 -14.789  1.00  0.00     0.020 A 
ATOM     68  C   UNL     1      -2.239  -0.660 -14.586  1.00  0.00     0.054 A 
BRANCH  68  69
ATOM     69  S   UNL     1      -2.949  -1.748 -15.852  1.00  0.00     0.124 S 
ATOM     70  O   UNL     1      -2.818  -3.062 -15.227  1.00  0.00    -0.237 OA
ATOM     71  O   UNL     1      -4.315  -1.246 -15.978  1.00  0.00    -0.237 OA
ATOM     72  O   UNL     1      -2.098  -1.526 -17.018  1.00  0.00    -0.744 OA
ENDBRANCH  68  69
ENDBRANCH  49  63
BRANCH  50  73
ATOM     73  C   UNL     1       2.660   7.564  -6.189  1.00  0.00    -0.014 A 
ATOM     74  C   UNL     1       1.940   8.591  -5.556  1.00  0.00     0.010 A 
ATOM     75  C   UNL     1       4.049   7.472  -5.981  1.00  0.00     0.010 A 
ATOM     76  C   UNL     1       2.600   9.525  -4.752  1.00  0.00     0.020 A 
ATOM     77  C   UNL     1       4.708   8.386  -5.157  1.00  0.00     0.020 A 
ATOM     78  C   UNL     1       3.981   9.417  -4.559  1.00  0.00     0.054 A 
BRANCH  78  79
ATOM     79  S   UNL     1       4.818  10.613  -3.483  1.00  0.00     0.124 S 
ATOM     80  O   UNL     1       4.915  11.784  -4.349  1.00  0.00    -0.237 OA
ATOM     81  O   UNL     1       3.894  10.728  -2.358  1.00  0.00    -0.237 OA
ATOM     82  O   UNL     1       6.085   9.955  -3.169  1.00  0.00    -0.744 OA
ENDBRANCH  78  79
ENDBRANCH  50  73
BRANCH  62  83
ATOM     83  C   UNL     1      -0.073   8.170 -12.575  1.00  0.00    -0.014 A 
ATOM     84  C   UNL     1       1.026   8.708 -13.266  1.00  0.00     0.010 A 
ATOM     85  C   UNL     1      -1.358   8.687 -12.822  1.00  0.00     0.010 A 
ATOM     86  C   UNL     1       0.847   9.755 -14.175  1.00  0.00     0.020 A 
ATOM     87  C   UNL     1      -1.545   9.718 -13.748  1.00  0.00     0.020 A 
ATOM     88  C   UNL     1      -0.439  10.252 -14.412  1.00  0.00     0.054 A 
BRANCH  88  89
ATOM     89  S   UNL     1      -0.654  11.569 -15.642  1.00  0.00     0.124 S 
ATOM     90  O   UNL     1      -0.145  12.737 -14.930  1.00  0.00    -0.237 OA
ATOM     91  O   UNL     1       0.168  11.105 -16.757  1.00  0.00    -0.237 OA
ATOM     92  O   UNL     1      -2.093  11.572 -15.898  1.00  0.00    -0.744 OA
ENDBRANCH  88  89
ENDBRANCH  62  83
ENDBRANCH  36  37
ENDBRANCH  29  31
ENDBRANCH  28  29
ENDBRANCH  27  28
ENDBRANCH  26  27
ENDBRANCH  25  26
ENDBRANCH  24  25
ENDBRANCH  23  24
ENDBRANCH  22  23
ENDBRANCH   1  22
TORSDOF 24
