REMARK SMILES O=C(C[C@@H](NS(=O)(=O)c1ccc2c(c1)OCCO2)c1ccccc1)OCCOCCOCCOC(=O)c1ccc(-c2c3nc(c(-c4ccc(S(=O)(=O)[O-])cc4)c4ccc([nH]4)c(-c4ccc(S(=O)(=O)[O-])cc4)c4nc(c(-c5ccc(S(=O)(=O)[O-])cc5)c5ccc2[nH]5)C=C4)C=C3)cc1
REMARK SMILES IDX 29 1 28 2 27 3 26 4 25 5 2 6 1 7 3 8 4 9 5 10 6 12 7 13 8 14
REMARK SMILES IDX 9 15 10 16 14 17 11 18 13 19 12 20 15 21 18 22 16 23 17 24
REMARK SMILES IDX 19 25 20 26 24 27 21 28 23 29 22 30 30 31 31 32 32 33 33 34
REMARK SMILES IDX 34 35 35 36 36 37 37 38 38 39 96 40 39 41 95 42 40 43 41 44
REMARK SMILES IDX 42 45 89 46 43 47 94 48 88 49 90 50 44 51 93 52 87 53 86 54
REMARK SMILES IDX 45 56 75 57 56 58 74 59 57 60 60 61 73 62 91 63 58 64 59 65
REMARK SMILES IDX 72 67 92 68 61 69 46 70 47 71 55 72 48 73 54 74 49 75 50 76
REMARK SMILES IDX 51 77 52 78 53 79 76 80 77 81 85 82 78 83 84 84 79 85 80 86
REMARK SMILES IDX 81 87 82 88 83 89 62 90 63 91 71 92 64 93 70 94 65 95 66 96
REMARK SMILES IDX 67 97 68 98 69 99
REMARK H PARENT 5 11 90 55 60 66
REMARK Flexibility Score: inf
ROOT
ATOM      1  C   UNL     1       2.453  -0.796   1.578  1.00  0.00     0.188 C 
ENDROOT
BRANCH   1   2
ATOM      2  O   UNL     1       3.810  -1.071   1.282  1.00  0.00    -0.376 OA
BRANCH   2   3
ATOM      3  C   UNL     1       4.644  -0.034   0.764  1.00  0.00     0.202 C 
BRANCH   3   4
ATOM      4  C   UNL     1       4.104   1.400   0.638  1.00  0.00     0.261 C 
BRANCH   4   5
ATOM      5  O   UNL     1       3.592   1.755  -0.677  1.00  0.00    -0.463 OA
BRANCH   5   6
ATOM      6  C   UNL     1       2.515   1.111  -1.199  1.00  0.00     0.307 C 
ATOM      7  O   UNL     1       1.372   1.518  -1.041  1.00  0.00    -0.252 OA
BRANCH   6   8
ATOM      8  C   UNL     1       2.861  -0.141  -1.970  1.00  0.00     0.147 C 
BRANCH   8   9
ATOM      9  C   UNL     1       4.008   0.001  -3.002  1.00  0.00     0.111 C 
BRANCH   9  10
ATOM     10  N   UNL     1       5.184   0.638  -2.363  1.00  0.00    -0.203 NA
ATOM     11  H   UNL     1       5.616  -0.081  -1.782  1.00  0.00     0.142 HD
BRANCH  10  12
ATOM     12  S   UNL     1       6.424   1.325  -3.252  1.00  0.00     0.241 S 
ATOM     13  O   UNL     1       5.864   1.806  -4.492  1.00  0.00    -0.207 OA
ATOM     14  O   UNL     1       7.081   2.222  -2.321  1.00  0.00    -0.207 OA
BRANCH  12  15
ATOM     15  C   UNL     1       7.556   0.017  -3.571  1.00  0.00     0.086 A 
ATOM     16  C   UNL     1       7.579  -1.135  -2.777  1.00  0.00     0.026 A 
ATOM     17  C   UNL     1       8.338   0.116  -4.719  1.00  0.00     0.072 A 
ATOM     18  C   UNL     1       8.328  -2.236  -3.192  1.00  0.00     0.052 A 
ATOM     19  C   UNL     1       9.076  -0.986  -5.125  1.00  0.00     0.162 A 
ATOM     20  C   UNL     1       9.062  -2.167  -4.376  1.00  0.00     0.161 A 
ATOM     21  O   UNL     1       9.764  -0.856  -6.302  1.00  0.00    -0.486 OA
ATOM     22  O   UNL     1       9.705  -3.312  -4.763  1.00  0.00    -0.486 OA
ATOM     23  C   UNL     1       9.911  -2.141  -6.912  1.00  0.00     0.271 C 
ATOM     24  C   UNL     1      10.521  -3.123  -5.925  1.00  0.00     0.271 C 
ENDBRANCH  12  15
ENDBRANCH  10  12
ENDBRANCH   9  10
BRANCH   9  25
ATOM     25  C   UNL     1       4.361  -1.354  -3.611  1.00  0.00    -0.029 A 
ATOM     26  C   UNL     1       4.397  -2.547  -2.860  1.00  0.00     0.005 A 
ATOM     27  C   UNL     1       4.744  -1.422  -4.961  1.00  0.00     0.005 A 
ATOM     28  C   UNL     1       4.790  -3.757  -3.439  1.00  0.00     0.000 A 
ATOM     29  C   UNL     1       5.151  -2.631  -5.535  1.00  0.00     0.000 A 
ATOM     30  C   UNL     1       5.170  -3.797  -4.776  1.00  0.00     0.000 A 
ENDBRANCH   9  25
ENDBRANCH   8   9
ENDBRANCH   6   8
ENDBRANCH   5   6
ENDBRANCH   4   5
ENDBRANCH   3   4
ENDBRANCH   2   3
ENDBRANCH   1   2
BRANCH   1  31
ATOM     31  C   UNL     1       2.118  -0.761   3.072  1.00  0.00     0.188 C 
BRANCH  31  32
ATOM     32  O   UNL     1       3.026  -0.063   3.914  1.00  0.00    -0.376 OA
BRANCH  32  33
ATOM     33  C   UNL     1       4.290  -0.678   4.186  1.00  0.00     0.202 C 
BRANCH  33  34
ATOM     34  C   UNL     1       4.313  -2.148   4.628  1.00  0.00     0.261 C 
BRANCH  34  35
ATOM     35  O   UNL     1       4.095  -3.058   3.530  1.00  0.00    -0.460 OA
BRANCH  35  36
ATOM     36  C   UNL     1       3.067  -3.925   3.692  1.00  0.00     0.338 C 
ATOM     37  O   UNL     1       2.318  -4.007   4.652  1.00  0.00    -0.246 OA
BRANCH  36  38
ATOM     38  C   UNL     1       2.858  -4.724   2.474  1.00  0.00     0.060 A 
ATOM     39  C   UNL     1       1.640  -4.601   1.791  1.00  0.00     0.016 A 
ATOM     40  C   UNL     1       3.770  -5.722   2.129  1.00  0.00     0.016 A 
ATOM     41  C   UNL     1       1.305  -5.514   0.788  1.00  0.00     0.010 A 
ATOM     42  C   UNL     1       3.425  -6.644   1.138  1.00  0.00     0.010 A 
ATOM     43  C   UNL     1       2.175  -6.571   0.496  1.00  0.00    -0.014 A 
BRANCH  43  44
ATOM     44  C   UNL     1       1.727  -7.720  -0.328  1.00  0.00     0.031 A 
ATOM     45  C   UNL     1       1.205  -8.946   0.368  1.00  0.00     0.074 A 
ATOM     46  C   UNL     1       1.843  -7.706  -1.666  1.00  0.00     0.049 A 
ATOM     47  N   UNL     1       0.929 -10.125  -0.124  1.00  0.00    -0.248 NA
ATOM     48  C   UNL     1       0.967  -8.823   1.816  1.00  0.00     0.031 C 
ATOM     49  C   UNL     1       2.276  -6.563  -2.465  1.00  0.00     0.029 A 
ATOM     50  N   UNL     1       1.640  -8.706  -2.584  1.00  0.00    -0.354 N 
ATOM     51  C   UNL     1       0.505 -10.893   0.954  1.00  0.00     0.074 A 
ATOM     52  C   UNL     1       0.569 -10.048   2.127  1.00  0.00     0.031 C 
ATOM     53  C   UNL     1       2.359  -6.940  -3.752  1.00  0.00     0.029 A 
ATOM     54  C   UNL     1       2.018  -8.359  -3.858  1.00  0.00     0.049 A 
ATOM     55  H   UNL     1       1.261  -9.585  -2.352  1.00  0.00     0.167 HD
ATOM     56  C   UNL     1       0.106 -12.188   0.969  1.00  0.00     0.031 A 
ATOM     57  C   UNL     1       2.123  -9.110  -4.973  1.00  0.00     0.031 A 
ATOM     58  C   UNL     1       0.072 -13.035  -0.192  1.00  0.00     0.049 A 
ATOM     59  C   UNL     1       1.756 -10.569  -4.927  1.00  0.00     0.074 A 
ATOM     60  C   UNL     1      -0.324 -14.358  -0.282  1.00  0.00     0.029 A 
ATOM     61  N   UNL     1       0.462 -12.645  -1.464  1.00  0.00    -0.354 N 
ATOM     62  N   UNL     1       1.343 -11.281  -3.906  1.00  0.00    -0.248 NA
ATOM     63  C   UNL     1       1.861 -11.323  -6.184  1.00  0.00     0.031 C 
ATOM     64  C   UNL     1      -0.127 -14.782  -1.602  1.00  0.00     0.029 A 
ATOM     65  C   UNL     1       0.341 -13.708  -2.343  1.00  0.00     0.049 A 
ATOM     66  H   UNL     1       0.779 -11.745  -1.707  1.00  0.00     0.167 HD
ATOM     67  C   UNL     1       1.110 -12.560  -4.403  1.00  0.00     0.074 A 
ATOM     68  C   UNL     1       1.431 -12.524  -5.815  1.00  0.00     0.031 C 
ATOM     69  C   UNL     1       0.659 -13.659  -3.748  1.00  0.00     0.031 A 
BRANCH  56  70
ATOM     70  C   UNL     1      -0.265 -12.771   2.304  1.00  0.00    -0.014 A 
ATOM     71  C   UNL     1      -1.457 -12.405   2.956  1.00  0.00     0.010 A 
ATOM     72  C   UNL     1       0.602 -13.688   2.925  1.00  0.00     0.010 A 
ATOM     73  C   UNL     1      -1.745 -12.899   4.231  1.00  0.00     0.020 A 
ATOM     74  C   UNL     1       0.305 -14.204   4.189  1.00  0.00     0.020 A 
ATOM     75  C   UNL     1      -0.854 -13.784   4.845  1.00  0.00     0.054 A 
BRANCH  75  76
ATOM     76  S   UNL     1      -1.232 -14.391   6.512  1.00  0.00     0.124 S 
ATOM     77  O   UNL     1      -0.876 -13.239   7.337  1.00  0.00    -0.237 OA
ATOM     78  O   UNL     1      -2.659 -14.688   6.433  1.00  0.00    -0.237 OA
ATOM     79  O   UNL     1      -0.363 -15.556   6.661  1.00  0.00    -0.744 OA
ENDBRANCH  75  76
ENDBRANCH  56  70
BRANCH  57  80
ATOM     80  C   UNL     1       2.638  -8.484  -6.219  1.00  0.00    -0.014 A 
ATOM     81  C   UNL     1       1.768  -8.167  -7.276  1.00  0.00     0.010 A 
ATOM     82  C   UNL     1       4.000  -8.148  -6.326  1.00  0.00     0.010 A 
ATOM     83  C   UNL     1       2.251  -7.514  -8.415  1.00  0.00     0.020 A 
ATOM     84  C   UNL     1       4.482  -7.479  -7.453  1.00  0.00     0.020 A 
ATOM     85  C   UNL     1       3.603  -7.166  -8.492  1.00  0.00     0.054 A 
BRANCH  85  86
ATOM     86  S   UNL     1       4.190  -6.226  -9.929  1.00  0.00     0.124 S 
ATOM     87  O   UNL     1       4.272  -7.260 -10.955  1.00  0.00    -0.237 OA
ATOM     88  O   UNL     1       3.135  -5.233 -10.112  1.00  0.00    -0.237 OA
ATOM     89  O   UNL     1       5.471  -5.684  -9.479  1.00  0.00    -0.744 OA
ENDBRANCH  85  86
ENDBRANCH  57  80
BRANCH  69  90
ATOM     90  C   UNL     1       0.437 -14.913  -4.550  1.00  0.00    -0.014 A 
ATOM     91  C   UNL     1       1.512 -15.722  -4.956  1.00  0.00     0.010 A 
ATOM     92  C   UNL     1      -0.879 -15.334  -4.819  1.00  0.00     0.010 A 
ATOM     93  C   UNL     1       1.274 -16.926  -5.627  1.00  0.00     0.020 A 
ATOM     94  C   UNL     1      -1.121 -16.546  -5.470  1.00  0.00     0.020 A 
ATOM     95  C   UNL     1      -0.041 -17.332  -5.876  1.00  0.00     0.054 A 
BRANCH  95  96
ATOM     96  S   UNL     1      -0.328 -18.933  -6.681  1.00  0.00     0.124 S 
ATOM     97  O   UNL     1      -0.002 -18.636  -8.073  1.00  0.00    -0.237 OA
ATOM     98  O   UNL     1       0.610 -19.814  -5.990  1.00  0.00    -0.237 OA
ATOM     99  O   UNL     1      -1.739 -19.206  -6.415  1.00  0.00    -0.744 OA
ENDBRANCH  95  96
ENDBRANCH  69  90
ENDBRANCH  43  44
ENDBRANCH  36  38
ENDBRANCH  35  36
ENDBRANCH  34  35
ENDBRANCH  33  34
ENDBRANCH  32  33
ENDBRANCH  31  32
ENDBRANCH   1  31
TORSDOF 25
