REMARK SMILES O=C(OCCOCCOCCOC(=O)c1ccc2c(=O)n(CCC[NH+]3CCOCC3)c(=O)[nH]c2c1)c1ccc(-c2c3nc(c(-c4ccc(S(=O)(=O)[O-])cc4)c4ccc([nH]4)c(-c4ccc(S(=O)(=O)[O-])cc4)c4nc(c(-c5ccc(S(=O)(=O)[O-])cc5)c5ccc2[nH]5)C=C4)C=C3)cc1
REMARK SMILES IDX 8 1 7 2 6 3 5 4 4 5 3 6 2 7 1 8 36 9 37 10 95 11 38 12 94 13
REMARK SMILES IDX 39 14 40 15 41 16 88 17 42 18 93 19 87 20 89 21 43 22 92 23
REMARK SMILES IDX 86 24 85 25 44 27 74 28 55 29 73 30 56 31 59 32 72 33 90 34
REMARK SMILES IDX 57 35 58 36 71 38 91 39 60 40 45 41 46 42 54 43 47 44 53 45
REMARK SMILES IDX 48 46 49 47 50 48 51 49 52 50 75 51 76 52 84 53 77 54 83 55
REMARK SMILES IDX 78 56 79 57 80 58 81 59 82 60 61 61 62 62 70 63 63 64 69 65
REMARK SMILES IDX 64 66 65 67 66 68 67 69 68 70 9 71 10 72 11 73 12 74 13 75
REMARK SMILES IDX 14 76 15 77 16 78 35 79 17 80 34 81 18 82 33 83 19 84 31 85
REMARK SMILES IDX 20 87 21 88 32 89 22 90 23 91 24 92 25 93 26 94 30 95 27 97
REMARK SMILES IDX 29 98 28 99
REMARK H PARENT 89 26 59 37 33 86 25 96
REMARK Flexibility Score: inf
ROOT
ATOM      1  C   UNL     1       2.257  -0.566   2.924  1.00  0.00     0.188 C 
ENDROOT
BRANCH   1   2
ATOM      2  C   UNL     1       2.789  -0.180   1.553  1.00  0.00     0.188 C 
BRANCH   2   3
ATOM      3  O   UNL     1       4.173  -0.455   1.352  1.00  0.00    -0.376 OA
BRANCH   3   4
ATOM      4  C   UNL     1       5.038   0.679   1.209  1.00  0.00     0.202 C 
BRANCH   4   5
ATOM      5  C   UNL     1       4.600   1.755   0.188  1.00  0.00     0.261 C 
BRANCH   5   6
ATOM      6  O   UNL     1       4.394   1.190  -1.118  1.00  0.00    -0.460 OA
BRANCH   6   7
ATOM      7  C   UNL     1       3.186   0.628  -1.383  1.00  0.00     0.338 C 
ATOM      8  O   UNL     1       2.087   1.086  -1.126  1.00  0.00    -0.246 OA
BRANCH   7   9
ATOM      9  C   UNL     1       3.441  -0.746  -1.885  1.00  0.00     0.060 A 
ATOM     10  C   UNL     1       2.546  -1.422  -2.712  1.00  0.00     0.016 A 
ATOM     11  C   UNL     1       4.602  -1.394  -1.444  1.00  0.00     0.016 A 
ATOM     12  C   UNL     1       2.868  -2.720  -3.134  1.00  0.00     0.010 A 
ATOM     13  C   UNL     1       4.892  -2.686  -1.807  1.00  0.00     0.010 A 
ATOM     14  C   UNL     1       4.039  -3.356  -2.673  1.00  0.00    -0.014 A 
BRANCH  14  15
ATOM     15  C   UNL     1       4.598  -4.579  -3.274  1.00  0.00     0.031 A 
ATOM     16  C   UNL     1       4.804  -5.837  -2.482  1.00  0.00     0.074 A 
ATOM     17  C   UNL     1       5.214  -4.400  -4.457  1.00  0.00     0.049 A 
ATOM     18  N   UNL     1       5.203  -7.009  -2.898  1.00  0.00    -0.248 NA
ATOM     19  C   UNL     1       4.555  -5.782  -1.033  1.00  0.00     0.031 C 
ATOM     20  C   UNL     1       5.288  -3.119  -5.174  1.00  0.00     0.029 A 
ATOM     21  N   UNL     1       5.964  -5.250  -5.216  1.00  0.00    -0.354 N 
ATOM     22  C   UNL     1       5.159  -7.847  -1.786  1.00  0.00     0.074 A 
ATOM     23  C   UNL     1       4.797  -7.032  -0.656  1.00  0.00     0.031 C 
ATOM     24  C   UNL     1       6.071  -3.263  -6.249  1.00  0.00     0.029 A 
ATOM     25  C   UNL     1       6.540  -4.640  -6.303  1.00  0.00     0.049 A 
ATOM     26  H   UNL     1       6.081  -6.205  -5.005  1.00  0.00     0.167 HD
ATOM     27  C   UNL     1       5.355  -9.187  -1.755  1.00  0.00     0.031 A 
ATOM     28  C   UNL     1       7.355  -5.143  -7.248  1.00  0.00     0.031 A 
ATOM     29  C   UNL     1       5.837  -9.895  -2.918  1.00  0.00     0.049 A 
ATOM     30  C   UNL     1       7.621  -6.614  -7.209  1.00  0.00     0.074 A 
ATOM     31  C   UNL     1       5.925 -11.255  -3.133  1.00  0.00     0.029 A 
ATOM     32  N   UNL     1       6.356  -9.274  -4.051  1.00  0.00    -0.354 N 
ATOM     33  N   UNL     1       7.223  -7.488  -6.312  1.00  0.00    -0.248 NA
ATOM     34  C   UNL     1       8.397  -7.184  -8.312  1.00  0.00     0.031 C 
ATOM     35  C   UNL     1       6.581 -11.454  -4.352  1.00  0.00     0.029 A 
ATOM     36  C   UNL     1       6.845 -10.220  -4.931  1.00  0.00     0.049 A 
ATOM     37  H   UNL     1       6.372  -8.302  -4.203  1.00  0.00     0.167 HD
ATOM     38  C   UNL     1       7.683  -8.720  -6.748  1.00  0.00     0.074 A 
ATOM     39  C   UNL     1       8.379  -8.476  -8.000  1.00  0.00     0.031 C 
ATOM     40  C   UNL     1       7.543  -9.937  -6.167  1.00  0.00     0.031 A 
BRANCH  27  41
ATOM     41  C   UNL     1       4.954  -9.984  -0.522  1.00  0.00    -0.014 A 
ATOM     42  C   UNL     1       5.845 -10.870   0.106  1.00  0.00     0.010 A 
ATOM     43  C   UNL     1       3.611 -10.010  -0.096  1.00  0.00     0.010 A 
ATOM     44  C   UNL     1       5.395 -11.778   1.081  1.00  0.00     0.020 A 
ATOM     45  C   UNL     1       3.151 -10.905   0.875  1.00  0.00     0.020 A 
ATOM     46  C   UNL     1       4.045 -11.801   1.446  1.00  0.00     0.054 A 
BRANCH  46  47
ATOM     47  S   UNL     1       3.459 -13.031   2.644  1.00  0.00     0.124 S 
ATOM     48  O   UNL     1       3.712 -14.291   1.951  1.00  0.00    -0.237 OA
ATOM     49  O   UNL     1       4.308 -12.764   3.802  1.00  0.00    -0.237 OA
ATOM     50  O   UNL     1       2.049 -12.696   2.830  1.00  0.00    -0.744 OA
ENDBRANCH  46  47
ENDBRANCH  27  41
BRANCH  28  51
ATOM     51  C   UNL     1       7.822  -4.225  -8.320  1.00  0.00    -0.014 A 
ATOM     52  C   UNL     1       8.719  -3.180  -8.014  1.00  0.00     0.010 A 
ATOM     53  C   UNL     1       7.182  -4.231  -9.570  1.00  0.00     0.010 A 
ATOM     54  C   UNL     1       8.893  -2.113  -8.900  1.00  0.00     0.020 A 
ATOM     55  C   UNL     1       7.374  -3.177 -10.470  1.00  0.00     0.020 A 
ATOM     56  C   UNL     1       8.194  -2.105 -10.110  1.00  0.00     0.054 A 
BRANCH  56  57
ATOM     57  S   UNL     1       8.305  -0.633 -11.167  1.00  0.00     0.124 S 
ATOM     58  O   UNL     1       7.565   0.353 -10.384  1.00  0.00    -0.237 OA
ATOM     59  O   UNL     1       9.745  -0.415 -11.256  1.00  0.00    -0.237 OA
ATOM     60  O   UNL     1       7.661  -1.054 -12.409  1.00  0.00    -0.744 OA
ENDBRANCH  56  57
ENDBRANCH  28  51
BRANCH  40  61
ATOM     61  C   UNL     1       8.205 -11.107  -6.840  1.00  0.00    -0.014 A 
ATOM     62  C   UNL     1       7.425 -12.149  -7.373  1.00  0.00     0.010 A 
ATOM     63  C   UNL     1       9.601 -11.251  -6.769  1.00  0.00     0.010 A 
ATOM     64  C   UNL     1       8.024 -13.351  -7.748  1.00  0.00     0.020 A 
ATOM     65  C   UNL     1      10.207 -12.438  -7.179  1.00  0.00     0.020 A 
ATOM     66  C   UNL     1       9.410 -13.494  -7.627  1.00  0.00     0.054 A 
BRANCH  66  67
ATOM     67  S   UNL     1      10.155 -15.100  -8.012  1.00  0.00     0.124 S 
ATOM     68  O   UNL     1       9.704 -15.921  -6.892  1.00  0.00    -0.237 OA
ATOM     69  O   UNL     1       9.565 -15.421  -9.309  1.00  0.00    -0.237 OA
ATOM     70  O   UNL     1      11.588 -14.816  -8.040  1.00  0.00    -0.744 OA
ENDBRANCH  66  67
ENDBRANCH  40  61
ENDBRANCH  14  15
ENDBRANCH   7   9
ENDBRANCH   6   7
ENDBRANCH   5   6
ENDBRANCH   4   5
ENDBRANCH   3   4
ENDBRANCH   2   3
ENDBRANCH   1   2
BRANCH   1  71
ATOM     71  O   UNL     1       3.204  -0.217   3.920  1.00  0.00    -0.376 OA
BRANCH  71  72
ATOM     72  C   UNL     1       3.833  -1.328   4.564  1.00  0.00     0.202 C 
BRANCH  72  73
ATOM     73  C   UNL     1       4.550  -2.378   3.691  1.00  0.00     0.261 C 
BRANCH  73  74
ATOM     74  O   UNL     1       3.742  -3.061   2.708  1.00  0.00    -0.460 OA
BRANCH  74  75
ATOM     75  C   UNL     1       2.854  -3.962   3.176  1.00  0.00     0.338 C 
ATOM     76  O   UNL     1       2.594  -4.184   4.351  1.00  0.00    -0.246 OA
BRANCH  75  77
ATOM     77  C   UNL     1       2.287  -4.729   2.045  1.00  0.00     0.062 A 
ATOM     78  C   UNL     1       2.316  -6.124   2.149  1.00  0.00     0.016 A 
ATOM     79  C   UNL     1       1.748  -4.113   0.900  1.00  0.00     0.042 A 
ATOM     80  C   UNL     1       1.817  -6.907   1.110  1.00  0.00     0.017 A 
ATOM     81  C   UNL     1       1.285  -4.912  -0.150  1.00  0.00     0.056 A 
ATOM     82  C   UNL     1       1.320  -6.294  -0.043  1.00  0.00     0.064 A 
ATOM     83  N   UNL     1       0.794  -4.356  -1.329  1.00  0.00    -0.307 N 
ATOM     84  C   UNL     1       0.819  -7.087  -1.174  1.00  0.00     0.264 A 
ATOM     85  C   UNL     1       0.522  -5.082  -2.463  1.00  0.00     0.328 A 
ATOM     86  H   UNL     1       0.632  -3.385  -1.351  1.00  0.00     0.171 HD
ATOM     87  O   UNL     1       0.434  -8.223  -0.936  1.00  0.00    -0.268 OA
ATOM     88  N   UNL     1       0.741  -6.449  -2.405  1.00  0.00    -0.260 N 
ATOM     89  O   UNL     1       0.078  -4.484  -3.443  1.00  0.00    -0.248 OA
BRANCH  88  90
ATOM     90  C   UNL     1       0.482  -7.244  -3.615  1.00  0.00     0.137 C 
BRANCH  90  91
ATOM     91  C   UNL     1       1.623  -8.131  -4.142  1.00  0.00     0.083 C 
BRANCH  91  92
ATOM     92  C   UNL     1       2.148  -9.301  -3.303  1.00  0.00     0.264 C 
BRANCH  92  93
ATOM     93  N   UNL     1       1.370 -10.460  -2.855  1.00  0.00    -0.331 N 
ATOM     94  C   UNL     1       1.878 -11.749  -3.363  1.00  0.00     0.291 C 
ATOM     95  C   UNL     1      -0.084 -10.471  -2.971  1.00  0.00     0.291 C 
ATOM     96  H   UNL     1       1.538 -10.338  -1.857  1.00  0.00     0.348 HD
ATOM     97  C   UNL     1       1.395 -12.022  -4.796  1.00  0.00     0.221 C 
ATOM     98  C   UNL     1      -0.568 -10.759  -4.395  1.00  0.00     0.221 C 
ATOM     99  O   UNL     1      -0.042 -11.997  -4.892  1.00  0.00    -0.370 OA
ENDBRANCH  92  93
ENDBRANCH  91  92
ENDBRANCH  90  91
ENDBRANCH  88  90
ENDBRANCH  75  77
ENDBRANCH  74  75
ENDBRANCH  73  74
ENDBRANCH  72  73
ENDBRANCH  71  72
ENDBRANCH   1  71
TORSDOF 24
