REMARK SMILES O=C(OCCOCCOCCOC(=O)[C@@H]1CC2(CC[NH2+]CC2)C[N@H+]1Cc1cccc2nonc12)c1ccc(-c2c3nc(c(-c4ccc(S(=O)(=O)[O-])cc4)c4ccc([nH]4)c(-c4ccc(S(=O)(=O)[O-])cc4)c4nc(c(-c5ccc(S(=O)(=O)[O-])cc5)c5ccc2[nH]5)C=C4)C=C3)cc1
REMARK SMILES IDX 7 1 6 2 5 3 4 4 3 5 2 6 1 7 35 8 36 9 94 10 37 11 93 12
REMARK SMILES IDX 38 13 39 14 40 15 87 16 41 17 92 18 86 19 88 20 42 21 91 22
REMARK SMILES IDX 85 23 84 24 43 26 73 27 54 28 72 29 55 30 58 31 71 32 89 33
REMARK SMILES IDX 56 34 57 35 70 37 90 38 59 39 44 40 45 41 53 42 46 43 52 44
REMARK SMILES IDX 47 45 48 46 49 47 50 48 51 49 74 50 75 51 83 52 76 53 82 54
REMARK SMILES IDX 77 55 78 56 79 57 80 58 81 59 60 60 61 61 69 62 62 63 68 64
REMARK SMILES IDX 63 65 64 66 65 67 66 68 67 69 8 70 9 71 10 72 11 73 12 74
REMARK SMILES IDX 13 75 14 76 15 77 16 78 24 79 17 80 23 81 18 83 22 84 19 85
REMARK SMILES IDX 21 86 20 87 25 90 26 91 27 92 34 93 28 94 30 95 33 96 29 97
REMARK SMILES IDX 31 98 32 99
REMARK H PARENT 88 25 58 36 24 82 20 88 20 89
REMARK Flexibility Score: inf
ROOT
ATOM      1  C   UNL     1       1.863   1.102  -0.584  1.00  0.00     0.188 C 
ENDROOT
BRANCH   1   2
ATOM      2  O   UNL     1       2.730   0.039  -0.180  1.00  0.00    -0.376 OA
BRANCH   2   3
ATOM      3  C   UNL     1       3.778  -0.336  -1.072  1.00  0.00     0.202 C 
BRANCH   3   4
ATOM      4  C   UNL     1       3.449  -1.713  -1.630  1.00  0.00     0.261 C 
BRANCH   4   5
ATOM      5  O   UNL     1       3.435  -2.645  -0.522  1.00  0.00    -0.460 OA
BRANCH   5   6
ATOM      6  C   UNL     1       2.277  -2.721   0.188  1.00  0.00     0.338 C 
ATOM      7  O   UNL     1       1.147  -2.543  -0.273  1.00  0.00    -0.246 OA
BRANCH   6   8
ATOM      8  C   UNL     1       2.563  -2.948   1.641  1.00  0.00     0.060 A 
ATOM      9  C   UNL     1       1.531  -3.109   2.571  1.00  0.00     0.016 A 
ATOM     10  C   UNL     1       3.864  -2.895   2.134  1.00  0.00     0.016 A 
ATOM     11  C   UNL     1       1.802  -3.176   3.967  1.00  0.00     0.010 A 
ATOM     12  C   UNL     1       4.118  -2.927   3.519  1.00  0.00     0.010 A 
ATOM     13  C   UNL     1       3.106  -3.028   4.494  1.00  0.00    -0.014 A 
BRANCH  13  14
ATOM     14  C   UNL     1       3.441  -2.956   6.000  1.00  0.00     0.031 A 
ATOM     15  C   UNL     1       4.933  -2.685   6.438  1.00  0.00     0.074 A 
ATOM     16  C   UNL     1       2.544  -2.651   6.983  1.00  0.00     0.049 A 
ATOM     17  N   UNL     1       5.418  -1.603   7.018  1.00  0.00    -0.248 NA
ATOM     18  C   UNL     1       6.003  -3.589   6.000  1.00  0.00     0.031 C 
ATOM     19  C   UNL     1       1.375  -1.759   6.857  1.00  0.00     0.029 A 
ATOM     20  N   UNL     1       2.624  -2.841   8.348  1.00  0.00    -0.354 N 
ATOM     21  C   UNL     1       6.816  -1.609   6.934  1.00  0.00     0.074 A 
ATOM     22  C   UNL     1       7.111  -2.885   6.281  1.00  0.00     0.031 C 
ATOM     23  C   UNL     1       1.028  -1.294   8.082  1.00  0.00     0.029 A 
ATOM     24  C   UNL     1       1.801  -1.998   9.086  1.00  0.00     0.049 A 
ATOM     25  H   UNL     1       3.212  -3.514   8.761  1.00  0.00     0.167 HD
ATOM     26  C   UNL     1       7.717  -0.629   7.317  1.00  0.00     0.031 A 
ATOM     27  C   UNL     1       1.704  -1.833  10.439  1.00  0.00     0.031 A 
ATOM     28  C   UNL     1       7.326   0.648   7.959  1.00  0.00     0.049 A 
ATOM     29  C   UNL     1       2.911  -0.974  10.779  1.00  0.00     0.074 A 
ATOM     30  C   UNL     1       7.570   2.002   7.739  1.00  0.00     0.029 A 
ATOM     31  N   UNL     1       6.947   0.719   9.292  1.00  0.00    -0.354 N 
ATOM     32  N   UNL     1       3.029   0.322  10.971  1.00  0.00    -0.248 NA
ATOM     33  C   UNL     1       4.170  -1.686  10.644  1.00  0.00     0.031 C 
ATOM     34  C   UNL     1       6.902   2.768   8.789  1.00  0.00     0.029 A 
ATOM     35  C   UNL     1       6.194   1.868   9.591  1.00  0.00     0.049 A 
ATOM     36  H   UNL     1       7.182   0.035   9.960  1.00  0.00     0.167 HD
ATOM     37  C   UNL     1       4.384   0.626  10.730  1.00  0.00     0.074 A 
ATOM     38  C   UNL     1       4.992  -0.673  10.501  1.00  0.00     0.031 C 
ATOM     39  C   UNL     1       4.949   1.871  10.497  1.00  0.00     0.031 A 
BRANCH  26  40
ATOM     40  C   UNL     1       9.206  -0.872   7.183  1.00  0.00    -0.014 A 
ATOM     41  C   UNL     1       9.937  -0.924   5.977  1.00  0.00     0.010 A 
ATOM     42  C   UNL     1       9.925  -0.938   8.390  1.00  0.00     0.010 A 
ATOM     43  C   UNL     1      11.347  -1.030   5.997  1.00  0.00     0.020 A 
ATOM     44  C   UNL     1      11.318  -1.026   8.417  1.00  0.00     0.020 A 
ATOM     45  C   UNL     1      12.026  -1.075   7.222  1.00  0.00     0.054 A 
BRANCH  45  46
ATOM     46  S   UNL     1      13.843  -1.166   7.263  1.00  0.00     0.124 S 
ATOM     47  O   UNL     1      14.097  -2.485   6.691  1.00  0.00    -0.237 OA
ATOM     48  O   UNL     1      14.237  -0.031   6.433  1.00  0.00    -0.237 OA
ATOM     49  O   UNL     1      14.164  -1.034   8.683  1.00  0.00    -0.744 OA
ENDBRANCH  45  46
ENDBRANCH  26  40
BRANCH  27  50
ATOM     50  C   UNL     1       1.491  -3.166  11.125  1.00  0.00    -0.014 A 
ATOM     51  C   UNL     1       2.455  -3.907  11.836  1.00  0.00     0.010 A 
ATOM     52  C   UNL     1       0.259  -3.796  10.853  1.00  0.00     0.010 A 
ATOM     53  C   UNL     1       2.292  -5.283  12.040  1.00  0.00     0.020 A 
ATOM     54  C   UNL     1       0.074  -5.160  11.084  1.00  0.00     0.020 A 
ATOM     55  C   UNL     1       1.124  -5.909  11.606  1.00  0.00     0.054 A 
BRANCH  55  56
ATOM     56  S   UNL     1       1.049  -7.719  11.609  1.00  0.00     0.124 S 
ATOM     57  O   UNL     1       2.098  -8.060  10.651  1.00  0.00    -0.237 OA
ATOM     58  O   UNL     1       1.334  -8.046  13.003  1.00  0.00    -0.237 OA
ATOM     59  O   UNL     1      -0.313  -8.009  11.166  1.00  0.00    -0.744 OA
ENDBRANCH  55  56
ENDBRANCH  27  50
BRANCH  39  60
ATOM     60  C   UNL     1       4.090   3.205  10.834  1.00  0.00    -0.014 A 
ATOM     61  C   UNL     1       3.191   3.819   9.943  1.00  0.00     0.010 A 
ATOM     62  C   UNL     1       4.043   3.882  12.061  1.00  0.00     0.010 A 
ATOM     63  C   UNL     1       2.606   5.088   9.993  1.00  0.00     0.020 A 
ATOM     64  C   UNL     1       3.296   5.122  12.244  1.00  0.00     0.020 A 
ATOM     65  C   UNL     1       2.651   5.758  11.173  1.00  0.00     0.054 A 
BRANCH  65  66
ATOM     66  S   UNL     1       1.685   7.295  11.232  1.00  0.00     0.124 S 
ATOM     67  O   UNL     1       2.534   8.230  10.496  1.00  0.00    -0.237 OA
ATOM     68  O   UNL     1       0.438   6.939  10.552  1.00  0.00    -0.237 OA
ATOM     69  O   UNL     1       1.548   7.563  12.659  1.00  0.00    -0.744 OA
ENDBRANCH  65  66
ENDBRANCH  39  60
ENDBRANCH  13  14
ENDBRANCH   6   8
ENDBRANCH   5   6
ENDBRANCH   4   5
ENDBRANCH   3   4
ENDBRANCH   2   3
ENDBRANCH   1   2
BRANCH   1  70
ATOM     70  C   UNL     1       1.864   2.147   0.533  1.00  0.00     0.188 C 
BRANCH  70  71
ATOM     71  O   UNL     1       1.590   3.501   0.192  1.00  0.00    -0.376 OA
BRANCH  71  72
ATOM     72  C   UNL     1       2.476   4.529   0.684  1.00  0.00     0.202 C 
BRANCH  72  73
ATOM     73  C   UNL     1       3.022   4.619   2.131  1.00  0.00     0.261 C 
BRANCH  73  74
ATOM     74  O   UNL     1       3.361   3.370   2.697  1.00  0.00    -0.459 OA
BRANCH  74  75
ATOM     75  C   UNL     1       2.296   2.730   3.232  1.00  0.00     0.365 C 
ATOM     76  O   UNL     1       1.183   3.236   3.374  1.00  0.00    -0.245 OA
BRANCH  75  77
ATOM     77  C   UNL     1       2.593   1.288   3.597  1.00  0.00     0.296 C 
ATOM     78  C   UNL     1       2.468   1.366   5.097  1.00  0.00     0.091 C 
ATOM     79  N   UNL     1       3.961   0.771   3.445  1.00  0.00    -0.319 N 
ATOM     80  C   UNL     1       3.925   1.211   5.560  1.00  0.00     0.036 C 
ATOM     81  C   UNL     1       4.393   0.139   4.658  1.00  0.00     0.270 C 
ATOM     82  H   UNL     1       4.284   1.675   3.100  1.00  0.00     0.349 HD
ATOM     83  C   UNL     1       3.922   0.817   6.988  1.00  0.00     0.074 C 
ATOM     84  C   UNL     1       4.840   2.449   5.384  1.00  0.00     0.074 C 
ATOM     85  C   UNL     1       3.280   1.948   7.681  1.00  0.00     0.261 C 
ATOM     86  C   UNL     1       4.312   3.624   6.144  1.00  0.00     0.261 C 
ATOM     87  N   UNL     1       4.008   3.210   7.479  1.00  0.00    -0.346 N 
ATOM     88  H   UNL     1       4.894   3.128   7.977  1.00  0.00     0.346 HD
ATOM     89  H   UNL     1       3.363   3.924   7.818  1.00  0.00     0.346 HD
BRANCH  79  90
ATOM     90  C   UNL     1       4.691   0.436   2.271  1.00  0.00     0.302 C 
BRANCH  90  91
ATOM     91  C   UNL     1       5.735   1.458   1.917  1.00  0.00     0.038 A 
ATOM     92  C   UNL     1       6.873   1.658   2.746  1.00  0.00     0.012 A 
ATOM     93  C   UNL     1       5.726   2.318   0.797  1.00  0.00     0.144 A 
ATOM     94  C   UNL     1       7.865   2.646   2.527  1.00  0.00     0.003 A 
ATOM     95  C   UNL     1       6.740   3.341   0.577  1.00  0.00     0.135 A 
ATOM     96  N   UNL     1       4.881   2.379  -0.238  1.00  0.00    -0.049 NA
ATOM     97  C   UNL     1       7.827   3.531   1.442  1.00  0.00     0.034 A 
ATOM     98  N   UNL     1       6.441   4.007  -0.545  1.00  0.00    -0.050 NA
ATOM     99  O   UNL     1       5.301   3.411  -1.041  1.00  0.00    -0.243 OA
ENDBRANCH  90  91
ENDBRANCH  79  90
ENDBRANCH  75  77
ENDBRANCH  74  75
ENDBRANCH  73  74
ENDBRANCH  72  73
ENDBRANCH  71  72
ENDBRANCH  70  71
ENDBRANCH   1  70
TORSDOF 22
