REMARK SMILES Nc1c(N2CCC(C(=O)OCCOCCOCCOC(=O)c3ccc(-c4c5nc(c(-c6ccc(S(=O)(=O)[O-])cc6)c6ccc([nH]6)c(-c6ccc(S(=O)(=O)[O-])cc6)c6nc(c(-c7ccc(S(=O)(=O)[O-])cc7)c7ccc4[nH]7)C=C6)C=C5)cc3)CC2)ncnc1N1CCN(c2ccccc2)CC1
REMARK SMILES IDX 14 1 13 2 12 3 11 4 10 5 8 6 9 7 7 8 4 9 5 10 83 11 6 12
REMARK SMILES IDX 82 13 3 14 2 15 87 16 84 17 86 18 85 19 1 20 88 23 89 24
REMARK SMILES IDX 99 25 90 26 98 27 91 28 92 29 93 30 97 31 94 32 96 33 95 34
REMARK SMILES IDX 15 35 16 36 17 37 18 38 19 39 20 40 21 41 22 42 23 43 81 44
REMARK SMILES IDX 24 45 80 46 25 47 26 48 27 49 74 50 28 51 79 52 73 53 75 54
REMARK SMILES IDX 29 55 78 56 72 57 71 58 30 60 60 61 41 62 59 63 42 64 45 65
REMARK SMILES IDX 58 66 76 67 43 68 44 69 57 71 77 72 46 73 31 74 32 75 40 76
REMARK SMILES IDX 33 77 39 78 34 79 35 80 36 81 37 82 38 83 61 84 62 85 70 86
REMARK SMILES IDX 63 87 69 88 64 89 65 90 66 91 67 92 68 93 47 94 48 95 56 96
REMARK SMILES IDX 49 97 55 98 50 99 51 100 52 101 53 102 54 103
REMARK H PARENT 1 21 1 22 75 59 45 70
REMARK Flexibility Score: inf
ROOT
ATOM      1  C   UNL     1      -4.855  -6.390   1.792  1.00  0.00     0.188 C 
ENDROOT
BRANCH   1   2
ATOM      2  O   UNL     1      -4.738  -7.428   2.756  1.00  0.00    -0.376 OA
BRANCH   2   3
ATOM      3  C   UNL     1      -4.377  -7.043   4.080  1.00  0.00     0.202 C 
BRANCH   3   4
ATOM      4  C   UNL     1      -3.024  -6.339   4.260  1.00  0.00     0.261 C 
BRANCH   4   5
ATOM      5  O   UNL     1      -2.838  -5.165   3.443  1.00  0.00    -0.463 OA
BRANCH   5   6
ATOM      6  C   UNL     1      -1.850  -5.261   2.515  1.00  0.00     0.309 C 
ATOM      7  O   UNL     1      -1.122  -6.240   2.374  1.00  0.00    -0.252 OA
BRANCH   6   8
ATOM      8  C   UNL     1      -1.724  -4.055   1.604  1.00  0.00     0.103 C 
ATOM      9  N   UNL     1      -1.000  -1.377   0.887  1.00  0.00    -0.355 N 
ATOM     10  C   UNL     1      -2.410  -1.738   0.859  1.00  0.00     0.119 C 
ATOM     11  C   UNL     1      -0.010  -2.439   0.751  1.00  0.00     0.119 C 
ATOM     12  C   UNL     1      -2.715  -2.903   1.806  1.00  0.00     0.037 C 
ATOM     13  C   UNL     1      -0.289  -3.548   1.746  1.00  0.00     0.037 C 
BRANCH   9  14
ATOM     14  C   UNL     1      -0.619  -0.210   1.548  1.00  0.00     0.157 A 
ATOM     15  C   UNL     1       0.407   0.582   1.003  1.00  0.00     0.118 A 
ATOM     16  C   UNL     1       0.796   1.709   1.738  1.00  0.00     0.157 A 
ATOM     17  N   UNL     1      -1.225   0.113   2.702  1.00  0.00    -0.217 NA
ATOM     18  N   UNL     1       0.255   1.991   2.936  1.00  0.00    -0.217 NA
ATOM     19  C   UNL     1      -0.747   1.195   3.335  1.00  0.00     0.226 A 
BRANCH  15  20
ATOM     20  N   UNL     1       0.998   0.254  -0.236  1.00  0.00    -0.393 N 
ATOM     21  H   UNL     1       0.700  -0.546  -0.727  1.00  0.00     0.156 HD
ATOM     22  H   UNL     1       1.707   0.826  -0.609  1.00  0.00     0.156 HD
ENDBRANCH  15  20
BRANCH  16  23
ATOM     23  N   UNL     1       1.745   2.577   1.251  1.00  0.00    -0.351 N 
ATOM     24  C   UNL     1       2.969   2.840   1.997  1.00  0.00     0.139 C 
ATOM     25  C   UNL     1       1.606   3.214  -0.060  1.00  0.00     0.139 C 
ATOM     26  C   UNL     1       4.193   2.479   1.114  1.00  0.00     0.138 C 
ATOM     27  C   UNL     1       2.838   2.936  -0.946  1.00  0.00     0.138 C 
ATOM     28  N   UNL     1       4.085   3.149  -0.192  1.00  0.00    -0.368 N 
BRANCH  28  29
ATOM     29  C   UNL     1       5.153   3.776  -0.787  1.00  0.00     0.037 A 
ATOM     30  C   UNL     1       6.422   3.192  -0.846  1.00  0.00     0.026 A 
ATOM     31  C   UNL     1       4.992   5.050  -1.348  1.00  0.00     0.026 A 
ATOM     32  C   UNL     1       7.493   3.857  -1.453  1.00  0.00     0.002 A 
ATOM     33  C   UNL     1       6.059   5.728  -1.938  1.00  0.00     0.002 A 
ATOM     34  C   UNL     1       7.312   5.128  -1.994  1.00  0.00     0.000 A 
ENDBRANCH  28  29
ENDBRANCH  16  23
ENDBRANCH   9  14
ENDBRANCH   6   8
ENDBRANCH   5   6
ENDBRANCH   4   5
ENDBRANCH   3   4
ENDBRANCH   2   3
ENDBRANCH   1   2
BRANCH   1  35
ATOM     35  C   UNL     1      -5.868  -5.289   2.099  1.00  0.00     0.188 C 
BRANCH  35  36
ATOM     36  O   UNL     1      -5.916  -4.824   3.439  1.00  0.00    -0.376 OA
BRANCH  36  37
ATOM     37  C   UNL     1      -7.003  -3.948   3.758  1.00  0.00     0.202 C 
BRANCH  37  38
ATOM     38  C   UNL     1      -8.430  -4.471   3.468  1.00  0.00     0.261 C 
BRANCH  38  39
ATOM     39  O   UNL     1      -8.734  -4.801   2.092  1.00  0.00    -0.460 OA
BRANCH  39  40
ATOM     40  C   UNL     1      -8.455  -3.874   1.144  1.00  0.00     0.338 C 
ATOM     41  O   UNL     1      -8.214  -2.695   1.346  1.00  0.00    -0.246 OA
BRANCH  40  42
ATOM     42  C   UNL     1      -8.196  -4.567  -0.153  1.00  0.00     0.060 A 
ATOM     43  C   UNL     1      -7.117  -4.119  -0.932  1.00  0.00     0.016 A 
ATOM     44  C   UNL     1      -8.937  -5.673  -0.580  1.00  0.00     0.016 A 
ATOM     45  C   UNL     1      -6.809  -4.736  -2.150  1.00  0.00     0.010 A 
ATOM     46  C   UNL     1      -8.644  -6.276  -1.814  1.00  0.00     0.010 A 
ATOM     47  C   UNL     1      -7.602  -5.788  -2.625  1.00  0.00    -0.014 A 
BRANCH  47  48
ATOM     48  C   UNL     1      -7.505  -6.202  -4.053  1.00  0.00     0.031 A 
ATOM     49  C   UNL     1      -8.456  -5.562  -5.035  1.00  0.00     0.074 A 
ATOM     50  C   UNL     1      -6.590  -7.083  -4.500  1.00  0.00     0.049 A 
ATOM     51  N   UNL     1      -8.606  -5.786  -6.316  1.00  0.00    -0.248 NA
ATOM     52  C   UNL     1      -9.353  -4.527  -4.495  1.00  0.00     0.031 C 
ATOM     53  C   UNL     1      -5.558  -7.726  -3.690  1.00  0.00     0.029 A 
ATOM     54  N   UNL     1      -6.386  -7.589  -5.764  1.00  0.00    -0.354 N 
ATOM     55  C   UNL     1      -9.615  -4.924  -6.732  1.00  0.00     0.074 A 
ATOM     56  C   UNL     1     -10.060  -4.195  -5.565  1.00  0.00     0.031 C 
ATOM     57  C   UNL     1      -4.832  -8.544  -4.477  1.00  0.00     0.029 A 
ATOM     58  C   UNL     1      -5.370  -8.514  -5.838  1.00  0.00     0.049 A 
ATOM     59  H   UNL     1      -6.919  -7.314  -6.545  1.00  0.00     0.167 HD
ATOM     60  C   UNL     1     -10.127  -4.745  -7.973  1.00  0.00     0.031 A 
ATOM     61  C   UNL     1      -4.936  -9.264  -6.874  1.00  0.00     0.031 A 
ATOM     62  C   UNL     1      -9.709  -5.478  -9.137  1.00  0.00     0.049 A 
ATOM     63  C   UNL     1      -5.598  -9.133  -8.225  1.00  0.00     0.074 A 
ATOM     64  C   UNL     1     -10.182  -5.371 -10.433  1.00  0.00     0.029 A 
ATOM     65  N   UNL     1      -8.728  -6.457  -9.149  1.00  0.00    -0.354 N 
ATOM     66  N   UNL     1      -6.558  -8.320  -8.600  1.00  0.00    -0.248 NA
ATOM     67  C   UNL     1      -5.116 -10.021  -9.294  1.00  0.00     0.031 C 
ATOM     68  C   UNL     1      -9.529  -6.327 -11.217  1.00  0.00     0.029 A 
ATOM     69  C   UNL     1      -8.601  -6.981 -10.424  1.00  0.00     0.049 A 
ATOM     70  H   UNL     1      -8.200  -6.737  -8.367  1.00  0.00     0.167 HD
ATOM     71  C   UNL     1      -6.775  -8.584  -9.951  1.00  0.00     0.074 A 
ATOM     72  C   UNL     1      -5.838  -9.618 -10.332  1.00  0.00     0.031 C 
ATOM     73  C   UNL     1      -7.670  -8.017 -10.798  1.00  0.00     0.031 A 
BRANCH  60  74
ATOM     74  C   UNL     1     -11.229  -3.732  -8.129  1.00  0.00    -0.014 A 
ATOM     75  C   UNL     1     -10.964  -2.353  -8.047  1.00  0.00     0.010 A 
ATOM     76  C   UNL     1     -12.538  -4.164  -8.405  1.00  0.00     0.010 A 
ATOM     77  C   UNL     1     -11.996  -1.425  -8.210  1.00  0.00     0.020 A 
ATOM     78  C   UNL     1     -13.568  -3.239  -8.598  1.00  0.00     0.020 A 
ATOM     79  C   UNL     1     -13.291  -1.875  -8.486  1.00  0.00     0.054 A 
BRANCH  79  80
ATOM     80  S   UNL     1     -14.603  -0.645  -8.725  1.00  0.00     0.124 S 
ATOM     81  O   UNL     1     -14.755  -0.102  -7.378  1.00  0.00    -0.237 OA
ATOM     82  O   UNL     1     -14.012   0.262  -9.705  1.00  0.00    -0.237 OA
ATOM     83  O   UNL     1     -15.734  -1.432  -9.209  1.00  0.00    -0.744 OA
ENDBRANCH  79  80
ENDBRANCH  60  74
BRANCH  61  84
ATOM     84  C   UNL     1      -3.820 -10.235  -6.679  1.00  0.00    -0.014 A 
ATOM     85  C   UNL     1      -2.571 -10.024  -7.292  1.00  0.00     0.010 A 
ATOM     86  C   UNL     1      -4.002 -11.383  -5.885  1.00  0.00     0.010 A 
ATOM     87  C   UNL     1      -1.529 -10.941  -7.116  1.00  0.00     0.020 A 
ATOM     88  C   UNL     1      -2.955 -12.288  -5.685  1.00  0.00     0.020 A 
ATOM     89  C   UNL     1      -1.725 -12.063  -6.306  1.00  0.00     0.054 A 
BRANCH  89  90
ATOM     90  S   UNL     1      -0.336 -13.200  -6.038  1.00  0.00     0.124 S 
ATOM     91  O   UNL     1      -0.189 -13.818  -7.352  1.00  0.00    -0.237 OA
ATOM     92  O   UNL     1       0.738 -12.292  -5.642  1.00  0.00    -0.237 OA
ATOM     93  O   UNL     1      -0.816 -14.086  -4.980  1.00  0.00    -0.744 OA
ENDBRANCH  89  90
ENDBRANCH  61  84
BRANCH  73  94
ATOM     94  C   UNL     1      -7.675  -8.475 -12.235  1.00  0.00    -0.014 A 
ATOM     95  C   UNL     1      -8.159  -9.746 -12.595  1.00  0.00     0.010 A 
ATOM     96  C   UNL     1      -7.256  -7.593 -13.250  1.00  0.00     0.010 A 
ATOM     97  C   UNL     1      -8.195 -10.135 -13.938  1.00  0.00     0.020 A 
ATOM     98  C   UNL     1      -7.319  -7.967 -14.595  1.00  0.00     0.020 A 
ATOM     99  C   UNL     1      -7.776  -9.243 -14.930  1.00  0.00     0.054 A 
BRANCH  99 100
ATOM    100  S   UNL     1      -7.872  -9.761 -16.666  1.00  0.00     0.124 S 
ATOM    101  O   UNL     1      -6.817 -10.768 -16.742  1.00  0.00    -0.237 OA
ATOM    102  O   UNL     1      -9.237 -10.272 -16.772  1.00  0.00    -0.237 OA
ATOM    103  O   UNL     1      -7.613  -8.531 -17.412  1.00  0.00    -0.744 OA
ENDBRANCH  99 100
ENDBRANCH  73  94
ENDBRANCH  47  48
ENDBRANCH  40  42
ENDBRANCH  39  40
ENDBRANCH  38  39
ENDBRANCH  37  38
ENDBRANCH  36  37
ENDBRANCH  35  36
ENDBRANCH   1  35
TORSDOF 24
