REMARK SMILES Cc1cc(C(=O)N[C@H]2C=C[C@H](C(=O)OCCOCCOCCOC(=O)c3ccc(-c4c5nc(c(-c6ccc(S(=O)(=O)[O-])cc6)c6ccc([nH]6)c(-c6ccc(S(=O)(=O)[O-])cc6)c6nc(c(-c7ccc(S(=O)(=O)[O-])cc7)c7ccc4[nH]7)C=C6)C=C5)cc3)C2)ccc1F
REMARK SMILES IDX 19 1 18 2 17 3 16 4 15 5 14 6 12 7 13 8 11 9 8 10 9 11 86 12
REMARK SMILES IDX 10 13 7 14 5 15 6 16 4 18 1 19 2 20 3 21 89 22 88 23 90 24
REMARK SMILES IDX 87 25 20 26 21 27 22 28 23 29 24 30 25 31 26 32 27 33 85 34
REMARK SMILES IDX 28 35 84 36 29 37 30 38 31 39 78 40 32 41 83 42 77 43 79 44
REMARK SMILES IDX 33 45 82 46 76 47 75 48 34 50 64 51 45 52 63 53 46 54 49 55
REMARK SMILES IDX 62 56 80 57 47 58 48 59 61 61 81 62 50 63 35 64 36 65 44 66
REMARK SMILES IDX 37 67 43 68 38 69 39 70 40 71 41 72 42 73 65 74 66 75 74 76
REMARK SMILES IDX 67 77 73 78 68 79 69 80 70 81 71 82 72 83 51 84 52 85 60 86
REMARK SMILES IDX 53 87 59 88 54 89 55 90 56 91 57 92 58 93
REMARK H PARENT 7 17 79 49 49 60
REMARK Flexibility Score: inf
ROOT
ATOM      1  C   UNL     1       1.004   5.277   3.669  1.00  0.00     0.188 C 
ENDROOT
BRANCH   1   2
ATOM      2  C   UNL     1       1.743   4.159   2.903  1.00  0.00     0.188 C 
BRANCH   2   3
ATOM      3  O   UNL     1       3.059   4.405   2.448  1.00  0.00    -0.376 OA
BRANCH   3   4
ATOM      4  C   UNL     1       3.275   5.162   1.262  1.00  0.00     0.202 C 
BRANCH   4   5
ATOM      5  C   UNL     1       2.176   5.397   0.218  1.00  0.00     0.261 C 
BRANCH   5   6
ATOM      6  O   UNL     1       0.895   5.707   0.780  1.00  0.00    -0.463 OA
BRANCH   6   7
ATOM      7  C   UNL     1      -0.163   5.330   0.007  1.00  0.00     0.312 C 
ATOM      8  O   UNL     1      -0.065   4.963  -1.158  1.00  0.00    -0.252 OA
BRANCH   7   9
ATOM      9  C   UNL     1      -1.451   5.258   0.833  1.00  0.00     0.124 C 
ATOM     10  C   UNL     1      -2.642   3.484  -0.272  1.00  0.00     0.106 C 
ATOM     11  C   UNL     1      -3.360   4.787  -0.453  1.00  0.00    -0.006 C 
ATOM     12  C   UNL     1      -1.843   3.783   1.004  1.00  0.00     0.048 C 
ATOM     13  C   UNL     1      -2.659   5.783   0.110  1.00  0.00    -0.014 C 
BRANCH  10  14
ATOM     14  N   UNL     1      -3.542   2.374  -0.177  1.00  0.00    -0.346 N 
ATOM     15  C   UNL     1      -3.316   1.017  -0.257  1.00  0.00     0.251 C 
ATOM     16  O   UNL     1      -4.321   0.303  -0.287  1.00  0.00    -0.269 OA
ATOM     17  H   UNL     1      -4.482   2.623  -0.028  1.00  0.00     0.164 HD
BRANCH  15  18
ATOM     18  C   UNL     1      -1.960   0.367  -0.250  1.00  0.00     0.040 A 
ATOM     19  C   UNL     1       1.783   1.085  -0.518  1.00  0.00     0.047 C 
ATOM     20  C   UNL     1       0.491   0.339  -0.366  1.00  0.00    -0.015 A 
ATOM     21  C   UNL     1      -0.740   1.003  -0.517  1.00  0.00     0.020 A 
ATOM     22  C   UNL     1       0.489  -1.005  -0.002  1.00  0.00     0.126 A 
ATOM     23  C   UNL     1      -0.704  -1.688   0.187  1.00  0.00     0.040 A 
ATOM     24  F   UNL     1       1.652  -1.645   0.176  1.00  0.00    -0.207 F 
ATOM     25  C   UNL     1      -1.919  -1.002   0.074  1.00  0.00     0.017 A 
ENDBRANCH  15  18
ENDBRANCH  10  14
ENDBRANCH   7   9
ENDBRANCH   6   7
ENDBRANCH   5   6
ENDBRANCH   4   5
ENDBRANCH   3   4
ENDBRANCH   2   3
ENDBRANCH   1   2
BRANCH   1  26
ATOM     26  O   UNL     1       1.460   6.616   3.631  1.00  0.00    -0.376 OA
BRANCH  26  27
ATOM     27  C   UNL     1       2.753   6.913   4.139  1.00  0.00     0.202 C 
BRANCH  27  28
ATOM     28  C   UNL     1       3.239   6.376   5.494  1.00  0.00     0.261 C 
BRANCH  28  29
ATOM     29  O   UNL     1       2.997   4.981   5.722  1.00  0.00    -0.460 OA
BRANCH  29  30
ATOM     30  C   UNL     1       2.134   4.714   6.733  1.00  0.00     0.338 C 
ATOM     31  O   UNL     1       1.584   5.523   7.469  1.00  0.00    -0.246 OA
BRANCH  30  32
ATOM     32  C   UNL     1       1.767   3.289   6.707  1.00  0.00     0.060 A 
ATOM     33  C   UNL     1       0.437   2.950   6.420  1.00  0.00     0.016 A 
ATOM     34  C   UNL     1       2.699   2.306   7.038  1.00  0.00     0.016 A 
ATOM     35  C   UNL     1       0.027   1.621   6.477  1.00  0.00     0.010 A 
ATOM     36  C   UNL     1       2.278   0.977   7.128  1.00  0.00     0.010 A 
ATOM     37  C   UNL     1       0.936   0.634   6.875  1.00  0.00    -0.014 A 
BRANCH  37  38
ATOM     38  C   UNL     1       0.444  -0.721   7.213  1.00  0.00     0.031 A 
ATOM     39  C   UNL     1       0.129  -1.029   8.651  1.00  0.00     0.074 A 
ATOM     40  C   UNL     1       0.275  -1.656   6.263  1.00  0.00     0.049 A 
ATOM     41  N   UNL     1      -0.241  -2.160   9.193  1.00  0.00    -0.248 NA
ATOM     42  C   UNL     1       0.248   0.088   9.603  1.00  0.00     0.031 C 
ATOM     43  C   UNL     1       0.491  -1.458   4.830  1.00  0.00     0.029 A 
ATOM     44  N   UNL     1      -0.109  -2.968   6.370  1.00  0.00    -0.354 N 
ATOM     45  C   UNL     1      -0.385  -1.896  10.550  1.00  0.00     0.074 A 
ATOM     46  C   UNL     1      -0.046  -0.504  10.751  1.00  0.00     0.031 C 
ATOM     47  C   UNL     1       0.251  -2.617   4.192  1.00  0.00     0.029 A 
ATOM     48  C   UNL     1      -0.098  -3.643   5.174  1.00  0.00     0.049 A 
ATOM     49  H   UNL     1      -0.367  -3.387   7.223  1.00  0.00     0.167 HD
ATOM     50  C   UNL     1      -0.763  -2.738  11.540  1.00  0.00     0.031 A 
ATOM     51  C   UNL     1      -0.318  -4.946   4.908  1.00  0.00     0.031 A 
ATOM     52  C   UNL     1      -1.080  -4.126  11.339  1.00  0.00     0.049 A 
ATOM     53  C   UNL     1      -0.654  -5.885   6.039  1.00  0.00     0.074 A 
ATOM     54  C   UNL     1      -1.481  -5.061  12.277  1.00  0.00     0.029 A 
ATOM     55  N   UNL     1      -1.022  -4.782  10.119  1.00  0.00    -0.354 N 
ATOM     56  N   UNL     1      -0.799  -5.622   7.316  1.00  0.00    -0.248 NA
ATOM     57  C   UNL     1      -0.859  -7.299   5.690  1.00  0.00     0.031 C 
ATOM     58  C   UNL     1      -1.611  -6.296  11.633  1.00  0.00     0.029 A 
ATOM     59  C   UNL     1      -1.352  -6.116  10.283  1.00  0.00     0.049 A 
ATOM     60  H   UNL     1      -0.781  -4.361   9.262  1.00  0.00     0.167 HD
ATOM     61  C   UNL     1      -1.142  -6.829   7.917  1.00  0.00     0.074 A 
ATOM     62  C   UNL     1      -1.191  -7.821   6.863  1.00  0.00     0.031 C 
ATOM     63  C   UNL     1      -1.398  -7.092   9.223  1.00  0.00     0.031 A 
BRANCH  50  64
ATOM     64  C   UNL     1      -0.808  -2.186  12.939  1.00  0.00    -0.014 A 
ATOM     65  C   UNL     1      -1.809  -1.282  13.337  1.00  0.00     0.010 A 
ATOM     66  C   UNL     1       0.153  -2.602  13.879  1.00  0.00     0.010 A 
ATOM     67  C   UNL     1      -1.826  -0.775  14.639  1.00  0.00     0.020 A 
ATOM     68  C   UNL     1       0.123  -2.118  15.189  1.00  0.00     0.020 A 
ATOM     69  C   UNL     1      -0.858  -1.194  15.556  1.00  0.00     0.054 A 
BRANCH  69  70
ATOM     70  S   UNL     1      -0.915  -0.536  17.245  1.00  0.00     0.124 S 
ATOM     71  O   UNL     1      -0.455   0.837  17.049  1.00  0.00    -0.237 OA
ATOM     72  O   UNL     1      -2.325  -0.681  17.598  1.00  0.00    -0.237 OA
ATOM     73  O   UNL     1       0.002  -1.399  17.986  1.00  0.00    -0.744 OA
ENDBRANCH  69  70
ENDBRANCH  50  64
BRANCH  51  74
ATOM     74  C   UNL     1      -0.207  -5.447   3.511  1.00  0.00    -0.014 A 
ATOM     75  C   UNL     1      -1.349  -5.873   2.810  1.00  0.00     0.010 A 
ATOM     76  C   UNL     1       1.047  -5.502   2.874  1.00  0.00     0.010 A 
ATOM     77  C   UNL     1      -1.237  -6.359   1.504  1.00  0.00     0.020 A 
ATOM     78  C   UNL     1       1.159  -5.961   1.559  1.00  0.00     0.020 A 
ATOM     79  C   UNL     1       0.016  -6.397   0.886  1.00  0.00     0.054 A 
BRANCH  79  80
ATOM     80  S   UNL     1       0.126  -6.985  -0.827  1.00  0.00     0.124 S 
ATOM     81  O   UNL     1      -0.117  -8.416  -0.673  1.00  0.00    -0.237 OA
ATOM     82  O   UNL     1      -0.937  -6.228  -1.482  1.00  0.00    -0.237 OA
ATOM     83  O   UNL     1       1.482  -6.619  -1.229  1.00  0.00    -0.744 OA
ENDBRANCH  79  80
ENDBRANCH  51  74
BRANCH  63  84
ATOM     84  C   UNL     1      -1.796  -8.499   9.588  1.00  0.00    -0.014 A 
ATOM     85  C   UNL     1      -0.859  -9.547   9.592  1.00  0.00     0.010 A 
ATOM     86  C   UNL     1      -3.117  -8.760   9.998  1.00  0.00     0.010 A 
ATOM     87  C   UNL     1      -1.244 -10.837   9.971  1.00  0.00     0.020 A 
ATOM     88  C   UNL     1      -3.499 -10.041  10.403  1.00  0.00     0.020 A 
ATOM     89  C   UNL     1      -2.562 -11.076  10.374  1.00  0.00     0.054 A 
BRANCH  89  90
ATOM     90  S   UNL     1      -3.026 -12.747  10.906  1.00  0.00     0.124 S 
ATOM     91  O   UNL     1      -3.080 -13.466   9.636  1.00  0.00    -0.237 OA
ATOM     92  O   UNL     1      -1.925 -13.119  11.792  1.00  0.00    -0.237 OA
ATOM     93  O   UNL     1      -4.314 -12.556  11.569  1.00  0.00    -0.744 OA
ENDBRANCH  89  90
ENDBRANCH  63  84
ENDBRANCH  37  38
ENDBRANCH  30  32
ENDBRANCH  29  30
ENDBRANCH  28  29
ENDBRANCH  27  28
ENDBRANCH  26  27
ENDBRANCH   1  26
TORSDOF 22
