REMARK SMILES Cc1ccccc1NC(=O)CSc1nc(C(=O)OCCOCCOCCOC(=O)c2ccc(-c3c4nc(c(-c5ccc(S(=O)(=O)[O-])cc5)c5ccc([nH]5)c(-c5ccc(S(=O)(=O)[O-])cc5)c5nc(c(-c6ccc(S(=O)(=O)[O-])cc6)c6ccc3[nH]6)C=C5)C=C4)cc2)c2ccccc2n1
REMARK SMILES IDX 22 1 21 2 20 3 19 4 18 5 16 6 17 7 15 8 13 9 14 10 96 11
REMARK SMILES IDX 95 12 90 13 94 14 91 15 93 16 92 17 12 18 11 19 9 20 8 21
REMARK SMILES IDX 10 23 7 24 1 25 2 26 3 27 4 28 6 29 5 30 23 31 24 32 25 33
REMARK SMILES IDX 26 34 27 35 28 36 29 37 30 38 31 39 89 40 32 41 88 42 33 43
REMARK SMILES IDX 34 44 35 45 82 46 36 47 87 48 81 49 83 50 37 51 86 52 80 53
REMARK SMILES IDX 79 54 38 56 68 57 49 58 67 59 50 60 53 61 66 62 84 63 51 64
REMARK SMILES IDX 52 65 65 67 85 68 54 69 39 70 40 71 48 72 41 73 47 74 42 75
REMARK SMILES IDX 43 76 44 77 45 78 46 79 69 80 70 81 78 82 71 83 77 84 72 85
REMARK SMILES IDX 73 86 74 87 75 88 76 89 55 90 56 91 64 92 57 93 63 94 58 95
REMARK SMILES IDX 59 96 60 97 61 98 62 99
REMARK H PARENT 8 22 83 55 53 66
REMARK Flexibility Score: inf
ROOT
ATOM      1  C   UNL     1      -4.091   8.232  -7.552  1.00  0.00     0.188 C 
ENDROOT
BRANCH   1   2
ATOM      2  O   UNL     1      -3.195   9.192  -8.111  1.00  0.00    -0.376 OA
BRANCH   2   3
ATOM      3  C   UNL     1      -1.876   9.019  -7.516  1.00  0.00     0.202 C 
BRANCH   3   4
ATOM      4  C   UNL     1      -1.112   7.773  -8.168  1.00  0.00     0.261 C 
BRANCH   4   5
ATOM      5  O   UNL     1      -0.887   6.404  -7.377  1.00  0.00    -0.458 OA
BRANCH   5   6
ATOM      6  C   UNL     1      -0.117   5.816  -6.370  1.00  0.00     0.357 C 
ATOM      7  O   UNL     1       0.984   6.107  -5.933  1.00  0.00    -0.244 OA
BRANCH   6   8
ATOM      8  C   UNL     1      -0.555   4.489  -5.880  1.00  0.00     0.160 A 
ATOM      9  C   UNL     1      -0.811   3.046  -4.111  1.00  0.00     0.189 A 
ATOM     10  N   UNL     1      -0.832   4.314  -4.539  1.00  0.00    -0.215 NA
ATOM     11  N   UNL     1      -0.528   2.001  -4.915  1.00  0.00    -0.222 NA
ATOM     12  C   UNL     1      -0.222   2.226  -6.203  1.00  0.00     0.076 A 
ATOM     13  C   UNL     1      -0.217   3.489  -6.765  1.00  0.00     0.034 A 
ATOM     14  C   UNL     1       0.140   1.179  -7.036  1.00  0.00     0.029 A 
ATOM     15  C   UNL     1       0.197   3.713  -8.103  1.00  0.00     0.013 A 
ATOM     16  C   UNL     1       0.523   1.384  -8.371  1.00  0.00     0.002 A 
ATOM     17  C   UNL     1       0.564   2.659  -8.906  1.00  0.00     0.001 A 
BRANCH   9  18
ATOM     18  S   UNL     1      -1.473   2.522  -2.537  1.00  0.00    -0.076 SA
BRANCH  18  19
ATOM     19  C   UNL     1      -1.002   3.742  -1.277  1.00  0.00     0.178 C 
BRANCH  19  20
ATOM     20  C   UNL     1       0.311   3.511  -0.540  1.00  0.00     0.234 C 
ATOM     21  N   UNL     1       0.761   2.322  -0.044  1.00  0.00    -0.325 N 
ATOM     22  H   UNL     1       1.686   2.370   0.289  1.00  0.00     0.169 HD
ATOM     23  O   UNL     1       1.035   4.489  -0.300  1.00  0.00    -0.274 OA
BRANCH  21  24
ATOM     24  C   UNL     1       0.193   1.044   0.095  1.00  0.00     0.044 A 
ATOM     25  C   UNL     1       2.522  -0.052  -0.138  1.00  0.00     0.046 C 
ATOM     26  C   UNL     1       1.026  -0.095   0.035  1.00  0.00    -0.027 A 
ATOM     27  C   UNL     1       0.440  -1.376   0.091  1.00  0.00     0.005 A 
ATOM     28  C   UNL     1      -0.933  -1.531   0.259  1.00  0.00     0.000 A 
ATOM     29  C   UNL     1      -1.173   0.871   0.340  1.00  0.00     0.026 A 
ATOM     30  C   UNL     1      -1.735  -0.407   0.413  1.00  0.00     0.002 A 
ENDBRANCH  21  24
ENDBRANCH  19  20
ENDBRANCH  18  19
ENDBRANCH   9  18
ENDBRANCH   6   8
ENDBRANCH   5   6
ENDBRANCH   4   5
ENDBRANCH   3   4
ENDBRANCH   2   3
ENDBRANCH   1   2
BRANCH   1  31
ATOM     31  C   UNL     1      -5.353   7.901  -8.332  1.00  0.00     0.188 C 
BRANCH  31  32
ATOM     32  O   UNL     1      -6.565   8.560  -8.008  1.00  0.00    -0.376 OA
BRANCH  32  33
ATOM     33  C   UNL     1      -6.757   9.027  -6.677  1.00  0.00     0.202 C 
BRANCH  33  34
ATOM     34  C   UNL     1      -6.826   8.048  -5.463  1.00  0.00     0.261 C 
BRANCH  34  35
ATOM     35  O   UNL     1      -6.426   6.685  -5.703  1.00  0.00    -0.460 OA
BRANCH  35  36
ATOM     36  C   UNL     1      -6.055   5.936  -4.593  1.00  0.00     0.338 C 
ATOM     37  O   UNL     1      -6.599   4.884  -4.286  1.00  0.00    -0.246 OA
BRANCH  36  38
ATOM     38  C   UNL     1      -4.617   6.195  -4.270  1.00  0.00     0.060 A 
ATOM     39  C   UNL     1      -4.019   6.596  -3.081  1.00  0.00     0.016 A 
ATOM     40  C   UNL     1      -3.776   6.078  -5.327  1.00  0.00     0.016 A 
ATOM     41  C   UNL     1      -2.660   7.119  -3.042  1.00  0.00     0.010 A 
ATOM     42  C   UNL     1      -2.565   6.786  -5.272  1.00  0.00     0.010 A 
ATOM     43  C   UNL     1      -1.911   7.377  -4.201  1.00  0.00    -0.014 A 
BRANCH  43  44
ATOM     44  C   UNL     1      -0.792   8.485  -4.355  1.00  0.00     0.031 A 
ATOM     45  C   UNL     1       0.712   8.496  -4.875  1.00  0.00     0.074 A 
ATOM     46  C   UNL     1      -1.170   9.710  -3.913  1.00  0.00     0.049 A 
ATOM     47  N   UNL     1       1.820   8.642  -4.183  1.00  0.00    -0.248 NA
ATOM     48  C   UNL     1       1.081   8.499  -6.302  1.00  0.00     0.031 C 
ATOM     49  C   UNL     1      -0.313  10.878  -3.749  1.00  0.00     0.029 A 
ATOM     50  N   UNL     1      -2.334  10.062  -3.230  1.00  0.00    -0.354 N 
ATOM     51  C   UNL     1       2.910   8.725  -5.093  1.00  0.00     0.074 A 
ATOM     52  C   UNL     1       2.401   8.397  -6.358  1.00  0.00     0.031 C 
ATOM     53  C   UNL     1      -0.778  11.558  -2.686  1.00  0.00     0.029 A 
ATOM     54  C   UNL     1      -1.923  10.838  -2.145  1.00  0.00     0.049 A 
ATOM     55  H   UNL     1      -3.257   9.814  -3.465  1.00  0.00     0.167 HD
ATOM     56  C   UNL     1       4.131   9.318  -4.931  1.00  0.00     0.031 A 
ATOM     57  C   UNL     1      -2.079  10.378  -0.867  1.00  0.00     0.031 A 
ATOM     58  C   UNL     1       4.068  10.126  -3.746  1.00  0.00     0.049 A 
ATOM     59  C   UNL     1      -0.730  10.016  -0.237  1.00  0.00     0.074 A 
ATOM     60  C   UNL     1       3.671  11.438  -3.554  1.00  0.00     0.029 A 
ATOM     61  N   UNL     1       3.866   9.466  -2.552  1.00  0.00    -0.354 N 
ATOM     62  N   UNL     1       0.432  10.178  -0.824  1.00  0.00    -0.248 NA
ATOM     63  C   UNL     1      -0.575   9.434   1.096  1.00  0.00     0.031 C 
ATOM     64  C   UNL     1       3.030  11.498  -2.280  1.00  0.00     0.029 A 
ATOM     65  C   UNL     1       3.136  10.256  -1.678  1.00  0.00     0.049 A 
ATOM     66  H   UNL     1       4.195   8.561  -2.348  1.00  0.00     0.167 HD
ATOM     67  C   UNL     1       1.446   9.701  -0.026  1.00  0.00     0.074 A 
ATOM     68  C   UNL     1       0.760   9.284   1.184  1.00  0.00     0.031 C 
ATOM     69  C   UNL     1       2.765   9.665  -0.399  1.00  0.00     0.031 A 
BRANCH  56  70
ATOM     70  C   UNL     1       5.112   9.440  -6.115  1.00  0.00    -0.014 A 
ATOM     71  C   UNL     1       5.712  10.662  -6.468  1.00  0.00     0.010 A 
ATOM     72  C   UNL     1       5.381   8.352  -6.992  1.00  0.00     0.010 A 
ATOM     73  C   UNL     1       6.410  10.829  -7.690  1.00  0.00     0.020 A 
ATOM     74  C   UNL     1       6.025   8.518  -8.239  1.00  0.00     0.020 A 
ATOM     75  C   UNL     1       6.528   9.767  -8.589  1.00  0.00     0.054 A 
BRANCH  75  76
ATOM     76  S   UNL     1       7.258  10.043 -10.240  1.00  0.00     0.124 S 
ATOM     77  O   UNL     1       6.761  11.368 -10.605  1.00  0.00    -0.237 OA
ATOM     78  O   UNL     1       8.691   9.965  -9.969  1.00  0.00    -0.237 OA
ATOM     79  O   UNL     1       6.716   8.949 -11.045  1.00  0.00    -0.744 OA
ENDBRANCH  75  76
ENDBRANCH  56  70
BRANCH  57  80
ATOM     80  C   UNL     1      -3.477   9.886  -0.565  1.00  0.00    -0.014 A 
ATOM     81  C   UNL     1      -4.519  10.777  -0.941  1.00  0.00     0.010 A 
ATOM     82  C   UNL     1      -3.869   8.589  -0.194  1.00  0.00     0.010 A 
ATOM     83  C   UNL     1      -5.837  10.357  -1.148  1.00  0.00     0.020 A 
ATOM     84  C   UNL     1      -5.217   8.167  -0.361  1.00  0.00     0.020 A 
ATOM     85  C   UNL     1      -6.170   9.034  -0.912  1.00  0.00     0.054 A 
BRANCH  85  86
ATOM     86  S   UNL     1      -7.729   8.393  -1.613  1.00  0.00     0.124 S 
ATOM     87  O   UNL     1      -8.639   8.454  -0.477  1.00  0.00    -0.237 OA
ATOM     88  O   UNL     1      -8.009   9.326  -2.705  1.00  0.00    -0.237 OA
ATOM     89  O   UNL     1      -7.337   7.061  -2.058  1.00  0.00    -0.744 OA
ENDBRANCH  85  86
ENDBRANCH  57  80
BRANCH  69  90
ATOM     90  C   UNL     1       3.912   9.050   0.390  1.00  0.00    -0.014 A 
ATOM     91  C   UNL     1       3.787   7.970   1.272  1.00  0.00     0.010 A 
ATOM     92  C   UNL     1       5.234   9.480   0.088  1.00  0.00     0.010 A 
ATOM     93  C   UNL     1       4.921   7.388   1.867  1.00  0.00     0.020 A 
ATOM     94  C   UNL     1       6.367   8.857   0.609  1.00  0.00     0.020 A 
ATOM     95  C   UNL     1       6.202   7.834   1.528  1.00  0.00     0.054 A 
BRANCH  95  96
ATOM     96  S   UNL     1       7.674   7.065   2.249  1.00  0.00     0.124 S 
ATOM     97  O   UNL     1       8.028   8.016   3.296  1.00  0.00    -0.237 OA
ATOM     98  O   UNL     1       7.191   5.770   2.713  1.00  0.00    -0.237 OA
ATOM     99  O   UNL     1       8.605   7.005   1.115  1.00  0.00    -0.744 OA
ENDBRANCH  95  96
ENDBRANCH  69  90
ENDBRANCH  43  44
ENDBRANCH  36  38
ENDBRANCH  35  36
ENDBRANCH  34  35
ENDBRANCH  33  34
ENDBRANCH  32  33
ENDBRANCH  31  32
ENDBRANCH   1  31
TORSDOF 24
