REMARK SMILES Cc1ccc(C2=NN(C(=O)CCC(=O)OCCOCCOCCOC(=O)c3ccc(-c4c5nc(c(-c6ccc(S(=O)(=O)[O-])cc6)c6ccc([nH]6)c(-c6ccc(S(=O)(=O)[O-])cc6)c6nc(c(-c7ccc(S(=O)(=O)[O-])cc7)c7ccc4[nH]7)C=C6)C=C5)cc3)[C@H](C[C@@H]3C=c4cccc(C)c4=NC3=O)C2)cc1
REMARK SMILES IDX 19 1 18 2 17 3 16 4 15 5 13 6 14 7 12 8 11 9 9 10 10 11 8 12
REMARK SMILES IDX 6 13 7 14 101 15 87 16 5 17 1 18 2 19 3 20 103 21 4 22
REMARK SMILES IDX 102 23 88 24 89 25 90 26 99 27 91 28 98 29 100 30 92 31
REMARK SMILES IDX 97 32 93 33 95 34 94 35 96 36 20 37 21 38 22 39 23 40 24 41
REMARK SMILES IDX 25 42 26 43 27 44 28 45 86 46 29 47 85 48 30 49 31 50 32 51
REMARK SMILES IDX 79 52 33 53 84 54 78 55 80 56 34 57 83 58 77 59 76 60 35 62
REMARK SMILES IDX 65 63 46 64 64 65 47 66 50 67 63 68 81 69 48 70 49 71 62 73
REMARK SMILES IDX 82 74 51 75 36 76 37 77 45 78 38 79 44 80 39 81 40 82 41 83
REMARK SMILES IDX 42 84 43 85 66 86 67 87 75 88 68 89 74 90 69 91 70 92 71 93
REMARK SMILES IDX 72 94 73 95 52 96 53 97 61 98 54 99 60 100 55 101 56 102
REMARK SMILES IDX 57 103 58 104 59 105
REMARK H PARENT 80 61 50 72
REMARK Flexibility Score: inf
ROOT
ATOM      1  C   UNL     1      -6.615   1.536  -3.966  1.00  0.00     0.188 C 
ENDROOT
BRANCH   1   2
ATOM      2  O   UNL     1      -5.746   2.546  -3.337  1.00  0.00    -0.376 OA
BRANCH   2   3
ATOM      3  C   UNL     1      -4.559   2.344  -2.527  1.00  0.00     0.202 C 
BRANCH   3   4
ATOM      4  C   UNL     1      -4.194   3.001  -0.968  1.00  0.00     0.261 C 
BRANCH   4   5
ATOM      5  O   UNL     1      -4.428   2.415   0.465  1.00  0.00    -0.463 OA
BRANCH   5   6
ATOM      6  C   UNL     1      -5.649   1.893   0.621  1.00  0.00     0.306 C 
ATOM      7  O   UNL     1      -6.223   1.908  -0.463  1.00  0.00    -0.252 OA
BRANCH   6   8
ATOM      8  C   UNL     1      -6.348   1.012   2.009  1.00  0.00     0.132 C 
BRANCH   8   9
ATOM      9  C   UNL     1      -6.113  -0.292   2.695  1.00  0.00     0.114 C 
BRANCH   9  10
ATOM     10  C   UNL     1      -5.020  -1.152   2.191  1.00  0.00     0.243 C 
ATOM     11  O   UNL     1      -4.640  -1.989   3.027  1.00  0.00    -0.273 OA
BRANCH  10  12
ATOM     12  N   UNL     1      -4.394  -1.008   0.947  1.00  0.00    -0.230 N 
ATOM     13  C   UNL     1      -2.448  -0.517   0.214  1.00  0.00     0.070 C 
ATOM     14  N   UNL     1      -3.080  -0.909   1.250  1.00  0.00    -0.174 NA
ATOM     15  C   UNL     1      -3.118  -0.484  -1.114  1.00  0.00     0.086 C 
ATOM     16  C   UNL     1      -4.546  -0.473  -0.628  1.00  0.00     0.118 C 
BRANCH  13  17
ATOM     17  C   UNL     1      -1.053  -0.273   0.302  1.00  0.00    -0.002 A 
ATOM     18  C   UNL     1       3.096   0.058  -0.095  1.00  0.00     0.044 C 
ATOM     19  C   UNL     1       1.617  -0.029   0.062  1.00  0.00    -0.051 A 
ATOM     20  C   UNL     1       1.046  -1.310   0.117  1.00  0.00     0.004 A 
ATOM     21  C   UNL     1       0.829   1.132   0.175  1.00  0.00     0.004 A 
ATOM     22  C   UNL     1      -0.307  -1.437   0.264  1.00  0.00     0.010 A 
ATOM     23  C   UNL     1      -0.540   1.016   0.305  1.00  0.00     0.010 A 
ENDBRANCH  13  17
BRANCH  16  24
ATOM     24  C   UNL     1      -5.922  -0.479  -1.823  1.00  0.00     0.045 C 
BRANCH  24  25
ATOM     25  C   UNL     1      -7.788  -0.977  -1.759  1.00  0.00     0.106 C 
ATOM     26  C   UNL     1      -8.601  -1.721   0.149  1.00  0.00    -0.003 C 
ATOM     27  C   UNL     1      -8.520  -2.258  -3.183  1.00  0.00     0.253 C 
ATOM     28  C   UNL     1      -9.218  -3.039   0.299  1.00  0.00    -0.003 A 
ATOM     29  N   UNL     1      -9.345  -3.692  -2.564  1.00  0.00    -0.212 NA
ATOM     30  O   UNL     1      -8.411  -2.146  -4.395  1.00  0.00    -0.272 OA
ATOM     31  C   UNL     1      -8.998  -3.714   1.566  1.00  0.00     0.010 A 
ATOM     32  C   UNL     1      -9.563  -4.037  -1.179  1.00  0.00     0.077 A 
ATOM     33  C   UNL     1      -9.113  -5.037   1.664  1.00  0.00     0.001 A 
ATOM     34  C   UNL     1      -9.827  -5.463  -0.698  1.00  0.00    -0.025 A 
ATOM     35  C   UNL     1      -9.585  -5.854   0.575  1.00  0.00     0.005 A 
ATOM     36  C   UNL     1     -10.148  -6.476  -1.738  1.00  0.00     0.047 C 
ENDBRANCH  24  25
ENDBRANCH  16  24
ENDBRANCH  10  12
ENDBRANCH   9  10
ENDBRANCH   8   9
ENDBRANCH   6   8
ENDBRANCH   5   6
ENDBRANCH   4   5
ENDBRANCH   3   4
ENDBRANCH   2   3
ENDBRANCH   1   2
BRANCH   1  37
ATOM     37  C   UNL     1      -6.300   0.229  -4.849  1.00  0.00     0.188 C 
BRANCH  37  38
ATOM     38  O   UNL     1      -6.154  -1.084  -4.275  1.00  0.00    -0.376 OA
BRANCH  38  39
ATOM     39  C   UNL     1      -4.912  -1.757  -4.133  1.00  0.00     0.202 C 
BRANCH  39  40
ATOM     40  C   UNL     1      -5.188  -3.233  -4.242  1.00  0.00     0.261 C 
BRANCH  40  41
ATOM     41  O   UNL     1      -6.055  -3.869  -3.171  1.00  0.00    -0.460 OA
BRANCH  41  42
ATOM     42  C   UNL     1      -6.970  -4.012  -2.173  1.00  0.00     0.338 C 
ATOM     43  O   UNL     1      -7.116  -5.167  -1.767  1.00  0.00    -0.246 OA
BRANCH  42  44
ATOM     44  C   UNL     1      -7.768  -2.784  -1.340  1.00  0.00     0.060 A 
ATOM     45  C   UNL     1      -9.492  -1.730  -1.514  1.00  0.00     0.016 A 
ATOM     46  C   UNL     1      -6.630  -2.104  -0.395  1.00  0.00     0.016 A 
ATOM     47  C   UNL     1      -9.662  -0.047  -0.826  1.00  0.00     0.010 A 
ATOM     48  C   UNL     1      -7.035  -0.401   0.084  1.00  0.00     0.010 A 
ATOM     49  C   UNL     1      -8.404   0.755  -0.054  1.00  0.00    -0.014 A 
BRANCH  49  50
ATOM     50  C   UNL     1      -8.238   2.562   0.476  1.00  0.00     0.031 A 
ATOM     51  C   UNL     1      -7.398   3.313   1.978  1.00  0.00     0.074 A 
ATOM     52  C   UNL     1      -8.007   3.486  -0.572  1.00  0.00     0.049 A 
ATOM     53  N   UNL     1      -6.314   4.080   1.893  1.00  0.00    -0.248 NA
ATOM     54  C   UNL     1      -7.359   2.901   3.514  1.00  0.00     0.031 C 
ATOM     55  C   UNL     1      -6.963   4.586  -0.664  1.00  0.00     0.029 A 
ATOM     56  N   UNL     1      -8.445   3.555  -1.908  1.00  0.00    -0.354 N 
ATOM     57  C   UNL     1      -5.437   3.996   3.009  1.00  0.00     0.074 A 
ATOM     58  C   UNL     1      -6.065   3.090   3.893  1.00  0.00     0.031 C 
ATOM     59  C   UNL     1      -7.069   5.327  -1.784  1.00  0.00     0.029 A 
ATOM     60  C   UNL     1      -8.326   4.928  -2.330  1.00  0.00     0.049 A 
ATOM     61  H   UNL     1      -8.772   2.804  -2.454  1.00  0.00     0.167 HD
ATOM     62  C   UNL     1      -4.277   4.733   3.144  1.00  0.00     0.031 A 
ATOM     63  C   UNL     1      -9.416   5.757  -2.291  1.00  0.00     0.031 A 
ATOM     64  C   UNL     1      -4.448   5.888   2.286  1.00  0.00     0.049 A 
ATOM     65  C   UNL     1      -9.304   6.760  -1.125  1.00  0.00     0.074 A 
ATOM     66  C   UNL     1      -3.958   6.340   1.085  1.00  0.00     0.029 A 
ATOM     67  N   UNL     1      -5.621   6.581   2.514  1.00  0.00    -0.354 N 
ATOM     68  N   UNL     1      -8.507   6.581  -0.095  1.00  0.00    -0.248 NA
ATOM     69  C   UNL     1      -9.889   8.100  -1.097  1.00  0.00     0.031 C 
ATOM     70  C   UNL     1      -4.987   7.183   0.518  1.00  0.00     0.029 A 
ATOM     71  C   UNL     1      -6.045   7.293   1.422  1.00  0.00     0.049 A 
ATOM     72  H   UNL     1      -6.103   6.565   3.373  1.00  0.00     0.167 HD
ATOM     73  C   UNL     1      -8.319   7.743   0.590  1.00  0.00     0.074 A 
ATOM     74  C   UNL     1      -9.266   8.651  -0.035  1.00  0.00     0.031 C 
ATOM     75  C   UNL     1      -7.350   7.963   1.536  1.00  0.00     0.031 A 
BRANCH  62  76
ATOM     76  C   UNL     1      -3.087   4.596   4.146  1.00  0.00    -0.014 A 
ATOM     77  C   UNL     1      -2.152   5.658   4.287  1.00  0.00     0.010 A 
ATOM     78  C   UNL     1      -2.759   3.439   4.898  1.00  0.00     0.010 A 
ATOM     79  C   UNL     1      -1.011   5.592   5.130  1.00  0.00     0.020 A 
ATOM     80  C   UNL     1      -1.625   3.366   5.767  1.00  0.00     0.020 A 
ATOM     81  C   UNL     1      -0.758   4.450   5.882  1.00  0.00     0.054 A 
BRANCH  81  82
ATOM     82  S   UNL     1       0.694   4.426   6.994  1.00  0.00     0.124 S 
ATOM     83  O   UNL     1       1.809   4.620   6.069  1.00  0.00    -0.237 OA
ATOM     84  O   UNL     1       0.426   5.547   7.890  1.00  0.00    -0.237 OA
ATOM     85  O   UNL     1       0.639   3.107   7.622  1.00  0.00    -0.744 OA
ENDBRANCH  81  82
ENDBRANCH  62  76
BRANCH  63  86
ATOM     86  C   UNL     1     -10.568   4.992  -2.879  1.00  0.00    -0.014 A 
ATOM     87  C   UNL     1     -10.430   4.707  -4.270  1.00  0.00     0.010 A 
ATOM     88  C   UNL     1     -11.193   4.027  -2.064  1.00  0.00     0.010 A 
ATOM     89  C   UNL     1     -10.661   3.415  -4.763  1.00  0.00     0.020 A 
ATOM     90  C   UNL     1     -11.429   2.733  -2.569  1.00  0.00     0.020 A 
ATOM     91  C   UNL     1     -11.122   2.424  -3.898  1.00  0.00     0.054 A 
BRANCH  91  92
ATOM     92  S   UNL     1     -11.121   0.710  -4.506  1.00  0.00     0.124 S 
ATOM     93  O   UNL     1     -12.289   0.700  -5.381  1.00  0.00    -0.237 OA
ATOM     94  O   UNL     1      -9.823   0.629  -5.172  1.00  0.00    -0.237 OA
ATOM     95  O   UNL     1     -11.255  -0.088  -3.294  1.00  0.00    -0.744 OA
ENDBRANCH  91  92
ENDBRANCH  63  86
BRANCH  75  96
ATOM     96  C   UNL     1      -7.666   8.768   2.802  1.00  0.00    -0.014 A 
ATOM     97  C   UNL     1      -8.897   9.399   3.013  1.00  0.00     0.010 A 
ATOM     98  C   UNL     1      -6.764   8.802   3.903  1.00  0.00     0.010 A 
ATOM     99  C   UNL     1      -9.156  10.132   4.173  1.00  0.00     0.020 A 
ATOM    100  C   UNL     1      -7.058   9.425   5.115  1.00  0.00     0.020 A 
ATOM    101  C   UNL     1      -8.230  10.148   5.211  1.00  0.00     0.054 A 
BRANCH 101 102
ATOM    102  S   UNL     1      -8.554  11.176   6.651  1.00  0.00     0.124 S 
ATOM    103  O   UNL     1      -8.382  12.516   6.094  1.00  0.00    -0.237 OA
ATOM    104  O   UNL     1      -9.924  10.808   6.997  1.00  0.00    -0.237 OA
ATOM    105  O   UNL     1      -7.537  10.762   7.613  1.00  0.00    -0.744 OA
ENDBRANCH 101 102
ENDBRANCH  75  96
ENDBRANCH  49  50
ENDBRANCH  42  44
ENDBRANCH  41  42
ENDBRANCH  40  41
ENDBRANCH  39  40
ENDBRANCH  38  39
ENDBRANCH  37  38
ENDBRANCH   1  37
TORSDOF 26
