REMARK SMILES O=C(C[C@H](NC(=O)[C@]12C[C@H]3C[C@H](C[C@H](C3)C1)C2)c1cccc([N+](=O)[O-])c1)OCCOCCOCCOC(=O)c1ccc(-c2c3nc(c(-c4ccc(S(=O)(=O)[O-])cc4)c4ccc([nH]4)c(-c4ccc(S(=O)(=O)[O-])cc4)c4nc(c(-c5ccc(S(=O)(=O)[O-])cc5)c5ccc2[nH]5)C=C4)C=C3)cc1
REMARK SMILES IDX 31 1 30 2 29 3 28 4 27 5 2 6 1 7 3 8 4 9 18 10 19 11 26 12
REMARK SMILES IDX 20 13 22 14 21 15 23 16 24 17 25 18 5 19 6 20 7 22 8 23 9 24
REMARK SMILES IDX 16 25 17 26 10 27 14 28 12 29 11 30 15 31 13 32 32 33 33 34
REMARK SMILES IDX 34 35 35 36 36 37 37 38 38 39 39 40 40 41 98 42 41 43 97 44
REMARK SMILES IDX 42 45 43 46 44 47 91 48 45 49 96 50 90 51 92 52 46 53 95 54
REMARK SMILES IDX 89 55 88 56 47 58 77 59 58 60 76 61 59 62 62 63 75 64 93 65
REMARK SMILES IDX 60 66 61 67 74 69 94 70 63 71 48 72 49 73 57 74 50 75 56 76
REMARK SMILES IDX 51 77 52 78 53 79 54 80 55 81 78 82 79 83 87 84 80 85 86 86
REMARK SMILES IDX 81 87 82 88 83 89 84 90 85 91 64 92 65 93 73 94 66 95 72 96
REMARK SMILES IDX 67 97 68 98 69 99 70 100 71 101
REMARK H PARENT 5 21 92 57 62 68
REMARK Flexibility Score: inf
ROOT
ATOM      1  C   UNL     1       4.671  -2.217  -1.153  1.00  0.00     0.188 C 
ENDROOT
BRANCH   1   2
ATOM      2  O   UNL     1       3.266  -2.312  -0.969  1.00  0.00    -0.376 OA
BRANCH   2   3
ATOM      3  C   UNL     1       2.628  -1.198  -0.364  1.00  0.00     0.202 C 
BRANCH   3   4
ATOM      4  C   UNL     1       2.790   0.128  -1.103  1.00  0.00     0.261 C 
BRANCH   4   5
ATOM      5  O   UNL     1       4.174   0.505  -1.277  1.00  0.00    -0.463 OA
BRANCH   5   6
ATOM      6  C   UNL     1       4.863   1.375  -0.518  1.00  0.00     0.308 C 
ATOM      7  O   UNL     1       5.333   2.393  -1.022  1.00  0.00    -0.252 OA
BRANCH   6   8
ATOM      8  C   UNL     1       5.350   0.904   0.834  1.00  0.00     0.152 C 
BRANCH   8   9
ATOM      9  C   UNL     1       4.366   0.641   1.983  1.00  0.00     0.123 C 
BRANCH   9  10
ATOM     10  C   UNL     1       5.003   1.088   3.284  1.00  0.00    -0.018 A 
ATOM     11  C   UNL     1       5.609   0.168   4.156  1.00  0.00     0.006 A 
ATOM     12  C   UNL     1       5.001   2.449   3.628  1.00  0.00     0.091 A 
ATOM     13  C   UNL     1       6.153   0.594   5.371  1.00  0.00     0.007 A 
ATOM     14  C   UNL     1       5.542   2.869   4.848  1.00  0.00     0.269 A 
ATOM     15  C   UNL     1       6.115   1.944   5.726  1.00  0.00     0.085 A 
BRANCH  14  16
ATOM     16  N   UNL     1       5.470   4.289   5.203  1.00  0.00     0.062 N 
ATOM     17  O   UNL     1       5.825   4.625   6.339  1.00  0.00    -0.258 OA
ATOM     18  O   UNL     1       5.033   5.072   4.345  1.00  0.00    -0.258 OA
ENDBRANCH  14  16
ENDBRANCH   9  10
BRANCH   9  19
ATOM     19  N   UNL     1       3.053   1.254   1.801  1.00  0.00    -0.348 N 
ATOM     20  C   UNL     1       1.804   0.964   2.251  1.00  0.00     0.226 C 
ATOM     21  H   UNL     1       3.078   2.054   1.228  1.00  0.00     0.164 HD
ATOM     22  O   UNL     1       0.900   1.521   1.615  1.00  0.00    -0.274 OA
BRANCH  20  23
ATOM     23  C   UNL     1       1.476   0.113   3.498  1.00  0.00     0.050 C 
ATOM     24  C   UNL     1       2.156  -1.267   3.593  1.00  0.00     0.020 C 
ATOM     25  C   UNL     1      -0.065  -0.154   3.519  1.00  0.00     0.020 C 
ATOM     26  C   UNL     1       1.803   0.953   4.754  1.00  0.00     0.020 C 
ATOM     27  C   UNL     1       1.751  -1.999   4.887  1.00  0.00    -0.010 C 
ATOM     28  C   UNL     1      -0.494  -0.884   4.804  1.00  0.00    -0.010 C 
ATOM     29  C   UNL     1       1.399   0.217   6.038  1.00  0.00    -0.010 C 
ATOM     30  C   UNL     1       2.136  -1.131   6.098  1.00  0.00     0.007 C 
ATOM     31  C   UNL     1       0.235  -2.231   4.889  1.00  0.00     0.007 C 
ATOM     32  C   UNL     1      -0.116  -0.025   6.021  1.00  0.00     0.007 C 
ENDBRANCH  20  23
ENDBRANCH   9  19
ENDBRANCH   8   9
ENDBRANCH   6   8
ENDBRANCH   5   6
ENDBRANCH   4   5
ENDBRANCH   3   4
ENDBRANCH   2   3
ENDBRANCH   1   2
BRANCH   1  33
ATOM     33  C   UNL     1       5.119  -1.887  -2.594  1.00  0.00     0.188 C 
BRANCH  33  34
ATOM     34  O   UNL     1       4.191  -1.995  -3.666  1.00  0.00    -0.376 OA
BRANCH  34  35
ATOM     35  C   UNL     1       3.250  -3.058  -3.674  1.00  0.00     0.202 C 
BRANCH  35  36
ATOM     36  C   UNL     1       3.773  -4.500  -3.655  1.00  0.00     0.261 C 
BRANCH  36  37
ATOM     37  O   UNL     1       4.618  -4.828  -2.535  1.00  0.00    -0.460 OA
BRANCH  37  38
ATOM     38  C   UNL     1       5.923  -5.046  -2.841  1.00  0.00     0.338 C 
ATOM     39  O   UNL     1       6.426  -5.010  -3.950  1.00  0.00    -0.246 OA
BRANCH  38  40
ATOM     40  C   UNL     1       6.744  -5.174  -1.615  1.00  0.00     0.060 A 
ATOM     41  C   UNL     1       7.856  -4.331  -1.489  1.00  0.00     0.016 A 
ATOM     42  C   UNL     1       6.503  -6.165  -0.660  1.00  0.00     0.016 A 
ATOM     43  C   UNL     1       8.770  -4.520  -0.452  1.00  0.00     0.010 A 
ATOM     44  C   UNL     1       7.433  -6.365   0.373  1.00  0.00     0.010 A 
ATOM     45  C   UNL     1       8.595  -5.576   0.452  1.00  0.00    -0.014 A 
BRANCH  45  46
ATOM     46  C   UNL     1       9.734  -5.962   1.329  1.00  0.00     0.031 A 
ATOM     47  C   UNL     1      10.650  -7.074   0.881  1.00  0.00     0.074 A 
ATOM     48  C   UNL     1      10.009  -5.290   2.462  1.00  0.00     0.049 A 
ATOM     49  N   UNL     1      11.734  -7.535   1.452  1.00  0.00    -0.248 NA
ATOM     50  C   UNL     1      10.300  -7.749  -0.379  1.00  0.00     0.031 C 
ATOM     51  C   UNL     1       9.233  -4.173   2.996  1.00  0.00     0.029 A 
ATOM     52  N   UNL     1      11.030  -5.454   3.367  1.00  0.00    -0.354 N 
ATOM     53  C   UNL     1      12.202  -8.543   0.616  1.00  0.00     0.074 A 
ATOM     54  C   UNL     1      11.260  -8.656  -0.477  1.00  0.00     0.031 C 
ATOM     55  C   UNL     1       9.802  -3.756   4.142  1.00  0.00     0.029 A 
ATOM     56  C   UNL     1      10.972  -4.586   4.431  1.00  0.00     0.049 A 
ATOM     57  H   UNL     1      11.738  -6.131   3.263  1.00  0.00     0.167 HD
ATOM     58  C   UNL     1      13.321  -9.299   0.731  1.00  0.00     0.031 A 
ATOM     59  C   UNL     1      11.763  -4.478   5.518  1.00  0.00     0.031 A 
ATOM     60  C   UNL     1      14.252  -9.214   1.825  1.00  0.00     0.049 A 
ATOM     61  C   UNL     1      12.966  -5.373   5.661  1.00  0.00     0.074 A 
ATOM     62  C   UNL     1      15.408  -9.948   2.031  1.00  0.00     0.029 A 
ATOM     63  N   UNL     1      14.135  -8.346   2.899  1.00  0.00    -0.354 N 
ATOM     64  N   UNL     1      13.401  -6.308   4.850  1.00  0.00    -0.248 NA
ATOM     65  C   UNL     1      13.796  -5.184   6.861  1.00  0.00     0.031 C 
ATOM     66  C   UNL     1      15.965  -9.556   3.254  1.00  0.00     0.029 A 
ATOM     67  C   UNL     1      15.187  -8.538   3.780  1.00  0.00     0.049 A 
ATOM     68  H   UNL     1      13.411  -7.689   3.018  1.00  0.00     0.167 HD
ATOM     69  C   UNL     1      14.566  -6.802   5.431  1.00  0.00     0.074 A 
ATOM     70  C   UNL     1      14.779  -6.047   6.648  1.00  0.00     0.031 C 
ATOM     71  C   UNL     1      15.386  -7.791   4.995  1.00  0.00     0.031 A 
BRANCH  58  72
ATOM     72  C   UNL     1      13.590 -10.305  -0.357  1.00  0.00    -0.014 A 
ATOM     73  C   UNL     1      14.007  -9.891  -1.635  1.00  0.00     0.010 A 
ATOM     74  C   UNL     1      13.462 -11.679  -0.089  1.00  0.00     0.010 A 
ATOM     75  C   UNL     1      14.258 -10.833  -2.636  1.00  0.00     0.020 A 
ATOM     76  C   UNL     1      13.736 -12.626  -1.080  1.00  0.00     0.020 A 
ATOM     77  C   UNL     1      14.118 -12.195  -2.353  1.00  0.00     0.054 A 
BRANCH  77  78
ATOM     78  S   UNL     1      14.474 -13.398  -3.663  1.00  0.00     0.124 S 
ATOM     79  O   UNL     1      13.317 -13.237  -4.540  1.00  0.00    -0.237 OA
ATOM     80  O   UNL     1      15.743 -12.917  -4.203  1.00  0.00    -0.237 OA
ATOM     81  O   UNL     1      14.544 -14.673  -2.954  1.00  0.00    -0.744 OA
ENDBRANCH  77  78
ENDBRANCH  58  72
BRANCH  59  82
ATOM     82  C   UNL     1      11.428  -3.491   6.581  1.00  0.00    -0.014 A 
ATOM     83  C   UNL     1      12.229  -2.357   6.800  1.00  0.00     0.010 A 
ATOM     84  C   UNL     1      10.300  -3.700   7.395  1.00  0.00     0.010 A 
ATOM     85  C   UNL     1      11.917  -1.457   7.824  1.00  0.00     0.020 A 
ATOM     86  C   UNL     1       9.969  -2.790   8.401  1.00  0.00     0.020 A 
ATOM     87  C   UNL     1      10.786  -1.679   8.616  1.00  0.00     0.054 A 
BRANCH  87  88
ATOM     88  S   UNL     1      10.353  -0.466   9.893  1.00  0.00     0.124 S 
ATOM     89  O   UNL     1      11.312  -0.780  10.947  1.00  0.00    -0.237 OA
ATOM     90  O   UNL     1      10.557   0.804   9.202  1.00  0.00    -0.237 OA
ATOM     91  O   UNL     1       8.958  -0.780  10.195  1.00  0.00    -0.744 OA
ENDBRANCH  87  88
ENDBRANCH  59  82
BRANCH  71  92
ATOM     92  C   UNL     1      16.606  -8.097   5.827  1.00  0.00    -0.014 A 
ATOM     93  C   UNL     1      16.497  -8.728   7.079  1.00  0.00     0.010 A 
ATOM     94  C   UNL     1      17.883  -7.770   5.336  1.00  0.00     0.010 A 
ATOM     95  C   UNL     1      17.637  -8.978   7.848  1.00  0.00     0.020 A 
ATOM     96  C   UNL     1      19.029  -8.044   6.088  1.00  0.00     0.020 A 
ATOM     97  C   UNL     1      18.896  -8.627   7.350  1.00  0.00     0.054 A 
BRANCH  97  98
ATOM     98  S   UNL     1      20.363  -8.968   8.362  1.00  0.00     0.124 S 
ATOM     99  O   UNL     1      20.285  -7.916   9.371  1.00  0.00    -0.237 OA
ATOM    100  O   UNL     1      20.114 -10.323   8.845  1.00  0.00    -0.237 OA
ATOM    101  O   UNL     1      21.471  -8.844   7.417  1.00  0.00    -0.744 OA
ENDBRANCH  97  98
ENDBRANCH  71  92
ENDBRANCH  45  46
ENDBRANCH  38  40
ENDBRANCH  37  38
ENDBRANCH  36  37
ENDBRANCH  35  36
ENDBRANCH  34  35
ENDBRANCH  33  34
ENDBRANCH   1  33
TORSDOF 25
