REMARK SMILES [NH3+][C@@H]1CCCCC[C@H]1C(=O)N1[C@@H](C2CC2)SC[C@H]1C(=O)OCCOCCOCCOC(=O)c1ccc(-c2c3nc(c(-c4ccc(S(=O)(=O)[O-])cc4)c4ccc([nH]4)c(-c4ccc(S(=O)(=O)[O-])cc4)c4nc(c(-c5ccc(S(=O)(=O)[O-])cc5)c5ccc2[nH]5)C=C4)C=C3)cc1
REMARK SMILES IDX 24 1 23 2 22 3 21 4 19 5 20 6 18 7 11 8 12 9 16 10 17 11
REMARK SMILES IDX 9 12 10 13 8 14 2 15 1 16 3 20 7 22 6 23 5 24 4 25 13 27
REMARK SMILES IDX 14 28 15 29 25 30 26 31 27 32 28 33 29 34 30 35 31 36 32 37
REMARK SMILES IDX 33 38 34 39 92 40 35 41 91 42 36 43 37 44 38 45 85 46 39 47
REMARK SMILES IDX 90 48 84 49 86 50 40 51 89 52 83 53 82 54 41 56 71 57 52 58
REMARK SMILES IDX 70 59 53 60 56 61 69 62 87 63 54 64 55 65 68 67 88 68 57 69
REMARK SMILES IDX 42 70 43 71 51 72 44 73 50 74 45 75 46 76 47 77 48 78 49 79
REMARK SMILES IDX 72 80 73 81 81 82 74 83 80 84 75 85 76 86 77 87 78 88 79 89
REMARK SMILES IDX 58 90 59 91 67 92 60 93 66 94 61 95 62 96 63 97 64 98 65 99
REMARK H PARENT 1 17 1 18 1 19 86 55 56 66
REMARK Flexibility Score: 90.00
ROOT
ATOM      1  O   UNL     1       5.734   5.993   0.181  1.00  0.00    -0.376 OA
ENDROOT
BRANCH   1   2
ATOM      2  C   UNL     1       6.768   5.022   0.159  1.00  0.00     0.202 C 
BRANCH   2   3
ATOM      3  C   UNL     1       6.910   4.179   1.427  1.00  0.00     0.261 C 
BRANCH   3   4
ATOM      4  O   UNL     1       5.743   3.380   1.733  1.00  0.00    -0.462 OA
BRANCH   4   5
ATOM      5  C   UNL     1       5.134   3.660   2.910  1.00  0.00     0.329 C 
ATOM      6  O   UNL     1       5.521   4.535   3.682  1.00  0.00    -0.250 OA
BRANCH   5   7
ATOM      7  C   UNL     1       3.980   2.720   3.315  1.00  0.00     0.206 C 
ATOM      8  N   UNL     1       3.264   1.754   2.452  1.00  0.00    -0.315 N 
ATOM      9  C   UNL     1       3.828   0.421   2.451  1.00  0.00     0.147 C 
ATOM     10  S   UNL     1       4.632   0.212   4.048  1.00  0.00    -0.134 SA
ATOM     11  C   UNL     1       4.463   1.947   4.543  1.00  0.00     0.109 C 
BRANCH   8  12
ATOM     12  C   UNL     1       2.131   2.190   1.809  1.00  0.00     0.233 C 
ATOM     13  O   UNL     1       2.130   3.357   1.389  1.00  0.00    -0.274 OA
BRANCH  12  14
ATOM     14  C   UNL     1       0.753   1.466   1.882  1.00  0.00     0.136 C 
BRANCH  14  15
ATOM     15  C   UNL     1       0.591  -0.025   1.518  1.00  0.00     0.193 C 
BRANCH  15  16
ATOM     16  N   UNL     1       0.987  -0.277   0.124  1.00  0.00    -0.354 N 
ATOM     17  H   UNL     1       0.871  -1.267  -0.089  1.00  0.00     0.344 HD
ATOM     18  H   UNL     1       1.964  -0.014  -0.004  1.00  0.00     0.344 HD
ATOM     19  H   UNL     1       0.402   0.277  -0.501  1.00  0.00     0.344 HD
ENDBRANCH  15  16
BRANCH  15  20
ATOM     20  C   UNL     1      -0.847  -0.590   1.668  1.00  0.00     0.066 CG0
ATOM     21  G   UNL     1      -1.310  -0.727   3.119  1.00  0.00     0.000 G0
ENDBRANCH  15  20
ENDBRANCH  14  15
BRANCH  14  22
ATOM     22  C   UNL     1       0.158   1.847   3.260  1.00  0.00     0.020 C 
BRANCH  22  23
ATOM     23  C   UNL     1      -1.371   1.845   3.287  1.00  0.00     0.001 C 
BRANCH  23  24
ATOM     24  C   UNL     1      -1.988   0.512   3.689  1.00  0.00     0.000 C 
BRANCH  24  25
ATOM     25  C   UNL     1      -1.310  -0.727   3.119  1.00  0.00     0.006 CG0
ATOM     26  G   UNL     1      -0.847  -0.590   1.668  1.00  0.00     0.000 G0
ENDBRANCH  24  25
ENDBRANCH  23  24
ENDBRANCH  22  23
ENDBRANCH  14  22
ENDBRANCH  12  14
ENDBRANCH   8  12
BRANCH   9  27
ATOM     27  C   UNL     1       4.715   0.236   1.246  1.00  0.00     0.022 C 
ATOM     28  C   UNL     1       6.207   0.489   1.214  1.00  0.00     0.007 C 
ATOM     29  C   UNL     1       5.690  -0.919   1.129  1.00  0.00     0.007 C 
ENDBRANCH   9  27
ENDBRANCH   5   7
ENDBRANCH   4   5
ENDBRANCH   3   4
ENDBRANCH   2   3
ENDBRANCH   1   2
BRANCH   1  30
ATOM     30  C   UNL     1       4.382   5.541   0.111  1.00  0.00     0.188 C 
BRANCH  30  31
ATOM     31  C   UNL     1       4.083   4.238  -0.639  1.00  0.00     0.188 C 
BRANCH  31  32
ATOM     32  O   UNL     1       4.737   4.190  -1.906  1.00  0.00    -0.376 OA
BRANCH  32  33
ATOM     33  C   UNL     1       3.913   3.646  -2.931  1.00  0.00     0.202 C 
BRANCH  33  34
ATOM     34  C   UNL     1       3.231   4.790  -3.688  1.00  0.00     0.261 C 
BRANCH  34  35
ATOM     35  O   UNL     1       2.396   5.623  -2.857  1.00  0.00    -0.460 OA
BRANCH  35  36
ATOM     36  C   UNL     1       1.270   5.051  -2.382  1.00  0.00     0.338 C 
ATOM     37  O   UNL     1       0.883   3.908  -2.618  1.00  0.00    -0.246 OA
BRANCH  36  38
ATOM     38  C   UNL     1       0.637   5.948  -1.392  1.00  0.00     0.060 A 
ATOM     39  C   UNL     1       0.230   5.403  -0.170  1.00  0.00     0.016 A 
ATOM     40  C   UNL     1       0.408   7.300  -1.661  1.00  0.00     0.016 A 
ATOM     41  C   UNL     1      -0.419   6.194   0.779  1.00  0.00     0.010 A 
ATOM     42  C   UNL     1      -0.266   8.089  -0.718  1.00  0.00     0.010 A 
ATOM     43  C   UNL     1      -0.706   7.535   0.498  1.00  0.00    -0.014 A 
BRANCH  43  44
ATOM     44  C   UNL     1      -1.596   8.305   1.408  1.00  0.00     0.031 A 
ATOM     45  C   UNL     1      -3.046   8.475   1.035  1.00  0.00     0.074 A 
ATOM     46  C   UNL     1      -1.143   8.811   2.571  1.00  0.00     0.049 A 
ATOM     47  N   UNL     1      -3.991   9.134   1.655  1.00  0.00    -0.248 NA
ATOM     48  C   UNL     1      -3.488   7.809  -0.201  1.00  0.00     0.031 C 
ATOM     49  C   UNL     1       0.218   8.670   3.085  1.00  0.00     0.029 A 
ATOM     50  N   UNL     1      -1.791   9.549   3.533  1.00  0.00    -0.354 N 
ATOM     51  C   UNL     1      -5.134   8.976   0.880  1.00  0.00     0.074 A 
ATOM     52  C   UNL     1      -4.760   8.175  -0.266  1.00  0.00     0.031 C 
ATOM     53  C   UNL     1       0.305   9.304   4.268  1.00  0.00     0.029 A 
ATOM     54  C   UNL     1      -0.981   9.928   4.577  1.00  0.00     0.049 A 
ATOM     55  H   UNL     1      -2.745   9.785   3.479  1.00  0.00     0.167 HD
ATOM     56  C   UNL     1      -6.384   9.450   1.100  1.00  0.00     0.031 A 
ATOM     57  C   UNL     1      -1.238  10.707   5.649  1.00  0.00     0.031 A 
ATOM     58  C   UNL     1      -6.761  10.253   2.234  1.00  0.00     0.049 A 
ATOM     59  C   UNL     1      -2.618  11.288   5.831  1.00  0.00     0.074 A 
ATOM     60  C   UNL     1      -8.006  10.775   2.542  1.00  0.00     0.029 A 
ATOM     61  N   UNL     1      -5.899  10.656   3.242  1.00  0.00    -0.354 N 
ATOM     62  N   UNL     1      -3.688  11.127   5.090  1.00  0.00    -0.248 NA
ATOM     63  C   UNL     1      -2.823  12.155   7.001  1.00  0.00     0.031 C 
ATOM     64  C   UNL     1      -7.884  11.539   3.708  1.00  0.00     0.029 A 
ATOM     65  C   UNL     1      -6.578  11.442   4.159  1.00  0.00     0.049 A 
ATOM     66  H   UNL     1      -4.945  10.419   3.298  1.00  0.00     0.167 HD
ATOM     67  C   UNL     1      -4.697  11.856   5.715  1.00  0.00     0.074 A 
ATOM     68  C   UNL     1      -4.114  12.438   6.906  1.00  0.00     0.031 C 
ATOM     69  C   UNL     1      -5.988  12.027   5.337  1.00  0.00     0.031 A 
BRANCH  56  70
ATOM     70  C   UNL     1      -7.433   9.145   0.063  1.00  0.00    -0.014 A 
ATOM     71  C   UNL     1      -7.967   7.852  -0.079  1.00  0.00     0.010 A 
ATOM     72  C   UNL     1      -7.916  10.180  -0.758  1.00  0.00     0.010 A 
ATOM     73  C   UNL     1      -8.939   7.592  -1.050  1.00  0.00     0.020 A 
ATOM     74  C   UNL     1      -8.907   9.930  -1.712  1.00  0.00     0.020 A 
ATOM     75  C   UNL     1      -9.400   8.633  -1.862  1.00  0.00     0.054 A 
BRANCH  75  76
ATOM     76  S   UNL     1     -10.677   8.272  -3.099  1.00  0.00     0.124 S 
ATOM     77  O   UNL     1      -9.921   7.524  -4.102  1.00  0.00    -0.237 OA
ATOM     78  O   UNL     1     -11.650   7.493  -2.338  1.00  0.00    -0.237 OA
ATOM     79  O   UNL     1     -11.134   9.593  -3.522  1.00  0.00    -0.744 OA
ENDBRANCH  75  76
ENDBRANCH  56  70
BRANCH  57  80
ATOM     80  C   UNL     1      -0.155  11.016   6.625  1.00  0.00    -0.014 A 
ATOM     81  C   UNL     1      -0.203  10.515   7.938  1.00  0.00     0.010 A 
ATOM     82  C   UNL     1       0.925  11.835   6.247  1.00  0.00     0.010 A 
ATOM     83  C   UNL     1       0.798  10.841   8.859  1.00  0.00     0.020 A 
ATOM     84  C   UNL     1       1.943  12.139   7.155  1.00  0.00     0.020 A 
ATOM     85  C   UNL     1       1.867  11.650   8.460  1.00  0.00     0.054 A 
BRANCH  85  86
ATOM     86  S   UNL     1       3.181  12.019   9.656  1.00  0.00     0.124 S 
ATOM     87  O   UNL     1       2.529  12.985  10.535  1.00  0.00    -0.237 OA
ATOM     88  O   UNL     1       3.451  10.709  10.244  1.00  0.00    -0.237 OA
ATOM     89  O   UNL     1       4.258  12.555   8.826  1.00  0.00    -0.744 OA
ENDBRANCH  85  86
ENDBRANCH  57  80
BRANCH  69  90
ATOM     90  C   UNL     1      -6.870  12.857   6.235  1.00  0.00    -0.014 A 
ATOM     91  C   UNL     1      -6.709  14.251   6.333  1.00  0.00     0.010 A 
ATOM     92  C   UNL     1      -7.896  12.235   6.971  1.00  0.00     0.010 A 
ATOM     93  C   UNL     1      -7.526  14.999   7.186  1.00  0.00     0.020 A 
ATOM     94  C   UNL     1      -8.734  12.983   7.802  1.00  0.00     0.020 A 
ATOM     95  C   UNL     1      -8.530  14.360   7.920  1.00  0.00     0.054 A 
BRANCH  95  96
ATOM     96  S   UNL     1      -9.587  15.353   9.009  1.00  0.00     0.124 S 
ATOM     97  O   UNL     1      -8.694  15.627  10.132  1.00  0.00    -0.237 OA
ATOM     98  O   UNL     1      -9.919  16.505   8.174  1.00  0.00    -0.237 OA
ATOM     99  O   UNL     1     -10.709  14.465   9.308  1.00  0.00    -0.744 OA
ENDBRANCH  95  96
ENDBRANCH  69  90
ENDBRANCH  43  44
ENDBRANCH  36  38
ENDBRANCH  35  36
ENDBRANCH  34  35
ENDBRANCH  33  34
ENDBRANCH  32  33
ENDBRANCH  31  32
ENDBRANCH  30  31
ENDBRANCH   1  30
TORSDOF 24
