REMARK SMILES NC(=O)c1c(F)cccc1N1CCC[C@H](CC(=O)OCCOCCOCCOC(=O)c2ccc(-c3c4nc(c(-c5ccc(S(=O)(=O)[O-])cc5)c5ccc([nH]5)c(-c5ccc(S(=O)(=O)[O-])cc5)c5nc(c(-c6ccc(S(=O)(=O)[O-])cc6)c6ccc3[nH]6)C=C5)C=C4)cc2)C1
REMARK SMILES IDX 23 1 22 2 21 3 20 4 19 5 17 6 18 7 16 8 15 9 11 10 12 11
REMARK SMILES IDX 91 12 13 13 14 14 10 15 4 16 5 17 6 18 7 19 9 20 8 21 2 22
REMARK SMILES IDX 1 23 3 26 24 27 25 28 26 29 27 30 28 31 29 32 30 33 31 34
REMARK SMILES IDX 32 35 90 36 33 37 89 38 34 39 35 40 36 41 83 42 37 43 88 44
REMARK SMILES IDX 82 45 84 46 38 47 87 48 81 49 80 50 39 52 69 53 50 54 68 55
REMARK SMILES IDX 51 56 54 57 67 58 85 59 52 60 53 61 66 63 86 64 55 65 40 66
REMARK SMILES IDX 41 67 49 68 42 69 48 70 43 71 44 72 45 73 46 74 47 75 70 76
REMARK SMILES IDX 71 77 79 78 72 79 78 80 73 81 74 82 75 83 76 84 77 85 56 86
REMARK SMILES IDX 57 87 65 88 58 89 64 90 59 91 60 92 61 93 62 94 63 95
REMARK H PARENT 1 24 1 25 84 51 54 62
REMARK Flexibility Score: inf
ROOT
ATOM      1  C   UNL     1       0.883   8.511  -1.795  1.00  0.00     0.188 C 
ENDROOT
BRANCH   1   2
ATOM      2  O   UNL     1       0.918   9.607  -2.704  1.00  0.00    -0.376 OA
BRANCH   2   3
ATOM      3  C   UNL     1      -0.158   9.700  -3.638  1.00  0.00     0.202 C 
BRANCH   3   4
ATOM      4  C   UNL     1      -0.297   8.535  -4.628  1.00  0.00     0.261 C 
BRANCH   4   5
ATOM      5  O   UNL     1      -0.417   7.258  -3.974  1.00  0.00    -0.463 OA
BRANCH   5   6
ATOM      6  C   UNL     1       0.418   6.292  -4.430  1.00  0.00     0.306 C 
ATOM      7  O   UNL     1       1.113   6.388  -5.436  1.00  0.00    -0.252 OA
BRANCH   6   8
ATOM      8  C   UNL     1       0.535   5.103  -3.505  1.00  0.00     0.128 C 
BRANCH   8   9
ATOM      9  C   UNL     1      -0.653   4.669  -2.621  1.00  0.00     0.019 C 
ATOM     10  N   UNL     1      -0.404   2.317  -3.212  1.00  0.00    -0.371 N 
ATOM     11  C   UNL     1      -1.639   2.220  -3.979  1.00  0.00     0.116 C 
ATOM     12  C   UNL     1      -0.370   3.244  -2.081  1.00  0.00     0.120 C 
ATOM     13  C   UNL     1      -2.061   3.612  -4.457  1.00  0.00     0.022 C 
ATOM     14  C   UNL     1      -2.019   4.643  -3.328  1.00  0.00     0.008 C 
BRANCH  10  15
ATOM     15  C   UNL     1       0.635   1.430  -3.436  1.00  0.00     0.053 A 
ATOM     16  C   UNL     1       1.085   0.467  -2.510  1.00  0.00     0.098 A 
ATOM     17  C   UNL     1       2.232  -0.288  -2.793  1.00  0.00     0.138 A 
ATOM     18  F   UNL     1       2.676  -1.218  -1.931  1.00  0.00    -0.206 F 
ATOM     19  C   UNL     1       2.950  -0.107  -3.972  1.00  0.00     0.040 A 
ATOM     20  C   UNL     1       1.355   1.562  -4.642  1.00  0.00     0.027 A 
ATOM     21  C   UNL     1       2.507   0.818  -4.905  1.00  0.00     0.005 A 
BRANCH  16  22
ATOM     22  C   UNL     1       0.333   0.178  -1.265  1.00  0.00     0.253 C 
ATOM     23  N   UNL     1       1.071   0.001  -0.126  1.00  0.00    -0.365 N 
ATOM     24  H   UNL     1       0.620  -0.194   0.727  1.00  0.00     0.159 HD
ATOM     25  H   UNL     1       2.052   0.068  -0.160  1.00  0.00     0.159 HD
ATOM     26  O   UNL     1      -0.889   0.091  -1.235  1.00  0.00    -0.269 OA
ENDBRANCH  16  22
ENDBRANCH  10  15
ENDBRANCH   8   9
ENDBRANCH   6   8
ENDBRANCH   5   6
ENDBRANCH   4   5
ENDBRANCH   3   4
ENDBRANCH   2   3
ENDBRANCH   1   2
BRANCH   1  27
ATOM     27  C   UNL     1      -0.351   8.419  -0.896  1.00  0.00     0.188 C 
BRANCH  27  28
ATOM     28  O   UNL     1      -1.609   8.498  -1.558  1.00  0.00    -0.376 OA
BRANCH  28  29
ATOM     29  C   UNL     1      -2.765   8.375  -0.723  1.00  0.00     0.202 C 
BRANCH  29  30
ATOM     30  C   UNL     1      -2.826   9.305   0.508  1.00  0.00     0.261 C 
BRANCH  30  31
ATOM     31  O   UNL     1      -1.775   9.112   1.479  1.00  0.00    -0.460 OA
BRANCH  31  32
ATOM     32  C   UNL     1      -1.570   7.858   1.945  1.00  0.00     0.338 C 
ATOM     33  O   UNL     1      -2.329   6.911   1.825  1.00  0.00    -0.246 OA
BRANCH  32  34
ATOM     34  C   UNL     1      -0.151   7.742   2.385  1.00  0.00     0.060 A 
ATOM     35  C   UNL     1       0.525   6.541   2.123  1.00  0.00     0.016 A 
ATOM     36  C   UNL     1       0.537   8.809   2.972  1.00  0.00     0.016 A 
ATOM     37  C   UNL     1       1.866   6.388   2.491  1.00  0.00     0.010 A 
ATOM     38  C   UNL     1       1.877   8.652   3.349  1.00  0.00     0.010 A 
ATOM     39  C   UNL     1       2.539   7.428   3.145  1.00  0.00    -0.014 A 
BRANCH  39  40
ATOM     40  C   UNL     1       3.846   7.167   3.805  1.00  0.00     0.031 A 
ATOM     41  C   UNL     1       3.845   6.854   5.279  1.00  0.00     0.074 A 
ATOM     42  C   UNL     1       5.010   7.175   3.128  1.00  0.00     0.049 A 
ATOM     43  N   UNL     1       4.852   6.610   6.078  1.00  0.00    -0.248 NA
ATOM     44  C   UNL     1       2.529   6.809   5.938  1.00  0.00     0.031 C 
ATOM     45  C   UNL     1       5.159   7.415   1.694  1.00  0.00     0.029 A 
ATOM     46  N   UNL     1       6.296   6.975   3.571  1.00  0.00    -0.354 N 
ATOM     47  C   UNL     1       4.293   6.390   7.332  1.00  0.00     0.074 A 
ATOM     48  C   UNL     1       2.863   6.559   7.194  1.00  0.00     0.031 C 
ATOM     49  C   UNL     1       6.466   7.354   1.376  1.00  0.00     0.029 A 
ATOM     50  C   UNL     1       7.249   7.103   2.587  1.00  0.00     0.049 A 
ATOM     51  H   UNL     1       6.515   6.760   4.506  1.00  0.00     0.167 HD
ATOM     52  C   UNL     1       4.908   6.071   8.495  1.00  0.00     0.031 A 
ATOM     53  C   UNL     1       8.595   7.045   2.656  1.00  0.00     0.031 A 
ATOM     54  C   UNL     1       6.330   5.920   8.647  1.00  0.00     0.049 A 
ATOM     55  C   UNL     1       9.266   6.773   3.981  1.00  0.00     0.074 A 
ATOM     56  C   UNL     1       7.040   5.588   9.788  1.00  0.00     0.029 A 
ATOM     57  N   UNL     1       7.259   6.104   7.636  1.00  0.00    -0.354 N 
ATOM     58  N   UNL     1       8.721   6.540   5.152  1.00  0.00    -0.248 NA
ATOM     59  C   UNL     1      10.738   6.748   3.991  1.00  0.00     0.031 C 
ATOM     60  C   UNL     1       8.404   5.630   9.480  1.00  0.00     0.029 A 
ATOM     61  C   UNL     1       8.539   5.922   8.133  1.00  0.00     0.049 A 
ATOM     62  H   UNL     1       7.042   6.331   6.703  1.00  0.00     0.167 HD
ATOM     63  C   UNL     1       9.781   6.313   6.027  1.00  0.00     0.074 A 
ATOM     64  C   UNL     1      10.997   6.424   5.250  1.00  0.00     0.031 C 
ATOM     65  C   UNL     1       9.748   6.033   7.355  1.00  0.00     0.031 A 
BRANCH  52  66
ATOM     66  C   UNL     1       4.037   5.904   9.711  1.00  0.00    -0.014 A 
ATOM     67  C   UNL     1       3.178   4.798   9.849  1.00  0.00     0.010 A 
ATOM     68  C   UNL     1       4.096   6.859  10.743  1.00  0.00     0.010 A 
ATOM     69  C   UNL     1       2.362   4.674  10.976  1.00  0.00     0.020 A 
ATOM     70  C   UNL     1       3.304   6.722  11.885  1.00  0.00     0.020 A 
ATOM     71  C   UNL     1       2.428   5.640  11.986  1.00  0.00     0.054 A 
BRANCH  71  72
ATOM     72  S   UNL     1       1.367   5.447  13.443  1.00  0.00     0.124 S 
ATOM     73  O   UNL     1       0.049   5.767  12.899  1.00  0.00    -0.237 OA
ATOM     74  O   UNL     1       1.573   4.048  13.807  1.00  0.00    -0.237 OA
ATOM     75  O   UNL     1       1.901   6.421  14.393  1.00  0.00    -0.744 OA
ENDBRANCH  71  72
ENDBRANCH  52  66
BRANCH  53  76
ATOM     76  C   UNL     1       9.417   7.269   1.432  1.00  0.00    -0.014 A 
ATOM     77  C   UNL     1      10.156   6.221   0.858  1.00  0.00     0.010 A 
ATOM     78  C   UNL     1       9.476   8.546   0.844  1.00  0.00     0.010 A 
ATOM     79  C   UNL     1      10.949   6.447  -0.273  1.00  0.00     0.020 A 
ATOM     80  C   UNL     1      10.243   8.770  -0.303  1.00  0.00     0.020 A 
ATOM     81  C   UNL     1      10.983   7.720  -0.849  1.00  0.00     0.054 A 
BRANCH  81  82
ATOM     82  S   UNL     1      11.973   7.976  -2.349  1.00  0.00     0.124 S 
ATOM     83  O   UNL     1      13.335   7.933  -1.826  1.00  0.00    -0.237 OA
ATOM     84  O   UNL     1      11.578   6.843  -3.182  1.00  0.00    -0.237 OA
ATOM     85  O   UNL     1      11.528   9.281  -2.833  1.00  0.00    -0.744 OA
ENDBRANCH  81  82
ENDBRANCH  53  76
BRANCH  65  86
ATOM     86  C   UNL     1      11.059   5.784   8.057  1.00  0.00    -0.014 A 
ATOM     87  C   UNL     1      11.964   6.828   8.316  1.00  0.00     0.010 A 
ATOM     88  C   UNL     1      11.360   4.490   8.522  1.00  0.00     0.010 A 
ATOM     89  C   UNL     1      13.158   6.577   9.000  1.00  0.00     0.020 A 
ATOM     90  C   UNL     1      12.539   4.240   9.231  1.00  0.00     0.020 A 
ATOM     91  C   UNL     1      13.438   5.284   9.453  1.00  0.00     0.054 A 
BRANCH  91  92
ATOM     92  S   UNL     1      14.974   4.992  10.374  1.00  0.00     0.124 S 
ATOM     93  O   UNL     1      15.981   5.070   9.319  1.00  0.00    -0.237 OA
ATOM     94  O   UNL     1      14.986   6.092  11.335  1.00  0.00    -0.237 OA
ATOM     95  O   UNL     1      14.783   3.666  10.956  1.00  0.00    -0.744 OA
ENDBRANCH  91  92
ENDBRANCH  65  86
ENDBRANCH  39  40
ENDBRANCH  32  34
ENDBRANCH  31  32
ENDBRANCH  30  31
ENDBRANCH  29  30
ENDBRANCH  28  29
ENDBRANCH  27  28
ENDBRANCH   1  27
TORSDOF 23
