REMARK SMILES CC(=O)Nc1cnc(N(C)CCc2cn[nH]c2)c(C(=O)OCCOCCOCCOC(=O)c2ccc(-c3c4nc(c(-c5ccc(S(=O)(=O)[O-])cc5)c5ccc([nH]5)c(-c5ccc(S(=O)(=O)[O-])cc5)c5nc(c(-c6ccc(S(=O)(=O)[O-])cc6)c6ccc3[nH]6)C=C5)C=C4)cc2)c1
REMARK SMILES IDX 25 1 24 2 23 3 22 4 21 5 19 6 20 7 18 8 5 9 6 10 93 11 7 12
REMARK SMILES IDX 8 13 4 14 1 15 2 16 3 17 9 19 10 20 11 21 12 22 13 23 14 24
REMARK SMILES IDX 17 25 15 26 16 27 26 29 27 30 28 31 29 32 30 33 31 34 32 35
REMARK SMILES IDX 33 36 34 37 92 38 35 39 91 40 36 41 37 42 38 43 85 44 39 45
REMARK SMILES IDX 90 46 84 47 86 48 40 49 89 50 83 51 82 52 41 54 71 55 52 56
REMARK SMILES IDX 70 57 53 58 56 59 69 60 87 61 54 62 55 63 68 65 88 66 57 67
REMARK SMILES IDX 42 68 43 69 51 70 44 71 50 72 45 73 46 74 47 75 48 76 49 77
REMARK SMILES IDX 72 78 73 79 81 80 74 81 80 82 75 83 76 84 77 85 78 86 79 87
REMARK SMILES IDX 58 88 59 89 67 90 60 91 66 92 61 93 62 94 63 95 64 96 65 97
REMARK H PARENT 4 18 16 28 86 53 56 64
REMARK Flexibility Score: inf
ROOT
ATOM      1  C   UNL     1       7.474   0.493  -2.925  1.00  0.00     0.188 C 
ENDROOT
BRANCH   1   2
ATOM      2  O   UNL     1       8.153   0.841  -1.730  1.00  0.00    -0.376 OA
BRANCH   2   3
ATOM      3  C   UNL     1       7.516   1.767  -0.873  1.00  0.00     0.202 C 
BRANCH   3   4
ATOM      4  C   UNL     1       6.247   1.269  -0.154  1.00  0.00     0.261 C 
BRANCH   4   5
ATOM      5  O   UNL     1       5.182   0.707  -0.953  1.00  0.00    -0.460 OA
BRANCH   5   6
ATOM      6  C   UNL     1       4.724   1.506  -1.950  1.00  0.00     0.342 C 
ATOM      7  O   UNL     1       5.248   2.582  -2.177  1.00  0.00    -0.246 OA
BRANCH   6   8
ATOM      8  C   UNL     1       3.595   0.889  -2.719  1.00  0.00     0.104 A 
ATOM      9  C   UNL     1       1.899  -0.873  -2.803  1.00  0.00     0.060 A 
ATOM     10  C   UNL     1       1.581  -0.415  -4.057  1.00  0.00     0.139 A 
ATOM     11  C   UNL     1       2.994  -0.281  -2.185  1.00  0.00     0.047 A 
ATOM     12  N   UNL     1       2.136   0.691  -4.587  1.00  0.00    -0.236 NA
ATOM     13  C   UNL     1       3.055   1.433  -3.897  1.00  0.00     0.143 A 
BRANCH   9  14
ATOM     14  N   UNL     1       1.091  -1.853  -2.207  1.00  0.00    -0.325 N 
ATOM     15  C   UNL     1       0.832  -0.689  -0.025  1.00  0.00     0.114 C 
ATOM     16  C   UNL     1       0.592  -1.870  -0.930  1.00  0.00     0.221 C 
ATOM     17  O   UNL     1      -0.131  -2.801  -0.572  1.00  0.00    -0.275 OA
ATOM     18  H   UNL     1       0.852  -2.621  -2.775  1.00  0.00     0.169 HD
ENDBRANCH   9  14
BRANCH  13  19
ATOM     19  N   UNL     1       3.260   2.678  -4.449  1.00  0.00    -0.359 N 
ATOM     20  C   UNL     1       3.146   2.733  -5.918  1.00  0.00     0.145 C 
BRANCH  19  21
ATOM     21  C   UNL     1       3.732   3.918  -3.802  1.00  0.00     0.122 C 
BRANCH  21  22
ATOM     22  C   UNL     1       2.906   4.514  -2.634  1.00  0.00     0.060 C 
BRANCH  22  23
ATOM     23  C   UNL     1       2.875   3.929  -1.245  1.00  0.00    -0.008 A 
ATOM     24  C   UNL     1       3.371   4.525  -0.052  1.00  0.00     0.138 A 
ATOM     25  C   UNL     1       2.251   2.795  -0.765  1.00  0.00     0.108 A 
ATOM     26  N   UNL     1       3.215   3.756   1.031  1.00  0.00    -0.184 NA
ATOM     27  N   UNL     1       2.583   2.678   0.553  1.00  0.00    -0.285 N 
ATOM     28  H   UNL     1       2.379   1.882   1.096  1.00  0.00     0.189 HD
ENDBRANCH  22  23
ENDBRANCH  21  22
ENDBRANCH  19  21
ENDBRANCH  13  19
ENDBRANCH   6   8
ENDBRANCH   5   6
ENDBRANCH   4   5
ENDBRANCH   3   4
ENDBRANCH   2   3
ENDBRANCH   1   2
BRANCH   1  29
ATOM     29  C   UNL     1       6.843  -0.914  -2.869  1.00  0.00     0.188 C 
BRANCH  29  30
ATOM     30  O   UNL     1       7.334  -1.858  -1.927  1.00  0.00    -0.376 OA
BRANCH  30  31
ATOM     31  C   UNL     1       8.734  -1.896  -1.694  1.00  0.00     0.202 C 
BRANCH  31  32
ATOM     32  C   UNL     1       9.685  -2.112  -2.889  1.00  0.00     0.261 C 
BRANCH  32  33
ATOM     33  O   UNL     1       9.490  -1.255  -4.037  1.00  0.00    -0.460 OA
BRANCH  33  34
ATOM     34  C   UNL     1       8.896  -1.811  -5.129  1.00  0.00     0.338 C 
ATOM     35  O   UNL     1       8.578  -2.982  -5.257  1.00  0.00    -0.246 OA
BRANCH  34  36
ATOM     36  C   UNL     1       8.472  -0.756  -6.096  1.00  0.00     0.060 A 
ATOM     37  C   UNL     1       7.106  -0.626  -6.412  1.00  0.00     0.016 A 
ATOM     38  C   UNL     1       9.399   0.065  -6.737  1.00  0.00     0.016 A 
ATOM     39  C   UNL     1       6.670   0.302  -7.368  1.00  0.00     0.010 A 
ATOM     40  C   UNL     1       8.964   0.964  -7.726  1.00  0.00     0.010 A 
ATOM     41  C   UNL     1       7.602   1.073  -8.070  1.00  0.00    -0.014 A 
BRANCH  41  42
ATOM     42  C   UNL     1       7.208   1.823  -9.299  1.00  0.00     0.031 A 
ATOM     43  C   UNL     1       7.408   1.152 -10.636  1.00  0.00     0.074 A 
ATOM     44  C   UNL     1       6.705   3.073  -9.261  1.00  0.00     0.049 A 
ATOM     45  N   UNL     1       7.323   1.655 -11.842  1.00  0.00    -0.248 NA
ATOM     46  C   UNL     1       7.753  -0.279 -10.603  1.00  0.00     0.031 C 
ATOM     47  C   UNL     1       6.375   3.825  -8.052  1.00  0.00     0.029 A 
ATOM     48  N   UNL     1       6.404   3.942 -10.287  1.00  0.00    -0.354 N 
ATOM     49  C   UNL     1       7.616   0.607 -12.710  1.00  0.00     0.074 A 
ATOM     50  C   UNL     1       7.899  -0.552 -11.892  1.00  0.00     0.031 C 
ATOM     51  C   UNL     1       5.947   5.052  -8.404  1.00  0.00     0.029 A 
ATOM     52  C   UNL     1       6.021   5.194  -9.859  1.00  0.00     0.049 A 
ATOM     53  H   UNL     1       6.457   3.692 -11.237  1.00  0.00     0.167 HD
ATOM     54  C   UNL     1       7.649   0.605 -14.064  1.00  0.00     0.031 A 
ATOM     55  C   UNL     1       5.803   6.333 -10.554  1.00  0.00     0.031 A 
ATOM     56  C   UNL     1       7.396   1.758 -14.887  1.00  0.00     0.049 A 
ATOM     57  C   UNL     1       5.979   6.341 -12.058  1.00  0.00     0.074 A 
ATOM     58  C   UNL     1       7.438   1.855 -16.267  1.00  0.00     0.029 A 
ATOM     59  N   UNL     1       7.053   3.012 -14.410  1.00  0.00    -0.354 N 
ATOM     60  N   UNL     1       6.271   5.349 -12.864  1.00  0.00    -0.248 NA
ATOM     61  C   UNL     1       5.799   7.632 -12.744  1.00  0.00     0.031 C 
ATOM     62  C   UNL     1       7.176   3.181 -16.622  1.00  0.00     0.029 A 
ATOM     63  C   UNL     1       6.902   3.894 -15.467  1.00  0.00     0.049 A 
ATOM     64  H   UNL     1       6.935   3.243 -13.460  1.00  0.00     0.167 HD
ATOM     65  C   UNL     1       6.276   5.890 -14.149  1.00  0.00     0.074 A 
ATOM     66  C   UNL     1       5.937   7.289 -14.017  1.00  0.00     0.031 C 
ATOM     67  C   UNL     1       6.544   5.283 -15.332  1.00  0.00     0.031 A 
BRANCH  54  68
ATOM     68  C   UNL     1       7.999  -0.689 -14.752  1.00  0.00    -0.014 A 
ATOM     69  C   UNL     1       7.089  -1.761 -14.780  1.00  0.00     0.010 A 
ATOM     70  C   UNL     1       9.224  -0.812 -15.434  1.00  0.00     0.010 A 
ATOM     71  C   UNL     1       7.408  -2.941 -15.457  1.00  0.00     0.020 A 
ATOM     72  C   UNL     1       9.534  -1.979 -16.137  1.00  0.00     0.020 A 
ATOM     73  C   UNL     1       8.627  -3.041 -16.134  1.00  0.00     0.054 A 
BRANCH  73  74
ATOM     74  S   UNL     1       8.989  -4.568 -17.043  1.00  0.00     0.124 S 
ATOM     75  O   UNL     1       9.184  -5.526 -15.957  1.00  0.00    -0.237 OA
ATOM     76  O   UNL     1       7.780  -4.759 -17.839  1.00  0.00    -0.237 OA
ATOM     77  O   UNL     1      10.191  -4.242 -17.807  1.00  0.00    -0.744 OA
ENDBRANCH  73  74
ENDBRANCH  54  68
BRANCH  55  78
ATOM     78  C   UNL     1       5.459   7.605  -9.848  1.00  0.00    -0.014 A 
ATOM     79  C   UNL     1       4.227   8.246 -10.077  1.00  0.00     0.010 A 
ATOM     80  C   UNL     1       6.399   8.227  -9.005  1.00  0.00     0.010 A 
ATOM     81  C   UNL     1       3.960   9.498  -9.512  1.00  0.00     0.020 A 
ATOM     82  C   UNL     1       6.121   9.460  -8.408  1.00  0.00     0.020 A 
ATOM     83  C   UNL     1       4.910  10.098  -8.683  1.00  0.00     0.054 A 
BRANCH  83  84
ATOM     84  S   UNL     1       4.539  11.718  -7.952  1.00  0.00     0.124 S 
ATOM     85  O   UNL     1       4.653  12.604  -9.106  1.00  0.00    -0.237 OA
ATOM     86  O   UNL     1       3.189  11.524  -7.431  1.00  0.00    -0.237 OA
ATOM     87  O   UNL     1       5.575  11.878  -6.934  1.00  0.00    -0.744 OA
ENDBRANCH  83  84
ENDBRANCH  55  78
BRANCH  67  88
ATOM     88  C   UNL     1       6.431   6.105 -16.594  1.00  0.00    -0.014 A 
ATOM     89  C   UNL     1       7.368   7.106 -16.905  1.00  0.00     0.010 A 
ATOM     90  C   UNL     1       5.406   5.821 -17.517  1.00  0.00     0.010 A 
ATOM     91  C   UNL     1       7.266   7.826 -18.100  1.00  0.00     0.020 A 
ATOM     92  C   UNL     1       5.319   6.517 -18.727  1.00  0.00     0.020 A 
ATOM     93  C   UNL     1       6.244   7.524 -19.005  1.00  0.00     0.054 A 
BRANCH  93  94
ATOM     94  S   UNL     1       6.168   8.437 -20.572  1.00  0.00     0.124 S 
ATOM     95  O   UNL     1       5.735   9.761 -20.134  1.00  0.00    -0.237 OA
ATOM     96  O   UNL     1       7.543   8.354 -21.057  1.00  0.00    -0.237 OA
ATOM     97  O   UNL     1       5.189   7.692 -21.361  1.00  0.00    -0.744 OA
ENDBRANCH  93  94
ENDBRANCH  67  88
ENDBRANCH  41  42
ENDBRANCH  34  36
ENDBRANCH  33  34
ENDBRANCH  32  33
ENDBRANCH  31  32
ENDBRANCH  30  31
ENDBRANCH  29  30
ENDBRANCH   1  29
TORSDOF 25
