REMARK SMILES CC(C)(CC(=O)Nc1sc2c(c1C#N)CCCCCC2)CC(=O)OCCOCCOCCOC(=O)c1ccc(-c2c3nc(c(-c4ccc(S(=O)(=O)[O-])cc4)c4ccc([nH]4)c(-c4ccc(S(=O)(=O)[O-])cc4)c4nc(c(-c5ccc(S(=O)(=O)[O-])cc5)c5ccc2[nH]5)C=C4)C=C3)cc1
REMARK SMILES IDX 26 1 25 2 24 3 22 4 23 5 21 6 2 7 1 8 3 9 4 10 5 11 6 12
REMARK SMILES IDX 7 13 8 15 9 16 12 17 10 18 11 19 13 20 14 21 20 22 19 23
REMARK SMILES IDX 15 25 16 26 17 27 18 28 27 30 28 31 29 32 30 33 31 34 32 35
REMARK SMILES IDX 33 36 34 37 35 38 36 39 37 40 95 41 38 42 94 43 39 44 40 45
REMARK SMILES IDX 41 46 88 47 42 48 93 49 87 50 89 51 43 52 92 53 86 54 85 55
REMARK SMILES IDX 44 57 74 58 55 59 73 60 56 61 59 62 72 63 90 64 57 65 58 66
REMARK SMILES IDX 71 68 91 69 60 70 45 71 46 72 54 73 47 74 53 75 48 76 49 77
REMARK SMILES IDX 50 78 51 79 52 80 75 81 76 82 84 83 77 84 83 85 78 86 79 87
REMARK SMILES IDX 80 88 81 89 82 90 61 91 62 92 70 93 63 94 69 95 64 96 65 97
REMARK SMILES IDX 66 98 67 99 68 100
REMARK H PARENT 7 14 89 56 59 67
REMARK Flexibility Score: 90.00
ROOT
ATOM      1  C   UNL     1      -1.037   0.178  -4.625  1.00  0.00     0.202 C 
ENDROOT
BRANCH   1   2
ATOM      2  C   UNL     1      -0.948  -1.325  -4.408  1.00  0.00     0.261 C 
BRANCH   2   3
ATOM      3  O   UNL     1      -0.551  -1.674  -3.067  1.00  0.00    -0.463 OA
BRANCH   3   4
ATOM      4  C   UNL     1       0.593  -2.372  -2.937  1.00  0.00     0.306 C 
ATOM      5  O   UNL     1       1.375  -2.605  -3.852  1.00  0.00    -0.252 OA
BRANCH   4   6
ATOM      6  C   UNL     1       0.755  -3.008  -1.574  1.00  0.00     0.129 C 
BRANCH   6   7
ATOM      7  C   UNL     1       0.487  -2.265  -0.234  1.00  0.00    -0.016 C 
ATOM      8  C   UNL     1       1.522  -1.138  -0.072  1.00  0.00     0.012 C 
ATOM      9  C   UNL     1       0.878  -3.316   0.863  1.00  0.00     0.012 C 
BRANCH   7  10
ATOM     10  C   UNL     1      -1.027  -1.952   0.066  1.00  0.00     0.107 C 
BRANCH  10  11
ATOM     11  C   UNL     1      -1.829  -0.747  -0.442  1.00  0.00     0.225 C 
ATOM     12  O   UNL     1      -2.605  -0.920  -1.396  1.00  0.00    -0.275 OA
ATOM     13  N   UNL     1      -1.851   0.495   0.126  1.00  0.00    -0.317 N 
ATOM     14  H   UNL     1      -2.523   1.097  -0.268  1.00  0.00     0.170 HD
BRANCH  13  15
ATOM     15  C   UNL     1      -1.121   1.073   1.140  1.00  0.00     0.114 A 
ATOM     16  S   UNL     1      -0.171   0.152   2.197  1.00  0.00    -0.121 S 
ATOM     17  C   UNL     1      -1.027   2.395   1.559  1.00  0.00     0.090 A 
ATOM     18  C   UNL     1       0.963   1.444   2.227  1.00  0.00     0.011 A 
ATOM     19  C   UNL     1       0.180   2.585   2.348  1.00  0.00    -0.014 A 
BRANCH  17  20
ATOM     20  C   UNL     1      -1.935   3.426   1.159  1.00  0.00     0.103 C 
ATOM     21  N   UNL     1      -2.708   4.235   0.819  1.00  0.00    -0.192 NA
ENDBRANCH  17  20
BRANCH  18  22
ATOM     22  C   UNL     1       2.427   1.156   2.349  1.00  0.00     0.047 C 
BRANCH  22  23
ATOM     23  C   UNL     1       3.261   2.119   3.175  1.00  0.00     0.006 CG0
ATOM     24  G   UNL     1       2.923   2.141   4.662  1.00  0.00     0.000 G0
ENDBRANCH  22  23
ENDBRANCH  18  22
BRANCH  19  25
ATOM     25  C   UNL     1       0.599   3.800   3.110  1.00  0.00     0.038 C 
BRANCH  25  26
ATOM     26  C   UNL     1       0.655   3.466   4.615  1.00  0.00     0.005 C 
BRANCH  26  27
ATOM     27  C   UNL     1       1.448   2.220   5.059  1.00  0.00     0.000 C 
BRANCH  27  28
ATOM     28  C   UNL     1       2.923   2.141   4.662  1.00  0.00     0.000 CG0
ATOM     29  G   UNL     1       3.261   2.119   3.175  1.00  0.00     0.000 G0
ENDBRANCH  27  28
ENDBRANCH  26  27
ENDBRANCH  25  26
ENDBRANCH  19  25
ENDBRANCH  13  15
ENDBRANCH  10  11
ENDBRANCH   7  10
ENDBRANCH   6   7
ENDBRANCH   4   6
ENDBRANCH   3   4
ENDBRANCH   2   3
ENDBRANCH   1   2
BRANCH   1  30
ATOM     30  O   UNL     1       0.190   0.874  -4.803  1.00  0.00    -0.376 OA
BRANCH  30  31
ATOM     31  C   UNL     1       1.058   1.006  -3.691  1.00  0.00     0.188 C 
BRANCH  31  32
ATOM     32  C   UNL     1       0.450   1.237  -2.307  1.00  0.00     0.188 C 
BRANCH  32  33
ATOM     33  O   UNL     1      -0.823   1.830  -2.080  1.00  0.00    -0.376 OA
BRANCH  33  34
ATOM     34  C   UNL     1      -1.291   2.909  -2.872  1.00  0.00     0.202 C 
BRANCH  34  35
ATOM     35  C   UNL     1      -0.801   4.263  -2.429  1.00  0.00     0.261 C 
BRANCH  35  36
ATOM     36  O   UNL     1       0.612   4.226  -2.473  1.00  0.00    -0.460 OA
BRANCH  36  37
ATOM     37  C   UNL     1       1.199   4.051  -1.273  1.00  0.00     0.338 C 
ATOM     38  O   UNL     1       0.658   3.918  -0.193  1.00  0.00    -0.246 OA
BRANCH  37  39
ATOM     39  C   UNL     1       2.652   4.182  -1.447  1.00  0.00     0.060 A 
ATOM     40  C   UNL     1       3.361   4.135  -0.247  1.00  0.00     0.016 A 
ATOM     41  C   UNL     1       3.004   5.055  -2.469  1.00  0.00     0.016 A 
ATOM     42  C   UNL     1       4.001   5.288   0.143  1.00  0.00     0.010 A 
ATOM     43  C   UNL     1       3.678   6.178  -2.096  1.00  0.00     0.010 A 
ATOM     44  C   UNL     1       4.011   6.360  -0.750  1.00  0.00    -0.014 A 
BRANCH  44  45
ATOM     45  C   UNL     1       4.672   7.603  -0.410  1.00  0.00     0.031 A 
ATOM     46  C   UNL     1       6.119   7.408  -0.660  1.00  0.00     0.074 A 
ATOM     47  C   UNL     1       4.034   8.762  -0.143  1.00  0.00     0.049 A 
ATOM     48  N   UNL     1       6.982   6.979   0.209  1.00  0.00    -0.248 NA
ATOM     49  C   UNL     1       6.559   7.224  -2.065  1.00  0.00     0.031 C 
ATOM     50  C   UNL     1       2.602   9.068  -0.082  1.00  0.00     0.029 A 
ATOM     51  N   UNL     1       4.590   9.991   0.036  1.00  0.00    -0.354 N 
ATOM     52  C   UNL     1       8.133   6.812  -0.545  1.00  0.00     0.074 A 
ATOM     53  C   UNL     1       7.677   6.521  -1.873  1.00  0.00     0.031 C 
ATOM     54  C   UNL     1       2.423  10.414  -0.142  1.00  0.00     0.029 A 
ATOM     55  C   UNL     1       3.718  11.069  -0.141  1.00  0.00     0.049 A 
ATOM     56  H   UNL     1       5.538  10.112   0.273  1.00  0.00     0.167 HD
ATOM     57  C   UNL     1       9.280   7.467  -0.207  1.00  0.00     0.031 A 
ATOM     58  C   UNL     1       4.096  12.363  -0.372  1.00  0.00     0.031 A 
ATOM     59  C   UNL     1       9.219   7.943   1.155  1.00  0.00     0.049 A 
ATOM     60  C   UNL     1       5.513  12.469   0.091  1.00  0.00     0.074 A 
ATOM     61  C   UNL     1       8.922   7.348   2.367  1.00  0.00     0.029 A 
ATOM     62  N   UNL     1       9.004   9.293   1.325  1.00  0.00    -0.354 N 
ATOM     63  N   UNL     1       5.847  12.336   1.348  1.00  0.00    -0.248 NA
ATOM     64  C   UNL     1       6.551  12.123  -0.874  1.00  0.00     0.031 C 
ATOM     65  C   UNL     1       8.092   8.287   3.043  1.00  0.00     0.029 A 
ATOM     66  C   UNL     1       8.037   9.456   2.284  1.00  0.00     0.049 A 
ATOM     67  H   UNL     1       9.465  10.016   0.841  1.00  0.00     0.167 HD
ATOM     68  C   UNL     1       6.935  11.473   1.332  1.00  0.00     0.074 A 
ATOM     69  C   UNL     1       7.346  11.402  -0.074  1.00  0.00     0.031 C 
ATOM     70  C   UNL     1       7.192  10.629   2.376  1.00  0.00     0.031 A 
BRANCH  57  71
ATOM     71  C   UNL     1      10.192   8.092  -1.242  1.00  0.00    -0.014 A 
ATOM     72  C   UNL     1      11.412   8.638  -0.813  1.00  0.00     0.010 A 
ATOM     73  C   UNL     1       9.807   8.379  -2.574  1.00  0.00     0.010 A 
ATOM     74  C   UNL     1      12.181   9.446  -1.660  1.00  0.00     0.020 A 
ATOM     75  C   UNL     1      10.581   9.146  -3.439  1.00  0.00     0.020 A 
ATOM     76  C   UNL     1      11.760   9.690  -2.969  1.00  0.00     0.054 A 
BRANCH  76  77
ATOM     77  S   UNL     1      12.752  10.741  -4.049  1.00  0.00     0.124 S 
ATOM     78  O   UNL     1      12.664  12.032  -3.376  1.00  0.00    -0.237 OA
ATOM     79  O   UNL     1      14.054  10.081  -3.997  1.00  0.00    -0.237 OA
ATOM     80  O   UNL     1      12.066  10.653  -5.337  1.00  0.00    -0.744 OA
ENDBRANCH  76  77
ENDBRANCH  57  71
BRANCH  58  81
ATOM     81  C   UNL     1       3.495  13.338  -1.341  1.00  0.00    -0.014 A 
ATOM     82  C   UNL     1       3.984  14.657  -1.487  1.00  0.00     0.010 A 
ATOM     83  C   UNL     1       2.615  12.878  -2.341  1.00  0.00     0.010 A 
ATOM     84  C   UNL     1       3.672  15.440  -2.623  1.00  0.00     0.020 A 
ATOM     85  C   UNL     1       2.298  13.647  -3.470  1.00  0.00     0.020 A 
ATOM     86  C   UNL     1       2.853  14.913  -3.625  1.00  0.00     0.054 A 
BRANCH  86  87
ATOM     87  S   UNL     1       2.627  15.809  -5.197  1.00  0.00     0.124 S 
ATOM     88  O   UNL     1       1.794  16.940  -4.799  1.00  0.00    -0.237 OA
ATOM     89  O   UNL     1       3.997  16.135  -5.579  1.00  0.00    -0.237 OA
ATOM     90  O   UNL     1       1.966  14.828  -6.058  1.00  0.00    -0.744 OA
ENDBRANCH  86  87
ENDBRANCH  58  81
BRANCH  70  91
ATOM     91  C   UNL     1       6.440  10.799   3.679  1.00  0.00    -0.014 A 
ATOM     92  C   UNL     1       5.043  10.678   3.837  1.00  0.00     0.010 A 
ATOM     93  C   UNL     1       7.231  10.909   4.835  1.00  0.00     0.010 A 
ATOM     94  C   UNL     1       4.463  10.697   5.120  1.00  0.00     0.020 A 
ATOM     95  C   UNL     1       6.666  10.908   6.109  1.00  0.00     0.020 A 
ATOM     96  C   UNL     1       5.283  10.817   6.248  1.00  0.00     0.054 A 
BRANCH  96  97
ATOM     97  S   UNL     1       4.549  10.840   7.909  1.00  0.00     0.124 S 
ATOM     98  O   UNL     1       3.797  12.091   7.905  1.00  0.00    -0.237 OA
ATOM     99  O   UNL     1       3.745   9.620   7.925  1.00  0.00    -0.237 OA
ATOM    100  O   UNL     1       5.707  10.819   8.802  1.00  0.00    -0.744 OA
ENDBRANCH  96  97
ENDBRANCH  70  91
ENDBRANCH  44  45
ENDBRANCH  37  39
ENDBRANCH  36  37
ENDBRANCH  35  36
ENDBRANCH  34  35
ENDBRANCH  33  34
ENDBRANCH  32  33
ENDBRANCH  31  32
ENDBRANCH  30  31
ENDBRANCH   1  30
TORSDOF 25
