REMARK SMILES CCn1c(C)cc(/C=C(/C(=O)OCCOCCOCCOC(=O)c2ccc(-c3c4nc(c(-c5ccc(S(=O)(=O)[O-])cc5)c5ccc([nH]5)c(-c5ccc(S(=O)(=O)[O-])cc5)c5nc(c(-c6ccc(S(=O)(=O)[O-])cc6)c6ccc3[nH]6)C=C5)C=C4)cc2)c2ccccc2)c1C
REMARK SMILES IDX 17 1 16 2 15 3 14 4 13 5 12 6 10 7 11 8 9 9 8 10 7 11 3 12
REMARK SMILES IDX 4 13 90 14 5 15 6 16 91 17 2 18 1 19 84 20 85 21 89 22 86 23
REMARK SMILES IDX 88 24 87 25 18 26 19 27 20 28 21 29 22 30 23 31 24 32 25 33
REMARK SMILES IDX 83 34 26 35 82 36 27 37 28 38 29 39 76 40 30 41 81 42 75 43
REMARK SMILES IDX 77 44 31 45 80 46 74 47 73 48 32 50 62 51 43 52 61 53 44 54
REMARK SMILES IDX 47 55 60 56 78 57 45 58 46 59 59 61 79 62 48 63 33 64 34 65
REMARK SMILES IDX 42 66 35 67 41 68 36 69 37 70 38 71 39 72 40 73 63 74 64 75
REMARK SMILES IDX 72 76 65 77 71 78 66 79 67 80 68 81 69 82 70 83 49 84 50 85
REMARK SMILES IDX 58 86 51 87 57 88 52 89 53 90 54 91 55 92 56 93
REMARK H PARENT 77 49 47 60
REMARK Flexibility Score: inf
ROOT
ATOM      1  C   UNL     1       0.708  -2.796   8.916  1.00  0.00     0.188 C 
ENDROOT
BRANCH   1   2
ATOM      2  C   UNL     1       2.108  -3.395   9.132  1.00  0.00     0.188 C 
BRANCH   2   3
ATOM      3  O   UNL     1       2.692  -2.996  10.352  1.00  0.00    -0.376 OA
BRANCH   3   4
ATOM      4  C   UNL     1       3.745  -2.054  10.374  1.00  0.00     0.202 C 
BRANCH   4   5
ATOM      5  C   UNL     1       3.805  -0.810   9.465  1.00  0.00     0.261 C 
BRANCH   5   6
ATOM      6  O   UNL     1       3.094  -0.871   8.222  1.00  0.00    -0.460 OA
BRANCH   6   7
ATOM      7  C   UNL     1       3.843  -1.130   7.117  1.00  0.00     0.338 C 
ATOM      8  O   UNL     1       5.043  -1.321   7.101  1.00  0.00    -0.246 OA
BRANCH   7   9
ATOM      9  C   UNL     1       2.976  -1.237   5.899  1.00  0.00     0.067 C 
ATOM     10  C   UNL     1       2.248  -0.151   5.553  1.00  0.00     0.026 C 
BRANCH  10  11
ATOM     11  C   UNL     1       1.538   0.173   4.341  1.00  0.00    -0.004 A 
ATOM     12  N   UNL     1       0.588   0.193   2.315  1.00  0.00    -0.349 N 
ATOM     13  C   UNL     1       0.682   1.511   2.703  1.00  0.00     0.015 A 
ATOM     14  C   UNL     1       0.887  -0.618   3.403  1.00  0.00     0.022 A 
ATOM     15  C   UNL     1       0.185   2.658   1.900  1.00  0.00     0.064 C 
ATOM     16  C   UNL     1       1.323   1.519   3.926  1.00  0.00     0.031 A 
ATOM     17  C   UNL     1       0.481  -2.050   3.405  1.00  0.00     0.065 C 
BRANCH  12  18
ATOM     18  C   UNL     1       0.160  -0.293   1.006  1.00  0.00     0.118 C 
ATOM     19  C   UNL     1       0.955   0.252  -0.173  1.00  0.00     0.027 C 
ENDBRANCH  12  18
ENDBRANCH  10  11
BRANCH   9  20
ATOM     20  C   UNL     1       3.136  -2.455   5.094  1.00  0.00    -0.011 A 
ATOM     21  C   UNL     1       2.414  -3.609   5.434  1.00  0.00     0.009 A 
ATOM     22  C   UNL     1       3.989  -2.484   3.987  1.00  0.00     0.009 A 
ATOM     23  C   UNL     1       2.504  -4.761   4.656  1.00  0.00     0.001 A 
ATOM     24  C   UNL     1       4.082  -3.640   3.210  1.00  0.00     0.001 A 
ATOM     25  C   UNL     1       3.334  -4.772   3.538  1.00  0.00     0.000 A 
ENDBRANCH   9  20
ENDBRANCH   7   9
ENDBRANCH   6   7
ENDBRANCH   5   6
ENDBRANCH   4   5
ENDBRANCH   3   4
ENDBRANCH   2   3
ENDBRANCH   1   2
BRANCH   1  26
ATOM     26  O   UNL     1       0.219  -1.931   9.932  1.00  0.00    -0.376 OA
BRANCH  26  27
ATOM     27  C   UNL     1       0.091  -2.456  11.260  1.00  0.00     0.202 C 
BRANCH  27  28
ATOM     28  C   UNL     1      -0.869  -3.652  11.507  1.00  0.00     0.261 C 
BRANCH  28  29
ATOM     29  O   UNL     1      -0.327  -5.012  11.693  1.00  0.00    -0.460 OA
BRANCH  29  30
ATOM     30  C   UNL     1      -0.951  -6.014  10.980  1.00  0.00     0.338 C 
ATOM     31  O   UNL     1      -1.526  -5.802   9.919  1.00  0.00    -0.246 OA
BRANCH  30  32
ATOM     32  C   UNL     1      -0.838  -7.443  11.539  1.00  0.00     0.060 A 
ATOM     33  C   UNL     1      -0.152  -8.402  10.803  1.00  0.00     0.016 A 
ATOM     34  C   UNL     1      -1.611  -7.968  12.599  1.00  0.00     0.016 A 
ATOM     35  C   UNL     1      -0.196  -9.799  11.152  1.00  0.00     0.010 A 
ATOM     36  C   UNL     1      -1.700  -9.411  12.913  1.00  0.00     0.010 A 
ATOM     37  C   UNL     1      -0.992 -10.396  12.199  1.00  0.00    -0.014 A 
BRANCH  37  38
ATOM     38  C   UNL     1      -1.282 -12.002  12.090  1.00  0.00     0.031 A 
ATOM     39  C   UNL     1      -1.535 -12.194  10.632  1.00  0.00     0.074 A 
ATOM     40  C   UNL     1      -1.484 -13.183  12.820  1.00  0.00     0.049 A 
ATOM     41  N   UNL     1      -2.487 -11.529  10.044  1.00  0.00    -0.248 NA
ATOM     42  C   UNL     1      -0.559 -12.804   9.729  1.00  0.00     0.031 C 
ATOM     43  C   UNL     1      -1.559 -13.354  14.282  1.00  0.00     0.029 A 
ATOM     44  N   UNL     1      -1.673 -14.558  12.423  1.00  0.00    -0.354 N 
ATOM     45  C   UNL     1      -2.416 -11.857   8.714  1.00  0.00     0.074 A 
ATOM     46  C   UNL     1      -1.093 -12.448   8.555  1.00  0.00     0.031 C 
ATOM     47  C   UNL     1      -1.608 -14.673  14.645  1.00  0.00     0.029 A 
ATOM     48  C   UNL     1      -1.638 -15.553  13.476  1.00  0.00     0.049 A 
ATOM     49  H   UNL     1      -1.819 -14.808  11.482  1.00  0.00     0.167 HD
ATOM     50  C   UNL     1      -3.579 -12.236   8.113  1.00  0.00     0.031 A 
ATOM     51  C   UNL     1      -1.705 -16.951  13.440  1.00  0.00     0.031 A 
ATOM     52  C   UNL     1      -3.652 -13.664   7.944  1.00  0.00     0.049 A 
ATOM     53  C   UNL     1      -2.452 -17.292  12.219  1.00  0.00     0.074 A 
ATOM     54  C   UNL     1      -2.763 -14.615   7.485  1.00  0.00     0.029 A 
ATOM     55  N   UNL     1      -4.590 -14.327   8.709  1.00  0.00    -0.354 N 
ATOM     56  N   UNL     1      -3.738 -17.139  12.142  1.00  0.00    -0.248 NA
ATOM     57  C   UNL     1      -1.829 -17.964  11.083  1.00  0.00     0.031 C 
ATOM     58  C   UNL     1      -2.913 -15.710   8.364  1.00  0.00     0.029 A 
ATOM     59  C   UNL     1      -4.079 -15.548   9.102  1.00  0.00     0.049 A 
ATOM     60  H   UNL     1      -5.484 -13.984   8.939  1.00  0.00     0.167 HD
ATOM     61  C   UNL     1      -3.986 -17.224  10.803  1.00  0.00     0.074 A 
ATOM     62  C   UNL     1      -2.875 -17.978  10.255  1.00  0.00     0.031 C 
ATOM     63  C   UNL     1      -4.682 -16.205  10.242  1.00  0.00     0.031 A 
BRANCH  50  64
ATOM     64  C   UNL     1      -4.787 -11.388   8.417  1.00  0.00    -0.014 A 
ATOM     65  C   UNL     1      -5.413 -10.696   7.372  1.00  0.00     0.010 A 
ATOM     66  C   UNL     1      -5.281 -11.213   9.729  1.00  0.00     0.010 A 
ATOM     67  C   UNL     1      -6.455  -9.800   7.642  1.00  0.00     0.020 A 
ATOM     68  C   UNL     1      -6.302 -10.304  10.009  1.00  0.00     0.020 A 
ATOM     69  C   UNL     1      -6.876  -9.591   8.961  1.00  0.00     0.054 A 
BRANCH  69  70
ATOM     70  S   UNL     1      -8.123  -8.315   9.285  1.00  0.00     0.124 S 
ATOM     71  O   UNL     1      -7.604  -7.171   8.534  1.00  0.00    -0.237 OA
ATOM     72  O   UNL     1      -9.332  -8.916   8.733  1.00  0.00    -0.237 OA
ATOM     73  O   UNL     1      -8.095  -8.149  10.736  1.00  0.00    -0.744 OA
ENDBRANCH  69  70
ENDBRANCH  50  64
BRANCH  51  74
ATOM     74  C   UNL     1      -1.484 -18.277  14.257  1.00  0.00    -0.014 A 
ATOM     75  C   UNL     1      -2.276 -19.444  13.952  1.00  0.00     0.010 A 
ATOM     76  C   UNL     1      -0.308 -18.563  14.972  1.00  0.00     0.010 A 
ATOM     77  C   UNL     1      -1.860 -20.780  14.188  1.00  0.00     0.020 A 
ATOM     78  C   UNL     1       0.104 -19.910  15.249  1.00  0.00     0.020 A 
ATOM     79  C   UNL     1      -0.643 -21.011  14.808  1.00  0.00     0.054 A 
BRANCH  79  80
ATOM     80  S   UNL     1       0.008 -22.727  14.886  1.00  0.00     0.124 S 
ATOM     81  O   UNL     1      -0.924 -23.395  15.789  1.00  0.00    -0.237 OA
ATOM     82  O   UNL     1      -0.056 -23.159  13.490  1.00  0.00    -0.237 OA
ATOM     83  O   UNL     1       1.363 -22.558  15.407  1.00  0.00    -0.744 OA
ENDBRANCH  79  80
ENDBRANCH  51  74
BRANCH  63  84
ATOM     84  C   UNL     1      -5.904 -15.690  10.987  1.00  0.00    -0.014 A 
ATOM     85  C   UNL     1      -5.968 -15.418  12.373  1.00  0.00     0.010 A 
ATOM     86  C   UNL     1      -7.086 -15.525  10.244  1.00  0.00     0.010 A 
ATOM     87  C   UNL     1      -7.176 -15.077  13.000  1.00  0.00     0.020 A 
ATOM     88  C   UNL     1      -8.287 -15.142  10.854  1.00  0.00     0.020 A 
ATOM     89  C   UNL     1      -8.334 -14.957  12.235  1.00  0.00     0.054 A 
BRANCH  89  90
ATOM     90  S   UNL     1      -9.907 -14.599  13.065  1.00  0.00     0.124 S 
ATOM     91  O   UNL     1     -10.147 -15.831  13.815  1.00  0.00    -0.237 OA
ATOM     92  O   UNL     1      -9.588 -13.430  13.878  1.00  0.00    -0.237 OA
ATOM     93  O   UNL     1     -10.836 -14.367  11.961  1.00  0.00    -0.744 OA
ENDBRANCH  89  90
ENDBRANCH  63  84
ENDBRANCH  37  38
ENDBRANCH  30  32
ENDBRANCH  29  30
ENDBRANCH  28  29
ENDBRANCH  27  28
ENDBRANCH  26  27
ENDBRANCH   1  26
TORSDOF 23
