REMARK SMILES O=C(OCCOCCOCCOC(=O)c1ccn(CC(F)(F)F)c1)c1ccc(-c2c3nc(c(-c4ccc(S(=O)(=O)[O-])cc4)c4ccc([nH]4)c(-c4ccc(S(=O)(=O)[O-])cc4)c4nc(c(-c5ccc(S(=O)(=O)[O-])cc5)c5ccc2[nH]5)C=C4)C=C3)cc1
REMARK SMILES IDX 7 1 6 2 5 3 4 4 3 5 2 6 1 7 25 8 26 9 84 10 27 11 83 12
REMARK SMILES IDX 28 13 29 14 30 15 77 16 31 17 82 18 76 19 78 20 32 21 81 22
REMARK SMILES IDX 75 23 74 24 33 26 63 27 44 28 62 29 45 30 48 31 61 32 79 33
REMARK SMILES IDX 46 34 47 35 60 37 80 38 49 39 34 40 35 41 43 42 36 43 42 44
REMARK SMILES IDX 37 45 38 46 39 47 40 48 41 49 64 50 65 51 73 52 66 53 72 54
REMARK SMILES IDX 67 55 68 56 69 57 70 58 71 59 50 60 51 61 59 62 52 63 58 64
REMARK SMILES IDX 53 65 54 66 55 67 56 68 57 69 8 70 9 71 10 72 11 73 12 74
REMARK SMILES IDX 13 75 14 76 15 77 16 78 24 79 17 80 18 81 19 82 20 83 21 84
REMARK SMILES IDX 22 85 23 86
REMARK H PARENT 78 25 48 36
REMARK Flexibility Score: inf
ROOT
ATOM      1  C   UNL     1       3.631   1.627  -1.125  1.00  0.00     0.188 C 
ENDROOT
BRANCH   1   2
ATOM      2  O   UNL     1       4.859   0.996  -1.472  1.00  0.00    -0.376 OA
BRANCH   2   3
ATOM      3  C   UNL     1       5.278  -0.091  -0.670  1.00  0.00     0.202 C 
BRANCH   3   4
ATOM      4  C   UNL     1       4.468  -1.390  -0.840  1.00  0.00     0.261 C 
BRANCH   4   5
ATOM      5  O   UNL     1       3.039  -1.202  -0.929  1.00  0.00    -0.460 OA
BRANCH   5   6
ATOM      6  C   UNL     1       2.038  -1.144  -0.028  1.00  0.00     0.338 C 
ATOM      7  O   UNL     1       0.887  -0.989  -0.433  1.00  0.00    -0.246 OA
BRANCH   6   8
ATOM      8  C   UNL     1       2.255  -1.230   1.434  1.00  0.00     0.060 A 
ATOM      9  C   UNL     1       3.490  -1.070   2.056  1.00  0.00     0.016 A 
ATOM     10  C   UNL     1       1.120  -1.450   2.235  1.00  0.00     0.016 A 
ATOM     11  C   UNL     1       3.627  -1.215   3.421  1.00  0.00     0.010 A 
ATOM     12  C   UNL     1       1.241  -1.593   3.613  1.00  0.00     0.010 A 
ATOM     13  C   UNL     1       2.507  -1.508   4.190  1.00  0.00    -0.014 A 
BRANCH  13  14
ATOM     14  C   UNL     1       2.740  -1.717   5.623  1.00  0.00     0.031 A 
ATOM     15  C   UNL     1       2.892  -0.413   6.391  1.00  0.00     0.074 A 
ATOM     16  C   UNL     1       2.919  -3.017   5.996  1.00  0.00     0.049 A 
ATOM     17  N   UNL     1       3.623  -0.157   7.431  1.00  0.00    -0.248 NA
ATOM     18  C   UNL     1       2.232   0.812   5.870  1.00  0.00     0.031 C 
ATOM     19  C   UNL     1       2.801  -4.170   5.075  1.00  0.00     0.029 A 
ATOM     20  N   UNL     1       3.245  -3.638   7.179  1.00  0.00    -0.354 N 
ATOM     21  C   UNL     1       3.368   1.178   7.802  1.00  0.00     0.074 A 
ATOM     22  C   UNL     1       2.607   1.758   6.734  1.00  0.00     0.031 C 
ATOM     23  C   UNL     1       3.095  -5.322   5.709  1.00  0.00     0.029 A 
ATOM     24  C   UNL     1       3.415  -5.040   7.093  1.00  0.00     0.049 A 
ATOM     25  H   UNL     1       3.352  -3.144   8.024  1.00  0.00     0.167 HD
ATOM     26  C   UNL     1       3.667   1.681   9.034  1.00  0.00     0.031 A 
ATOM     27  C   UNL     1       3.819  -5.920   8.056  1.00  0.00     0.031 A 
ATOM     28  C   UNL     1       4.306   0.692   9.840  1.00  0.00     0.049 A 
ATOM     29  C   UNL     1       3.949  -5.151   9.307  1.00  0.00     0.074 A 
ATOM     30  C   UNL     1       5.555   0.130   9.847  1.00  0.00     0.029 A 
ATOM     31  N   UNL     1       3.478  -0.063  10.637  1.00  0.00    -0.354 N 
ATOM     32  N   UNL     1       2.960  -4.657   9.988  1.00  0.00    -0.248 NA
ATOM     33  C   UNL     1       5.291  -4.845   9.819  1.00  0.00     0.031 C 
ATOM     34  C   UNL     1       5.335  -1.193  10.297  1.00  0.00     0.029 A 
ATOM     35  C   UNL     1       3.987  -1.339  10.643  1.00  0.00     0.049 A 
ATOM     36  H   UNL     1       2.675   0.250  11.113  1.00  0.00     0.167 HD
ATOM     37  C   UNL     1       3.569  -3.689  10.749  1.00  0.00     0.074 A 
ATOM     38  C   UNL     1       4.965  -4.056  10.840  1.00  0.00     0.031 C 
ATOM     39  C   UNL     1       3.049  -2.435  10.775  1.00  0.00     0.031 A 
BRANCH  26  40
ATOM     40  C   UNL     1       3.181   2.925   9.731  1.00  0.00    -0.014 A 
ATOM     41  C   UNL     1       3.839   3.283  10.936  1.00  0.00     0.010 A 
ATOM     42  C   UNL     1       1.945   3.531   9.464  1.00  0.00     0.010 A 
ATOM     43  C   UNL     1       3.222   4.079  11.901  1.00  0.00     0.020 A 
ATOM     44  C   UNL     1       1.336   4.368  10.413  1.00  0.00     0.020 A 
ATOM     45  C   UNL     1       1.951   4.582  11.649  1.00  0.00     0.054 A 
BRANCH  45  46
ATOM     46  S   UNL     1       1.078   5.436  12.988  1.00  0.00     0.124 S 
ATOM     47  O   UNL     1       0.667   4.324  13.840  1.00  0.00    -0.237 OA
ATOM     48  O   UNL     1       2.116   6.300  13.547  1.00  0.00    -0.237 OA
ATOM     49  O   UNL     1      -0.001   6.139  12.299  1.00  0.00    -0.744 OA
ENDBRANCH  45  46
ENDBRANCH  26  40
BRANCH  27  50
ATOM     50  C   UNL     1       4.254  -7.362   8.103  1.00  0.00    -0.014 A 
ATOM     51  C   UNL     1       4.328  -8.234   7.009  1.00  0.00     0.010 A 
ATOM     52  C   UNL     1       4.766  -7.864   9.330  1.00  0.00     0.010 A 
ATOM     53  C   UNL     1       5.005  -9.470   7.102  1.00  0.00     0.020 A 
ATOM     54  C   UNL     1       5.481  -9.060   9.425  1.00  0.00     0.020 A 
ATOM     55  C   UNL     1       5.621  -9.849   8.296  1.00  0.00     0.054 A 
BRANCH  55  56
ATOM     56  S   UNL     1       6.728 -11.285   8.360  1.00  0.00     0.124 S 
ATOM     57  O   UNL     1       5.820 -12.361   8.743  1.00  0.00    -0.237 OA
ATOM     58  O   UNL     1       7.252 -11.355   6.997  1.00  0.00    -0.237 OA
ATOM     59  O   UNL     1       7.712 -10.902   9.371  1.00  0.00    -0.744 OA
ENDBRANCH  55  56
ENDBRANCH  27  50
BRANCH  39  60
ATOM     60  C   UNL     1       1.561  -2.348  10.452  1.00  0.00    -0.014 A 
ATOM     61  C   UNL     1       0.616  -3.017  11.250  1.00  0.00     0.010 A 
ATOM     62  C   UNL     1       1.079  -1.690   9.303  1.00  0.00     0.010 A 
ATOM     63  C   UNL     1      -0.746  -3.040  10.906  1.00  0.00     0.020 A 
ATOM     64  C   UNL     1      -0.280  -1.702   8.949  1.00  0.00     0.020 A 
ATOM     65  C   UNL     1      -1.188  -2.384   9.755  1.00  0.00     0.054 A 
BRANCH  65  66
ATOM     66  S   UNL     1      -2.949  -2.463   9.312  1.00  0.00     0.124 S 
ATOM     67  O   UNL     1      -3.197  -3.900   9.228  1.00  0.00    -0.237 OA
ATOM     68  O   UNL     1      -3.588  -1.784  10.435  1.00  0.00    -0.237 OA
ATOM     69  O   UNL     1      -3.022  -1.753   8.035  1.00  0.00    -0.744 OA
ENDBRANCH  65  66
ENDBRANCH  39  60
ENDBRANCH  13  14
ENDBRANCH   6   8
ENDBRANCH   5   6
ENDBRANCH   4   5
ENDBRANCH   3   4
ENDBRANCH   2   3
ENDBRANCH   1   2
BRANCH   1  70
ATOM     70  C   UNL     1       2.550   1.479  -2.220  1.00  0.00     0.188 C 
BRANCH  70  71
ATOM     71  O   UNL     1       2.847   1.614  -3.611  1.00  0.00    -0.376 OA
BRANCH  71  72
ATOM     72  C   UNL     1       4.176   1.818  -4.044  1.00  0.00     0.202 C 
BRANCH  72  73
ATOM     73  C   UNL     1       4.598   3.289  -4.081  1.00  0.00     0.261 C 
BRANCH  73  74
ATOM     74  O   UNL     1       4.186   4.065  -2.946  1.00  0.00    -0.460 OA
BRANCH  74  75
ATOM     75  C   UNL     1       2.930   4.591  -3.019  1.00  0.00     0.339 C 
ATOM     76  O   UNL     1       2.184   4.515  -3.999  1.00  0.00    -0.246 OA
BRANCH  75  77
ATOM     77  C   UNL     1       2.526   5.228  -1.777  1.00  0.00     0.077 A 
ATOM     78  C   UNL     1       3.212   6.223  -1.027  1.00  0.00     0.035 A 
ATOM     79  C   UNL     1       1.348   4.973  -1.091  1.00  0.00     0.101 A 
ATOM     80  C   UNL     1       2.418   6.564   0.049  1.00  0.00     0.087 A 
ATOM     81  N   UNL     1       1.312   5.757   0.036  1.00  0.00    -0.344 N 
BRANCH  81  82
ATOM     82  C   UNL     1       0.209   5.766   0.983  1.00  0.00     0.236 C 
BRANCH  82  83
ATOM     83  C   UNL     1       0.592   5.934   2.439  1.00  0.00     0.406 C 
ATOM     84  F   UNL     1       1.128   7.149   2.685  1.00  0.00    -0.169 F 
ATOM     85  F   UNL     1      -0.512   5.826   3.217  1.00  0.00    -0.169 F 
ATOM     86  F   UNL     1       1.468   4.992   2.848  1.00  0.00    -0.169 F 
ENDBRANCH  82  83
ENDBRANCH  81  82
ENDBRANCH  75  77
ENDBRANCH  74  75
ENDBRANCH  73  74
ENDBRANCH  72  73
ENDBRANCH  71  72
ENDBRANCH  70  71
ENDBRANCH   1  70
TORSDOF 22
