REMARK SMILES C#CC[N@@H+](CC(=O)OCCOCCOCCOC(=O)c1ccc(-c2c3nc(c(-c4ccc(S(=O)(=O)[O-])cc4)c4ccc([nH]4)c(-c4ccc(S(=O)(=O)[O-])cc4)c4nc(c(-c5ccc(S(=O)(=O)[O-])cc5)c5ccc2[nH]5)C=C4)C=C3)cc1)[C@@H](C)Cc1ccco1
REMARK SMILES IDX 12 1 11 2 10 3 9 4 8 5 6 6 7 7 5 8 4 9 3 11 2 12 1 13 80 14
REMARK SMILES IDX 81 15 82 16 83 17 84 18 87 19 85 20 86 21 13 22 14 23 15 24
REMARK SMILES IDX 16 25 17 26 18 27 19 28 20 29 21 30 79 31 22 32 78 33 23 34
REMARK SMILES IDX 24 35 25 36 72 37 26 38 77 39 71 40 73 41 27 42 76 43 70 44
REMARK SMILES IDX 69 45 28 47 58 48 39 49 57 50 40 51 43 52 56 53 74 54 41 55
REMARK SMILES IDX 42 56 55 58 75 59 44 60 29 61 30 62 38 63 31 64 37 65 32 66
REMARK SMILES IDX 33 67 34 68 35 69 36 70 59 71 60 72 68 73 61 74 67 75 62 76
REMARK SMILES IDX 63 77 64 78 65 79 66 80 45 81 46 82 54 83 47 84 53 85 48 86
REMARK SMILES IDX 49 87 50 88 51 89 52 90
REMARK H PARENT 4 10 73 46 43 57
REMARK Flexibility Score: inf
ROOT
ATOM      1  C   UNL     1      -5.296   3.647   2.157  1.00  0.00     0.188 C 
ENDROOT
BRANCH   1   2
ATOM      2  O   UNL     1      -6.026   2.774   3.013  1.00  0.00    -0.376 OA
BRANCH   2   3
ATOM      3  C   UNL     1      -5.415   1.517   3.293  1.00  0.00     0.202 C 
BRANCH   3   4
ATOM      4  C   UNL     1      -5.356   0.515   2.128  1.00  0.00     0.261 C 
BRANCH   4   5
ATOM      5  O   UNL     1      -4.413   0.836   1.074  1.00  0.00    -0.459 OA
BRANCH   5   6
ATOM      6  C   UNL     1      -4.885   0.728  -0.198  1.00  0.00     0.361 C 
ATOM      7  O   UNL     1      -6.078   0.563  -0.452  1.00  0.00    -0.245 OA
BRANCH   6   8
ATOM      8  C   UNL     1      -3.865   0.727  -1.347  1.00  0.00     0.387 C 
BRANCH   8   9
ATOM      9  N   UNL     1      -2.405   0.890  -1.133  1.00  0.00    -0.313 N 
ATOM     10  H   UNL     1      -1.948   0.505  -1.960  1.00  0.00     0.349 HD
BRANCH   9  11
ATOM     11  C   UNL     1      -1.881   0.041  -0.071  1.00  0.00     0.354 C 
BRANCH  11  12
ATOM     12  C   UNL     1      -0.361   0.041  -0.071  1.00  0.00    -0.047 C 
ATOM     13  C   UNL     1       0.942   0.041  -0.071  1.00  0.00     0.010 C 
ENDBRANCH  11  12
ENDBRANCH   9  11
BRANCH   9  14
ATOM     14  C   UNL     1      -1.927   2.284  -1.193  1.00  0.00     0.189 C 
ATOM     15  C   UNL     1      -2.158   2.906   0.173  1.00  0.00     0.076 C 
BRANCH  14  16
ATOM     16  C   UNL     1      -0.458   2.605  -1.615  1.00  0.00     0.140 C 
BRANCH  16  17
ATOM     17  C   UNL     1       0.015   2.207  -2.969  1.00  0.00     0.109 A 
ATOM     18  C   UNL     1       0.618   2.944  -3.972  1.00  0.00     0.046 A 
ATOM     19  O   UNL     1       0.044   0.884  -3.289  1.00  0.00    -0.469 OA
ATOM     20  C   UNL     1       1.044   2.019  -4.953  1.00  0.00     0.042 A 
ATOM     21  C   UNL     1       0.665   0.781  -4.494  1.00  0.00     0.195 A 
ENDBRANCH  16  17
ENDBRANCH  14  16
ENDBRANCH   9  14
ENDBRANCH   8   9
ENDBRANCH   6   8
ENDBRANCH   5   6
ENDBRANCH   4   5
ENDBRANCH   3   4
ENDBRANCH   2   3
ENDBRANCH   1   2
BRANCH   1  22
ATOM     22  C   UNL     1      -4.004   4.225   2.764  1.00  0.00     0.188 C 
BRANCH  22  23
ATOM     23  O   UNL     1      -3.031   3.213   2.993  1.00  0.00    -0.376 OA
BRANCH  23  24
ATOM     24  C   UNL     1      -1.718   3.567   3.429  1.00  0.00     0.202 C 
BRANCH  24  25
ATOM     25  C   UNL     1      -1.343   5.021   3.739  1.00  0.00     0.261 C 
BRANCH  25  26
ATOM     26  O   UNL     1      -1.706   5.966   2.721  1.00  0.00    -0.460 OA
BRANCH  26  27
ATOM     27  C   UNL     1      -1.004   5.972   1.562  1.00  0.00     0.338 C 
ATOM     28  O   UNL     1       0.015   5.349   1.322  1.00  0.00    -0.246 OA
BRANCH  27  29
ATOM     29  C   UNL     1      -1.835   6.697   0.562  1.00  0.00     0.060 A 
ATOM     30  C   UNL     1      -2.046   6.129  -0.700  1.00  0.00     0.016 A 
ATOM     31  C   UNL     1      -2.488   7.883   0.896  1.00  0.00     0.016 A 
ATOM     32  C   UNL     1      -2.966   6.668  -1.590  1.00  0.00     0.010 A 
ATOM     33  C   UNL     1      -3.361   8.471  -0.022  1.00  0.00     0.010 A 
ATOM     34  C   UNL     1      -3.612   7.856  -1.261  1.00  0.00    -0.014 A 
BRANCH  34  35
ATOM     35  C   UNL     1      -4.407   8.550  -2.290  1.00  0.00     0.031 A 
ATOM     36  C   UNL     1      -3.723   9.594  -3.117  1.00  0.00     0.074 A 
ATOM     37  C   UNL     1      -5.697   8.236  -2.500  1.00  0.00     0.049 A 
ATOM     38  N   UNL     1      -4.237  10.448  -3.958  1.00  0.00    -0.248 NA
ATOM     39  C   UNL     1      -2.258   9.681  -2.980  1.00  0.00     0.031 C 
ATOM     40  C   UNL     1      -6.425   7.150  -1.844  1.00  0.00     0.029 A 
ATOM     41  N   UNL     1      -6.625   8.816  -3.325  1.00  0.00    -0.354 N 
ATOM     42  C   UNL     1      -3.166  11.195  -4.429  1.00  0.00     0.074 A 
ATOM     43  C   UNL     1      -1.973  10.691  -3.787  1.00  0.00     0.031 C 
ATOM     44  C   UNL     1      -7.700   7.162  -2.272  1.00  0.00     0.029 A 
ATOM     45  C   UNL     1      -7.887   8.290  -3.182  1.00  0.00     0.049 A 
ATOM     46  H   UNL     1      -6.409   9.539  -3.957  1.00  0.00     0.167 HD
ATOM     47  C   UNL     1      -3.185  12.222  -5.308  1.00  0.00     0.031 A 
ATOM     48  C   UNL     1      -9.063   8.713  -3.686  1.00  0.00     0.031 A 
ATOM     49  C   UNL     1      -4.384  12.722  -5.921  1.00  0.00     0.049 A 
ATOM     50  C   UNL     1      -9.080   9.944  -4.556  1.00  0.00     0.074 A 
ATOM     51  C   UNL     1      -4.522  13.770  -6.812  1.00  0.00     0.029 A 
ATOM     52  N   UNL     1      -5.655  12.213  -5.696  1.00  0.00    -0.354 N 
ATOM     53  N   UNL     1      -8.070  10.673  -4.972  1.00  0.00    -0.248 NA
ATOM     54  C   UNL     1     -10.394  10.422  -5.007  1.00  0.00     0.031 C 
ATOM     55  C   UNL     1      -5.886  13.934  -7.078  1.00  0.00     0.029 A 
ATOM     56  C   UNL     1      -6.589  12.950  -6.401  1.00  0.00     0.049 A 
ATOM     57  H   UNL     1      -5.861  11.441  -5.121  1.00  0.00     0.167 HD
ATOM     58  C   UNL     1      -8.626  11.688  -5.744  1.00  0.00     0.074 A 
ATOM     59  C   UNL     1     -10.059  11.467  -5.753  1.00  0.00     0.031 C 
ATOM     60  C   UNL     1      -8.011  12.713  -6.385  1.00  0.00     0.031 A 
BRANCH  47  61
ATOM     61  C   UNL     1      -1.882  12.913  -5.590  1.00  0.00    -0.014 A 
ATOM     62  C   UNL     1      -0.883  12.309  -6.373  1.00  0.00     0.010 A 
ATOM     63  C   UNL     1      -1.663  14.202  -5.070  1.00  0.00     0.010 A 
ATOM     64  C   UNL     1       0.326  12.971  -6.606  1.00  0.00     0.020 A 
ATOM     65  C   UNL     1      -0.466  14.876  -5.320  1.00  0.00     0.020 A 
ATOM     66  C   UNL     1       0.527  14.250  -6.075  1.00  0.00     0.054 A 
BRANCH  66  67
ATOM     67  S   UNL     1       2.095  15.095  -6.411  1.00  0.00     0.124 S 
ATOM     68  O   UNL     1       3.026  14.346  -5.570  1.00  0.00    -0.237 OA
ATOM     69  O   UNL     1       2.258  14.907  -7.850  1.00  0.00    -0.237 OA
ATOM     70  O   UNL     1       1.845  16.472  -5.989  1.00  0.00    -0.744 OA
ENDBRANCH  66  67
ENDBRANCH  47  61
BRANCH  48  71
ATOM     71  C   UNL     1     -10.329   8.022  -3.313  1.00  0.00    -0.014 A 
ATOM     72  C   UNL     1     -11.076   7.317  -4.271  1.00  0.00     0.010 A 
ATOM     73  C   UNL     1     -10.799   8.077  -1.987  1.00  0.00     0.010 A 
ATOM     74  C   UNL     1     -12.275   6.690  -3.913  1.00  0.00     0.020 A 
ATOM     75  C   UNL     1     -11.981   7.428  -1.619  1.00  0.00     0.020 A 
ATOM     76  C   UNL     1     -12.718   6.748  -2.588  1.00  0.00     0.054 A 
BRANCH  76  77
ATOM     77  S   UNL     1     -14.253   5.891  -2.137  1.00  0.00     0.124 S 
ATOM     78  O   UNL     1     -15.268   6.755  -2.731  1.00  0.00    -0.237 OA
ATOM     79  O   UNL     1     -14.083   4.585  -2.771  1.00  0.00    -0.237 OA
ATOM     80  O   UNL     1     -14.219   5.876  -0.677  1.00  0.00    -0.744 OA
ENDBRANCH  76  77
ENDBRANCH  48  71
BRANCH  60  81
ATOM     81  C   UNL     1      -8.878  13.668  -7.159  1.00  0.00    -0.014 A 
ATOM     82  C   UNL     1      -9.677  14.617  -6.498  1.00  0.00     0.010 A 
ATOM     83  C   UNL     1      -8.831  13.668  -8.565  1.00  0.00     0.010 A 
ATOM     84  C   UNL     1     -10.428  15.540  -7.231  1.00  0.00     0.020 A 
ATOM     85  C   UNL     1      -9.559  14.606  -9.301  1.00  0.00     0.020 A 
ATOM     86  C   UNL     1     -10.361  15.530  -8.628  1.00  0.00     0.054 A 
BRANCH  86  87
ATOM     87  S   UNL     1     -11.295  16.780  -9.554  1.00  0.00     0.124 S 
ATOM     88  O   UNL     1     -12.667  16.304  -9.406  1.00  0.00    -0.237 OA
ATOM     89  O   UNL     1     -10.976  18.013  -8.838  1.00  0.00    -0.237 OA
ATOM     90  O   UNL     1     -10.747  16.692 -10.906  1.00  0.00    -0.744 OA
ENDBRANCH  86  87
ENDBRANCH  60  81
ENDBRANCH  34  35
ENDBRANCH  27  29
ENDBRANCH  26  27
ENDBRANCH  25  26
ENDBRANCH  24  25
ENDBRANCH  23  24
ENDBRANCH  22  23
ENDBRANCH   1  22
TORSDOF 26
