REMARK SMILES CN(CCc1cccs1)C(=O)c1cccn1CC(=O)OCCOCCOCCOC(=O)c1ccc(-c2c3nc(c(-c4ccc(S(=O)(=O)[O-])cc4)c4ccc([nH]4)c(-c4ccc(S(=O)(=O)[O-])cc4)c4nc(c(-c5ccc(S(=O)(=O)[O-])cc5)c5ccc2[nH]5)C=C4)C=C3)cc1
REMARK SMILES IDX 23 1 22 2 21 3 20 4 18 5 19 6 17 7 16 8 12 9 13 10 14 11
REMARK SMILES IDX 15 12 10 13 11 14 2 15 1 16 3 17 4 18 5 19 6 20 9 21 7 22
REMARK SMILES IDX 8 23 24 24 25 25 26 26 27 27 28 28 29 29 30 30 31 31 32 32
REMARK SMILES IDX 33 33 91 34 34 35 90 36 35 37 36 38 37 39 84 40 38 41 89 42
REMARK SMILES IDX 83 43 85 44 39 45 88 46 82 47 81 48 40 50 70 51 51 52 69 53
REMARK SMILES IDX 52 54 55 55 68 56 86 57 53 58 54 59 67 61 87 62 56 63 41 64
REMARK SMILES IDX 42 65 50 66 43 67 49 68 44 69 45 70 46 71 47 72 48 73 71 74
REMARK SMILES IDX 72 75 80 76 73 77 79 78 74 79 75 80 76 81 77 82 78 83 57 84
REMARK SMILES IDX 58 85 66 86 59 87 65 88 60 89 61 90 62 91 63 92 64 93
REMARK H PARENT 85 49 55 60
REMARK Flexibility Score: inf
ROOT
ATOM      1  O   UNL     1       4.878  -7.452  -0.282  1.00  0.00    -0.376 OA
ENDROOT
BRANCH   1   2
ATOM      2  C   UNL     1       5.172  -6.853   0.970  1.00  0.00     0.202 C 
BRANCH   2   3
ATOM      3  C   UNL     1       5.062  -5.322   0.910  1.00  0.00     0.261 C 
BRANCH   3   4
ATOM      4  O   UNL     1       4.043  -4.840   0.006  1.00  0.00    -0.462 OA
BRANCH   4   5
ATOM      5  C   UNL     1       4.440  -4.546  -1.261  1.00  0.00     0.326 C 
ATOM      6  O   UNL     1       5.614  -4.557  -1.630  1.00  0.00    -0.250 OA
BRANCH   5   7
ATOM      7  C   UNL     1       3.321  -4.182  -2.217  1.00  0.00     0.244 C 
BRANCH   7   8
ATOM      8  N   UNL     1       1.954  -4.444  -1.764  1.00  0.00    -0.332 N 
ATOM      9  C   UNL     1       1.160  -3.672  -0.904  1.00  0.00     0.107 A 
ATOM     10  C   UNL     1       0.142  -4.547  -0.540  1.00  0.00     0.033 A 
ATOM     11  C   UNL     1       0.117  -5.637  -1.440  1.00  0.00     0.020 A 
ATOM     12  C   UNL     1       1.222  -5.513  -2.235  1.00  0.00     0.087 A 
BRANCH   9  13
ATOM     13  C   UNL     1       1.446  -2.270  -0.578  1.00  0.00     0.270 C 
ATOM     14  O   UNL     1       2.466  -1.743  -1.034  1.00  0.00    -0.267 OA
BRANCH  13  15
ATOM     15  N   UNL     1       0.560  -1.447   0.150  1.00  0.00    -0.340 N 
ATOM     16  C   UNL     1       0.797  -0.009   0.067  1.00  0.00     0.147 C 
BRANCH  15  17
ATOM     17  C   UNL     1      -0.600  -1.841   0.961  1.00  0.00     0.125 C 
BRANCH  17  18
ATOM     18  C   UNL     1      -1.980  -1.542   0.346  1.00  0.00     0.068 C 
BRANCH  18  19
ATOM     19  C   UNL     1      -2.368  -2.441  -0.790  1.00  0.00     0.006 A 
ATOM     20  C   UNL     1      -1.966  -2.380  -2.111  1.00  0.00     0.015 A 
ATOM     21  S   UNL     1      -3.464  -3.738  -0.532  1.00  0.00    -0.149 S 
ATOM     22  C   UNL     1      -2.477  -3.464  -2.883  1.00  0.00     0.012 A 
ATOM     23  C   UNL     1      -3.288  -4.292  -2.140  1.00  0.00     0.065 A 
ENDBRANCH  18  19
ENDBRANCH  17  18
ENDBRANCH  15  17
ENDBRANCH  13  15
ENDBRANCH   9  13
ENDBRANCH   7   8
ENDBRANCH   5   7
ENDBRANCH   4   5
ENDBRANCH   3   4
ENDBRANCH   2   3
ENDBRANCH   1   2
BRANCH   1  24
ATOM     24  C   UNL     1       3.573  -8.011  -0.446  1.00  0.00     0.188 C 
BRANCH  24  25
ATOM     25  C   UNL     1       2.396  -7.388   0.310  1.00  0.00     0.188 C 
BRANCH  25  26
ATOM     26  O   UNL     1       2.475  -7.645   1.712  1.00  0.00    -0.376 OA
BRANCH  26  27
ATOM     27  C   UNL     1       1.202  -7.706   2.348  1.00  0.00     0.202 C 
BRANCH  27  28
ATOM     28  C   UNL     1       0.809  -9.171   2.485  1.00  0.00     0.261 C 
BRANCH  28  29
ATOM     29  O   UNL     1       0.714  -9.849   1.229  1.00  0.00    -0.460 OA
BRANCH  29  30
ATOM     30  C   UNL     1      -0.274  -9.440   0.424  1.00  0.00     0.338 C 
ATOM     31  O   UNL     1      -0.957  -8.411   0.532  1.00  0.00    -0.246 OA
BRANCH  30  32
ATOM     32  C   UNL     1      -0.512 -10.439  -0.604  1.00  0.00     0.060 A 
ATOM     33  C   UNL     1      -1.105 -10.033  -1.804  1.00  0.00     0.016 A 
ATOM     34  C   UNL     1      -0.366 -11.791  -0.262  1.00  0.00     0.016 A 
ATOM     35  C   UNL     1      -1.665 -10.992  -2.622  1.00  0.00     0.010 A 
ATOM     36  C   UNL     1      -0.966 -12.743  -1.055  1.00  0.00     0.010 A 
ATOM     37  C   UNL     1      -1.644 -12.330  -2.206  1.00  0.00    -0.014 A 
BRANCH  37  38
ATOM     38  C   UNL     1      -2.342 -13.334  -3.013  1.00  0.00     0.031 A 
ATOM     39  C   UNL     1      -1.416 -14.011  -4.016  1.00  0.00     0.074 A 
ATOM     40  C   UNL     1      -3.677 -13.466  -2.745  1.00  0.00     0.049 A 
ATOM     41  N   UNL     1      -1.721 -14.680  -5.080  1.00  0.00    -0.248 NA
ATOM     42  C   UNL     1       0.063 -13.893  -3.860  1.00  0.00     0.031 C 
ATOM     43  C   UNL     1      -4.405 -12.706  -1.698  1.00  0.00     0.029 A 
ATOM     44  N   UNL     1      -4.689 -14.238  -3.271  1.00  0.00    -0.354 N 
ATOM     45  C   UNL     1      -0.525 -15.191  -5.619  1.00  0.00     0.074 A 
ATOM     46  C   UNL     1       0.549 -14.615  -4.871  1.00  0.00     0.031 C 
ATOM     47  C   UNL     1      -5.725 -12.990  -1.723  1.00  0.00     0.029 A 
ATOM     48  C   UNL     1      -5.982 -13.978  -2.750  1.00  0.00     0.049 A 
ATOM     49  H   UNL     1      -4.526 -14.921  -3.961  1.00  0.00     0.167 HD
ATOM     50  C   UNL     1      -0.501 -16.140  -6.594  1.00  0.00     0.031 A 
ATOM     51  C   UNL     1      -7.186 -14.498  -3.135  1.00  0.00     0.031 A 
ATOM     52  C   UNL     1      -1.823 -16.446  -7.021  1.00  0.00     0.049 A 
ATOM     53  C   UNL     1      -6.880 -15.555  -4.110  1.00  0.00     0.074 A 
ATOM     54  C   UNL     1      -2.722 -15.751  -7.787  1.00  0.00     0.029 A 
ATOM     55  N   UNL     1      -2.483 -17.439  -6.336  1.00  0.00    -0.354 N 
ATOM     56  N   UNL     1      -6.366 -16.709  -3.815  1.00  0.00    -0.248 NA
ATOM     57  C   UNL     1      -7.110 -15.300  -5.537  1.00  0.00     0.031 C 
ATOM     58  C   UNL     1      -3.966 -16.052  -7.197  1.00  0.00     0.029 A 
ATOM     59  C   UNL     1      -3.792 -17.038  -6.218  1.00  0.00     0.049 A 
ATOM     60  H   UNL     1      -2.092 -18.276  -5.996  1.00  0.00     0.167 HD
ATOM     61  C   UNL     1      -5.852 -17.119  -5.019  1.00  0.00     0.074 A 
ATOM     62  C   UNL     1      -6.606 -16.424  -6.041  1.00  0.00     0.031 C 
ATOM     63  C   UNL     1      -4.555 -17.518  -5.087  1.00  0.00     0.031 A 
BRANCH  50  64
ATOM     64  C   UNL     1       0.613 -16.998  -7.108  1.00  0.00    -0.014 A 
ATOM     65  C   UNL     1       0.421 -17.600  -8.375  1.00  0.00     0.010 A 
ATOM     66  C   UNL     1       1.635 -17.497  -6.289  1.00  0.00     0.010 A 
ATOM     67  C   UNL     1       1.118 -18.747  -8.751  1.00  0.00     0.020 A 
ATOM     68  C   UNL     1       2.367 -18.632  -6.678  1.00  0.00     0.020 A 
ATOM     69  C   UNL     1       2.060 -19.280  -7.878  1.00  0.00     0.054 A 
BRANCH  69  70
ATOM     70  S   UNL     1       2.797 -20.882  -8.295  1.00  0.00     0.124 S 
ATOM     71  O   UNL     1       1.682 -21.798  -8.073  1.00  0.00    -0.237 OA
ATOM     72  O   UNL     1       3.187 -20.698  -9.692  1.00  0.00    -0.237 OA
ATOM     73  O   UNL     1       3.909 -21.004  -7.356  1.00  0.00    -0.744 OA
ENDBRANCH  69  70
ENDBRANCH  50  64
BRANCH  51  74
ATOM     74  C   UNL     1      -8.652 -14.220  -2.906  1.00  0.00    -0.014 A 
ATOM     75  C   UNL     1      -9.189 -13.236  -2.067  1.00  0.00     0.010 A 
ATOM     76  C   UNL     1      -9.590 -14.922  -3.715  1.00  0.00     0.010 A 
ATOM     77  C   UNL     1     -10.556 -12.877  -2.150  1.00  0.00     0.020 A 
ATOM     78  C   UNL     1     -10.926 -14.544  -3.845  1.00  0.00     0.020 A 
ATOM     79  C   UNL     1     -11.400 -13.496  -3.077  1.00  0.00     0.054 A 
BRANCH  79  80
ATOM     80  S   UNL     1     -13.067 -12.857  -3.406  1.00  0.00     0.124 S 
ATOM     81  O   UNL     1     -13.879 -13.581  -2.434  1.00  0.00    -0.237 OA
ATOM     82  O   UNL     1     -12.920 -11.423  -3.166  1.00  0.00    -0.237 OA
ATOM     83  O   UNL     1     -13.294 -13.218  -4.806  1.00  0.00    -0.744 OA
ENDBRANCH  79  80
ENDBRANCH  51  74
BRANCH  63  84
ATOM     84  C   UNL     1      -3.972 -18.021  -3.769  1.00  0.00    -0.014 A 
ATOM     85  C   UNL     1      -4.584 -19.100  -3.101  1.00  0.00     0.010 A 
ATOM     86  C   UNL     1      -2.906 -17.379  -3.106  1.00  0.00     0.010 A 
ATOM     87  C   UNL     1      -4.171 -19.503  -1.821  1.00  0.00     0.020 A 
ATOM     88  C   UNL     1      -2.480 -17.778  -1.825  1.00  0.00     0.020 A 
ATOM     89  C   UNL     1      -3.123 -18.837  -1.186  1.00  0.00     0.054 A 
BRANCH  89  90
ATOM     90  S   UNL     1      -2.635 -19.364   0.485  1.00  0.00     0.124 S 
ATOM     91  O   UNL     1      -3.856 -19.157   1.260  1.00  0.00    -0.237 OA
ATOM     92  O   UNL     1      -2.256 -20.759   0.279  1.00  0.00    -0.237 OA
ATOM     93  O   UNL     1      -1.532 -18.468   0.829  1.00  0.00    -0.744 OA
ENDBRANCH  89  90
ENDBRANCH  63  84
ENDBRANCH  37  38
ENDBRANCH  30  32
ENDBRANCH  29  30
ENDBRANCH  28  29
ENDBRANCH  27  28
ENDBRANCH  26  27
ENDBRANCH  25  26
ENDBRANCH  24  25
ENDBRANCH   1  24
TORSDOF 26
