REMARK SMILES CCn1c(CC2CC[NH+](Cc3cn[nH]c3C(=O)OCCOCCOCCOC(=O)c3ccc(-c4c5nc(c(-c6ccc(S(=O)(=O)[O-])cc6)c6ccc([nH]6)c(-c6ccc(S(=O)(=O)[O-])cc6)c6nc(c(-c7ccc(S(=O)(=O)[O-])cc7)c7ccc4[nH]7)C=C6)C=C5)cc3)CC2)nn(C)c1=O
REMARK SMILES IDX 22 1 21 2 20 3 19 4 18 5 16 6 17 7 15 8 11 9 12 10 13 11
REMARK SMILES IDX 14 12 10 14 9 15 6 16 7 17 91 18 8 19 90 20 5 22 4 23 3 24
REMARK SMILES IDX 95 25 92 26 93 27 96 28 94 29 2 30 1 31 23 32 24 33 25 34
REMARK SMILES IDX 26 35 27 36 28 37 29 38 30 39 31 40 89 41 32 42 88 43 33 44
REMARK SMILES IDX 34 45 35 46 82 47 36 48 87 49 81 50 83 51 37 52 86 53 80 54
REMARK SMILES IDX 79 55 38 57 68 58 49 59 67 60 50 61 53 62 66 63 84 64 51 65
REMARK SMILES IDX 52 66 65 68 85 69 54 70 39 71 40 72 48 73 41 74 47 75 42 76
REMARK SMILES IDX 43 77 44 78 45 79 46 80 69 81 70 82 78 83 71 84 77 85 72 86
REMARK SMILES IDX 73 87 74 88 75 89 76 90 55 91 56 92 64 93 57 94 63 95 58 96
REMARK SMILES IDX 59 97 60 98 61 99 62 100
REMARK H PARENT 14 13 9 21 83 56 53 67
REMARK Flexibility Score: inf
ROOT
ATOM      1  C   UNL     1      -1.704  -3.822   2.657  1.00  0.00     0.188 C 
ENDROOT
BRANCH   1   2
ATOM      2  O   UNL     1      -2.669  -4.762   3.089  1.00  0.00    -0.376 OA
BRANCH   2   3
ATOM      3  C   UNL     1      -3.413  -4.531   4.270  1.00  0.00     0.202 C 
BRANCH   3   4
ATOM      4  C   UNL     1      -2.755  -4.056   5.588  1.00  0.00     0.261 C 
BRANCH   4   5
ATOM      5  O   UNL     1      -1.696  -3.085   5.512  1.00  0.00    -0.459 OA
BRANCH   5   6
ATOM      6  C   UNL     1      -0.437  -3.579   5.444  1.00  0.00     0.356 C 
ATOM      7  O   UNL     1      -0.139  -4.761   5.547  1.00  0.00    -0.244 OA
BRANCH   6   8
ATOM      8  C   UNL     1       0.544  -2.530   5.227  1.00  0.00     0.152 A 
ATOM      9  C   UNL     1       0.659  -0.869   5.898  1.00  0.00     0.059 A 
ATOM     10  C   UNL     1       2.552  -0.332   5.701  1.00  0.00     0.145 A 
ATOM     11  N   UNL     1       3.417  -1.560   4.813  1.00  0.00    -0.183 NA
ATOM     12  N   UNL     1       2.224  -2.973   4.552  1.00  0.00    -0.271 N 
ATOM     13  H   UNL     1       2.449  -3.829   4.120  1.00  0.00     0.190 HD
BRANCH   9  14
ATOM     14  C   UNL     1      -0.460  -0.070   6.547  1.00  0.00     0.303 C 
BRANCH  14  15
ATOM     15  N   UNL     1      -0.901   1.142   5.817  1.00  0.00    -0.331 N 
ATOM     16  C   UNL     1      -0.443   2.716   3.324  1.00  0.00     0.008 C 
ATOM     17  C   UNL     1      -0.009   3.249   4.695  1.00  0.00     0.065 C 
ATOM     18  C   UNL     1      -1.738   1.937   3.537  1.00  0.00     0.065 C 
ATOM     19  C   UNL     1       0.111   2.195   5.794  1.00  0.00     0.262 C 
ATOM     20  C   UNL     1      -1.586   0.815   4.564  1.00  0.00     0.262 C 
ATOM     21  H   UNL     1      -1.642   1.594   6.353  1.00  0.00     0.348 HD
BRANCH  16  22
ATOM     22  C   UNL     1       0.615   1.983   2.448  1.00  0.00     0.081 C 
BRANCH  22  23
ATOM     23  C   UNL     1       1.035   0.578   2.836  1.00  0.00     0.133 A 
ATOM     24  N   UNL     1       1.065  -0.495   2.049  1.00  0.00    -0.279 N 
ATOM     25  C   UNL     1       1.427  -1.632   2.790  1.00  0.00     0.345 A 
ATOM     26  N   UNL     1       1.410   0.361   4.041  1.00  0.00    -0.155 NA
ATOM     27  N   UNL     1       1.642  -1.219   4.273  1.00  0.00    -0.216 N 
ATOM     28  O   UNL     1       1.460  -2.775   2.329  1.00  0.00    -0.246 OA
ATOM     29  C   UNL     1       2.177  -2.091   6.184  1.00  0.00     0.179 C 
BRANCH  24  30
ATOM     30  C   UNL     1       0.580  -0.622   0.678  1.00  0.00     0.125 C 
ATOM     31  C   UNL     1       1.248   0.243  -0.382  1.00  0.00     0.028 C 
ENDBRANCH  24  30
ENDBRANCH  22  23
ENDBRANCH  16  22
ENDBRANCH  14  15
ENDBRANCH   9  14
ENDBRANCH   6   8
ENDBRANCH   5   6
ENDBRANCH   4   5
ENDBRANCH   3   4
ENDBRANCH   2   3
ENDBRANCH   1   2
BRANCH   1  32
ATOM     32  C   UNL     1      -1.948  -2.306   2.793  1.00  0.00     0.188 C 
BRANCH  32  33
ATOM     33  O   UNL     1      -3.024  -1.873   3.593  1.00  0.00    -0.376 OA
BRANCH  33  34
ATOM     34  C   UNL     1      -4.290  -1.518   3.076  1.00  0.00     0.202 C 
BRANCH  34  35
ATOM     35  C   UNL     1      -4.808  -1.950   1.713  1.00  0.00     0.261 C 
BRANCH  35  36
ATOM     36  O   UNL     1      -3.933  -2.747   0.951  1.00  0.00    -0.460 OA
BRANCH  36  37
ATOM     37  C   UNL     1      -3.186  -2.037   0.079  1.00  0.00     0.338 C 
ATOM     38  O   UNL     1      -2.960  -0.840   0.084  1.00  0.00    -0.246 OA
BRANCH  37  39
ATOM     39  C   UNL     1      -2.753  -2.939  -0.969  1.00  0.00     0.060 A 
ATOM     40  C   UNL     1      -1.652  -2.596  -1.744  1.00  0.00     0.016 A 
ATOM     41  C   UNL     1      -3.653  -3.912  -1.372  1.00  0.00     0.016 A 
ATOM     42  C   UNL     1      -1.753  -2.845  -3.095  1.00  0.00     0.010 A 
ATOM     43  C   UNL     1      -3.513  -4.376  -2.640  1.00  0.00     0.010 A 
ATOM     44  C   UNL     1      -2.847  -3.583  -3.554  1.00  0.00    -0.014 A 
BRANCH  44  45
ATOM     45  C   UNL     1      -3.069  -3.868  -4.961  1.00  0.00     0.031 A 
ATOM     46  C   UNL     1      -1.928  -4.692  -5.436  1.00  0.00     0.074 A 
ATOM     47  C   UNL     1      -4.187  -3.519  -5.660  1.00  0.00     0.049 A 
ATOM     48  N   UNL     1      -0.882  -4.222  -6.031  1.00  0.00    -0.248 NA
ATOM     49  C   UNL     1      -1.717  -6.051  -4.891  1.00  0.00     0.031 C 
ATOM     50  C   UNL     1      -5.399  -2.785  -5.255  1.00  0.00     0.029 A 
ATOM     51  N   UNL     1      -4.483  -3.800  -6.971  1.00  0.00    -0.354 N 
ATOM     52  C   UNL     1      -0.067  -5.320  -6.255  1.00  0.00     0.074 A 
ATOM     53  C   UNL     1      -0.478  -6.319  -5.311  1.00  0.00     0.031 C 
ATOM     54  C   UNL     1      -6.374  -2.914  -6.199  1.00  0.00     0.029 A 
ATOM     55  C   UNL     1      -5.830  -3.613  -7.350  1.00  0.00     0.049 A 
ATOM     56  H   UNL     1      -3.799  -4.113  -7.606  1.00  0.00     0.167 HD
ATOM     57  C   UNL     1       0.584  -5.436  -7.443  1.00  0.00     0.031 A 
ATOM     58  C   UNL     1      -6.401  -3.914  -8.565  1.00  0.00     0.031 A 
ATOM     59  C   UNL     1       0.582  -4.173  -8.141  1.00  0.00     0.049 A 
ATOM     60  C   UNL     1      -5.271  -3.964  -9.535  1.00  0.00     0.074 A 
ATOM     61  C   UNL     1       1.087  -2.916  -7.884  1.00  0.00     0.029 A 
ATOM     62  N   UNL     1      -0.443  -4.010  -9.042  1.00  0.00    -0.354 N 
ATOM     63  N   UNL     1      -4.586  -2.893  -9.837  1.00  0.00    -0.248 NA
ATOM     64  C   UNL     1      -4.557  -5.230  -9.636  1.00  0.00     0.031 C 
ATOM     65  C   UNL     1       0.061  -2.016  -8.299  1.00  0.00     0.029 A 
ATOM     66  C   UNL     1      -0.956  -2.746  -8.916  1.00  0.00     0.049 A 
ATOM     67  H   UNL     1      -0.758  -4.693  -9.678  1.00  0.00     0.167 HD
ATOM     68  C   UNL     1      -3.262  -3.283  -9.706  1.00  0.00     0.074 A 
ATOM     69  C   UNL     1      -3.310  -4.748  -9.583  1.00  0.00     0.031 C 
ATOM     70  C   UNL     1      -2.289  -2.387  -9.353  1.00  0.00     0.031 A 
BRANCH  57  71
ATOM     71  C   UNL     1       0.715  -6.744  -8.185  1.00  0.00    -0.014 A 
ATOM     72  C   UNL     1       1.430  -6.739  -9.398  1.00  0.00     0.010 A 
ATOM     73  C   UNL     1      -0.066  -7.886  -7.904  1.00  0.00     0.010 A 
ATOM     74  C   UNL     1       1.335  -7.802 -10.302  1.00  0.00     0.020 A 
ATOM     75  C   UNL     1      -0.141  -8.968  -8.787  1.00  0.00     0.020 A 
ATOM     76  C   UNL     1       0.550  -8.911  -9.990  1.00  0.00     0.054 A 
BRANCH  76  77
ATOM     77  S   UNL     1       0.438 -10.266 -11.184  1.00  0.00     0.124 S 
ATOM     78  O   UNL     1      -0.202  -9.617 -12.324  1.00  0.00    -0.237 OA
ATOM     79  O   UNL     1       1.842 -10.624 -11.366  1.00  0.00    -0.237 OA
ATOM     80  O   UNL     1      -0.371 -11.266 -10.493  1.00  0.00    -0.744 OA
ENDBRANCH  76  77
ENDBRANCH  57  71
BRANCH  58  81
ATOM     81  C   UNL     1      -7.686  -4.654  -8.847  1.00  0.00    -0.014 A 
ATOM     82  C   UNL     1      -8.227  -4.824 -10.150  1.00  0.00     0.010 A 
ATOM     83  C   UNL     1      -8.227  -5.471  -7.839  1.00  0.00     0.010 A 
ATOM     84  C   UNL     1      -9.224  -5.798 -10.427  1.00  0.00     0.020 A 
ATOM     85  C   UNL     1      -9.206  -6.445  -8.106  1.00  0.00     0.020 A 
ATOM     86  C   UNL     1      -9.691  -6.622  -9.399  1.00  0.00     0.054 A 
BRANCH  86  87
ATOM     87  S   UNL     1     -10.838  -8.002  -9.750  1.00  0.00     0.124 S 
ATOM     88  O   UNL     1     -12.072  -7.308 -10.109  1.00  0.00    -0.237 OA
ATOM     89  O   UNL     1     -10.173  -8.710 -10.840  1.00  0.00    -0.237 OA
ATOM     90  O   UNL     1     -10.891  -8.734  -8.485  1.00  0.00    -0.744 OA
ENDBRANCH  86  87
ENDBRANCH  58  81
BRANCH  70  91
ATOM     91  C   UNL     1      -2.630  -0.912  -9.326  1.00  0.00    -0.014 A 
ATOM     92  C   UNL     1      -3.515  -0.283  -8.421  1.00  0.00     0.010 A 
ATOM     93  C   UNL     1      -1.880  -0.102 -10.192  1.00  0.00     0.010 A 
ATOM     94  C   UNL     1      -3.665   1.119  -8.424  1.00  0.00     0.020 A 
ATOM     95  C   UNL     1      -2.010   1.286 -10.186  1.00  0.00     0.020 A 
ATOM     96  C   UNL     1      -2.914   1.892  -9.318  1.00  0.00     0.054 A 
BRANCH  96  97
ATOM     97  S   UNL     1      -3.106   3.699  -9.350  1.00  0.00     0.124 S 
ATOM     98  O   UNL     1      -4.475   3.864  -9.827  1.00  0.00    -0.237 OA
ATOM     99  O   UNL     1      -2.874   4.075  -7.957  1.00  0.00    -0.237 OA
ATOM    100  O   UNL     1      -2.070   4.142 -10.282  1.00  0.00    -0.744 OA
ENDBRANCH  96  97
ENDBRANCH  70  91
ENDBRANCH  44  45
ENDBRANCH  37  39
ENDBRANCH  36  37
ENDBRANCH  35  36
ENDBRANCH  34  35
ENDBRANCH  33  34
ENDBRANCH  32  33
ENDBRANCH   1  32
TORSDOF 25
