REMARK SMILES O=C(OCCOCCOCCOC(=O)[C@H]1O[C@@H](Oc2c(-c3cc(O)c(O)c(O)c3)oc3cc(O)cc(O)c3c2=O)[C@H](O)[C@@H](O)[C@@H]1O)c1ccc(-c2c3nc(c(-c4ccc(S(=O)(=O)[O-])cc4)c4ccc([nH]4)c(-c4ccc(S(=O)(=O)[O-])cc4)c4nc(c(-c5ccc(S(=O)(=O)[O-])cc5)c5ccc2[nH]5)C=C4)C=C3)cc1
REMARK SMILES IDX 8 1 7 2 6 3 5 4 4 5 3 6 2 7 1 8 47 9 48 10 106 11 49 12
REMARK SMILES IDX 105 13 50 14 51 15 52 16 99 17 53 18 104 19 98 20 100 21
REMARK SMILES IDX 54 22 103 23 97 24 96 25 55 27 85 28 66 29 84 30 67 31 70 32
REMARK SMILES IDX 83 33 101 34 68 35 69 36 82 38 102 39 71 40 56 41 57 42
REMARK SMILES IDX 65 43 58 44 64 45 59 46 60 47 61 48 62 49 63 50 86 51 87 52
REMARK SMILES IDX 95 53 88 54 94 55 89 56 90 57 91 58 92 59 93 60 72 61 73 62
REMARK SMILES IDX 81 63 74 64 80 65 75 66 76 67 77 68 78 69 79 70 9 71 10 72
REMARK SMILES IDX 11 73 12 74 13 75 14 76 15 77 16 78 45 79 17 80 43 81 41 82
REMARK SMILES IDX 46 83 18 85 19 86 20 87 39 88 30 89 38 90 40 91 31 92 36 93
REMARK SMILES IDX 32 94 35 95 33 96 21 97 22 98 29 99 23 100 27 101 25 102
REMARK SMILES IDX 24 103 28 105 26 107 37 109 34 111 44 113 42 115
REMARK H PARENT 100 26 70 37 46 84 24 104 28 106 26 108 37 110 34 112 44 114
REMARK H PARENT 42 116
REMARK Flexibility Score: inf
ROOT
ATOM      1  C   UNL     1       3.946  -0.042   6.740  1.00  0.00     0.188 C 
ENDROOT
BRANCH   1   2
ATOM      2  C   UNL     1       4.857  -1.269   6.743  1.00  0.00     0.188 C 
BRANCH   2   3
ATOM      3  O   UNL     1       4.396  -2.458   7.368  1.00  0.00    -0.376 OA
BRANCH   3   4
ATOM      4  C   UNL     1       5.194  -3.084   8.384  1.00  0.00     0.202 C 
BRANCH   4   5
ATOM      5  C   UNL     1       6.743  -2.948   8.414  1.00  0.00     0.261 C 
BRANCH   5   6
ATOM      6  O   UNL     1       7.439  -2.153   7.414  1.00  0.00    -0.460 OA
BRANCH   6   7
ATOM      7  C   UNL     1       7.583  -2.255   6.067  1.00  0.00     0.338 C 
ATOM      8  O   UNL     1       8.032  -1.298   5.440  1.00  0.00    -0.246 OA
BRANCH   7   9
ATOM      9  C   UNL     1       7.218  -3.495   5.335  1.00  0.00     0.060 A 
ATOM     10  C   UNL     1       6.324  -4.415   5.848  1.00  0.00     0.016 A 
ATOM     11  C   UNL     1       7.684  -3.735   4.045  1.00  0.00     0.016 A 
ATOM     12  C   UNL     1       6.060  -5.647   5.305  1.00  0.00     0.010 A 
ATOM     13  C   UNL     1       7.323  -4.929   3.389  1.00  0.00     0.010 A 
ATOM     14  C   UNL     1       6.551  -5.915   4.050  1.00  0.00    -0.014 A 
BRANCH  14  15
ATOM     15  C   UNL     1       6.124  -7.213   3.474  1.00  0.00     0.031 A 
ATOM     16  C   UNL     1       7.133  -8.182   3.259  1.00  0.00     0.074 A 
ATOM     17  C   UNL     1       4.861  -7.466   3.058  1.00  0.00     0.049 A 
ATOM     18  N   UNL     1       6.939  -9.255   2.587  1.00  0.00    -0.248 NA
ATOM     19  C   UNL     1       8.472  -7.904   3.778  1.00  0.00     0.031 C 
ATOM     20  C   UNL     1       4.082  -5.792   2.863  1.00  0.00     0.029 A 
ATOM     21  N   UNL     1       3.790  -8.725   2.216  1.00  0.00    -0.354 N 
ATOM     22  C   UNL     1       8.135  -9.865   2.666  1.00  0.00     0.074 A 
ATOM     23  C   UNL     1       9.088  -8.969   3.302  1.00  0.00     0.031 C 
ATOM     24  C   UNL     1       2.743  -5.868   1.962  1.00  0.00     0.029 A 
ATOM     25  C   UNL     1       2.283  -7.862   1.402  1.00  0.00     0.049 A 
ATOM     26  H   UNL     1       3.969  -9.693   2.190  1.00  0.00     0.167 HD
ATOM     27  C   UNL     1       8.313 -11.133   2.309  1.00  0.00     0.031 A 
ATOM     28  C   UNL     1       1.344  -8.632   0.714  1.00  0.00     0.031 A 
ATOM     29  C   UNL     1       7.347 -11.912   1.597  1.00  0.00     0.049 A 
ATOM     30  C   UNL     1       1.895  -9.961   0.311  1.00  0.00     0.074 A 
ATOM     31  C   UNL     1       7.544 -13.175   1.100  1.00  0.00     0.029 A 
ATOM     32  N   UNL     1       6.050 -11.517   1.233  1.00  0.00    -0.354 N 
ATOM     33  N   UNL     1       3.119 -10.407   0.445  1.00  0.00    -0.248 NA
ATOM     34  C   UNL     1       0.988 -10.855  -0.409  1.00  0.00     0.031 C 
ATOM     35  C   UNL     1       6.435 -13.499   0.329  1.00  0.00     0.029 A 
ATOM     36  C   UNL     1       5.473 -12.500   0.437  1.00  0.00     0.049 A 
ATOM     37  H   UNL     1       5.617 -10.675   1.500  1.00  0.00     0.167 HD
ATOM     38  C   UNL     1       3.131 -11.662  -0.093  1.00  0.00     0.074 A 
ATOM     39  C   UNL     1       1.789 -11.886  -0.624  1.00  0.00     0.031 C 
ATOM     40  C   UNL     1       4.143 -12.557  -0.138  1.00  0.00     0.031 A 
BRANCH  27  41
ATOM     41  C   UNL     1       9.662 -11.602   2.641  1.00  0.00    -0.014 A 
ATOM     42  C   UNL     1      10.062 -11.721   3.987  1.00  0.00     0.010 A 
ATOM     43  C   UNL     1      10.576 -11.710   1.592  1.00  0.00     0.010 A 
ATOM     44  C   UNL     1      11.396 -11.944   4.275  1.00  0.00     0.020 A 
ATOM     45  C   UNL     1      11.898 -11.988   1.879  1.00  0.00     0.020 A 
ATOM     46  C   UNL     1      12.294 -12.107   3.215  1.00  0.00     0.054 A 
BRANCH  46  47
ATOM     47  S   UNL     1      13.990 -12.558   3.611  1.00  0.00     0.124 S 
ATOM     48  O   UNL     1      14.485 -11.343   4.251  1.00  0.00    -0.237 OA
ATOM     49  O   UNL     1      13.800 -13.706   4.494  1.00  0.00    -0.237 OA
ATOM     50  O   UNL     1      14.575 -12.864   2.309  1.00  0.00    -0.744 OA
ENDBRANCH  46  47
ENDBRANCH  27  41
BRANCH  28  51
ATOM     51  C   UNL     1      -0.072  -8.306   0.262  1.00  0.00    -0.014 A 
ATOM     52  C   UNL     1      -1.167  -8.641   1.085  1.00  0.00     0.010 A 
ATOM     53  C   UNL     1      -0.344  -7.568  -0.906  1.00  0.00     0.010 A 
ATOM     54  C   UNL     1      -2.439  -8.086   0.855  1.00  0.00     0.020 A 
ATOM     55  C   UNL     1      -1.569  -6.902  -1.061  1.00  0.00     0.020 A 
ATOM     56  C   UNL     1      -2.611  -7.158  -0.174  1.00  0.00     0.054 A 
BRANCH  56  57
ATOM     57  S   UNL     1      -4.149  -6.197  -0.293  1.00  0.00     0.124 S 
ATOM     58  O   UNL     1      -4.960  -7.037  -1.169  1.00  0.00    -0.237 OA
ATOM     59  O   UNL     1      -4.595  -6.112   1.095  1.00  0.00    -0.237 OA
ATOM     60  O   UNL     1      -3.709  -4.928  -0.871  1.00  0.00    -0.744 OA
ENDBRANCH  56  57
ENDBRANCH  28  51
BRANCH  40  61
ATOM     61  C   UNL     1       3.766 -13.818  -0.844  1.00  0.00    -0.014 A 
ATOM     62  C   UNL     1       3.517 -13.819  -2.228  1.00  0.00     0.010 A 
ATOM     63  C   UNL     1       3.634 -14.994  -0.091  1.00  0.00     0.010 A 
ATOM     64  C   UNL     1       3.081 -14.984  -2.841  1.00  0.00     0.020 A 
ATOM     65  C   UNL     1       3.266 -16.175  -0.718  1.00  0.00     0.020 A 
ATOM     66  C   UNL     1       2.977 -16.156  -2.085  1.00  0.00     0.054 A 
BRANCH  66  67
ATOM     67  S   UNL     1       2.498 -17.674  -2.934  1.00  0.00     0.124 S 
ATOM     68  O   UNL     1       1.104 -17.403  -3.274  1.00  0.00    -0.237 OA
ATOM     69  O   UNL     1       3.428 -17.703  -4.061  1.00  0.00    -0.237 OA
ATOM     70  O   UNL     1       2.707 -18.713  -1.929  1.00  0.00    -0.744 OA
ENDBRANCH  66  67
ENDBRANCH  40  61
ENDBRANCH  14  15
ENDBRANCH   7   9
ENDBRANCH   6   7
ENDBRANCH   5   6
ENDBRANCH   4   5
ENDBRANCH   3   4
ENDBRANCH   2   3
ENDBRANCH   1   2
BRANCH   1  71
ATOM     71  O   UNL     1       3.341   0.350   7.964  1.00  0.00    -0.376 OA
BRANCH  71  72
ATOM     72  C   UNL     1       2.763  -0.679   8.757  1.00  0.00     0.202 C 
BRANCH  72  73
ATOM     73  C   UNL     1       1.593  -1.498   8.191  1.00  0.00     0.261 C 
BRANCH  73  74
ATOM     74  O   UNL     1       1.666  -1.732   6.793  1.00  0.00    -0.461 OA
BRANCH  74  75
ATOM     75  C   UNL     1       0.992  -0.974   5.856  1.00  0.00     0.338 C 
ATOM     76  O   UNL     1       0.274  -0.018   6.072  1.00  0.00    -0.249 OA
BRANCH  75  77
ATOM     77  C   UNL     1       1.517  -1.501   4.543  1.00  0.00     0.263 C 
ATOM     78  O   UNL     1       1.291  -2.919   4.738  1.00  0.00    -0.322 OA
ATOM     79  C   UNL     1       1.207  -1.198   3.089  1.00  0.00     0.186 C 
ATOM     80  C   UNL     1       2.529  -3.551   4.511  1.00  0.00     0.340 C 
ATOM     81  C   UNL     1       2.345  -1.896   2.338  1.00  0.00     0.181 C 
ATOM     82  C   UNL     1       2.805  -3.184   3.003  1.00  0.00     0.214 C 
BRANCH  79  83
ATOM     83  O   UNL     1       1.318   0.172   2.707  1.00  0.00    -0.387 OA
ATOM     84  H   UNL     1       2.223   0.481   2.871  1.00  0.00     0.211 HD
ENDBRANCH  79  83
BRANCH  80  85
ATOM     85  O   UNL     1       2.516  -4.961   4.887  1.00  0.00    -0.454 OA
BRANCH  85  86
ATOM     86  C   UNL     1       1.337  -5.621   5.265  1.00  0.00     0.214 A 
ATOM     87  C   UNL     1       0.664  -6.452   4.433  1.00  0.00     0.181 A 
ATOM     88  C   UNL     1       1.017  -5.811   6.733  1.00  0.00     0.239 A 
ATOM     89  O   UNL     1      -0.449  -7.188   4.717  1.00  0.00    -0.452 OA
ATOM     90  C   UNL     1      -0.156  -6.690   7.075  1.00  0.00     0.111 A 
ATOM     91  O   UNL     1       1.742  -5.328   7.598  1.00  0.00    -0.285 OA
ATOM     92  C   UNL     1      -0.833  -7.302   6.020  1.00  0.00     0.146 A 
ATOM     93  C   UNL     1      -0.617  -6.962   8.377  1.00  0.00     0.134 A 
ATOM     94  C   UNL     1      -1.946  -8.122   6.226  1.00  0.00     0.094 A 
ATOM     95  C   UNL     1      -1.737  -7.791   8.595  1.00  0.00     0.093 A 
ATOM     96  C   UNL     1      -2.397  -8.357   7.511  1.00  0.00     0.123 A 
BRANCH  87  97
ATOM     97  C   UNL     1       1.175  -6.741   3.099  1.00  0.00     0.029 A 
ATOM     98  C   UNL     1       0.539  -6.021   1.703  1.00  0.00     0.062 A 
ATOM     99  C   UNL     1       2.818  -7.325   3.026  1.00  0.00     0.062 A 
ATOM    100  C   UNL     1       1.404  -5.833   0.191  1.00  0.00     0.162 A 
ATOM    101  C   UNL     1       3.885  -7.061   1.242  1.00  0.00     0.162 A 
ATOM    102  C   UNL     1       3.010  -6.343  -0.104  1.00  0.00     0.200 A 
BRANCH 100 103
ATOM    103  O   UNL     1       0.872  -4.831  -0.605  1.00  0.00    -0.504 OA
ATOM    104  H   UNL     1      -0.005  -4.536  -0.462  1.00  0.00     0.293 HD
ENDBRANCH 100 103
BRANCH 101 105
ATOM    105  O   UNL     1       5.177  -7.397   0.787  1.00  0.00    -0.504 OA
ATOM    106  H   UNL     1       5.442  -7.168  -0.081  1.00  0.00     0.293 HD
ENDBRANCH 101 105
BRANCH 102 107
ATOM    107  O   UNL     1       3.721  -6.007  -1.212  1.00  0.00    -0.502 OA
ATOM    108  H   UNL     1       3.287  -5.622  -1.948  1.00  0.00     0.293 HD
ENDBRANCH 102 107
ENDBRANCH  87  97
BRANCH  93 109
ATOM    109  O   UNL     1       0.005  -6.430   9.474  1.00  0.00    -0.507 OA
ATOM    110  H   UNL     1      -0.316  -6.622  10.333  1.00  0.00     0.293 HD
ENDBRANCH  93 109
BRANCH  96 111
ATOM    111  O   UNL     1      -3.489  -9.157   7.655  1.00  0.00    -0.508 OA
ATOM    112  H   UNL     1      -3.908  -9.520   6.899  1.00  0.00     0.293 HD
ENDBRANCH  96 111
ENDBRANCH  85  86
ENDBRANCH  80  85
BRANCH  81 113
ATOM    113  O   UNL     1       2.012  -2.137   0.945  1.00  0.00    -0.387 OA
ATOM    114  H   UNL     1       1.266  -2.756   0.892  1.00  0.00     0.211 HD
ENDBRANCH  81 113
BRANCH  82 115
ATOM    115  O   UNL     1       4.162  -3.240   2.566  1.00  0.00    -0.384 OA
ATOM    116  H   UNL     1       4.641  -2.466   2.900  1.00  0.00     0.211 HD
ENDBRANCH  82 115
ENDBRANCH  75  77
ENDBRANCH  74  75
ENDBRANCH  73  74
ENDBRANCH  72  73
ENDBRANCH  71  72
ENDBRANCH   1  71
TORSDOF 31
