REMARK SMILES CCc1noc(C)c1C(=O)Nc1cc(Cl)ccc1C(=O)OCCOCCOCCOC(=O)c1ccc(-c2c3nc(c(-c4ccc(S(=O)(=O)[O-])cc4)c4ccc([nH]4)c(-c4ccc(S(=O)(=O)[O-])cc4)c4nc(c(-c5ccc(S(=O)(=O)[O-])cc5)c5ccc2[nH]5)C=C4)C=C3)cc1
REMARK SMILES IDX 25 1 24 2 23 3 22 4 21 5 19 6 20 7 18 8 12 9 13 10 14 11
REMARK SMILES IDX 17 12 15 13 16 14 11 15 9 16 10 17 8 19 3 20 4 21 5 22 6 23
REMARK SMILES IDX 7 24 2 25 1 26 26 27 27 28 28 29 29 30 30 31 31 32 32 33
REMARK SMILES IDX 33 34 34 35 92 36 35 37 91 38 36 39 37 40 38 41 85 42 39 43
REMARK SMILES IDX 90 44 84 45 86 46 40 47 89 48 83 49 82 50 41 52 71 53 52 54
REMARK SMILES IDX 70 55 53 56 56 57 69 58 87 59 54 60 55 61 68 63 88 64 57 65
REMARK SMILES IDX 42 66 43 67 51 68 44 69 50 70 45 71 46 72 47 73 48 74 49 75
REMARK SMILES IDX 72 76 73 77 81 78 74 79 80 80 75 81 76 82 77 83 78 84 79 85
REMARK SMILES IDX 58 86 59 87 67 88 60 89 66 90 61 91 62 92 63 93 64 94 65 95
REMARK H PARENT 11 18 86 51 56 62
REMARK Flexibility Score: inf
ROOT
ATOM      1  C   UNL     1       1.600   2.021  -7.357  1.00  0.00     0.188 C 
ENDROOT
BRANCH   1   2
ATOM      2  O   UNL     1       1.471   0.775  -7.999  1.00  0.00    -0.376 OA
BRANCH   2   3
ATOM      3  C   UNL     1       2.145  -0.373  -7.519  1.00  0.00     0.202 C 
BRANCH   3   4
ATOM      4  C   UNL     1       3.340  -0.373  -6.547  1.00  0.00     0.261 C 
BRANCH   4   5
ATOM      5  O   UNL     1       3.475   0.737  -5.652  1.00  0.00    -0.460 OA
BRANCH   5   6
ATOM      6  C   UNL     1       4.491   1.590  -5.934  1.00  0.00     0.340 C 
ATOM      7  O   UNL     1       5.282   1.476  -6.857  1.00  0.00    -0.246 OA
BRANCH   6   8
ATOM      8  C   UNL     1       4.483   2.788  -5.045  1.00  0.00     0.083 A 
ATOM      9  C   UNL     1       4.088   2.799  -3.686  1.00  0.00     0.057 A 
ATOM     10  C   UNL     1       4.379   3.927  -2.917  1.00  0.00     0.047 A 
ATOM     11  C   UNL     1       4.837   5.098  -3.533  1.00  0.00     0.043 A 
ATOM     12  C   UNL     1       4.890   3.985  -5.658  1.00  0.00     0.019 A 
ATOM     13  Cl  UNL     1       5.109   6.508  -2.586  1.00  0.00    -0.084 Cl
ATOM     14  C   UNL     1       5.027   5.150  -4.909  1.00  0.00     0.021 A 
BRANCH   9  15
ATOM     15  N   UNL     1       3.407   1.695  -3.155  1.00  0.00    -0.321 N 
ATOM     16  C   UNL     1       2.537   1.454  -2.115  1.00  0.00     0.261 C 
ATOM     17  O   UNL     1       2.401   0.251  -1.881  1.00  0.00    -0.269 OA
ATOM     18  H   UNL     1       3.603   0.873  -3.659  1.00  0.00     0.170 HD
BRANCH  16  19
ATOM     19  C   UNL     1       1.775   2.454  -1.367  1.00  0.00     0.105 A 
ATOM     20  C   UNL     1       1.046   2.259  -0.122  1.00  0.00     0.096 A 
ATOM     21  N   UNL     1       0.543   3.421   0.319  1.00  0.00    -0.084 NA
ATOM     22  O   UNL     1       0.750   4.331  -0.667  1.00  0.00    -0.361 OA
ATOM     23  C   UNL     1       1.392   3.749  -1.710  1.00  0.00     0.146 A 
ATOM     24  C   UNL     1       1.428   4.650  -2.878  1.00  0.00     0.092 C 
BRANCH  20  25
ATOM     25  C   UNL     1       0.709   1.095   0.767  1.00  0.00     0.057 C 
ATOM     26  C   UNL     1       0.859  -0.324   0.272  1.00  0.00     0.011 C 
ENDBRANCH  20  25
ENDBRANCH  16  19
ENDBRANCH   9  15
ENDBRANCH   6   8
ENDBRANCH   5   6
ENDBRANCH   4   5
ENDBRANCH   3   4
ENDBRANCH   2   3
ENDBRANCH   1   2
BRANCH   1  27
ATOM     27  C   UNL     1       0.977   2.197  -5.961  1.00  0.00     0.188 C 
BRANCH  27  28
ATOM     28  O   UNL     1       0.475   1.077  -5.270  1.00  0.00    -0.376 OA
BRANCH  28  29
ATOM     29  C   UNL     1      -0.675   0.398  -5.746  1.00  0.00     0.202 C 
BRANCH  29  30
ATOM     30  C   UNL     1      -1.752   0.998  -6.672  1.00  0.00     0.261 C 
BRANCH  30  31
ATOM     31  O   UNL     1      -1.371   2.061  -7.548  1.00  0.00    -0.460 OA
BRANCH  31  32
ATOM     32  C   UNL     1      -1.788   3.297  -7.180  1.00  0.00     0.338 C 
ATOM     33  O   UNL     1      -2.387   3.602  -6.158  1.00  0.00    -0.246 OA
BRANCH  32  34
ATOM     34  C   UNL     1      -1.237   4.280  -8.126  1.00  0.00     0.060 A 
ATOM     35  C   UNL     1      -0.275   5.198  -7.678  1.00  0.00     0.016 A 
ATOM     36  C   UNL     1      -1.686   4.306  -9.445  1.00  0.00     0.016 A 
ATOM     37  C   UNL     1       0.240   6.154  -8.554  1.00  0.00     0.010 A 
ATOM     38  C   UNL     1      -1.190   5.281 -10.312  1.00  0.00     0.010 A 
ATOM     39  C   UNL     1      -0.243   6.221  -9.866  1.00  0.00    -0.014 A 
BRANCH  39  40
ATOM     40  C   UNL     1       0.092   7.368 -10.742  1.00  0.00     0.031 A 
ATOM     41  C   UNL     1      -0.914   8.477 -10.874  1.00  0.00     0.074 A 
ATOM     42  C   UNL     1       1.237   7.400 -11.446  1.00  0.00     0.049 A 
ATOM     43  N   UNL     1      -0.931   9.486 -11.704  1.00  0.00    -0.248 NA
ATOM     44  C   UNL     1      -2.061   8.432  -9.951  1.00  0.00     0.031 C 
ATOM     45  C   UNL     1       2.315   6.417 -11.359  1.00  0.00     0.029 A 
ATOM     46  N   UNL     1       1.667   8.290 -12.399  1.00  0.00    -0.354 N 
ATOM     47  C   UNL     1      -2.100  10.183 -11.422  1.00  0.00     0.074 A 
ATOM     48  C   UNL     1      -2.773   9.472 -10.357  1.00  0.00     0.031 C 
ATOM     49  C   UNL     1       3.274   6.745 -12.243  1.00  0.00     0.029 A 
ATOM     50  C   UNL     1       2.853   7.928 -12.992  1.00  0.00     0.049 A 
ATOM     51  H   UNL     1       1.173   9.108 -12.635  1.00  0.00     0.167 HD
ATOM     52  C   UNL     1      -2.572  11.311 -12.002  1.00  0.00     0.031 A 
ATOM     53  C   UNL     1       3.502   8.466 -14.046  1.00  0.00     0.031 A 
ATOM     54  C   UNL     1      -1.907  11.997 -13.078  1.00  0.00     0.049 A 
ATOM     55  C   UNL     1       2.911   9.668 -14.741  1.00  0.00     0.074 A 
ATOM     56  C   UNL     1      -2.299  13.151 -13.733  1.00  0.00     0.029 A 
ATOM     57  N   UNL     1      -0.718  11.588 -13.662  1.00  0.00    -0.354 N 
ATOM     58  N   UNL     1       1.808  10.323 -14.463  1.00  0.00    -0.248 NA
ATOM     59  C   UNL     1       3.655  10.205 -15.890  1.00  0.00     0.031 C 
ATOM     60  C   UNL     1      -1.381  13.403 -14.757  1.00  0.00     0.029 A 
ATOM     61  C   UNL     1      -0.374  12.453 -14.687  1.00  0.00     0.049 A 
ATOM     62  H   UNL     1      -0.196  10.800 -13.389  1.00  0.00     0.167 HD
ATOM     63  C   UNL     1       1.750  11.373 -15.375  1.00  0.00     0.074 A 
ATOM     64  C   UNL     1       2.927  11.267 -16.211  1.00  0.00     0.031 C 
ATOM     65  C   UNL     1       0.811  12.344 -15.502  1.00  0.00     0.031 A 
BRANCH  52  66
ATOM     66  C   UNL     1      -3.894  11.844 -11.516  1.00  0.00    -0.014 A 
ATOM     67  C   UNL     1      -4.031  12.406 -10.234  1.00  0.00     0.010 A 
ATOM     68  C   UNL     1      -5.012  11.808 -12.370  1.00  0.00     0.010 A 
ATOM     69  C   UNL     1      -5.270  12.885  -9.801  1.00  0.00     0.020 A 
ATOM     70  C   UNL     1      -6.245  12.316 -11.952  1.00  0.00     0.020 A 
ATOM     71  C   UNL     1      -6.370  12.835 -10.662  1.00  0.00     0.054 A 
BRANCH  71  72
ATOM     72  S   UNL     1      -7.960  13.483 -10.079  1.00  0.00     0.124 S 
ATOM     73  O   UNL     1      -8.348  12.480  -9.090  1.00  0.00    -0.237 OA
ATOM     74  O   UNL     1      -7.594  14.789  -9.538  1.00  0.00    -0.237 OA
ATOM     75  O   UNL     1      -8.784  13.519 -11.284  1.00  0.00    -0.744 OA
ENDBRANCH  71  72
ENDBRANCH  52  66
BRANCH  53  76
ATOM     76  C   UNL     1       4.775   7.860 -14.527  1.00  0.00    -0.014 A 
ATOM     77  C   UNL     1       5.991   8.553 -14.395  1.00  0.00     0.010 A 
ATOM     78  C   UNL     1       4.779   6.585 -15.124  1.00  0.00     0.010 A 
ATOM     79  C   UNL     1       7.183   7.991 -14.864  1.00  0.00     0.020 A 
ATOM     80  C   UNL     1       5.973   6.006 -15.565  1.00  0.00     0.020 A 
ATOM     81  C   UNL     1       7.167   6.718 -15.441  1.00  0.00     0.054 A 
BRANCH  81  82
ATOM     82  S   UNL     1       8.735   5.990 -15.990  1.00  0.00     0.124 S 
ATOM     83  O   UNL     1       9.055   6.803 -17.159  1.00  0.00    -0.237 OA
ATOM     84  O   UNL     1       9.595   6.187 -14.826  1.00  0.00    -0.237 OA
ATOM     85  O   UNL     1       8.387   4.599 -16.270  1.00  0.00    -0.744 OA
ENDBRANCH  81  82
ENDBRANCH  53  76
BRANCH  65  86
ATOM     86  C   UNL     1       1.039  13.419 -16.534  1.00  0.00    -0.014 A 
ATOM     87  C   UNL     1       0.910  13.164 -17.910  1.00  0.00     0.010 A 
ATOM     88  C   UNL     1       1.300  14.734 -16.103  1.00  0.00     0.010 A 
ATOM     89  C   UNL     1       1.057  14.201 -18.837  1.00  0.00     0.020 A 
ATOM     90  C   UNL     1       1.416  15.778 -17.023  1.00  0.00     0.020 A 
ATOM     91  C   UNL     1       1.302  15.503 -18.387  1.00  0.00     0.054 A 
BRANCH  91  92
ATOM     92  S   UNL     1       1.417  16.842 -19.605  1.00  0.00     0.124 S 
ATOM     93  O   UNL     1       2.695  16.557 -20.252  1.00  0.00    -0.237 OA
ATOM     94  O   UNL     1       0.232  16.624 -20.432  1.00  0.00    -0.237 OA
ATOM     95  O   UNL     1       1.388  18.056 -18.793  1.00  0.00    -0.744 OA
ENDBRANCH  91  92
ENDBRANCH  65  86
ENDBRANCH  39  40
ENDBRANCH  32  34
ENDBRANCH  31  32
ENDBRANCH  30  31
ENDBRANCH  29  30
ENDBRANCH  28  29
ENDBRANCH  27  28
ENDBRANCH   1  27
TORSDOF 23
