REMARK SMILES O=C(OCCOCCOCCOC(=O)c1ccccc1Nc1cccc(S(F)(F)(F)(F)F)c1)c1ccc(-c2c3nc(c(-c4ccc(S(=O)(=O)[O-])cc4)c4ccc([nH]4)c(-c4ccc(S(=O)(=O)[O-])cc4)c4nc(c(-c5ccc(S(=O)(=O)[O-])cc5)c5ccc2[nH]5)C=C4)C=C3)cc1
REMARK SMILES IDX 7 1 6 2 5 3 4 4 3 5 2 6 1 7 34 8 35 9 93 10 36 11 92 12
REMARK SMILES IDX 37 13 38 14 39 15 86 16 40 17 91 18 85 19 87 20 41 21 90 22
REMARK SMILES IDX 84 23 83 24 42 26 72 27 53 28 71 29 54 30 57 31 70 32 88 33
REMARK SMILES IDX 55 34 56 35 69 37 89 38 58 39 43 40 44 41 52 42 45 43 51 44
REMARK SMILES IDX 46 45 47 46 48 47 49 48 50 49 73 50 74 51 82 52 75 53 81 54
REMARK SMILES IDX 76 55 77 56 78 57 79 58 80 59 59 60 60 61 68 62 61 63 67 64
REMARK SMILES IDX 62 65 63 66 64 67 65 68 66 69 8 70 9 71 10 72 11 73 12 74
REMARK SMILES IDX 13 75 14 76 15 77 16 78 20 79 17 80 19 81 18 82 21 83 22 85
REMARK SMILES IDX 23 86 33 87 24 88 26 89 25 90 27 91 28 92 29 93 30 94 31 95
REMARK SMILES IDX 32 96
REMARK H PARENT 87 25 57 36 21 84
REMARK Flexibility Score: inf
ROOT
ATOM      1  C   UNL     1       2.998   1.576  -0.048  1.00  0.00     0.188 C 
ENDROOT
BRANCH   1   2
ATOM      2  O   UNL     1       4.418   1.576  -0.048  1.00  0.00    -0.376 OA
BRANCH   2   3
ATOM      3  C   UNL     1       4.891   0.836  -1.163  1.00  0.00     0.202 C 
BRANCH   3   4
ATOM      4  C   UNL     1       4.385  -0.594  -1.075  1.00  0.00     0.261 C 
BRANCH   4   5
ATOM      5  O   UNL     1       2.965  -0.594  -1.075  1.00  0.00    -0.460 OA
BRANCH   5   6
ATOM      6  C   UNL     1       2.255   0.085  -0.050  1.00  0.00     0.338 C 
ATOM      7  O   UNL     1       0.984   0.085  -0.050  1.00  0.00    -0.246 OA
BRANCH   6   8
ATOM      8  C   UNL     1       3.015   0.813   1.047  1.00  0.00     0.060 A 
ATOM      9  C   UNL     1       4.169   1.526   0.770  1.00  0.00     0.016 A 
ATOM     10  C   UNL     1       2.596   0.639   2.295  1.00  0.00     0.016 A 
ATOM     11  C   UNL     1       4.977   1.774   1.905  1.00  0.00     0.010 A 
ATOM     12  C   UNL     1       3.377   1.029   3.356  1.00  0.00     0.010 A 
ATOM     13  C   UNL     1       4.559   1.686   3.155  1.00  0.00    -0.014 A 
BRANCH  13  14
ATOM     14  C   UNL     1       5.349   2.284   4.307  1.00  0.00     0.031 A 
ATOM     15  C   UNL     1       5.775   1.392   5.293  1.00  0.00     0.074 A 
ATOM     16  C   UNL     1       5.684   3.627   4.281  1.00  0.00     0.049 A 
ATOM     17  N   UNL     1       6.576   1.646   6.329  1.00  0.00    -0.248 NA
ATOM     18  C   UNL     1       5.393  -0.027   5.342  1.00  0.00     0.031 C 
ATOM     19  C   UNL     1       5.266   4.531   3.285  1.00  0.00     0.029 A 
ATOM     20  N   UNL     1       6.460   4.322   5.183  1.00  0.00    -0.354 N 
ATOM     21  C   UNL     1       6.772   0.536   7.043  1.00  0.00     0.074 A 
ATOM     22  C   UNL     1       6.009  -0.555   6.422  1.00  0.00     0.031 C 
ATOM     23  C   UNL     1       5.771   5.755   3.589  1.00  0.00     0.029 A 
ATOM     24  C   UNL     1       6.515   5.638   4.778  1.00  0.00     0.049 A 
ATOM     25  H   UNL     1       6.898   3.944   5.979  1.00  0.00     0.167 HD
ATOM     26  C   UNL     1       7.559   0.390   8.187  1.00  0.00     0.031 A 
ATOM     27  C   UNL     1       7.170   6.689   5.399  1.00  0.00     0.031 A 
ATOM     28  C   UNL     1       8.249   1.434   8.783  1.00  0.00     0.049 A 
ATOM     29  C   UNL     1       7.910   6.556   6.576  1.00  0.00     0.074 A 
ATOM     30  C   UNL     1       9.053   1.302   9.932  1.00  0.00     0.029 A 
ATOM     31  N   UNL     1       8.285   2.754   8.392  1.00  0.00    -0.354 N 
ATOM     32  N   UNL     1       8.137   5.438   7.268  1.00  0.00    -0.248 NA
ATOM     33  C   UNL     1       8.581   7.669   7.260  1.00  0.00     0.031 C 
ATOM     34  C   UNL     1       9.559   2.527  10.235  1.00  0.00     0.029 A 
ATOM     35  C   UNL     1       9.078   3.445   9.281  1.00  0.00     0.049 A 
ATOM     36  H   UNL     1       7.822   3.138   7.612  1.00  0.00     0.167 HD
ATOM     37  C   UNL     1       8.905   5.701   8.327  1.00  0.00     0.074 A 
ATOM     38  C   UNL     1       9.195   7.142   8.342  1.00  0.00     0.031 C 
ATOM     39  C   UNL     1       9.379   4.798   9.280  1.00  0.00     0.031 A 
BRANCH  26  40
ATOM     40  C   UNL     1       7.665  -0.991   8.814  1.00  0.00    -0.014 A 
ATOM     41  C   UNL     1       8.134  -2.076   8.091  1.00  0.00     0.010 A 
ATOM     42  C   UNL     1       7.250  -1.125  10.068  1.00  0.00     0.010 A 
ATOM     43  C   UNL     1       7.854  -3.327   8.690  1.00  0.00     0.020 A 
ATOM     44  C   UNL     1       7.130  -2.371  10.635  1.00  0.00     0.020 A 
ATOM     45  C   UNL     1       7.518  -3.493   9.957  1.00  0.00     0.054 A 
BRANCH  45  46
ATOM     46  S   UNL     1       7.570  -5.118  10.752  1.00  0.00     0.124 S 
ATOM     47  O   UNL     1       6.629  -6.075  10.018  1.00  0.00    -0.237 OA
ATOM     48  O   UNL     1       8.998  -5.666  10.699  1.00  0.00    -0.237 OA
ATOM     49  O   UNL     1       7.076  -4.971  12.382  1.00  0.00    -0.744 OA
ENDBRANCH  45  46
ENDBRANCH  26  40
BRANCH  27  50
ATOM     50  C   UNL     1       7.077   8.067   4.763  1.00  0.00    -0.014 A 
ATOM     51  C   UNL     1       8.263   8.655   4.355  1.00  0.00     0.010 A 
ATOM     52  C   UNL     1       5.910   8.675   4.584  1.00  0.00     0.010 A 
ATOM     53  C   UNL     1       8.140  10.026   4.027  1.00  0.00     0.020 A 
ATOM     54  C   UNL     1       5.859   9.970   4.130  1.00  0.00     0.020 A 
ATOM     55  C   UNL     1       6.997  10.633   3.765  1.00  0.00     0.054 A 
BRANCH  55  56
ATOM     56  S   UNL     1       6.941  12.257   2.967  1.00  0.00     0.124 S 
ATOM     57  O   UNL     1       7.684  13.277   3.833  1.00  0.00    -0.237 OA
ATOM     58  O   UNL     1       7.609  12.173   1.593  1.00  0.00    -0.237 OA
ATOM     59  O   UNL     1       5.313  12.745   2.781  1.00  0.00    -0.744 OA
ENDBRANCH  55  56
ENDBRANCH  27  50
BRANCH  39  60
ATOM     60  C   UNL     1      10.278   5.331  10.384  1.00  0.00    -0.014 A 
ATOM     61  C   UNL     1       9.848   6.360  11.205  1.00  0.00     0.010 A 
ATOM     62  C   UNL     1      11.504   4.832  10.490  1.00  0.00     0.010 A 
ATOM     63  C   UNL     1      10.889   6.996  11.920  1.00  0.00     0.020 A 
ATOM     64  C   UNL     1      12.431   5.424  11.312  1.00  0.00     0.020 A 
ATOM     65  C   UNL     1      12.091   6.483  12.108  1.00  0.00     0.054 A 
BRANCH  65  66
ATOM     66  S   UNL     1      13.228   7.144  13.352  1.00  0.00     0.124 S 
ATOM     67  O   UNL     1      13.525   8.613  13.040  1.00  0.00    -0.237 OA
ATOM     68  O   UNL     1      12.587   7.036  14.737  1.00  0.00    -0.237 OA
ATOM     69  O   UNL     1      14.685   6.250  13.326  1.00  0.00    -0.744 OA
ENDBRANCH  65  66
ENDBRANCH  39  60
ENDBRANCH  13  14
ENDBRANCH   6   8
ENDBRANCH   5   6
ENDBRANCH   4   5
ENDBRANCH   3   4
ENDBRANCH   2   3
ENDBRANCH   1   2
BRANCH   1  70
ATOM     70  C   UNL     1       2.491   2.214  -1.331  1.00  0.00     0.188 C 
BRANCH  70  71
ATOM     71  O   UNL     1       2.965   1.474  -2.446  1.00  0.00    -0.376 OA
BRANCH  71  72
ATOM     72  C   UNL     1       4.385   1.474  -2.446  1.00  0.00     0.202 C 
BRANCH  72  73
ATOM     73  C   UNL     1       4.891   2.905  -2.535  1.00  0.00     0.261 C 
BRANCH  73  74
ATOM     74  O   UNL     1       4.418   3.644  -1.419  1.00  0.00    -0.460 OA
BRANCH  74  75
ATOM     75  C   UNL     1       3.022   3.788  -1.203  1.00  0.00     0.340 C 
ATOM     76  O   UNL     1       2.196   3.254  -2.008  1.00  0.00    -0.246 OA
BRANCH  75  77
ATOM     77  C   UNL     1       2.515   4.580  -0.009  1.00  0.00     0.083 A 
ATOM     78  C   UNL     1       1.379   4.126   0.640  1.00  0.00     0.018 A 
ATOM     79  C   UNL     1       3.058   5.754   0.292  1.00  0.00     0.053 A 
ATOM     80  C   UNL     1       0.716   5.121   1.397  1.00  0.00     0.001 A 
ATOM     81  C   UNL     1       2.421   6.620   1.147  1.00  0.00     0.027 A 
ATOM     82  C   UNL     1       1.263   6.261   1.778  1.00  0.00     0.002 A 
BRANCH  79  83
ATOM     83  N   UNL     1       4.353   6.129  -0.294  1.00  0.00    -0.355 N 
ATOM     84  H   UNL     1       4.813   5.512  -0.907  1.00  0.00     0.167 HD
BRANCH  83  85
ATOM     85  C   UNL     1       4.960   7.427   0.035  1.00  0.00     0.040 A 
ATOM     86  C   UNL     1       5.256   8.343  -0.961  1.00  0.00     0.026 A 
ATOM     87  C   UNL     1       5.241   7.678   1.308  1.00  0.00     0.050 A 
ATOM     88  C   UNL     1       6.118   9.385  -0.543  1.00  0.00     0.004 A 
ATOM     89  C   UNL     1       5.972   8.788   1.657  1.00  0.00     0.109 A 
ATOM     90  C   UNL     1       6.350   9.706   0.716  1.00  0.00     0.024 A 
BRANCH  89  91
ATOM     91  S   UNL     1       6.443   9.038   3.387  1.00  0.00     0.310 S 
ATOM     92  F   UNL     1       4.931   8.875   3.839  1.00  0.00    -0.094 F 
ATOM     93  F   UNL     1       6.151  10.576   3.205  1.00  0.00    -0.094 F 
ATOM     94  F   UNL     1       6.803   9.255   4.884  1.00  0.00    -0.094 F 
ATOM     95  F   UNL     1       6.594   7.478   3.584  1.00  0.00    -0.094 F 
ATOM     96  F   UNL     1       5.970   8.789   1.899  1.00  0.00    -0.094 F 
ENDBRANCH  89  91
ENDBRANCH  83  85
ENDBRANCH  79  83
ENDBRANCH  75  77
ENDBRANCH  74  75
ENDBRANCH  73  74
ENDBRANCH  72  73
ENDBRANCH  71  72
ENDBRANCH  70  71
ENDBRANCH   1  70
TORSDOF 23
