REMARK SMILES C[C@]([NH3+])(C(=O)N1[C@@H](C(=O)OCCOCCOCCOC(=O)c2ccc(-c3c4nc(c(-c5ccc(S(=O)(=O)[O-])cc5)c5ccc([nH]5)c(-c5ccc(S(=O)(=O)[O-])cc5)c5nc(c(-c6ccc(S(=O)(=O)[O-])cc6)c6ccc3[nH]6)C=C5)C=C4)cc2)C[C@H]2CCCC[C@@H]21)C(F)(F)F
REMARK SMILES IDX 14 1 13 2 12 3 11 4 10 5 8 6 9 7 7 8 6 9 88 10 82 11 83 12
REMARK SMILES IDX 87 13 84 14 86 15 85 16 4 17 5 18 2 19 1 20 89 21 90 22
REMARK SMILES IDX 91 23 92 24 3 25 15 29 16 30 17 31 18 32 19 33 20 34 21 35
REMARK SMILES IDX 22 36 23 37 81 38 24 39 80 40 25 41 26 42 27 43 74 44 28 45
REMARK SMILES IDX 79 46 73 47 75 48 29 49 78 50 72 51 71 52 30 54 60 55 41 56
REMARK SMILES IDX 59 57 42 58 45 59 58 60 76 61 43 62 44 63 57 65 77 66 46 67
REMARK SMILES IDX 31 68 32 69 40 70 33 71 39 72 34 73 35 74 36 75 37 76 38 77
REMARK SMILES IDX 61 78 62 79 70 80 63 81 69 82 64 83 65 84 66 85 67 86 68 87
REMARK SMILES IDX 47 88 48 89 56 90 49 91 55 92 50 93 51 94 52 95 53 96 54 97
REMARK H PARENT 3 26 3 27 3 28 75 53 45 64
REMARK Flexibility Score: inf
ROOT
ATOM      1  C   UNL     1      -1.655   2.813  -0.453  1.00  0.00     0.188 C 
ENDROOT
BRANCH   1   2
ATOM      2  O   UNL     1      -2.442   3.943  -0.091  1.00  0.00    -0.376 OA
BRANCH   2   3
ATOM      3  C   UNL     1      -2.707   4.174   1.288  1.00  0.00     0.202 C 
BRANCH   3   4
ATOM      4  C   UNL     1      -3.408   3.036   2.019  1.00  0.00     0.261 C 
BRANCH   4   5
ATOM      5  O   UNL     1      -2.464   2.003   2.365  1.00  0.00    -0.462 OA
BRANCH   5   6
ATOM      6  C   UNL     1      -2.810   0.737   1.995  1.00  0.00     0.328 C 
ATOM      7  O   UNL     1      -3.876   0.447   1.471  1.00  0.00    -0.250 OA
BRANCH   6   8
ATOM      8  C   UNL     1      -1.737  -0.280   2.467  1.00  0.00     0.196 C 
ATOM      9  N   UNL     1      -1.507  -1.433   1.576  1.00  0.00    -0.320 N 
ATOM     10  C   UNL     1      -2.653  -2.298   1.739  1.00  0.00     0.089 C 
ATOM     11  C   UNL     1      -2.306  -0.940   3.734  1.00  0.00     0.043 C 
ATOM     12  C   UNL     1      -2.725  -2.345   3.269  1.00  0.00     0.014 C 
ATOM     13  C   UNL     1      -2.710  -3.705   1.174  1.00  0.00     0.025 C 
ATOM     14  C   UNL     1      -4.081  -2.854   3.713  1.00  0.00     0.006 C 
ATOM     15  C   UNL     1      -4.052  -4.329   1.606  1.00  0.00     0.002 C 
ATOM     16  C   UNL     1      -4.299  -4.254   3.124  1.00  0.00     0.000 C 
BRANCH   9  17
ATOM     17  C   UNL     1      -0.749  -1.345   0.425  1.00  0.00     0.294 C 
ATOM     18  O   UNL     1      -1.115  -0.638  -0.511  1.00  0.00    -0.267 OA
BRANCH  17  19
ATOM     19  C   UNL     1       0.716  -1.875   0.561  1.00  0.00     0.267 C 
ATOM     20  C   UNL     1       0.853  -2.994   1.599  1.00  0.00     0.100 C 
BRANCH  19  21
ATOM     21  C   UNL     1       1.142  -2.450  -0.813  1.00  0.00     0.453 C 
ATOM     22  F   UNL     1       1.379  -1.471  -1.711  1.00  0.00    -0.164 F 
ATOM     23  F   UNL     1       2.301  -3.151  -0.709  1.00  0.00    -0.164 F 
ATOM     24  F   UNL     1       0.219  -3.289  -1.328  1.00  0.00    -0.164 F 
ENDBRANCH  19  21
BRANCH  19  25
ATOM     25  N   UNL     1       1.575  -0.724   1.028  1.00  0.00    -0.337 N 
ATOM     26  H   UNL     1       1.508   0.043   0.359  1.00  0.00     0.345 HD
ATOM     27  H   UNL     1       2.545  -1.031   1.099  1.00  0.00     0.345 HD
ATOM     28  H   UNL     1       1.251  -0.407   1.942  1.00  0.00     0.345 HD
ENDBRANCH  19  25
ENDBRANCH  17  19
ENDBRANCH   9  17
ENDBRANCH   6   8
ENDBRANCH   5   6
ENDBRANCH   4   5
ENDBRANCH   3   4
ENDBRANCH   2   3
ENDBRANCH   1   2
BRANCH   1  29
ATOM     29  C   UNL     1      -0.315   2.594   0.278  1.00  0.00     0.188 C 
BRANCH  29  30
ATOM     30  O   UNL     1       0.322   3.704   0.900  1.00  0.00    -0.376 OA
BRANCH  30  31
ATOM     31  C   UNL     1       0.530   4.855   0.085  1.00  0.00     0.202 C 
BRANCH  31  32
ATOM     32  C   UNL     1       1.440   4.641  -1.125  1.00  0.00     0.261 C 
BRANCH  32  33
ATOM     33  O   UNL     1       0.813   3.777  -2.091  1.00  0.00    -0.460 OA
BRANCH  33  34
ATOM     34  C   UNL     1       1.667   3.016  -2.812  1.00  0.00     0.338 C 
ATOM     35  O   UNL     1       2.890   3.073  -2.796  1.00  0.00    -0.246 OA
BRANCH  34  36
ATOM     36  C   UNL     1       0.918   2.025  -3.602  1.00  0.00     0.060 A 
ATOM     37  C   UNL     1       0.394   0.902  -2.967  1.00  0.00     0.016 A 
ATOM     38  C   UNL     1       0.876   2.115  -4.992  1.00  0.00     0.016 A 
ATOM     39  C   UNL     1      -0.138  -0.151  -3.709  1.00  0.00     0.010 A 
ATOM     40  C   UNL     1       0.329   1.060  -5.738  1.00  0.00     0.010 A 
ATOM     41  C   UNL     1      -0.147  -0.101  -5.103  1.00  0.00    -0.014 A 
BRANCH  41  42
ATOM     42  C   UNL     1      -0.506  -1.321  -5.873  1.00  0.00     0.031 A 
ATOM     43  C   UNL     1       0.564  -2.033  -6.658  1.00  0.00     0.074 A 
ATOM     44  C   UNL     1      -1.741  -1.857  -5.805  1.00  0.00     0.049 A 
ATOM     45  N   UNL     1       0.444  -2.986  -7.546  1.00  0.00    -0.248 NA
ATOM     46  C   UNL     1       1.955  -1.621  -6.403  1.00  0.00     0.031 C 
ATOM     47  C   UNL     1      -2.835  -1.373  -4.961  1.00  0.00     0.029 A 
ATOM     48  N   UNL     1      -2.277  -2.944  -6.451  1.00  0.00    -0.354 N 
ATOM     49  C   UNL     1       1.733  -3.243  -8.000  1.00  0.00     0.074 A 
ATOM     50  C   UNL     1       2.623  -2.362  -7.276  1.00  0.00     0.031 C 
ATOM     51  C   UNL     1      -3.905  -2.167  -5.131  1.00  0.00     0.029 A 
ATOM     52  C   UNL     1      -3.603  -3.160  -6.157  1.00  0.00     0.049 A 
ATOM     53  H   UNL     1      -1.762  -3.515  -7.066  1.00  0.00     0.167 HD
ATOM     54  C   UNL     1       2.132  -4.126  -8.946  1.00  0.00     0.031 A 
ATOM     55  C   UNL     1      -4.491  -4.021  -6.694  1.00  0.00     0.031 A 
ATOM     56  C   UNL     1       1.246  -5.030  -9.629  1.00  0.00     0.049 A 
ATOM     57  C   UNL     1      -4.049  -4.923  -7.815  1.00  0.00     0.074 A 
ATOM     58  C   UNL     1       1.545  -5.939 -10.629  1.00  0.00     0.029 A 
ATOM     59  N   UNL     1      -0.109  -5.154  -9.367  1.00  0.00    -0.354 N 
ATOM     60  N   UNL     1      -2.852  -5.073  -8.329  1.00  0.00    -0.248 NA
ATOM     61  C   UNL     1      -5.086  -5.750  -8.449  1.00  0.00     0.031 C 
ATOM     62  C   UNL     1       0.360  -6.583 -11.002  1.00  0.00     0.029 A 
ATOM     63  C   UNL     1      -0.666  -6.110 -10.199  1.00  0.00     0.049 A 
ATOM     64  H   UNL     1      -0.603  -4.639  -8.688  1.00  0.00     0.167 HD
ATOM     65  C   UNL     1      -2.991  -6.014  -9.344  1.00  0.00     0.074 A 
ATOM     66  C   UNL     1      -4.382  -6.417  -9.354  1.00  0.00     0.031 C 
ATOM     67  C   UNL     1      -2.053  -6.494 -10.198  1.00  0.00     0.031 A 
BRANCH  54  68
ATOM     68  C   UNL     1       3.579  -4.105  -9.355  1.00  0.00    -0.014 A 
ATOM     69  C   UNL     1       4.585  -4.681  -8.560  1.00  0.00     0.010 A 
ATOM     70  C   UNL     1       3.926  -3.536 -10.595  1.00  0.00     0.010 A 
ATOM     71  C   UNL     1       5.916  -4.669  -8.991  1.00  0.00     0.020 A 
ATOM     72  C   UNL     1       5.250  -3.541 -11.038  1.00  0.00     0.020 A 
ATOM     73  C   UNL     1       6.240  -4.098 -10.226  1.00  0.00     0.054 A 
BRANCH  73  74
ATOM     74  S   UNL     1       7.967  -4.131 -10.783  1.00  0.00     0.124 S 
ATOM     75  O   UNL     1       8.574  -3.099  -9.947  1.00  0.00    -0.237 OA
ATOM     76  O   UNL     1       8.376  -5.502 -10.485  1.00  0.00    -0.237 OA
ATOM     77  O   UNL     1       7.879  -3.808 -12.205  1.00  0.00    -0.744 OA
ENDBRANCH  73  74
ENDBRANCH  54  68
BRANCH  55  78
ATOM     78  C   UNL     1      -5.913  -4.004  -6.248  1.00  0.00    -0.014 A 
ATOM     79  C   UNL     1      -6.472  -5.100  -5.570  1.00  0.00     0.010 A 
ATOM     80  C   UNL     1      -6.722  -2.884  -6.518  1.00  0.00     0.010 A 
ATOM     81  C   UNL     1      -7.816  -5.081  -5.181  1.00  0.00     0.020 A 
ATOM     82  C   UNL     1      -8.056  -2.848  -6.105  1.00  0.00     0.020 A 
ATOM     83  C   UNL     1      -8.599  -3.954  -5.450  1.00  0.00     0.054 A 
BRANCH  83  84
ATOM     84  S   UNL     1     -10.327  -3.924  -4.896  1.00  0.00     0.124 S 
ATOM     85  O   UNL     1     -10.984  -4.742  -5.910  1.00  0.00    -0.237 OA
ATOM     86  O   UNL     1     -10.245  -4.515  -3.562  1.00  0.00    -0.237 OA
ATOM     87  O   UNL     1     -10.666  -2.503  -4.918  1.00  0.00    -0.744 OA
ENDBRANCH  83  84
ENDBRANCH  55  78
BRANCH  67  88
ATOM     88  C   UNL     1      -2.498  -7.522 -11.200  1.00  0.00    -0.014 A 
ATOM     89  C   UNL     1      -3.252  -7.154 -12.328  1.00  0.00     0.010 A 
ATOM     90  C   UNL     1      -2.115  -8.866 -11.037  1.00  0.00     0.010 A 
ATOM     91  C   UNL     1      -3.643  -8.118 -13.261  1.00  0.00     0.020 A 
ATOM     92  C   UNL     1      -2.485  -9.829 -11.979  1.00  0.00     0.020 A 
ATOM     93  C   UNL     1      -3.260  -9.450 -13.078  1.00  0.00     0.054 A 
BRANCH  93  94
ATOM     94  S   UNL     1      -3.748 -10.679 -14.320  1.00  0.00     0.124 S 
ATOM     95  O   UNL     1      -5.157 -10.891 -14.000  1.00  0.00    -0.237 OA
ATOM     96  O   UNL     1      -3.487  -9.988 -15.580  1.00  0.00    -0.237 OA
ATOM     97  O   UNL     1      -2.870 -11.815 -14.047  1.00  0.00    -0.744 OA
ENDBRANCH  93  94
ENDBRANCH  67  88
ENDBRANCH  41  42
ENDBRANCH  34  36
ENDBRANCH  33  34
ENDBRANCH  32  33
ENDBRANCH  31  32
ENDBRANCH  30  31
ENDBRANCH  29  30
ENDBRANCH   1  29
TORSDOF 24
