REMARK SMILES CCN(C(=O)Cc1c(C(=O)OCCOCCOCCOC(=O)c2ccc(-c3c4nc(c(-c5ccc(S(=O)(=O)[O-])cc5)c5ccc([nH]5)c(-c5ccc(S(=O)(=O)[O-])cc5)c5nc(c(-c6ccc(S(=O)(=O)[O-])cc6)c6ccc3[nH]6)C=C5)C=C4)cc2)[nH]c2ccc(Cl)cc12)c1ccc(C)c(C)c1
REMARK SMILES IDX 15 1 14 2 13 3 12 4 11 5 9 6 10 7 8 8 7 9 90 10 83 11 84 12
REMARK SMILES IDX 89 13 85 15 87 16 86 17 88 18 6 19 4 20 5 21 3 22 2 23 1 24
REMARK SMILES IDX 91 25 92 26 98 27 93 28 96 29 94 30 97 31 95 32 16 33 17 34
REMARK SMILES IDX 18 35 19 36 20 37 21 38 22 39 23 40 24 41 82 42 25 43 81 44
REMARK SMILES IDX 26 45 27 46 28 47 75 48 29 49 80 50 74 51 76 52 30 53 79 54
REMARK SMILES IDX 73 55 72 56 31 58 61 59 42 60 60 61 43 62 46 63 59 64 77 65
REMARK SMILES IDX 44 66 45 67 58 69 78 70 47 71 32 72 33 73 41 74 34 75 40 76
REMARK SMILES IDX 35 77 36 78 37 79 38 80 39 81 62 82 63 83 71 84 64 85 70 86
REMARK SMILES IDX 65 87 66 88 67 89 68 90 69 91 48 92 49 93 57 94 50 95 56 96
REMARK SMILES IDX 51 97 52 98 53 99 54 100 55 101
REMARK H PARENT 83 14 76 57 46 68
REMARK Flexibility Score: inf
ROOT
ATOM      1  C   UNL     1      -4.388   2.083  -0.515  1.00  0.00     0.188 C 
ENDROOT
BRANCH   1   2
ATOM      2  O   UNL     1      -4.189   3.329  -1.138  1.00  0.00    -0.376 OA
BRANCH   2   3
ATOM      3  C   UNL     1      -2.930   3.716  -1.648  1.00  0.00     0.202 C 
BRANCH   3   4
ATOM      4  C   UNL     1      -1.683   2.827  -1.751  1.00  0.00     0.261 C 
BRANCH   4   5
ATOM      5  O   UNL     1      -1.827   1.430  -1.519  1.00  0.00    -0.459 OA
BRANCH   5   6
ATOM      6  C   UNL     1      -1.557   0.996  -0.263  1.00  0.00     0.355 C 
ATOM      7  O   UNL     1      -1.321   1.727   0.696  1.00  0.00    -0.244 OA
BRANCH   6   8
ATOM      8  C   UNL     1      -1.655  -0.442  -0.187  1.00  0.00     0.129 A 
ATOM      9  C   UNL     1      -1.457  -1.451  -1.133  1.00  0.00     0.002 A 
ATOM     10  C   UNL     1      -1.692  -2.702  -0.464  1.00  0.00     0.005 A 
ATOM     11  N   UNL     1      -1.959  -1.057   1.006  1.00  0.00    -0.349 N 
ATOM     12  C   UNL     1      -2.010  -2.418   0.862  1.00  0.00     0.046 A 
ATOM     13  C   UNL     1      -1.643  -4.054  -0.867  1.00  0.00     0.031 A 
ATOM     14  H   UNL     1      -2.119  -0.581   1.853  1.00  0.00     0.167 HD
ATOM     15  C   UNL     1      -2.293  -3.407   1.810  1.00  0.00     0.028 A 
ATOM     16  C   UNL     1      -1.909  -5.054   0.075  1.00  0.00     0.041 A 
ATOM     17  C   UNL     1      -2.232  -4.738   1.392  1.00  0.00     0.022 A 
ATOM     18  Cl  UNL     1      -1.823  -6.709  -0.400  1.00  0.00    -0.084 Cl
BRANCH   9  19
ATOM     19  C   UNL     1      -1.048  -1.309  -2.575  1.00  0.00     0.139 C 
BRANCH  19  20
ATOM     20  C   UNL     1       0.387  -1.768  -2.842  1.00  0.00     0.231 C 
ATOM     21  O   UNL     1       0.559  -2.752  -3.572  1.00  0.00    -0.274 OA
BRANCH  20  22
ATOM     22  N   UNL     1       1.443  -1.064  -2.250  1.00  0.00    -0.312 N 
BRANCH  22  23
ATOM     23  C   UNL     1       1.335   0.256  -1.596  1.00  0.00     0.122 C 
ATOM     24  C   UNL     1       1.485   0.259  -0.077  1.00  0.00     0.028 C 
ENDBRANCH  22  23
BRANCH  22  25
ATOM     25  C   UNL     1       2.786  -1.484  -2.456  1.00  0.00     0.044 A 
ATOM     26  C   UNL     1       3.311  -1.620  -3.736  1.00  0.00     0.026 A 
ATOM     27  C   UNL     1       3.637  -1.577  -1.355  1.00  0.00     0.030 A 
ATOM     28  C   UNL     1       4.689  -1.772  -3.897  1.00  0.00     0.006 A 
ATOM     29  C   UNL     1       5.023  -1.662  -1.496  1.00  0.00    -0.046 A 
ATOM     30  C   UNL     1       5.559  -1.769  -2.788  1.00  0.00    -0.048 A 
ATOM     31  C   UNL     1       5.856  -1.607  -0.247  1.00  0.00     0.044 C 
ATOM     32  C   UNL     1       7.031  -1.909  -3.042  1.00  0.00     0.044 C 
ENDBRANCH  22  25
ENDBRANCH  20  22
ENDBRANCH  19  20
ENDBRANCH   9  19
ENDBRANCH   6   8
ENDBRANCH   5   6
ENDBRANCH   4   5
ENDBRANCH   3   4
ENDBRANCH   2   3
ENDBRANCH   1   2
BRANCH   1  33
ATOM     33  C   UNL     1      -4.635   0.880  -1.453  1.00  0.00     0.188 C 
BRANCH  33  34
ATOM     34  O   UNL     1      -4.644   1.081  -2.853  1.00  0.00    -0.376 OA
BRANCH  34  35
ATOM     35  C   UNL     1      -5.500   2.075  -3.392  1.00  0.00     0.202 C 
BRANCH  35  36
ATOM     36  C   UNL     1      -6.916   2.352  -2.838  1.00  0.00     0.261 C 
BRANCH  36  37
ATOM     37  O   UNL     1      -7.103   2.286  -1.413  1.00  0.00    -0.460 OA
BRANCH  37  38
ATOM     38  C   UNL     1      -7.761   1.192  -0.944  1.00  0.00     0.338 C 
ATOM     39  O   UNL     1      -8.236   0.288  -1.609  1.00  0.00    -0.246 OA
BRANCH  38  40
ATOM     40  C   UNL     1      -7.624   1.122   0.534  1.00  0.00     0.060 A 
ATOM     41  C   UNL     1      -6.950   0.027   1.101  1.00  0.00     0.016 A 
ATOM     42  C   UNL     1      -8.158   2.113   1.357  1.00  0.00     0.016 A 
ATOM     43  C   UNL     1      -6.838  -0.097   2.488  1.00  0.00     0.010 A 
ATOM     44  C   UNL     1      -8.072   1.971   2.749  1.00  0.00     0.010 A 
ATOM     45  C   UNL     1      -7.445   0.849   3.323  1.00  0.00    -0.014 A 
BRANCH  45  46
ATOM     46  C   UNL     1      -7.617   0.554   4.771  1.00  0.00     0.031 A 
ATOM     47  C   UNL     1      -8.943   0.002   5.231  1.00  0.00     0.074 A 
ATOM     48  C   UNL     1      -6.628   0.747   5.663  1.00  0.00     0.049 A 
ATOM     49  N   UNL     1      -9.350  -0.283   6.441  1.00  0.00    -0.248 NA
ATOM     50  C   UNL     1      -9.943  -0.259   4.182  1.00  0.00     0.031 C 
ATOM     51  C   UNL     1      -5.283   1.227   5.350  1.00  0.00     0.029 A 
ATOM     52  N   UNL     1      -6.612   0.568   7.026  1.00  0.00    -0.354 N 
ATOM     53  C   UNL     1     -10.656  -0.741   6.301  1.00  0.00     0.074 A 
ATOM     54  C   UNL     1     -10.982  -0.669   4.893  1.00  0.00     0.031 C 
ATOM     55  C   UNL     1      -4.576   1.316   6.492  1.00  0.00     0.029 A 
ATOM     56  C   UNL     1      -5.427   0.936   7.620  1.00  0.00     0.049 A 
ATOM     57  H   UNL     1      -7.378   0.210   7.530  1.00  0.00     0.167 HD
ATOM     58  C   UNL     1     -11.510  -1.185   7.254  1.00  0.00     0.031 A 
ATOM     59  C   UNL     1      -5.077   0.985   8.922  1.00  0.00     0.031 A 
ATOM     60  C   UNL     1     -11.195  -1.242   8.657  1.00  0.00     0.049 A 
ATOM     61  C   UNL     1      -6.071   0.560   9.976  1.00  0.00     0.074 A 
ATOM     62  C   UNL     1     -11.989  -1.690   9.698  1.00  0.00     0.029 A 
ATOM     63  N   UNL     1      -9.996  -0.829   9.218  1.00  0.00    -0.354 N 
ATOM     64  N   UNL     1      -7.294   0.107   9.825  1.00  0.00    -0.248 NA
ATOM     65  C   UNL     1      -5.631   0.642  11.377  1.00  0.00     0.031 C 
ATOM     66  C   UNL     1     -11.296  -1.485  10.896  1.00  0.00     0.029 A 
ATOM     67  C   UNL     1     -10.040  -0.984  10.594  1.00  0.00     0.049 A 
ATOM     68  H   UNL     1      -9.227  -0.478   8.714  1.00  0.00     0.167 HD
ATOM     69  C   UNL     1      -7.754  -0.182  11.108  1.00  0.00     0.074 A 
ATOM     70  C   UNL     1      -6.673   0.133  12.019  1.00  0.00     0.031 C 
ATOM     71  C   UNL     1      -8.960  -0.668  11.495  1.00  0.00     0.031 A 
BRANCH  58  72
ATOM     72  C   UNL     1     -12.889  -1.605   6.814  1.00  0.00    -0.014 A 
ATOM     73  C   UNL     1     -13.093  -2.768   6.049  1.00  0.00     0.010 A 
ATOM     74  C   UNL     1     -14.005  -0.842   7.207  1.00  0.00     0.010 A 
ATOM     75  C   UNL     1     -14.382  -3.139   5.654  1.00  0.00     0.020 A 
ATOM     76  C   UNL     1     -15.297  -1.227   6.841  1.00  0.00     0.020 A 
ATOM     77  C   UNL     1     -15.476  -2.365   6.053  1.00  0.00     0.054 A 
BRANCH  77  78
ATOM     78  S   UNL     1     -17.139  -2.886   5.550  1.00  0.00     0.124 S 
ATOM     79  O   UNL     1     -17.119  -2.612   4.115  1.00  0.00    -0.237 OA
ATOM     80  O   UNL     1     -17.155  -4.299   5.919  1.00  0.00    -0.237 OA
ATOM     81  O   UNL     1     -18.024  -2.029   6.334  1.00  0.00    -0.744 OA
ENDBRANCH  77  78
ENDBRANCH  58  72
BRANCH  59  82
ATOM     82  C   UNL     1      -3.724   1.475   9.316  1.00  0.00    -0.014 A 
ATOM     83  C   UNL     1      -2.784   0.607   9.900  1.00  0.00     0.010 A 
ATOM     84  C   UNL     1      -3.375   2.825   9.123  1.00  0.00     0.010 A 
ATOM     85  C   UNL     1      -1.529   1.081  10.297  1.00  0.00     0.020 A 
ATOM     86  C   UNL     1      -2.110   3.296   9.488  1.00  0.00     0.020 A 
ATOM     87  C   UNL     1      -1.198   2.422  10.082  1.00  0.00     0.054 A 
BRANCH  87  88
ATOM     88  S   UNL     1       0.457   3.000  10.551  1.00  0.00     0.124 S 
ATOM     89  O   UNL     1       0.384   2.985  12.008  1.00  0.00    -0.237 OA
ATOM     90  O   UNL     1       1.323   1.990   9.947  1.00  0.00    -0.237 OA
ATOM     91  O   UNL     1       0.541   4.326   9.941  1.00  0.00    -0.744 OA
ENDBRANCH  87  88
ENDBRANCH  59  82
BRANCH  71  92
ATOM     92  C   UNL     1      -9.167  -0.942  12.965  1.00  0.00    -0.014 A 
ATOM     93  C   UNL     1      -9.258   0.099  13.906  1.00  0.00     0.010 A 
ATOM     94  C   UNL     1      -9.317  -2.272  13.404  1.00  0.00     0.010 A 
ATOM     95  C   UNL     1      -9.450  -0.187  15.262  1.00  0.00     0.020 A 
ATOM     96  C   UNL     1      -9.545  -2.560  14.752  1.00  0.00     0.020 A 
ATOM     97  C   UNL     1      -9.591  -1.515  15.677  1.00  0.00     0.054 A 
BRANCH  97  98
ATOM     98  S   UNL     1      -9.864  -1.857  17.437  1.00  0.00     0.124 S 
ATOM     99  O   UNL     1      -8.555  -1.557  18.011  1.00  0.00    -0.237 OA
ATOM    100  O   UNL     1     -10.931  -0.922  17.783  1.00  0.00    -0.237 OA
ATOM    101  O   UNL     1     -10.246  -3.267  17.462  1.00  0.00    -0.744 OA
ENDBRANCH  97  98
ENDBRANCH  71  92
ENDBRANCH  45  46
ENDBRANCH  38  40
ENDBRANCH  37  38
ENDBRANCH  36  37
ENDBRANCH  35  36
ENDBRANCH  34  35
ENDBRANCH  33  34
ENDBRANCH   1  33
TORSDOF 25
