REMARK SMILES COc1cc(NS(=O)(=O)c2ccc(F)cc2)c(C(=O)OCCOCCOCCOC(=O)c2ccc(-c3c4nc(c(-c5ccc(S(=O)(=O)[O-])cc5)c5ccc([nH]5)c(-c5ccc(S(=O)(=O)[O-])cc5)c5nc(c(-c6ccc(S(=O)(=O)[O-])cc6)c6ccc3[nH]6)C=C5)C=C4)cc2)cc1OC
REMARK SMILES IDX 24 1 23 2 22 3 21 4 20 5 18 6 19 7 17 8 3 9 4 10 93 11 5 12
REMARK SMILES IDX 92 13 2 14 1 15 94 16 95 17 6 18 7 20 8 21 9 22 10 23 11 24
REMARK SMILES IDX 16 25 12 26 15 27 13 28 14 29 25 30 26 31 27 32 28 33 29 34
REMARK SMILES IDX 30 35 31 36 32 37 33 38 91 39 34 40 90 41 35 42 36 43 37 44
REMARK SMILES IDX 84 45 38 46 89 47 83 48 85 49 39 50 88 51 82 52 81 53 40 55
REMARK SMILES IDX 70 56 51 57 69 58 52 59 55 60 68 61 86 62 53 63 54 64 67 66
REMARK SMILES IDX 87 67 56 68 41 69 42 70 50 71 43 72 49 73 44 74 45 75 46 76
REMARK SMILES IDX 47 77 48 78 71 79 72 80 80 81 73 82 79 83 74 84 75 85 76 86
REMARK SMILES IDX 77 87 78 88 57 89 58 90 66 91 59 92 65 93 60 94 61 95 62 96
REMARK SMILES IDX 63 97 64 98
REMARK H PARENT 6 19 85 54 55 65
REMARK Flexibility Score: inf
ROOT
ATOM      1  C   UNL     1       1.746   7.476  -3.090  1.00  0.00     0.188 C 
ENDROOT
BRANCH   1   2
ATOM      2  O   UNL     1       2.173   8.755  -2.658  1.00  0.00    -0.376 OA
BRANCH   2   3
ATOM      3  C   UNL     1       3.067   8.882  -1.565  1.00  0.00     0.202 C 
BRANCH   3   4
ATOM      4  C   UNL     1       2.810   8.134  -0.257  1.00  0.00     0.261 C 
BRANCH   4   5
ATOM      5  O   UNL     1       2.758   6.711  -0.421  1.00  0.00    -0.460 OA
BRANCH   5   6
ATOM      6  C   UNL     1       1.611   6.122  -0.002  1.00  0.00     0.340 C 
ATOM      7  O   UNL     1       0.646   6.665   0.509  1.00  0.00    -0.246 OA
BRANCH   6   8
ATOM      8  C   UNL     1       1.607   4.699  -0.397  1.00  0.00     0.088 A 
ATOM      9  C   UNL     1       1.621   2.002  -1.047  1.00  0.00     0.162 A 
ATOM     10  C   UNL     1       0.521   2.809  -1.383  1.00  0.00     0.078 A 
ATOM     11  C   UNL     1       2.759   2.555  -0.458  1.00  0.00     0.161 A 
ATOM     12  C   UNL     1       0.460   4.146  -0.991  1.00  0.00     0.067 A 
ATOM     13  C   UNL     1       2.753   3.921  -0.169  1.00  0.00     0.068 A 
BRANCH   9  14
ATOM     14  O   UNL     1       1.519   0.663  -1.320  1.00  0.00    -0.493 OA
ATOM     15  C   UNL     1       0.663   0.015  -0.369  1.00  0.00     0.278 C 
ENDBRANCH   9  14
BRANCH  11  16
ATOM     16  O   UNL     1       3.923   1.936  -0.099  1.00  0.00    -0.493 OA
ATOM     17  C   UNL     1       3.962   0.517  -0.084  1.00  0.00     0.278 C 
ENDBRANCH  11  16
BRANCH  12  18
ATOM     18  N   UNL     1      -0.761   4.895  -1.003  1.00  0.00    -0.279 N 
ATOM     19  H   UNL     1      -0.843   5.607  -0.328  1.00  0.00     0.180 HD
BRANCH  18  20
ATOM     20  S   UNL     1      -2.062   4.698  -2.031  1.00  0.00     0.261 S 
ATOM     21  O   UNL     1      -3.064   5.650  -1.606  1.00  0.00    -0.201 OA
ATOM     22  O   UNL     1      -1.534   4.682  -3.375  1.00  0.00    -0.201 OA
BRANCH  20  23
ATOM     23  C   UNL     1      -2.684   3.074  -1.658  1.00  0.00     0.088 A 
ATOM     24  C   UNL     1      -2.708   2.626  -0.331  1.00  0.00     0.025 A 
ATOM     25  C   UNL     1      -2.925   2.191  -2.721  1.00  0.00     0.025 A 
ATOM     26  C   UNL     1      -2.912   1.270  -0.076  1.00  0.00     0.040 A 
ATOM     27  C   UNL     1      -3.128   0.838  -2.455  1.00  0.00     0.040 A 
ATOM     28  C   UNL     1      -3.103   0.388  -1.138  1.00  0.00     0.123 A 
ATOM     29  F   UNL     1      -3.213  -0.923  -0.888  1.00  0.00    -0.207 F 
ENDBRANCH  20  23
ENDBRANCH  18  20
ENDBRANCH  12  18
ENDBRANCH   6   8
ENDBRANCH   5   6
ENDBRANCH   4   5
ENDBRANCH   3   4
ENDBRANCH   2   3
ENDBRANCH   1   2
BRANCH   1  30
ATOM     30  C   UNL     1       2.772   6.404  -3.512  1.00  0.00     0.188 C 
BRANCH  30  31
ATOM     31  O   UNL     1       4.157   6.685  -3.554  1.00  0.00    -0.376 OA
BRANCH  31  32
ATOM     32  C   UNL     1       4.664   7.733  -4.362  1.00  0.00     0.202 C 
BRANCH  32  33
ATOM     33  C   UNL     1       4.148   8.035  -5.773  1.00  0.00     0.261 C 
BRANCH  33  34
ATOM     34  O   UNL     1       2.732   7.958  -5.951  1.00  0.00    -0.460 OA
BRANCH  34  35
ATOM     35  C   UNL     1       2.320   6.948  -6.758  1.00  0.00     0.338 C 
ATOM     36  O   UNL     1       3.018   6.119  -7.315  1.00  0.00    -0.246 OA
BRANCH  35  37
ATOM     37  C   UNL     1       0.848   6.879  -6.742  1.00  0.00     0.060 A 
ATOM     38  C   UNL     1       0.254   5.681  -6.335  1.00  0.00     0.016 A 
ATOM     39  C   UNL     1       0.064   7.958  -7.158  1.00  0.00     0.016 A 
ATOM     40  C   UNL     1      -1.133   5.551  -6.364  1.00  0.00     0.010 A 
ATOM     41  C   UNL     1      -1.327   7.817  -7.203  1.00  0.00     0.010 A 
ATOM     42  C   UNL     1      -1.931   6.607  -6.822  1.00  0.00    -0.014 A 
BRANCH  42  43
ATOM     43  C   UNL     1      -3.377   6.376  -7.051  1.00  0.00     0.031 A 
ATOM     44  C   UNL     1      -3.813   5.835  -8.384  1.00  0.00     0.074 A 
ATOM     45  C   UNL     1      -4.285   6.602  -6.084  1.00  0.00     0.049 A 
ATOM     46  N   UNL     1      -5.018   5.565  -8.815  1.00  0.00    -0.248 NA
ATOM     47  C   UNL     1      -2.746   5.554  -9.360  1.00  0.00     0.031 C 
ATOM     48  C   UNL     1      -3.984   7.061  -4.730  1.00  0.00     0.029 A 
ATOM     49  N   UNL     1      -5.652   6.466  -6.096  1.00  0.00    -0.354 N 
ATOM     50  C   UNL     1      -4.856   5.084 -10.107  1.00  0.00     0.074 A 
ATOM     51  C   UNL     1      -3.439   5.110 -10.398  1.00  0.00     0.031 C 
ATOM     52  C   UNL     1      -5.133   7.168  -4.039  1.00  0.00     0.029 A 
ATOM     53  C   UNL     1      -6.254   6.819  -4.910  1.00  0.00     0.049 A 
ATOM     54  H   UNL     1      -6.155   6.145  -6.879  1.00  0.00     0.167 HD
ATOM     55  C   UNL     1      -5.802   4.662 -10.978  1.00  0.00     0.031 A 
ATOM     56  C   UNL     1      -7.560   6.870  -4.576  1.00  0.00     0.031 A 
ATOM     57  C   UNL     1      -7.214   4.673 -10.707  1.00  0.00     0.049 A 
ATOM     58  C   UNL     1      -8.600   6.483  -5.601  1.00  0.00     0.074 A 
ATOM     59  C   UNL     1      -8.252   4.299 -11.543  1.00  0.00     0.029 A 
ATOM     60  N   UNL     1      -7.788   5.088  -9.516  1.00  0.00    -0.354 N 
ATOM     61  N   UNL     1      -8.432   6.024  -6.819  1.00  0.00    -0.248 NA
ATOM     62  C   UNL     1     -10.010   6.622  -5.204  1.00  0.00     0.031 C 
ATOM     63  C   UNL     1      -9.457   4.535 -10.874  1.00  0.00     0.029 A 
ATOM     64  C   UNL     1      -9.167   4.998  -9.601  1.00  0.00     0.049 A 
ATOM     65  H   UNL     1      -7.289   5.401  -8.727  1.00  0.00     0.167 HD
ATOM     66  C   UNL     1      -9.711   5.797  -7.320  1.00  0.00     0.074 A 
ATOM     67  C   UNL     1     -10.642   6.149  -6.269  1.00  0.00     0.031 C 
ATOM     68  C   UNL     1     -10.082   5.341  -8.543  1.00  0.00     0.031 A 
BRANCH  55  69
ATOM     69  C   UNL     1      -5.339   4.193 -12.329  1.00  0.00    -0.014 A 
ATOM     70  C   UNL     1      -4.707   2.947 -12.485  1.00  0.00     0.010 A 
ATOM     71  C   UNL     1      -5.581   4.989 -13.463  1.00  0.00     0.010 A 
ATOM     72  C   UNL     1      -4.304   2.515 -13.751  1.00  0.00     0.020 A 
ATOM     73  C   UNL     1      -5.200   4.550 -14.733  1.00  0.00     0.020 A 
ATOM     74  C   UNL     1      -4.554   3.319 -14.868  1.00  0.00     0.054 A 
BRANCH  74  75
ATOM     75  S   UNL     1      -4.058   2.715 -16.504  1.00  0.00     0.124 S 
ATOM     76  O   UNL     1      -2.604   2.844 -16.445  1.00  0.00    -0.237 OA
ATOM     77  O   UNL     1      -4.566   1.346 -16.507  1.00  0.00    -0.237 OA
ATOM     78  O   UNL     1      -4.726   3.627 -17.429  1.00  0.00    -0.744 OA
ENDBRANCH  74  75
ENDBRANCH  55  69
BRANCH  56  79
ATOM     79  C   UNL     1      -7.982   7.340  -3.224  1.00  0.00    -0.014 A 
ATOM     80  C   UNL     1      -8.625   6.468  -2.327  1.00  0.00     0.010 A 
ATOM     81  C   UNL     1      -7.796   8.684  -2.850  1.00  0.00     0.010 A 
ATOM     82  C   UNL     1      -9.110   6.939  -1.102  1.00  0.00     0.020 A 
ATOM     83  C   UNL     1      -8.252   9.152  -1.614  1.00  0.00     0.020 A 
ATOM     84  C   UNL     1      -8.926   8.281  -0.756  1.00  0.00     0.054 A 
BRANCH  84  85
ATOM     85  S   UNL     1      -9.559   8.873   0.839  1.00  0.00     0.124 S 
ATOM     86  O   UNL     1     -10.993   8.959   0.582  1.00  0.00    -0.237 OA
ATOM     87  O   UNL     1      -9.145   7.817   1.759  1.00  0.00    -0.237 OA
ATOM     88  O   UNL     1      -8.879  10.152   1.024  1.00  0.00    -0.744 OA
ENDBRANCH  84  85
ENDBRANCH  56  79
BRANCH  68  89
ATOM     89  C   UNL     1     -11.554   5.154  -8.806  1.00  0.00    -0.014 A 
ATOM     90  C   UNL     1     -12.411   6.254  -8.986  1.00  0.00     0.010 A 
ATOM     91  C   UNL     1     -12.073   3.853  -8.944  1.00  0.00     0.010 A 
ATOM     92  C   UNL     1     -13.765   6.056  -9.272  1.00  0.00     0.020 A 
ATOM     93  C   UNL     1     -13.420   3.651  -9.256  1.00  0.00     0.020 A 
ATOM     94  C   UNL     1     -14.261   4.755  -9.406  1.00  0.00     0.054 A 
BRANCH  94  95
ATOM     95  S   UNL     1     -16.011   4.524  -9.827  1.00  0.00     0.124 S 
ATOM     96  O   UNL     1     -16.673   4.849  -8.567  1.00  0.00    -0.237 OA
ATOM     97  O   UNL     1     -16.211   5.486 -10.908  1.00  0.00    -0.237 OA
ATOM     98  O   UNL     1     -16.090   3.121 -10.228  1.00  0.00    -0.744 OA
ENDBRANCH  94  95
ENDBRANCH  68  89
ENDBRANCH  42  43
ENDBRANCH  35  37
ENDBRANCH  34  35
ENDBRANCH  33  34
ENDBRANCH  32  33
ENDBRANCH  31  32
ENDBRANCH  30  31
ENDBRANCH   1  30
TORSDOF 25
