REMARK SMILES O=C(CNc1cc(N2CCCC2)c2noc3c2c1C(=O)c1ccccc1-3)OCCOCCOCCOC(=O)c1ccc(-c2c3nc(c(-c4ccc(S(=O)(=O)[O-])cc4)c4ccc([nH]4)c(-c4ccc(S(=O)(=O)[O-])cc4)c4nc(c(-c5ccc(S(=O)(=O)[O-])cc5)c5ccc2[nH]5)C=C4)C=C3)cc1
REMARK SMILES IDX 31 1 30 2 29 3 28 4 27 5 2 6 1 7 3 8 4 9 5 11 6 12 18 13
REMARK SMILES IDX 7 14 17 15 19 16 13 17 16 18 20 19 21 20 14 21 15 22 26 23
REMARK SMILES IDX 22 24 25 25 23 26 24 27 8 28 9 29 12 30 10 31 11 32 32 33
REMARK SMILES IDX 33 34 34 35 35 36 36 37 37 38 38 39 39 40 40 41 98 42 41 43
REMARK SMILES IDX 97 44 42 45 43 46 44 47 91 48 45 49 96 50 90 51 92 52 46 53
REMARK SMILES IDX 95 54 89 55 88 56 47 58 77 59 58 60 76 61 59 62 62 63 75 64
REMARK SMILES IDX 93 65 60 66 61 67 74 69 94 70 63 71 48 72 49 73 57 74 50 75
REMARK SMILES IDX 56 76 51 77 52 78 53 79 54 80 55 81 78 82 79 83 87 84 80 85
REMARK SMILES IDX 86 86 81 87 82 88 83 89 84 90 85 91 64 92 65 93 73 94 66 95
REMARK SMILES IDX 72 96 67 97 68 98 69 99 70 100 71 101
REMARK H PARENT 4 10 92 57 62 68
REMARK Flexibility Score: inf
ROOT
ATOM      1  C   UNL     1       2.440   1.389  -0.591  1.00  0.00     0.188 C 
ENDROOT
BRANCH   1   2
ATOM      2  O   UNL     1       3.749   1.426  -0.051  1.00  0.00    -0.376 OA
BRANCH   2   3
ATOM      3  C   UNL     1       4.721   0.503  -0.520  1.00  0.00     0.202 C 
BRANCH   3   4
ATOM      4  C   UNL     1       4.308  -0.822  -1.166  1.00  0.00     0.261 C 
BRANCH   4   5
ATOM      5  O   UNL     1       3.084  -1.477  -0.774  1.00  0.00    -0.462 OA
BRANCH   5   6
ATOM      6  C   UNL     1       2.514  -1.577   0.447  1.00  0.00     0.325 C 
ATOM      7  O   UNL     1       1.315  -1.850   0.514  1.00  0.00    -0.250 OA
BRANCH   6   8
ATOM      8  C   UNL     1       3.344  -1.292   1.690  1.00  0.00     0.236 C 
BRANCH   8   9
ATOM      9  N   UNL     1       4.555  -2.095   1.724  1.00  0.00    -0.374 N 
ATOM     10  H   UNL     1       4.413  -3.066   1.648  1.00  0.00     0.161 HD
BRANCH   9  11
ATOM     11  C   UNL     1       5.878  -1.705   1.848  1.00  0.00     0.049 A 
ATOM     12  C   UNL     1       6.760  -2.485   0.999  1.00  0.00     0.054 A 
ATOM     13  C   UNL     1       6.422  -0.616   2.573  1.00  0.00     0.059 A 
ATOM     14  C   UNL     1       8.158  -2.297   0.802  1.00  0.00     0.069 A 
ATOM     15  C   UNL     1       7.808  -0.621   2.525  1.00  0.00     0.065 A 
ATOM     16  C   UNL     1       5.815   0.563   3.241  1.00  0.00     0.196 C 
ATOM     17  C   UNL     1       8.692  -1.363   1.712  1.00  0.00     0.138 A 
ATOM     18  C   UNL     1       8.559   0.264   3.224  1.00  0.00     0.176 A 
ATOM     19  O   UNL     1       4.622   0.795   3.159  1.00  0.00    -0.288 OA
ATOM     20  C   UNL     1       6.707   1.549   3.953  1.00  0.00     0.034 A 
ATOM     21  N   UNL     1       9.952  -0.923   1.942  1.00  0.00    -0.077 NA
ATOM     22  O   UNL     1       9.859   0.093   2.901  1.00  0.00    -0.355 OA
ATOM     23  C   UNL     1       8.086   1.339   4.043  1.00  0.00     0.032 A 
ATOM     24  C   UNL     1       6.170   2.706   4.491  1.00  0.00     0.013 A 
ATOM     25  C   UNL     1       8.877   2.193   4.811  1.00  0.00     0.013 A 
ATOM     26  C   UNL     1       6.942   3.573   5.257  1.00  0.00     0.001 A 
ATOM     27  C   UNL     1       8.292   3.294   5.447  1.00  0.00     0.001 A 
BRANCH  14  28
ATOM     28  N   UNL     1       8.868  -2.947  -0.175  1.00  0.00    -0.370 N 
ATOM     29  C   UNL     1       8.354  -3.091  -1.532  1.00  0.00     0.116 C 
ATOM     30  C   UNL     1       9.624  -4.114   0.258  1.00  0.00     0.116 C 
ATOM     31  C   UNL     1       8.588  -4.560  -1.850  1.00  0.00     0.023 C 
ATOM     32  C   UNL     1       9.834  -4.890  -1.037  1.00  0.00     0.023 C 
ENDBRANCH  14  28
ENDBRANCH   9  11
ENDBRANCH   8   9
ENDBRANCH   6   8
ENDBRANCH   5   6
ENDBRANCH   4   5
ENDBRANCH   3   4
ENDBRANCH   2   3
ENDBRANCH   1   2
BRANCH   1  33
ATOM     33  C   UNL     1       1.864   2.780  -0.858  1.00  0.00     0.188 C 
BRANCH  33  34
ATOM     34  O   UNL     1       2.598   3.579  -1.784  1.00  0.00    -0.376 OA
BRANCH  34  35
ATOM     35  C   UNL     1       3.921   3.950  -1.391  1.00  0.00     0.202 C 
BRANCH  35  36
ATOM     36  C   UNL     1       4.062   4.762  -0.092  1.00  0.00     0.261 C 
BRANCH  36  37
ATOM     37  O   UNL     1       3.665   4.053   1.099  1.00  0.00    -0.460 OA
BRANCH  37  38
ATOM     38  C   UNL     1       2.831   4.704   1.952  1.00  0.00     0.338 C 
ATOM     39  O   UNL     1       2.365   5.825   1.806  1.00  0.00    -0.246 OA
BRANCH  38  40
ATOM     40  C   UNL     1       2.672   3.919   3.196  1.00  0.00     0.060 A 
ATOM     41  C   UNL     1       3.126   4.487   4.391  1.00  0.00     0.016 A 
ATOM     42  C   UNL     1       2.153   2.623   3.198  1.00  0.00     0.016 A 
ATOM     43  C   UNL     1       3.211   3.701   5.548  1.00  0.00     0.010 A 
ATOM     44  C   UNL     1       2.231   1.843   4.363  1.00  0.00     0.010 A 
ATOM     45  C   UNL     1       2.850   2.344   5.519  1.00  0.00    -0.014 A 
BRANCH  45  46
ATOM     46  C   UNL     1       3.102   1.536   6.752  1.00  0.00     0.031 A 
ATOM     47  C   UNL     1       1.792   1.034   7.284  1.00  0.00     0.074 A 
ATOM     48  C   UNL     1       4.152   0.679   6.852  1.00  0.00     0.049 A 
ATOM     49  N   UNL     1       1.138  -0.015   6.886  1.00  0.00    -0.248 NA
ATOM     50  C   UNL     1       1.025   1.933   8.149  1.00  0.00     0.031 C 
ATOM     51  C   UNL     1       4.408  -0.450   5.956  1.00  0.00     0.029 A 
ATOM     52  N   UNL     1       4.991   0.434   7.941  1.00  0.00    -0.354 N 
ATOM     53  C   UNL     1      -0.136   0.089   7.425  1.00  0.00     0.074 A 
ATOM     54  C   UNL     1      -0.166   1.325   8.175  1.00  0.00     0.031 C 
ATOM     55  C   UNL     1       5.278  -1.299   6.535  1.00  0.00     0.029 A 
ATOM     56  C   UNL     1       5.612  -0.820   7.878  1.00  0.00     0.049 A 
ATOM     57  H   UNL     1       5.131   1.074   8.676  1.00  0.00     0.167 HD
ATOM     58  C   UNL     1      -1.109  -0.848   7.274  1.00  0.00     0.031 A 
ATOM     59  C   UNL     1       5.848  -1.643   8.949  1.00  0.00     0.031 A 
ATOM     60  C   UNL     1      -0.709  -2.052   6.617  1.00  0.00     0.049 A 
ATOM     61  C   UNL     1       4.581  -2.470   8.966  1.00  0.00     0.074 A 
ATOM     62  C   UNL     1      -0.844  -2.652   5.386  1.00  0.00     0.029 A 
ATOM     63  N   UNL     1       0.040  -2.938   7.353  1.00  0.00    -0.354 N 
ATOM     64  N   UNL     1       4.285  -3.492   8.205  1.00  0.00    -0.248 NA
ATOM     65  C   UNL     1       3.428  -1.823   9.598  1.00  0.00     0.031 C 
ATOM     66  C   UNL     1       0.188  -3.642   5.327  1.00  0.00     0.029 A 
ATOM     67  C   UNL     1       0.921  -3.559   6.511  1.00  0.00     0.049 A 
ATOM     68  H   UNL     1      -0.043  -3.098   8.321  1.00  0.00     0.167 HD
ATOM     69  C   UNL     1       2.907  -3.387   7.984  1.00  0.00     0.074 A 
ATOM     70  C   UNL     1       2.443  -2.356   8.892  1.00  0.00     0.031 C 
ATOM     71  C   UNL     1       2.243  -3.973   6.943  1.00  0.00     0.031 A 
BRANCH  58  72
ATOM     72  C   UNL     1      -2.409  -0.764   7.979  1.00  0.00    -0.014 A 
ATOM     73  C   UNL     1      -3.454   0.072   7.560  1.00  0.00     0.010 A 
ATOM     74  C   UNL     1      -2.615  -1.629   9.069  1.00  0.00     0.010 A 
ATOM     75  C   UNL     1      -4.691   0.026   8.218  1.00  0.00     0.020 A 
ATOM     76  C   UNL     1      -3.843  -1.683   9.721  1.00  0.00     0.020 A 
ATOM     77  C   UNL     1      -4.877  -0.856   9.291  1.00  0.00     0.054 A 
BRANCH  77  78
ATOM     78  S   UNL     1      -6.492  -0.937  10.108  1.00  0.00     0.124 S 
ATOM     79  O   UNL     1      -6.610   0.400  10.683  1.00  0.00    -0.237 OA
ATOM     80  O   UNL     1      -7.393  -1.227   8.996  1.00  0.00    -0.237 OA
ATOM     81  O   UNL     1      -6.337  -2.018  11.078  1.00  0.00    -0.744 OA
ENDBRANCH  77  78
ENDBRANCH  58  72
BRANCH  59  82
ATOM     82  C   UNL     1       6.449  -1.045  10.184  1.00  0.00    -0.014 A 
ATOM     83  C   UNL     1       5.837  -1.010  11.450  1.00  0.00     0.010 A 
ATOM     84  C   UNL     1       7.706  -0.419  10.056  1.00  0.00     0.010 A 
ATOM     85  C   UNL     1       6.333  -0.184  12.466  1.00  0.00     0.020 A 
ATOM     86  C   UNL     1       8.232   0.377  11.080  1.00  0.00     0.020 A 
ATOM     87  C   UNL     1       7.497   0.551  12.250  1.00  0.00     0.054 A 
BRANCH  87  88
ATOM     88  S   UNL     1       7.970   1.818  13.457  1.00  0.00     0.124 S 
ATOM     89  O   UNL     1       6.890   2.790  13.298  1.00  0.00    -0.237 OA
ATOM     90  O   UNL     1       7.973   1.078  14.715  1.00  0.00    -0.237 OA
ATOM     91  O   UNL     1       9.280   2.266  12.993  1.00  0.00    -0.744 OA
ENDBRANCH  87  88
ENDBRANCH  59  82
BRANCH  71  92
ATOM     92  C   UNL     1       2.979  -4.976   6.111  1.00  0.00    -0.014 A 
ATOM     93  C   UNL     1       3.152  -4.774   4.729  1.00  0.00     0.010 A 
ATOM     94  C   UNL     1       3.316  -6.218   6.669  1.00  0.00     0.010 A 
ATOM     95  C   UNL     1       3.522  -5.835   3.901  1.00  0.00     0.020 A 
ATOM     96  C   UNL     1       3.711  -7.277   5.848  1.00  0.00     0.020 A 
ATOM     97  C   UNL     1       3.763  -7.090   4.465  1.00  0.00     0.054 A 
BRANCH  97  98
ATOM     98  S   UNL     1       4.056  -8.492   3.355  1.00  0.00     0.124 S 
ATOM     99  O   UNL     1       2.786  -8.591   2.639  1.00  0.00    -0.237 OA
ATOM    100  O   UNL     1       5.189  -8.031   2.554  1.00  0.00    -0.237 OA
ATOM    101  O   UNL     1       4.346  -9.602   4.259  1.00  0.00    -0.744 OA
ENDBRANCH  97  98
ENDBRANCH  71  92
ENDBRANCH  45  46
ENDBRANCH  38  40
ENDBRANCH  37  38
ENDBRANCH  36  37
ENDBRANCH  35  36
ENDBRANCH  34  35
ENDBRANCH  33  34
ENDBRANCH   1  33
TORSDOF 23
