REMARK SMILES CC(C)(C)OC(=O)N1CC[C@@]2(CCC[C@@H](C(=O)OCCOCCOCCOC(=O)c3ccc(-c4c5nc(c(-c6ccc(S(=O)(=O)[O-])cc6)c6ccc([nH]6)c(-c6ccc(S(=O)(=O)[O-])cc6)c6nc(c(-c7ccc(S(=O)(=O)[O-])cc7)c7ccc4[nH]7)C=C6)C=C5)cc3)O2)C1
REMARK SMILES IDX 22 1 21 2 20 3 19 4 18 5 16 6 17 7 15 8 8 9 9 10 91 11 10 12
REMARK SMILES IDX 11 13 12 14 90 15 13 16 14 17 6 18 7 19 5 20 2 21 1 22 3 23
REMARK SMILES IDX 4 24 23 25 24 26 25 27 26 28 27 29 28 30 29 31 30 32 31 33
REMARK SMILES IDX 89 34 32 35 88 36 33 37 34 38 35 39 82 40 36 41 87 42 81 43
REMARK SMILES IDX 83 44 37 45 86 46 80 47 79 48 38 50 68 51 49 52 67 53 50 54
REMARK SMILES IDX 53 55 66 56 84 57 51 58 52 59 65 61 85 62 54 63 39 64 40 65
REMARK SMILES IDX 48 66 41 67 47 68 42 69 43 70 44 71 45 72 46 73 69 74 70 75
REMARK SMILES IDX 78 76 71 77 77 78 72 79 73 80 74 81 75 82 76 83 55 84 56 85
REMARK SMILES IDX 64 86 57 87 63 88 58 89 59 90 60 91 61 92 62 93
REMARK H PARENT 83 49 53 60
REMARK Flexibility Score: inf
ROOT
ATOM      1  C   UNL     1       2.551  -3.643 -10.725  1.00  0.00     0.188 C 
ENDROOT
BRANCH   1   2
ATOM      2  O   UNL     1       1.828  -3.578 -11.932  1.00  0.00    -0.376 OA
BRANCH   2   3
ATOM      3  C   UNL     1       0.536  -4.153 -12.032  1.00  0.00     0.202 C 
BRANCH   3   4
ATOM      4  C   UNL     1      -0.170  -4.973 -10.934  1.00  0.00     0.261 C 
BRANCH   4   5
ATOM      5  O   UNL     1       0.365  -4.893  -9.609  1.00  0.00    -0.461 OA
BRANCH   5   6
ATOM      6  C   UNL     1       0.945  -6.029  -9.121  1.00  0.00     0.335 C 
ATOM      7  O   UNL     1       0.974  -7.096  -9.724  1.00  0.00    -0.249 OA
BRANCH   6   8
ATOM      8  C   UNL     1       1.680  -5.764  -7.782  1.00  0.00     0.228 C 
ATOM      9  N   UNL     1       1.040  -3.330  -3.721  1.00  0.00    -0.305 N 
ATOM     10  C   UNL     1       2.395  -3.035  -4.139  1.00  0.00     0.126 C 
ATOM     11  C   UNL     1       0.333  -4.089  -4.728  1.00  0.00     0.158 C 
ATOM     12  C   UNL     1       2.560  -3.743  -5.495  1.00  0.00     0.059 C 
ATOM     13  C   UNL     1       1.419  -4.788  -5.561  1.00  0.00     0.089 C 
ATOM     14  C   UNL     1       1.782  -6.135  -4.918  1.00  0.00     0.037 C 
ATOM     15  O   UNL     1       0.893  -4.988  -6.880  1.00  0.00    -0.358 OA
ATOM     16  C   UNL     1       2.705  -6.952  -5.810  1.00  0.00     0.006 C 
ATOM     17  C   UNL     1       2.083  -7.111  -7.185  1.00  0.00     0.044 C 
BRANCH   9  18
ATOM     18  C   UNL     1       0.459  -3.037  -2.514  1.00  0.00     0.410 C 
ATOM     19  O   UNL     1      -0.568  -3.592  -2.131  1.00  0.00    -0.224 OA
BRANCH  18  20
ATOM     20  O   UNL     1       1.114  -2.068  -1.822  1.00  0.00    -0.444 OA
BRANCH  20  21
ATOM     21  C   UNL     1       0.620  -1.624  -0.523  1.00  0.00     0.106 C 
ATOM     22  C   UNL     1       1.285  -0.261  -0.266  1.00  0.00     0.056 C 
ATOM     23  C   UNL     1       1.080  -2.615   0.550  1.00  0.00     0.056 C 
ATOM     24  C   UNL     1      -0.902  -1.403  -0.457  1.00  0.00     0.056 C 
ENDBRANCH  20  21
ENDBRANCH  18  20
ENDBRANCH   9  18
ENDBRANCH   6   8
ENDBRANCH   5   6
ENDBRANCH   4   5
ENDBRANCH   3   4
ENDBRANCH   2   3
ENDBRANCH   1   2
BRANCH   1  25
ATOM     25  C   UNL     1       2.148  -2.658  -9.607  1.00  0.00     0.188 C 
BRANCH  25  26
ATOM     26  O   UNL     1       0.962  -1.901  -9.720  1.00  0.00    -0.376 OA
BRANCH  26  27
ATOM     27  C   UNL     1       0.803  -0.984 -10.787  1.00  0.00     0.202 C 
BRANCH  27  28
ATOM     28  C   UNL     1       1.963  -0.207 -11.440  1.00  0.00     0.261 C 
BRANCH  28  29
ATOM     29  O   UNL     1       3.233  -0.863 -11.533  1.00  0.00    -0.460 OA
BRANCH  29  30
ATOM     30  C   UNL     1       4.190  -0.399 -10.689  1.00  0.00     0.338 C 
ATOM     31  O   UNL     1       4.072   0.483  -9.855  1.00  0.00    -0.246 OA
BRANCH  30  32
ATOM     32  C   UNL     1       5.386  -1.256 -10.792  1.00  0.00     0.060 A 
ATOM     33  C   UNL     1       5.741  -2.060  -9.698  1.00  0.00     0.016 A 
ATOM     34  C   UNL     1       6.180  -1.226 -11.937  1.00  0.00     0.016 A 
ATOM     35  C   UNL     1       6.902  -2.832  -9.744  1.00  0.00     0.010 A 
ATOM     36  C   UNL     1       7.358  -1.979 -11.970  1.00  0.00     0.010 A 
ATOM     37  C   UNL     1       7.737  -2.766 -10.866  1.00  0.00    -0.014 A 
BRANCH  37  38
ATOM     38  C   UNL     1       9.087  -3.380 -10.827  1.00  0.00     0.031 A 
ATOM     39  C   UNL     1      10.273  -2.494 -10.555  1.00  0.00     0.074 A 
ATOM     40  C   UNL     1       9.261  -4.698 -11.029  1.00  0.00     0.049 A 
ATOM     41  N   UNL     1      11.547  -2.787 -10.564  1.00  0.00    -0.248 NA
ATOM     42  C   UNL     1       9.980  -1.087 -10.231  1.00  0.00     0.031 C 
ATOM     43  C   UNL     1       8.192  -5.671 -11.248  1.00  0.00     0.029 A 
ATOM     44  N   UNL     1      10.413  -5.443 -11.097  1.00  0.00    -0.354 N 
ATOM     45  C   UNL     1      12.208  -1.603 -10.259  1.00  0.00     0.074 A 
ATOM     46  C   UNL     1      11.197  -0.581 -10.100  1.00  0.00     0.031 C 
ATOM     47  C   UNL     1       8.740  -6.884 -11.442  1.00  0.00     0.029 A 
ATOM     48  C   UNL     1      10.197  -6.766 -11.405  1.00  0.00     0.049 A 
ATOM     49  H   UNL     1      11.308  -5.066 -10.939  1.00  0.00     0.167 HD
ATOM     50  C   UNL     1      13.538  -1.387 -10.117  1.00  0.00     0.031 A 
ATOM     51  C   UNL     1      11.074  -7.758 -11.660  1.00  0.00     0.031 A 
ATOM     52  C   UNL     1      14.543  -2.401 -10.299  1.00  0.00     0.049 A 
ATOM     53  C   UNL     1      12.554  -7.469 -11.598  1.00  0.00     0.074 A 
ATOM     54  C   UNL     1      15.916  -2.281 -10.180  1.00  0.00     0.029 A 
ATOM     55  N   UNL     1      14.285  -3.718 -10.646  1.00  0.00    -0.354 N 
ATOM     56  N   UNL     1      13.166  -6.349 -11.291  1.00  0.00    -0.248 NA
ATOM     57  C   UNL     1      13.463  -8.582 -11.912  1.00  0.00     0.031 C 
ATOM     58  C   UNL     1      16.492  -3.510 -10.517  1.00  0.00     0.029 A 
ATOM     59  C   UNL     1      15.475  -4.415 -10.772  1.00  0.00     0.049 A 
ATOM     60  H   UNL     1      13.389  -4.101 -10.783  1.00  0.00     0.167 HD
ATOM     61  C   UNL     1      14.528  -6.634 -11.340  1.00  0.00     0.074 A 
ATOM     62  C   UNL     1      14.650  -8.033 -11.691  1.00  0.00     0.031 C 
ATOM     63  C   UNL     1      15.583  -5.812 -11.113  1.00  0.00     0.031 A 
BRANCH  50  64
ATOM     64  C   UNL     1      13.984   0.012  -9.778  1.00  0.00    -0.014 A 
ATOM     65  C   UNL     1      13.726   0.572  -8.513  1.00  0.00     0.010 A 
ATOM     66  C   UNL     1      14.707   0.763 -10.723  1.00  0.00     0.010 A 
ATOM     67  C   UNL     1      14.150   1.869  -8.214  1.00  0.00     0.020 A 
ATOM     68  C   UNL     1      15.161   2.049 -10.416  1.00  0.00     0.020 A 
ATOM     69  C   UNL     1      14.865   2.599  -9.168  1.00  0.00     0.054 A 
BRANCH  69  70
ATOM     70  S   UNL     1      15.425   4.270  -8.739  1.00  0.00     0.124 S 
ATOM     71  O   UNL     1      14.166   5.011  -8.706  1.00  0.00    -0.237 OA
ATOM     72  O   UNL     1      16.068   4.068  -7.443  1.00  0.00    -0.237 OA
ATOM     73  O   UNL     1      16.328   4.626  -9.831  1.00  0.00    -0.744 OA
ENDBRANCH  69  70
ENDBRANCH  50  64
BRANCH  51  74
ATOM     74  C   UNL     1      10.585  -9.117 -12.030  1.00  0.00    -0.014 A 
ATOM     75  C   UNL     1      10.812 -10.218 -11.185  1.00  0.00     0.010 A 
ATOM     76  C   UNL     1       9.914  -9.323 -13.250  1.00  0.00     0.010 A 
ATOM     77  C   UNL     1      10.403 -11.500 -11.565  1.00  0.00     0.020 A 
ATOM     78  C   UNL     1       9.472 -10.597 -13.617  1.00  0.00     0.020 A 
ATOM     79  C   UNL     1       9.734 -11.681 -12.778  1.00  0.00     0.054 A 
BRANCH  79  80
ATOM     80  S   UNL     1       9.185 -13.350 -13.234  1.00  0.00     0.124 S 
ATOM     81  O   UNL     1      10.449 -14.013 -13.537  1.00  0.00    -0.237 OA
ATOM     82  O   UNL     1       8.509 -13.799 -12.019  1.00  0.00    -0.237 OA
ATOM     83  O   UNL     1       8.307 -13.120 -14.379  1.00  0.00    -0.744 OA
ENDBRANCH  79  80
ENDBRANCH  51  74
BRANCH  63  84
ATOM     84  C   UNL     1      16.966  -6.409 -11.182  1.00  0.00    -0.014 A 
ATOM     85  C   UNL     1      17.537  -6.806 -12.405  1.00  0.00     0.010 A 
ATOM     86  C   UNL     1      17.733  -6.514 -10.006  1.00  0.00     0.010 A 
ATOM     87  C   UNL     1      18.836  -7.323 -12.444  1.00  0.00     0.020 A 
ATOM     88  C   UNL     1      19.042  -6.999 -10.046  1.00  0.00     0.020 A 
ATOM     89  C   UNL     1      19.581  -7.413 -11.264  1.00  0.00     0.054 A 
BRANCH  89  90
ATOM     90  S   UNL     1      21.282  -8.039 -11.352  1.00  0.00     0.124 S 
ATOM     91  O   UNL     1      21.070  -9.458 -11.629  1.00  0.00    -0.237 OA
ATOM     92  O   UNL     1      21.851  -7.263 -12.451  1.00  0.00    -0.237 OA
ATOM     93  O   UNL     1      21.832  -7.738 -10.033  1.00  0.00    -0.744 OA
ENDBRANCH  89  90
ENDBRANCH  63  84
ENDBRANCH  37  38
ENDBRANCH  30  32
ENDBRANCH  29  30
ENDBRANCH  28  29
ENDBRANCH  27  28
ENDBRANCH  26  27
ENDBRANCH  25  26
ENDBRANCH   1  25
TORSDOF 23
