REMARK SMILES Cc1cc(F)cc(N[C@@](C)(C(=O)OCCOCCOCCOC(=O)c2ccc(-c3c4nc(c(-c5ccc(S(=O)(=O)[O-])cc5)c5ccc([nH]5)c(-c5ccc(S(=O)(=O)[O-])cc5)c5nc(c(-c6ccc(S(=O)(=O)[O-])cc6)c6ccc3[nH]6)C=C5)C=C4)cc2)c2ccc(O)cc2)c1
REMARK SMILES IDX 18 1 17 2 16 3 15 4 14 5 13 6 11 7 12 8 9 9 10 10 8 11 7 13
REMARK SMILES IDX 1 14 2 15 3 16 92 17 4 18 5 19 6 20 85 21 86 22 91 23 87 24
REMARK SMILES IDX 90 25 88 26 89 27 19 29 20 30 21 31 22 32 23 33 24 34 25 35
REMARK SMILES IDX 26 36 84 37 27 38 83 39 28 40 29 41 30 42 77 43 31 44 82 45
REMARK SMILES IDX 76 46 78 47 32 48 81 49 75 50 74 51 33 53 63 54 44 55 62 56
REMARK SMILES IDX 45 57 48 58 61 59 79 60 46 61 47 62 60 64 80 65 49 66 34 67
REMARK SMILES IDX 35 68 43 69 36 70 42 71 37 72 38 73 39 74 40 75 41 76 64 77
REMARK SMILES IDX 65 78 73 79 66 80 72 81 67 82 68 83 69 84 70 85 71 86 50 87
REMARK SMILES IDX 51 88 59 89 52 90 58 91 53 92 54 93 55 94 56 95 57 96
REMARK H PARENT 8 12 89 28 78 52 48 63
REMARK Flexibility Score: inf
ROOT
ATOM      1  C   UNL     1       0.552  -3.770   3.087  1.00  0.00     0.188 C 
ENDROOT
BRANCH   1   2
ATOM      2  C   UNL     1      -0.876  -4.186   3.484  1.00  0.00     0.188 C 
BRANCH   2   3
ATOM      3  O   UNL     1      -1.121  -5.510   3.959  1.00  0.00    -0.376 OA
BRANCH   3   4
ATOM      4  C   UNL     1      -0.337  -6.580   3.456  1.00  0.00     0.202 C 
BRANCH   4   5
ATOM      5  C   UNL     1      -0.456  -6.874   1.958  1.00  0.00     0.261 C 
BRANCH   5   6
ATOM      6  O   UNL     1      -0.330  -5.708   1.119  1.00  0.00    -0.461 OA
BRANCH   6   7
ATOM      7  C   UNL     1      -1.244  -5.601   0.111  1.00  0.00     0.336 C 
ATOM      8  O   UNL     1      -2.022  -6.509  -0.176  1.00  0.00    -0.249 OA
BRANCH   7   9
ATOM      9  C   UNL     1      -1.190  -4.228  -0.671  1.00  0.00     0.158 C 
ATOM     10  C   UNL     1      -0.863  -4.696  -2.113  1.00  0.00     0.053 C 
BRANCH   9  11
ATOM     11  N   UNL     1      -0.029  -3.364  -0.242  1.00  0.00    -0.366 N 
ATOM     12  H   UNL     1       0.785  -3.879  -0.038  1.00  0.00     0.162 HD
BRANCH  11  13
ATOM     13  C   UNL     1       0.132  -1.997  -0.076  1.00  0.00     0.038 A 
ATOM     14  C   UNL     1       2.994   0.587  -0.334  1.00  0.00     0.044 C 
ATOM     15  C   UNL     1       1.632  -0.021  -0.165  1.00  0.00    -0.046 A 
ATOM     16  C   UNL     1       0.561   0.822   0.117  1.00  0.00     0.042 A 
ATOM     17  C   UNL     1       1.402  -1.413  -0.286  1.00  0.00     0.029 A 
ATOM     18  C   UNL     1      -0.683   0.268   0.335  1.00  0.00     0.125 A 
ATOM     19  F   UNL     1      -1.709   1.071   0.642  1.00  0.00    -0.207 F 
ATOM     20  C   UNL     1      -0.881  -1.113   0.291  1.00  0.00     0.065 A 
ENDBRANCH  11  13
ENDBRANCH   9  11
BRANCH   9  21
ATOM     21  C   UNL     1      -2.554  -3.514  -0.633  1.00  0.00    -0.011 A 
ATOM     22  C   UNL     1      -2.852  -2.486  -1.556  1.00  0.00     0.010 A 
ATOM     23  C   UNL     1      -3.515  -3.783   0.366  1.00  0.00     0.010 A 
ATOM     24  C   UNL     1      -3.998  -1.699  -1.415  1.00  0.00     0.046 A 
ATOM     25  C   UNL     1      -4.680  -3.015   0.483  1.00  0.00     0.046 A 
ATOM     26  C   UNL     1      -4.893  -1.957  -0.388  1.00  0.00     0.115 A 
BRANCH  26  27
ATOM     27  O   UNL     1      -5.963  -1.125  -0.259  1.00  0.00    -0.508 OA
ATOM     28  H   UNL     1      -6.081  -0.418  -0.862  1.00  0.00     0.293 HD
ENDBRANCH  26  27
ENDBRANCH   9  21
ENDBRANCH   7   9
ENDBRANCH   6   7
ENDBRANCH   5   6
ENDBRANCH   4   5
ENDBRANCH   3   4
ENDBRANCH   2   3
ENDBRANCH   1   2
BRANCH   1  29
ATOM     29  O   UNL     1       1.559  -4.530   3.737  1.00  0.00    -0.376 OA
BRANCH  29  30
ATOM     30  C   UNL     1       2.514  -3.777   4.458  1.00  0.00     0.202 C 
BRANCH  30  31
ATOM     31  C   UNL     1       1.982  -3.284   5.807  1.00  0.00     0.261 C 
BRANCH  31  32
ATOM     32  O   UNL     1       0.762  -2.523   5.742  1.00  0.00    -0.460 OA
BRANCH  32  33
ATOM     33  C   UNL     1       0.864  -1.251   5.290  1.00  0.00     0.338 C 
ATOM     34  O   UNL     1       1.879  -0.688   4.929  1.00  0.00    -0.246 OA
BRANCH  33  35
ATOM     35  C   UNL     1      -0.505  -0.708   5.140  1.00  0.00     0.060 A 
ATOM     36  C   UNL     1      -0.989  -0.459   3.854  1.00  0.00     0.016 A 
ATOM     37  C   UNL     1      -1.298  -0.423   6.252  1.00  0.00     0.016 A 
ATOM     38  C   UNL     1      -2.261   0.090   3.670  1.00  0.00     0.010 A 
ATOM     39  C   UNL     1      -2.561   0.156   6.068  1.00  0.00     0.010 A 
ATOM     40  C   UNL     1      -3.040   0.441   4.776  1.00  0.00    -0.014 A 
BRANCH  40  41
ATOM     41  C   UNL     1      -4.261   1.269   4.587  1.00  0.00     0.031 A 
ATOM     42  C   UNL     1      -4.167   2.751   4.840  1.00  0.00     0.074 A 
ATOM     43  C   UNL     1      -5.427   0.734   4.180  1.00  0.00     0.049 A 
ATOM     44  N   UNL     1      -5.115   3.651   4.874  1.00  0.00    -0.248 NA
ATOM     45  C   UNL     1      -2.819   3.284   5.095  1.00  0.00     0.031 C 
ATOM     46  C   UNL     1      -5.641  -0.668   3.824  1.00  0.00     0.029 A 
ATOM     47  N   UNL     1      -6.660   1.316   4.011  1.00  0.00    -0.354 N 
ATOM     48  C   UNL     1      -4.485   4.850   5.190  1.00  0.00     0.074 A 
ATOM     49  C   UNL     1      -3.075   4.560   5.342  1.00  0.00     0.031 C 
ATOM     50  C   UNL     1      -6.935  -0.841   3.498  1.00  0.00     0.029 A 
ATOM     51  C   UNL     1      -7.648   0.427   3.661  1.00  0.00     0.049 A 
ATOM     52  H   UNL     1      -6.822   2.280   4.130  1.00  0.00     0.167 HD
ATOM     53  C   UNL     1      -5.030   6.079   5.349  1.00  0.00     0.031 A 
ATOM     54  C   UNL     1      -8.978   0.605   3.523  1.00  0.00     0.031 A 
ATOM     55  C   UNL     1      -6.431   6.368   5.195  1.00  0.00     0.049 A 
ATOM     56  C   UNL     1      -9.577   1.968   3.768  1.00  0.00     0.074 A 
ATOM     57  C   UNL     1      -7.080   7.582   5.338  1.00  0.00     0.029 A 
ATOM     58  N   UNL     1      -7.400   5.433   4.862  1.00  0.00    -0.354 N 
ATOM     59  N   UNL     1      -8.975   3.088   4.093  1.00  0.00    -0.248 NA
ATOM     60  C   UNL     1     -11.037   2.089   3.633  1.00  0.00     0.031 C 
ATOM     61  C   UNL     1      -8.450   7.370   5.146  1.00  0.00     0.029 A 
ATOM     62  C   UNL     1      -8.645   6.037   4.821  1.00  0.00     0.049 A 
ATOM     63  H   UNL     1      -7.227   4.481   4.681  1.00  0.00     0.167 HD
ATOM     64  C   UNL     1      -9.979   4.048   4.182  1.00  0.00     0.074 A 
ATOM     65  C   UNL     1     -11.224   3.383   3.860  1.00  0.00     0.031 C 
ATOM     66  C   UNL     1      -9.879   5.363   4.502  1.00  0.00     0.031 A 
BRANCH  53  67
ATOM     67  C   UNL     1      -4.113   7.194   5.777  1.00  0.00    -0.014 A 
ATOM     68  C   UNL     1      -3.166   7.749   4.898  1.00  0.00     0.010 A 
ATOM     69  C   UNL     1      -4.217   7.705   7.084  1.00  0.00     0.010 A 
ATOM     70  C   UNL     1      -2.310   8.766   5.334  1.00  0.00     0.020 A 
ATOM     71  C   UNL     1      -3.383   8.740   7.514  1.00  0.00     0.020 A 
ATOM     72  C   UNL     1      -2.421   9.251   6.641  1.00  0.00     0.054 A 
BRANCH  72  73
ATOM     73  S   UNL     1      -1.304  10.575   7.179  1.00  0.00     0.124 S 
ATOM     74  O   UNL     1      -0.038   9.861   7.323  1.00  0.00    -0.237 OA
ATOM     75  O   UNL     1      -1.368  11.521   6.067  1.00  0.00    -0.237 OA
ATOM     76  O   UNL     1      -1.899  11.045   8.428  1.00  0.00    -0.744 OA
ENDBRANCH  72  73
ENDBRANCH  53  67
BRANCH  54  77
ATOM     77  C   UNL     1      -9.850  -0.553   3.176  1.00  0.00    -0.014 A 
ATOM     78  C   UNL     1     -10.488  -0.625   1.925  1.00  0.00     0.010 A 
ATOM     79  C   UNL     1     -10.044  -1.594   4.102  1.00  0.00     0.010 A 
ATOM     80  C   UNL     1     -11.309  -1.713   1.611  1.00  0.00     0.020 A 
ATOM     81  C   UNL     1     -10.840  -2.697   3.781  1.00  0.00     0.020 A 
ATOM     82  C   UNL     1     -11.475  -2.745   2.539  1.00  0.00     0.054 A 
BRANCH  82  83
ATOM     83  S   UNL     1     -12.490  -4.180   2.086  1.00  0.00     0.124 S 
ATOM     84  O   UNL     1     -13.842  -3.638   2.179  1.00  0.00    -0.237 OA
ATOM     85  O   UNL     1     -12.020  -4.484   0.737  1.00  0.00    -0.237 OA
ATOM     86  O   UNL     1     -12.142  -5.175   3.097  1.00  0.00    -0.744 OA
ENDBRANCH  82  83
ENDBRANCH  54  77
BRANCH  66  87
ATOM     87  C   UNL     1     -11.141   6.186   4.492  1.00  0.00    -0.014 A 
ATOM     88  C   UNL     1     -12.112   6.048   5.500  1.00  0.00     0.010 A 
ATOM     89  C   UNL     1     -11.326   7.161   3.494  1.00  0.00     0.010 A 
ATOM     90  C   UNL     1     -13.256   6.852   5.494  1.00  0.00     0.020 A 
ATOM     91  C   UNL     1     -12.455   7.984   3.500  1.00  0.00     0.020 A 
ATOM     92  C   UNL     1     -13.421   7.815   4.494  1.00  0.00     0.054 A 
BRANCH  92  93
ATOM     93  S   UNL     1     -14.892   8.877   4.535  1.00  0.00     0.124 S 
ATOM     94  O   UNL     1     -15.941   7.961   4.097  1.00  0.00    -0.237 OA
ATOM     95  O   UNL     1     -14.956   9.283   5.936  1.00  0.00    -0.237 OA
ATOM     96  O   UNL     1     -14.571   9.950   3.596  1.00  0.00    -0.744 OA
ENDBRANCH  92  93
ENDBRANCH  66  87
ENDBRANCH  40  41
ENDBRANCH  33  35
ENDBRANCH  32  33
ENDBRANCH  31  32
ENDBRANCH  30  31
ENDBRANCH  29  30
ENDBRANCH   1  29
TORSDOF 24
