REMARK SMILES O=C(Cc1cccc(-c2ccn(C(F)F)c(=O)c2)c1)OCCOCCOCCOC(=O)c1ccc(-c2c3nc(c(-c4ccc(S(=O)(=O)[O-])cc4)c4ccc([nH]4)c(-c4ccc(S(=O)(=O)[O-])cc4)c4nc(c(-c5ccc(S(=O)(=O)[O-])cc5)c5ccc2[nH]5)C=C4)C=C3)cc1
REMARK SMILES IDX 24 1 23 2 22 3 21 4 20 5 2 6 1 7 3 8 4 9 5 10 19 11 6 12
REMARK SMILES IDX 8 13 7 14 9 15 10 16 18 17 11 18 16 19 12 20 17 21 13 22
REMARK SMILES IDX 14 23 15 24 25 25 26 26 27 27 28 28 29 29 30 30 31 31 32 32
REMARK SMILES IDX 33 33 91 34 34 35 90 36 35 37 36 38 37 39 84 40 38 41 89 42
REMARK SMILES IDX 83 43 85 44 39 45 88 46 82 47 81 48 40 50 70 51 51 52 69 53
REMARK SMILES IDX 52 54 55 55 68 56 86 57 53 58 54 59 67 61 87 62 56 63 41 64
REMARK SMILES IDX 42 65 50 66 43 67 49 68 44 69 45 70 46 71 47 72 48 73 71 74
REMARK SMILES IDX 72 75 80 76 73 77 79 78 74 79 75 80 76 81 77 82 78 83 57 84
REMARK SMILES IDX 58 85 66 86 59 87 65 88 60 89 61 90 62 91 63 92 64 93
REMARK H PARENT 85 49 55 60
REMARK Flexibility Score: inf
ROOT
ATOM      1  C   UNL     1       2.592   1.656   0.917  1.00  0.00     0.188 C 
ENDROOT
BRANCH   1   2
ATOM      2  O   UNL     1       3.935   1.198   0.867  1.00  0.00    -0.376 OA
BRANCH   2   3
ATOM      3  C   UNL     1       4.544   1.038  -0.403  1.00  0.00     0.202 C 
BRANCH   3   4
ATOM      4  C   UNL     1       3.980   0.021  -1.401  1.00  0.00     0.261 C 
BRANCH   4   5
ATOM      5  O   UNL     1       2.605  -0.348  -1.262  1.00  0.00    -0.463 OA
BRANCH   5   6
ATOM      6  C   UNL     1       2.172  -1.446  -0.592  1.00  0.00     0.310 C 
ATOM      7  O   UNL     1       1.125  -1.988  -0.941  1.00  0.00    -0.252 OA
BRANCH   6   8
ATOM      8  C   UNL     1       2.924  -1.911   0.640  1.00  0.00     0.158 C 
BRANCH   8   9
ATOM      9  C   UNL     1       3.952  -2.970   0.359  1.00  0.00    -0.036 A 
ATOM     10  C   UNL     1       3.583  -4.303   0.163  1.00  0.00     0.004 A 
ATOM     11  C   UNL     1       5.293  -2.607   0.196  1.00  0.00     0.013 A 
ATOM     12  C   UNL     1       4.535  -5.242  -0.233  1.00  0.00     0.001 A 
ATOM     13  C   UNL     1       6.229  -3.511  -0.311  1.00  0.00    -0.018 A 
ATOM     14  C   UNL     1       5.849  -4.844  -0.498  1.00  0.00     0.009 A 
BRANCH  13  15
ATOM     15  C   UNL     1       7.522  -2.973  -0.775  1.00  0.00    -0.011 A 
ATOM     16  C   UNL     1       8.425  -2.216   0.071  1.00  0.00     0.027 A 
ATOM     17  C   UNL     1       7.775  -3.046  -2.094  1.00  0.00     0.080 A 
ATOM     18  C   UNL     1       9.488  -1.596  -0.454  1.00  0.00     0.095 A 
ATOM     19  C   UNL     1       8.964  -2.380  -2.690  1.00  0.00     0.255 A 
ATOM     20  N   UNL     1       9.763  -1.673  -1.807  1.00  0.00    -0.258 N 
ATOM     21  O   UNL     1       9.145  -2.474  -3.900  1.00  0.00    -0.269 OA
BRANCH  20  22
ATOM     22  C   UNL     1      10.908  -1.001  -2.363  1.00  0.00     0.451 C 
ATOM     23  F   UNL     1      11.737  -1.875  -2.984  1.00  0.00    -0.185 F 
ATOM     24  F   UNL     1      10.531  -0.065  -3.269  1.00  0.00    -0.185 F 
ENDBRANCH  20  22
ENDBRANCH  13  15
ENDBRANCH   8   9
ENDBRANCH   6   8
ENDBRANCH   5   6
ENDBRANCH   4   5
ENDBRANCH   3   4
ENDBRANCH   2   3
ENDBRANCH   1   2
BRANCH   1  25
ATOM     25  C   UNL     1       2.240   3.095   0.511  1.00  0.00     0.188 C 
BRANCH  25  26
ATOM     26  O   UNL     1       3.198   3.877  -0.177  1.00  0.00    -0.376 OA
BRANCH  26  27
ATOM     27  C   UNL     1       4.377   4.279   0.517  1.00  0.00     0.202 C 
BRANCH  27  28
ATOM     28  C   UNL     1       4.260   4.815   1.945  1.00  0.00     0.261 C 
BRANCH  28  29
ATOM     29  O   UNL     1       3.908   3.785   2.890  1.00  0.00    -0.460 OA
BRANCH  29  30
ATOM     30  C   UNL     1       2.862   4.089   3.687  1.00  0.00     0.338 C 
ATOM     31  O   UNL     1       2.202   5.126   3.669  1.00  0.00    -0.246 OA
BRANCH  30  32
ATOM     32  C   UNL     1       2.485   2.958   4.544  1.00  0.00     0.060 A 
ATOM     33  C   UNL     1       1.186   2.449   4.416  1.00  0.00     0.016 A 
ATOM     34  C   UNL     1       3.314   2.541   5.588  1.00  0.00     0.016 A 
ATOM     35  C   UNL     1       0.681   1.579   5.380  1.00  0.00     0.010 A 
ATOM     36  C   UNL     1       2.800   1.677   6.562  1.00  0.00     0.010 A 
ATOM     37  C   UNL     1       1.464   1.242   6.492  1.00  0.00    -0.014 A 
BRANCH  37  38
ATOM     38  C   UNL     1       0.802   0.637   7.676  1.00  0.00     0.031 A 
ATOM     39  C   UNL     1       0.346   1.547   8.789  1.00  0.00     0.074 A 
ATOM     40  C   UNL     1       0.555  -0.682   7.743  1.00  0.00     0.049 A 
ATOM     41  N   UNL     1      -0.289   1.251   9.894  1.00  0.00    -0.248 NA
ATOM     42  C   UNL     1       0.644   2.981   8.632  1.00  0.00     0.031 C 
ATOM     43  C   UNL     1       0.899  -1.664   6.716  1.00  0.00     0.029 A 
ATOM     44  N   UNL     1      -0.058  -1.421   8.725  1.00  0.00    -0.354 N 
ATOM     45  C   UNL     1      -0.461   2.457  10.566  1.00  0.00     0.074 A 
ATOM     46  C   UNL     1       0.162   3.483   9.758  1.00  0.00     0.031 C 
ATOM     47  C   UNL     1       0.488  -2.879   7.122  1.00  0.00     0.029 A 
ATOM     48  C   UNL     1      -0.127  -2.763   8.444  1.00  0.00     0.049 A 
ATOM     49  H   UNL     1      -0.414  -1.025   9.553  1.00  0.00     0.167 HD
ATOM     50  C   UNL     1      -1.084   2.694  11.745  1.00  0.00     0.031 A 
ATOM     51  C   UNL     1      -0.624  -3.783   9.172  1.00  0.00     0.031 A 
ATOM     52  C   UNL     1      -1.696   1.678  12.557  1.00  0.00     0.049 A 
ATOM     53  C   UNL     1      -1.256  -3.504  10.511  1.00  0.00     0.074 A 
ATOM     54  C   UNL     1      -2.370   1.824  13.757  1.00  0.00     0.029 A 
ATOM     55  N   UNL     1      -1.702   0.324  12.258  1.00  0.00    -0.354 N 
ATOM     56  N   UNL     1      -1.437  -2.354  11.116  1.00  0.00    -0.248 NA
ATOM     57  C   UNL     1      -1.762  -4.664  11.259  1.00  0.00     0.031 C 
ATOM     58  C   UNL     1      -2.738   0.552  14.209  1.00  0.00     0.029 A 
ATOM     59  C   UNL     1      -2.343  -0.379  13.263  1.00  0.00     0.049 A 
ATOM     60  H   UNL     1      -1.308  -0.077  11.450  1.00  0.00     0.167 HD
ATOM     61  C   UNL     1      -2.110  -2.650  12.299  1.00  0.00     0.074 A 
ATOM     62  C   UNL     1      -2.307  -4.084  12.320  1.00  0.00     0.031 C 
ATOM     63  C   UNL     1      -2.534  -1.808  13.274  1.00  0.00     0.031 A 
BRANCH  50  64
ATOM     64  C   UNL     1      -1.094   4.114  12.245  1.00  0.00    -0.014 A 
ATOM     65  C   UNL     1      -1.897   5.098  11.639  1.00  0.00     0.010 A 
ATOM     66  C   UNL     1      -0.299   4.464  13.352  1.00  0.00     0.010 A 
ATOM     67  C   UNL     1      -1.869   6.416  12.103  1.00  0.00     0.020 A 
ATOM     68  C   UNL     1      -0.288   5.775  13.834  1.00  0.00     0.020 A 
ATOM     69  C   UNL     1      -1.058   6.748  13.193  1.00  0.00     0.054 A 
BRANCH  69  70
ATOM     70  S   UNL     1      -1.040   8.465  13.778  1.00  0.00     0.124 S 
ATOM     71  O   UNL     1      -0.238   9.124  12.750  1.00  0.00    -0.237 OA
ATOM     72  O   UNL     1      -2.458   8.816  13.790  1.00  0.00    -0.237 OA
ATOM     73  O   UNL     1      -0.413   8.375  15.094  1.00  0.00    -0.744 OA
ENDBRANCH  69  70
ENDBRANCH  50  64
BRANCH  51  74
ATOM     74  C   UNL     1      -0.551  -5.174   8.649  1.00  0.00    -0.014 A 
ATOM     75  C   UNL     1      -1.714  -5.843   8.230  1.00  0.00     0.010 A 
ATOM     76  C   UNL     1       0.686  -5.839   8.576  1.00  0.00     0.010 A 
ATOM     77  C   UNL     1      -1.643  -7.159   7.763  1.00  0.00     0.020 A 
ATOM     78  C   UNL     1       0.764  -7.145   8.086  1.00  0.00     0.020 A 
ATOM     79  C   UNL     1      -0.404  -7.801   7.693  1.00  0.00     0.054 A 
BRANCH  79  80
ATOM     80  S   UNL     1      -0.327  -9.491   7.035  1.00  0.00     0.124 S 
ATOM     81  O   UNL     1      -0.857 -10.274   8.147  1.00  0.00    -0.237 OA
ATOM     82  O   UNL     1      -1.181  -9.409   5.853  1.00  0.00    -0.237 OA
ATOM     83  O   UNL     1       1.095  -9.682   6.754  1.00  0.00    -0.744 OA
ENDBRANCH  79  80
ENDBRANCH  51  74
BRANCH  63  84
ATOM     84  C   UNL     1      -3.293  -2.407  14.429  1.00  0.00    -0.014 A 
ATOM     85  C   UNL     1      -2.647  -3.179  15.410  1.00  0.00     0.010 A 
ATOM     86  C   UNL     1      -4.672  -2.156  14.554  1.00  0.00     0.010 A 
ATOM     87  C   UNL     1      -3.373  -3.722  16.474  1.00  0.00     0.020 A 
ATOM     88  C   UNL     1      -5.397  -2.675  15.630  1.00  0.00     0.020 A 
ATOM     89  C   UNL     1      -4.746  -3.470  16.575  1.00  0.00     0.054 A 
BRANCH  89  90
ATOM     90  S   UNL     1      -5.665  -4.162  17.978  1.00  0.00     0.124 S 
ATOM     91  O   UNL     1      -5.802  -5.563  17.589  1.00  0.00    -0.237 OA
ATOM     92  O   UNL     1      -4.771  -3.908  19.106  1.00  0.00    -0.237 OA
ATOM     93  O   UNL     1      -6.907  -3.393  17.991  1.00  0.00    -0.744 OA
ENDBRANCH  89  90
ENDBRANCH  63  84
ENDBRANCH  37  38
ENDBRANCH  30  32
ENDBRANCH  29  30
ENDBRANCH  28  29
ENDBRANCH  27  28
ENDBRANCH  26  27
ENDBRANCH  25  26
ENDBRANCH   1  25
TORSDOF 23
