REMARK SMILES Cc1nn(Cc2ccc(C(=O)OCCOCCOCCOC(=O)c3ccc(-c4c5nc(c(-c6ccc(S(=O)(=O)[O-])cc6)c6ccc([nH]6)c(-c6ccc(S(=O)(=O)[O-])cc6)c6nc(c(-c7ccc(S(=O)(=O)[O-])cc7)c7ccc4[nH]7)C=C6)C=C5)cc3)o2)c(C)c1C
REMARK SMILES IDX 17 1 16 2 15 3 14 4 13 5 12 6 10 7 11 8 9 9 6 10 7 11 84 12
REMARK SMILES IDX 8 13 5 14 4 15 1 16 2 17 3 18 87 19 85 20 88 21 86 22 18 23
REMARK SMILES IDX 19 24 20 25 21 26 22 27 23 28 24 29 25 30 83 31 26 32 82 33
REMARK SMILES IDX 27 34 28 35 29 36 76 37 30 38 81 39 75 40 77 41 31 42 80 43
REMARK SMILES IDX 74 44 73 45 32 47 62 48 43 49 61 50 44 51 47 52 60 53 78 54
REMARK SMILES IDX 45 55 46 56 59 58 79 59 48 60 33 61 34 62 42 63 35 64 41 65
REMARK SMILES IDX 36 66 37 67 38 68 39 69 40 70 63 71 64 72 72 73 65 74 71 75
REMARK SMILES IDX 66 76 67 77 68 78 69 79 70 80 49 81 50 82 58 83 51 84 57 85
REMARK SMILES IDX 52 86 53 87 54 88 55 89 56 90
REMARK H PARENT 77 46 47 57
REMARK Flexibility Score: inf
ROOT
ATOM      1  C   UNL     1       4.311   1.674  -7.044  1.00  0.00     0.188 C 
ENDROOT
BRANCH   1   2
ATOM      2  C   UNL     1       4.414   0.649  -8.193  1.00  0.00     0.188 C 
BRANCH   2   3
ATOM      3  O   UNL     1       5.029   1.002  -9.425  1.00  0.00    -0.376 OA
BRANCH   3   4
ATOM      4  C   UNL     1       4.737   2.242 -10.053  1.00  0.00     0.202 C 
BRANCH   4   5
ATOM      5  C   UNL     1       3.301   2.803 -10.165  1.00  0.00     0.261 C 
BRANCH   5   6
ATOM      6  O   UNL     1       2.435   2.600  -9.036  1.00  0.00    -0.457 OA
BRANCH   6   7
ATOM      7  C   UNL     1       1.425   1.708  -9.199  1.00  0.00     0.374 C 
ATOM      8  O   UNL     1       1.113   1.192 -10.270  1.00  0.00    -0.242 OA
BRANCH   7   9
ATOM      9  C   UNL     1       0.903   1.296  -7.910  1.00  0.00     0.211 A 
ATOM     10  C   UNL     1       0.105   1.503  -5.858  1.00  0.00     0.126 A 
ATOM     11  C   UNL     1       0.240   0.150  -6.096  1.00  0.00     0.048 A 
ATOM     12  O   UNL     1       0.541   2.211  -6.953  1.00  0.00    -0.452 OA
ATOM     13  C   UNL     1       0.713   0.017  -7.419  1.00  0.00     0.058 A 
BRANCH  10  14
ATOM     14  C   UNL     1      -0.513   2.273  -4.744  1.00  0.00     0.219 C 
BRANCH  14  15
ATOM     15  N   UNL     1       0.132   2.087  -3.442  1.00  0.00    -0.262 N 
ATOM     16  C   UNL     1       0.802  -0.062  -0.693  1.00  0.00     0.069 C 
ATOM     17  C   UNL     1       0.620   1.073  -1.634  1.00  0.00     0.063 A 
ATOM     18  N   UNL     1       0.102   0.870  -2.851  1.00  0.00    -0.177 NA
ATOM     19  C   UNL     1       0.917   2.443  -1.407  1.00  0.00    -0.007 A 
ATOM     20  C   UNL     1       0.579   3.076  -2.592  1.00  0.00     0.039 A 
ATOM     21  C   UNL     1       1.452   3.066  -0.169  1.00  0.00     0.048 C 
ATOM     22  C   UNL     1       0.637   4.512  -2.961  1.00  0.00     0.066 C 
ENDBRANCH  14  15
ENDBRANCH  10  14
ENDBRANCH   7   9
ENDBRANCH   6   7
ENDBRANCH   5   6
ENDBRANCH   4   5
ENDBRANCH   3   4
ENDBRANCH   2   3
ENDBRANCH   1   2
BRANCH   1  23
ATOM     23  O   UNL     1       4.620   2.998  -7.430  1.00  0.00    -0.376 OA
BRANCH  23  24
ATOM     24  C   UNL     1       5.861   3.576  -7.075  1.00  0.00     0.202 C 
BRANCH  24  25
ATOM     25  C   UNL     1       7.179   2.803  -7.108  1.00  0.00     0.261 C 
BRANCH  25  26
ATOM     26  O   UNL     1       7.107   1.394  -6.990  1.00  0.00    -0.460 OA
BRANCH  26  27
ATOM     27  C   UNL     1       7.079   0.953  -5.716  1.00  0.00     0.338 C 
ATOM     28  O   UNL     1       6.708   1.572  -4.734  1.00  0.00    -0.246 OA
BRANCH  27  29
ATOM     29  C   UNL     1       7.714  -0.363  -5.670  1.00  0.00     0.060 A 
ATOM     30  C   UNL     1       7.481  -1.152  -4.544  1.00  0.00     0.016 A 
ATOM     31  C   UNL     1       8.745  -0.641  -6.582  1.00  0.00     0.016 A 
ATOM     32  C   UNL     1       8.403  -2.128  -4.234  1.00  0.00     0.010 A 
ATOM     33  C   UNL     1       9.676  -1.597  -6.257  1.00  0.00     0.010 A 
ATOM     34  C   UNL     1       9.530  -2.276  -5.050  1.00  0.00    -0.014 A 
BRANCH  34  35
ATOM     35  C   UNL     1      10.533  -3.239  -4.650  1.00  0.00     0.031 A 
ATOM     36  C   UNL     1      10.133  -4.634  -4.910  1.00  0.00     0.074 A 
ATOM     37  C   UNL     1      11.743  -2.881  -4.186  1.00  0.00     0.049 A 
ATOM     38  N   UNL     1       9.820  -5.534  -4.040  1.00  0.00    -0.248 NA
ATOM     39  C   UNL     1       9.875  -5.020  -6.306  1.00  0.00     0.031 C 
ATOM     40  C   UNL     1      12.335  -1.541  -4.164  1.00  0.00     0.029 A 
ATOM     41  N   UNL     1      12.753  -3.675  -3.740  1.00  0.00    -0.354 N 
ATOM     42  C   UNL     1       9.553  -6.678  -4.780  1.00  0.00     0.074 A 
ATOM     43  C   UNL     1       9.389  -6.250  -6.146  1.00  0.00     0.031 C 
ATOM     44  C   UNL     1      13.666  -1.651  -3.950  1.00  0.00     0.029 A 
ATOM     45  C   UNL     1      13.991  -3.047  -3.699  1.00  0.00     0.049 A 
ATOM     46  H   UNL     1      12.618  -4.613  -3.471  1.00  0.00     0.167 HD
ATOM     47  C   UNL     1       9.780  -7.917  -4.268  1.00  0.00     0.031 A 
ATOM     48  C   UNL     1      15.196  -3.653  -3.554  1.00  0.00     0.031 A 
ATOM     49  C   UNL     1       9.941  -7.882  -2.837  1.00  0.00     0.049 A 
ATOM     50  C   UNL     1      14.952  -4.998  -2.977  1.00  0.00     0.074 A 
ATOM     51  C   UNL     1       9.159  -7.469  -1.778  1.00  0.00     0.029 A 
ATOM     52  N   UNL     1      11.227  -7.974  -2.357  1.00  0.00    -0.354 N 
ATOM     53  N   UNL     1      14.528  -5.197  -1.761  1.00  0.00    -0.248 NA
ATOM     54  C   UNL     1      14.778  -6.123  -3.885  1.00  0.00     0.031 C 
ATOM     55  C   UNL     1      10.070  -6.924  -0.829  1.00  0.00     0.029 A 
ATOM     56  C   UNL     1      11.365  -7.081  -1.328  1.00  0.00     0.049 A 
ATOM     57  H   UNL     1      11.928  -8.577  -2.696  1.00  0.00     0.167 HD
ATOM     58  C   UNL     1      13.660  -6.275  -1.857  1.00  0.00     0.074 A 
ATOM     59  C   UNL     1      13.944  -6.873  -3.158  1.00  0.00     0.031 C 
ATOM     60  C   UNL     1      12.605  -6.406  -1.000  1.00  0.00     0.031 A 
BRANCH  47  61
ATOM     61  C   UNL     1      10.304  -9.061  -5.102  1.00  0.00    -0.014 A 
ATOM     62  C   UNL     1      10.505 -10.310  -4.482  1.00  0.00     0.010 A 
ATOM     63  C   UNL     1      10.879  -8.882  -6.379  1.00  0.00     0.010 A 
ATOM     64  C   UNL     1      11.313 -11.290  -5.071  1.00  0.00     0.020 A 
ATOM     65  C   UNL     1      11.643  -9.870  -6.997  1.00  0.00     0.020 A 
ATOM     66  C   UNL     1      11.889 -11.054  -6.319  1.00  0.00     0.054 A 
BRANCH  66  67
ATOM     67  S   UNL     1      13.020 -12.275  -7.022  1.00  0.00     0.124 S 
ATOM     68  O   UNL     1      14.155 -12.190  -6.109  1.00  0.00    -0.237 OA
ATOM     69  O   UNL     1      12.233 -13.503  -6.948  1.00  0.00    -0.237 OA
ATOM     70  O   UNL     1      13.262 -11.777  -8.374  1.00  0.00    -0.744 OA
ENDBRANCH  66  67
ENDBRANCH  47  61
BRANCH  48  71
ATOM     71  C   UNL     1      16.502  -3.264  -4.145  1.00  0.00    -0.014 A 
ATOM     72  C   UNL     1      17.690  -3.905  -3.744  1.00  0.00     0.010 A 
ATOM     73  C   UNL     1      16.551  -2.463  -5.303  1.00  0.00     0.010 A 
ATOM     74  C   UNL     1      18.861  -3.808  -4.516  1.00  0.00     0.020 A 
ATOM     75  C   UNL     1      17.717  -2.351  -6.070  1.00  0.00     0.020 A 
ATOM     76  C   UNL     1      18.859  -3.049  -5.688  1.00  0.00     0.054 A 
BRANCH  76  77
ATOM     77  S   UNL     1      20.308  -3.089  -6.783  1.00  0.00     0.124 S 
ATOM     78  O   UNL     1      21.293  -2.324  -6.024  1.00  0.00    -0.237 OA
ATOM     79  O   UNL     1      20.575  -4.519  -6.905  1.00  0.00    -0.237 OA
ATOM     80  O   UNL     1      19.832  -2.446  -8.007  1.00  0.00    -0.744 OA
ENDBRANCH  76  77
ENDBRANCH  48  71
BRANCH  60  81
ATOM     81  C   UNL     1      12.614  -5.615   0.286  1.00  0.00    -0.014 A 
ATOM     82  C   UNL     1      12.666  -4.210   0.352  1.00  0.00     0.010 A 
ATOM     83  C   UNL     1      12.421  -6.336   1.478  1.00  0.00     0.010 A 
ATOM     84  C   UNL     1      12.558  -3.548   1.585  1.00  0.00     0.020 A 
ATOM     85  C   UNL     1      12.290  -5.684   2.704  1.00  0.00     0.020 A 
ATOM     86  C   UNL     1      12.371  -4.293   2.754  1.00  0.00     0.054 A 
BRANCH  86  87
ATOM     87  S   UNL     1      12.186  -3.433   4.342  1.00  0.00     0.124 S 
ATOM     88  O   UNL     1      13.525  -2.898   4.570  1.00  0.00    -0.237 OA
ATOM     89  O   UNL     1      11.151  -2.442   4.056  1.00  0.00    -0.237 OA
ATOM     90  O   UNL     1      11.778  -4.492   5.265  1.00  0.00    -0.744 OA
ENDBRANCH  86  87
ENDBRANCH  60  81
ENDBRANCH  34  35
ENDBRANCH  27  29
ENDBRANCH  26  27
ENDBRANCH  25  26
ENDBRANCH  24  25
ENDBRANCH  23  24
ENDBRANCH   1  23
TORSDOF 22
