REMARK SMILES O=C(OCCOCCOCCOC(=O)[C@@H](CCOCCO)c1cccc(F)c1)c1ccc(-c2c3nc(c(-c4ccc(S(=O)(=O)[O-])cc4)c4ccc([nH]4)c(-c4ccc(S(=O)(=O)[O-])cc4)c4nc(c(-c5ccc(S(=O)(=O)[O-])cc5)c5ccc2[nH]5)C=C4)C=C3)cc1
REMARK SMILES IDX 9 1 8 2 7 3 6 4 5 5 4 6 3 7 2 8 1 9 29 10 30 11 88 12 31 13
REMARK SMILES IDX 87 14 32 15 33 16 34 17 81 18 35 19 86 20 80 21 82 22 36 23
REMARK SMILES IDX 85 24 79 25 78 26 37 28 67 29 48 30 66 31 49 32 52 33 65 34
REMARK SMILES IDX 83 35 50 36 51 37 64 39 84 40 53 41 38 42 39 43 47 44 40 45
REMARK SMILES IDX 46 46 41 47 42 48 43 49 44 50 45 51 68 52 69 53 77 54 70 55
REMARK SMILES IDX 76 56 71 57 72 58 73 59 74 60 75 61 54 62 55 63 63 64 56 65
REMARK SMILES IDX 62 66 57 67 58 68 59 69 60 70 61 71 10 72 11 73 12 74 13 75
REMARK SMILES IDX 14 76 15 77 16 78 17 79 18 80 19 81 20 82 21 83 22 85 23 86
REMARK SMILES IDX 28 87 24 88 26 89 25 90 27 91
REMARK H PARENT 82 27 52 38 21 84
REMARK Flexibility Score: inf
ROOT
ATOM      1  O   UNL     1       2.232   4.190  -0.092  1.00  0.00    -0.376 OA
ENDROOT
BRANCH   1   2
ATOM      2  C   UNL     1       1.669   2.932   0.281  1.00  0.00     0.188 C 
BRANCH   2   3
ATOM      3  C   UNL     1       2.293   1.718  -0.404  1.00  0.00     0.188 C 
BRANCH   3   4
ATOM      4  O   UNL     1       3.574   1.387   0.154  1.00  0.00    -0.376 OA
BRANCH   4   5
ATOM      5  C   UNL     1       4.565   1.131  -0.847  1.00  0.00     0.202 C 
BRANCH   5   6
ATOM      6  C   UNL     1       4.462  -0.234  -1.547  1.00  0.00     0.261 C 
BRANCH   6   7
ATOM      7  O   UNL     1       3.169  -0.851  -1.451  1.00  0.00    -0.460 OA
BRANCH   7   8
ATOM      8  C   UNL     1       2.605  -1.550  -0.437  1.00  0.00     0.338 C 
ATOM      9  O   UNL     1       1.437  -1.914  -0.584  1.00  0.00    -0.246 OA
BRANCH   8  10
ATOM     10  C   UNL     1       3.287  -1.920   0.849  1.00  0.00     0.060 A 
ATOM     11  C   UNL     1       4.562  -1.522   1.244  1.00  0.00     0.016 A 
ATOM     12  C   UNL     1       2.568  -2.758   1.732  1.00  0.00     0.016 A 
ATOM     13  C   UNL     1       5.136  -2.003   2.418  1.00  0.00     0.010 A 
ATOM     14  C   UNL     1       3.128  -3.225   2.931  1.00  0.00     0.010 A 
ATOM     15  C   UNL     1       4.434  -2.872   3.257  1.00  0.00    -0.014 A 
BRANCH  15  16
ATOM     16  C   UNL     1       5.208  -3.493   4.351  1.00  0.00     0.031 A 
ATOM     17  C   UNL     1       5.997  -4.723   4.022  1.00  0.00     0.074 A 
ATOM     18  C   UNL     1       5.391  -2.826   5.505  1.00  0.00     0.049 A 
ATOM     19  N   UNL     1       6.947  -5.298   4.704  1.00  0.00    -0.248 NA
ATOM     20  C   UNL     1       5.683  -5.381   2.741  1.00  0.00     0.031 C 
ATOM     21  C   UNL     1       4.693  -1.601   5.879  1.00  0.00     0.029 A 
ATOM     22  N   UNL     1       6.282  -3.026   6.528  1.00  0.00    -0.354 N 
ATOM     23  C   UNL     1       7.339  -6.392   3.944  1.00  0.00     0.074 A 
ATOM     24  C   UNL     1       6.535  -6.394   2.743  1.00  0.00     0.031 C 
ATOM     25  C   UNL     1       5.261  -1.086   6.981  1.00  0.00     0.029 A 
ATOM     26  C   UNL     1       6.324  -1.979   7.425  1.00  0.00     0.049 A 
ATOM     27  H   UNL     1       6.835  -3.835   6.614  1.00  0.00     0.167 HD
ATOM     28  C   UNL     1       8.269  -7.327   4.245  1.00  0.00     0.031 A 
ATOM     29  C   UNL     1       7.142  -1.765   8.474  1.00  0.00     0.031 A 
ATOM     30  C   UNL     1       9.004  -7.335   5.478  1.00  0.00     0.049 A 
ATOM     31  C   UNL     1       8.172  -2.818   8.781  1.00  0.00     0.074 A 
ATOM     32  C   UNL     1       9.857  -8.303   5.974  1.00  0.00     0.029 A 
ATOM     33  N   UNL     1       8.966  -6.311   6.416  1.00  0.00    -0.354 N 
ATOM     34  N   UNL     1       8.470  -3.901   8.099  1.00  0.00    -0.248 NA
ATOM     35  C   UNL     1       8.952  -2.643  10.012  1.00  0.00     0.031 C 
ATOM     36  C   UNL     1      10.305  -7.880   7.232  1.00  0.00     0.029 A 
ATOM     37  C   UNL     1       9.775  -6.625   7.492  1.00  0.00     0.049 A 
ATOM     38  H   UNL     1       8.440  -5.484   6.328  1.00  0.00     0.167 HD
ATOM     39  C   UNL     1       9.437  -4.561   8.844  1.00  0.00     0.074 A 
ATOM     40  C   UNL     1       9.729  -3.717   9.988  1.00  0.00     0.031 C 
ATOM     41  C   UNL     1      10.008  -5.772   8.629  1.00  0.00     0.031 A 
BRANCH  28  42
ATOM     42  C   UNL     1       8.438  -8.452   3.266  1.00  0.00    -0.014 A 
ATOM     43  C   UNL     1       9.114  -8.268   2.046  1.00  0.00     0.010 A 
ATOM     44  C   UNL     1       7.870  -9.706   3.554  1.00  0.00     0.010 A 
ATOM     45  C   UNL     1       9.189  -9.310   1.118  1.00  0.00     0.020 A 
ATOM     46  C   UNL     1       7.961 -10.756   2.638  1.00  0.00     0.020 A 
ATOM     47  C   UNL     1       8.605 -10.546   1.417  1.00  0.00     0.054 A 
BRANCH  47  48
ATOM     48  S   UNL     1       8.711 -11.882   0.194  1.00  0.00     0.124 S 
ATOM     49  O   UNL     1       7.758 -11.438  -0.820  1.00  0.00    -0.237 OA
ATOM     50  O   UNL     1      10.116 -11.841  -0.204  1.00  0.00    -0.237 OA
ATOM     51  O   UNL     1       8.315 -13.071   0.945  1.00  0.00    -0.744 OA
ENDBRANCH  47  48
ENDBRANCH  28  42
BRANCH  29  52
ATOM     52  C   UNL     1       6.994  -0.555   9.334  1.00  0.00    -0.014 A 
ATOM     53  C   UNL     1       8.008   0.419   9.408  1.00  0.00     0.010 A 
ATOM     54  C   UNL     1       5.832  -0.376  10.106  1.00  0.00     0.010 A 
ATOM     55  C   UNL     1       7.865   1.536  10.242  1.00  0.00     0.020 A 
ATOM     56  C   UNL     1       5.674   0.750  10.920  1.00  0.00     0.020 A 
ATOM     57  C   UNL     1       6.696   1.696  10.992  1.00  0.00     0.054 A 
BRANCH  57  58
ATOM     58  S   UNL     1       6.479   3.183  12.012  1.00  0.00     0.124 S 
ATOM     59  O   UNL     1       7.136   2.794  13.258  1.00  0.00    -0.237 OA
ATOM     60  O   UNL     1       7.161   4.216  11.237  1.00  0.00    -0.237 OA
ATOM     61  O   UNL     1       5.029   3.337  12.088  1.00  0.00    -0.744 OA
ENDBRANCH  57  58
ENDBRANCH  29  52
BRANCH  41  62
ATOM     62  C   UNL     1      10.961  -6.260   9.682  1.00  0.00    -0.014 A 
ATOM     63  C   UNL     1      10.481  -6.704  10.927  1.00  0.00     0.010 A 
ATOM     64  C   UNL     1      12.339  -6.305   9.413  1.00  0.00     0.010 A 
ATOM     65  C   UNL     1      11.371  -7.148  11.905  1.00  0.00     0.020 A 
ATOM     66  C   UNL     1      13.230  -6.771  10.381  1.00  0.00     0.020 A 
ATOM     67  C   UNL     1      12.741  -7.172  11.627  1.00  0.00     0.054 A 
BRANCH  67  68
ATOM     68  S   UNL     1      13.879  -7.771  12.905  1.00  0.00     0.124 S 
ATOM     69  O   UNL     1      13.934  -6.633  13.818  1.00  0.00    -0.237 OA
ATOM     70  O   UNL     1      13.195  -8.956  13.417  1.00  0.00    -0.237 OA
ATOM     71  O   UNL     1      15.112  -8.041  12.169  1.00  0.00    -0.744 OA
ENDBRANCH  67  68
ENDBRANCH  41  62
ENDBRANCH  15  16
ENDBRANCH   8  10
ENDBRANCH   7   8
ENDBRANCH   6   7
ENDBRANCH   5   6
ENDBRANCH   4   5
ENDBRANCH   3   4
ENDBRANCH   2   3
ENDBRANCH   1   2
BRANCH   1  72
ATOM     72  C   UNL     1       3.562   4.462   0.341  1.00  0.00     0.202 C 
BRANCH  72  73
ATOM     73  C   UNL     1       3.707   4.866   1.809  1.00  0.00     0.261 C 
BRANCH  73  74
ATOM     74  O   UNL     1       3.452   3.776   2.711  1.00  0.00    -0.463 OA
BRANCH  74  75
ATOM     75  C   UNL     1       2.317   3.846   3.461  1.00  0.00     0.313 C 
ATOM     76  O   UNL     1       1.482   4.739   3.347  1.00  0.00    -0.252 OA
BRANCH  75  77
ATOM     77  C   UNL     1       2.192   2.707   4.481  1.00  0.00     0.131 C 
BRANCH  77  78
ATOM     78  C   UNL     1       2.850   1.390   3.998  1.00  0.00     0.048 C 
BRANCH  78  79
ATOM     79  C   UNL     1       4.377   1.314   3.844  1.00  0.00     0.161 C 
BRANCH  79  80
ATOM     80  O   UNL     1       5.128   1.685   4.985  1.00  0.00    -0.379 OA
BRANCH  80  81
ATOM     81  C   UNL     1       5.590   3.031   5.043  1.00  0.00     0.188 C 
BRANCH  81  82
ATOM     82  C   UNL     1       6.896   3.300   4.287  1.00  0.00     0.184 C 
BRANCH  82  83
ATOM     83  O   UNL     1       6.836   2.997   2.894  1.00  0.00    -0.394 OA
ATOM     84  H   UNL     1       6.663   2.050   2.776  1.00  0.00     0.210 HD
ENDBRANCH  82  83
ENDBRANCH  81  82
ENDBRANCH  80  81
ENDBRANCH  79  80
ENDBRANCH  78  79
ENDBRANCH  77  78
BRANCH  77  85
ATOM     85  C   UNL     1       2.465   3.124   5.928  1.00  0.00    -0.031 A 
ATOM     86  C   UNL     1       2.427   4.472   6.335  1.00  0.00     0.005 A 
ATOM     87  C   UNL     1       2.731   2.166   6.921  1.00  0.00     0.043 A 
ATOM     88  C   UNL     1       2.741   4.849   7.647  1.00  0.00     0.003 A 
ATOM     89  C   UNL     1       3.037   2.548   8.225  1.00  0.00     0.123 A 
ATOM     90  C   UNL     1       3.068   3.883   8.593  1.00  0.00     0.039 A 
ATOM     91  F   UNL     1       3.296   1.599   9.131  1.00  0.00    -0.207 F 
ENDBRANCH  77  85
ENDBRANCH  75  77
ENDBRANCH  74  75
ENDBRANCH  73  74
ENDBRANCH  72  73
ENDBRANCH   1  72
TORSDOF 27
