REMARK SMILES O=C(CCC1CC[NH+]([C@H]2CCO[C@]3(CCSC3)C2)CC1)OCCOCCOCCOC(=O)c1ccc(-c2c3nc(c(-c4ccc(S(=O)(=O)[O-])cc4)c4ccc([nH]4)c(-c4ccc(S(=O)(=O)[O-])cc4)c4nc(c(-c5ccc(S(=O)(=O)[O-])cc5)c5ccc2[nH]5)C=C4)C=C3)cc1
REMARK SMILES IDX 25 1 24 2 23 3 22 4 21 5 2 6 1 7 3 8 4 9 5 10 6 11 20 12
REMARK SMILES IDX 7 13 19 14 8 15 9 17 10 18 18 19 11 20 13 21 12 22 14 23
REMARK SMILES IDX 17 24 15 25 16 26 26 27 27 28 28 29 29 30 30 31 31 32 32 33
REMARK SMILES IDX 33 34 34 35 92 36 35 37 91 38 36 39 37 40 38 41 85 42 39 43
REMARK SMILES IDX 90 44 84 45 86 46 40 47 89 48 83 49 82 50 41 52 71 53 52 54
REMARK SMILES IDX 70 55 53 56 56 57 69 58 87 59 54 60 55 61 68 63 88 64 57 65
REMARK SMILES IDX 42 66 43 67 51 68 44 69 50 70 45 71 46 72 47 73 48 74 49 75
REMARK SMILES IDX 72 76 73 77 81 78 74 79 80 80 75 81 76 82 77 83 78 84 79 85
REMARK SMILES IDX 58 86 59 87 67 88 60 89 66 90 61 91 62 92 63 93 64 94 65 95
REMARK H PARENT 8 16 86 51 56 62
REMARK Flexibility Score: inf
ROOT
ATOM      1  C   UNL     1       3.514   2.525 -10.783  1.00  0.00     0.188 C 
ENDROOT
BRANCH   1   2
ATOM      2  O   UNL     1       4.186   1.425 -10.229  1.00  0.00    -0.376 OA
BRANCH   2   3
ATOM      3  C   UNL     1       4.176   1.244  -8.832  1.00  0.00     0.202 C 
BRANCH   3   4
ATOM      4  C   UNL     1       2.997   1.758  -8.005  1.00  0.00     0.261 C 
BRANCH   4   5
ATOM      5  O   UNL     1       2.654   3.175  -7.819  1.00  0.00    -0.463 OA
BRANCH   5   6
ATOM      6  C   UNL     1       3.117   4.433  -7.791  1.00  0.00     0.305 C 
ATOM      7  O   UNL     1       2.376   5.313  -7.349  1.00  0.00    -0.252 OA
BRANCH   6   8
ATOM      8  C   UNL     1       4.482   4.816  -8.317  1.00  0.00     0.123 C 
BRANCH   8   9
ATOM      9  C   UNL     1       5.578   4.893  -7.255  1.00  0.00     0.016 C 
BRANCH   9  10
ATOM     10  C   UNL     1       5.804   3.502  -6.660  1.00  0.00     0.001 C 
ATOM     11  C   UNL     1       5.241   3.365  -5.247  1.00  0.00     0.065 C 
ATOM     12  C   UNL     1       7.189   2.903  -6.940  1.00  0.00     0.065 C 
ATOM     13  C   UNL     1       6.297   3.224  -4.167  1.00  0.00     0.262 C 
ATOM     14  C   UNL     1       8.089   2.855  -5.723  1.00  0.00     0.262 C 
ATOM     15  N   UNL     1       7.415   2.356  -4.527  1.00  0.00    -0.332 N 
ATOM     16  H   UNL     1       8.133   2.430  -3.806  1.00  0.00     0.348 HD
BRANCH  15  17
ATOM     17  C   UNL     1       7.210   0.909  -4.340  1.00  0.00     0.189 C 
ATOM     18  C   UNL     1       6.078   0.208  -5.112  1.00  0.00     0.093 C 
ATOM     19  C   UNL     1       8.511   0.104  -4.538  1.00  0.00     0.101 C 
ATOM     20  C   UNL     1       5.996  -1.266  -4.740  1.00  0.00     0.167 C 
ATOM     21  C   UNL     1       8.333  -1.389  -4.190  1.00  0.00     0.084 C 
ATOM     22  O   UNL     1       7.235  -1.927  -4.947  1.00  0.00    -0.374 OA
ATOM     23  C   UNL     1       8.141  -1.678  -2.690  1.00  0.00     0.047 C 
ATOM     24  C   UNL     1       9.578  -2.203  -4.584  1.00  0.00     0.105 C 
ATOM     25  C   UNL     1       9.482  -1.572  -1.985  1.00  0.00     0.072 C 
ATOM     26  S   UNL     1      10.714  -2.157  -3.171  1.00  0.00    -0.159 SA
ENDBRANCH  15  17
ENDBRANCH   9  10
ENDBRANCH   8   9
ENDBRANCH   6   8
ENDBRANCH   5   6
ENDBRANCH   4   5
ENDBRANCH   3   4
ENDBRANCH   2   3
ENDBRANCH   1   2
BRANCH   1  27
ATOM     27  C   UNL     1       2.213   2.188 -11.511  1.00  0.00     0.188 C 
BRANCH  27  28
ATOM     28  O   UNL     1       1.803   0.839 -11.666  1.00  0.00    -0.376 OA
BRANCH  28  29
ATOM     29  C   UNL     1       2.757  -0.175 -11.953  1.00  0.00     0.202 C 
BRANCH  29  30
ATOM     30  C   UNL     1       3.655  -0.045 -13.191  1.00  0.00     0.261 C 
BRANCH  30  31
ATOM     31  O   UNL     1       4.529   1.097 -13.214  1.00  0.00    -0.460 OA
BRANCH  31  32
ATOM     32  C   UNL     1       4.192   2.071 -14.091  1.00  0.00     0.338 C 
ATOM     33  O   UNL     1       3.188   2.113 -14.794  1.00  0.00    -0.246 OA
BRANCH  32  34
ATOM     34  C   UNL     1       5.151   3.189 -14.022  1.00  0.00     0.060 A 
ATOM     35  C   UNL     1       4.672   4.475 -13.724  1.00  0.00     0.016 A 
ATOM     36  C   UNL     1       6.490   2.995 -14.361  1.00  0.00     0.016 A 
ATOM     37  C   UNL     1       5.524   5.579 -13.803  1.00  0.00     0.010 A 
ATOM     38  C   UNL     1       7.334   4.104 -14.464  1.00  0.00     0.010 A 
ATOM     39  C   UNL     1       6.847   5.403 -14.224  1.00  0.00    -0.014 A 
BRANCH  39  40
ATOM     40  C   UNL     1       7.679   6.564 -14.625  1.00  0.00     0.031 A 
ATOM     41  C   UNL     1       7.769   6.905 -16.088  1.00  0.00     0.074 A 
ATOM     42  C   UNL     1       8.391   7.267 -13.728  1.00  0.00     0.049 A 
ATOM     43  N   UNL     1       8.563   7.745 -16.698  1.00  0.00    -0.248 NA
ATOM     44  C   UNL     1       6.844   6.187 -16.980  1.00  0.00     0.031 C 
ATOM     45  C   UNL     1       8.354   7.076 -12.280  1.00  0.00     0.029 A 
ATOM     46  N   UNL     1       9.316   8.264 -13.917  1.00  0.00    -0.354 N 
ATOM     47  C   UNL     1       8.259   7.633 -18.050  1.00  0.00     0.074 A 
ATOM     48  C   UNL     1       7.214   6.638 -18.168  1.00  0.00     0.031 C 
ATOM     49  C   UNL     1       9.249   7.903 -11.713  1.00  0.00     0.029 A 
ATOM     50  C   UNL     1       9.951   8.646 -12.760  1.00  0.00     0.049 A 
ATOM     51  H   UNL     1       9.505   8.667 -14.795  1.00  0.00     0.167 HD
ATOM     52  C   UNL     1       8.808   8.288 -19.101  1.00  0.00     0.031 A 
ATOM     53  C   UNL     1      11.008   9.462 -12.569  1.00  0.00     0.031 A 
ATOM     54  C   UNL     1       9.864   9.258 -18.982  1.00  0.00     0.049 A 
ATOM     55  C   UNL     1      11.655  10.135 -13.752  1.00  0.00     0.074 A 
ATOM     56  C   UNL     1      10.475   9.991 -19.983  1.00  0.00     0.029 A 
ATOM     57  N   UNL     1      10.476   9.618 -17.791  1.00  0.00    -0.354 N 
ATOM     58  N   UNL     1      11.350  10.035 -15.024  1.00  0.00    -0.248 NA
ATOM     59  C   UNL     1      12.784  11.034 -13.473  1.00  0.00     0.031 C 
ATOM     60  C   UNL     1      11.498  10.749 -19.404  1.00  0.00     0.029 A 
ATOM     61  C   UNL     1      11.478  10.541 -18.034  1.00  0.00     0.049 A 
ATOM     62  H   UNL     1      10.234   9.268 -16.903  1.00  0.00     0.167 HD
ATOM     63  C   UNL     1      12.230  10.880 -15.695  1.00  0.00     0.074 A 
ATOM     64  C   UNL     1      13.078  11.484 -14.687  1.00  0.00     0.031 C 
ATOM     65  C   UNL     1      12.317  11.139 -17.023  1.00  0.00     0.031 A 
BRANCH  52  66
ATOM     66  C   UNL     1       8.316   7.916 -20.475  1.00  0.00    -0.014 A 
ATOM     67  C   UNL     1       7.016   8.239 -20.905  1.00  0.00     0.010 A 
ATOM     68  C   UNL     1       9.169   7.211 -21.345  1.00  0.00     0.010 A 
ATOM     69  C   UNL     1       6.557   7.806 -22.152  1.00  0.00     0.020 A 
ATOM     70  C   UNL     1       8.724   6.804 -22.605  1.00  0.00     0.020 A 
ATOM     71  C   UNL     1       7.410   7.080 -22.988  1.00  0.00     0.054 A 
BRANCH  71  72
ATOM     72  S   UNL     1       6.781   6.501 -24.588  1.00  0.00     0.124 S 
ATOM     73  O   UNL     1       5.912   5.397 -24.186  1.00  0.00    -0.237 OA
ATOM     74  O   UNL     1       6.096   7.681 -25.110  1.00  0.00    -0.237 OA
ATOM     75  O   UNL     1       7.987   6.111 -25.315  1.00  0.00    -0.744 OA
ENDBRANCH  71  72
ENDBRANCH  52  66
BRANCH  53  76
ATOM     76  C   UNL     1      11.536   9.653 -11.191  1.00  0.00    -0.014 A 
ATOM     77  C   UNL     1      11.321  10.857 -10.501  1.00  0.00     0.010 A 
ATOM     78  C   UNL     1      12.206   8.599 -10.540  1.00  0.00     0.010 A 
ATOM     79  C   UNL     1      11.751  10.999  -9.178  1.00  0.00     0.020 A 
ATOM     80  C   UNL     1      12.615   8.729  -9.210  1.00  0.00     0.020 A 
ATOM     81  C   UNL     1      12.382   9.930  -8.537  1.00  0.00     0.054 A 
BRANCH  81  82
ATOM     82  S   UNL     1      12.823  10.098  -6.784  1.00  0.00     0.124 S 
ATOM     83  O   UNL     1      13.964  11.005  -6.842  1.00  0.00    -0.237 OA
ATOM     84  O   UNL     1      11.601  10.651  -6.206  1.00  0.00    -0.237 OA
ATOM     85  O   UNL     1      13.129   8.728  -6.377  1.00  0.00    -0.744 OA
ENDBRANCH  81  82
ENDBRANCH  53  76
BRANCH  65  86
ATOM     86  C   UNL     1      13.332  12.155 -17.482  1.00  0.00    -0.014 A 
ATOM     87  C   UNL     1      14.705  11.858 -17.520  1.00  0.00     0.010 A 
ATOM     88  C   UNL     1      12.885  13.395 -17.977  1.00  0.00     0.010 A 
ATOM     89  C   UNL     1      15.614  12.789 -18.035  1.00  0.00     0.020 A 
ATOM     90  C   UNL     1      13.787  14.317 -18.515  1.00  0.00     0.020 A 
ATOM     91  C   UNL     1      15.149  14.010 -18.534  1.00  0.00     0.054 A 
BRANCH  91  92
ATOM     92  S   UNL     1      16.339  15.169 -19.265  1.00  0.00     0.124 S 
ATOM     93  O   UNL     1      17.030  15.680 -18.085  1.00  0.00    -0.237 OA
ATOM     94  O   UNL     1      17.134  14.306 -20.135  1.00  0.00    -0.237 OA
ATOM     95  O   UNL     1      15.496  16.138 -19.962  1.00  0.00    -0.744 OA
ENDBRANCH  91  92
ENDBRANCH  65  86
ENDBRANCH  39  40
ENDBRANCH  32  34
ENDBRANCH  31  32
ENDBRANCH  30  31
ENDBRANCH  29  30
ENDBRANCH  28  29
ENDBRANCH  27  28
ENDBRANCH   1  27
TORSDOF 23
