REMARK SMILES CCc1ccc(N2C(=O)/C(=C/c3cc(Cl)c(OCC(=O)OCCOCCOCCOC(=O)c4ccc(-c5c6nc(c(-c7ccc(S(=O)(=O)[O-])cc7)c7ccc([nH]7)c(-c7ccc(S(=O)(=O)[O-])cc7)c7nc(c(-c8ccc(S(=O)(=O)[O-])cc8)c8ccc5[nH]8)C=C7)C=C6)cc4)c(Cl)c3)C(=O)NC2=S)cc1
REMARK SMILES IDX 25 1 24 2 23 3 22 4 21 5 19 6 20 7 18 8 17 9 16 10 12 11
REMARK SMILES IDX 13 12 95 13 14 14 93 15 15 16 94 17 11 18 7 19 8 20 99 21
REMARK SMILES IDX 9 22 10 23 98 24 100 25 96 26 97 28 6 29 3 30 4 31 102 32
REMARK SMILES IDX 5 33 101 34 2 35 1 36 26 37 27 38 28 39 29 40 30 41 31 42
REMARK SMILES IDX 32 43 33 44 34 45 92 46 35 47 91 48 36 49 37 50 38 51 85 52
REMARK SMILES IDX 39 53 90 54 84 55 86 56 40 57 89 58 83 59 82 60 41 62 71 63
REMARK SMILES IDX 52 64 70 65 53 66 56 67 69 68 87 69 54 70 55 71 68 73 88 74
REMARK SMILES IDX 57 75 42 76 43 77 51 78 44 79 50 80 45 81 46 82 47 83 48 84
REMARK SMILES IDX 49 85 72 86 73 87 81 88 74 89 80 90 75 91 76 92 77 93 78 94
REMARK SMILES IDX 79 95 58 96 59 97 67 98 60 99 66 100 61 101 62 102 63 103
REMARK SMILES IDX 64 104 65 105
REMARK H PARENT 98 27 86 61 56 72
REMARK Flexibility Score: inf
ROOT
ATOM      1  C   UNL     1       5.933  -5.044  11.792  1.00  0.00     0.188 C 
ENDROOT
BRANCH   1   2
ATOM      2  O   UNL     1       5.694  -4.933  13.193  1.00  0.00    -0.376 OA
BRANCH   2   3
ATOM      3  C   UNL     1       5.917  -3.657  13.784  1.00  0.00     0.202 C 
BRANCH   3   4
ATOM      4  C   UNL     1       7.387  -3.222  13.821  1.00  0.00     0.261 C 
BRANCH   4   5
ATOM      5  O   UNL     1       7.902  -2.932  12.497  1.00  0.00    -0.461 OA
BRANCH   5   6
ATOM      6  C   UNL     1       9.023  -3.596  12.115  1.00  0.00     0.344 C 
ATOM      7  O   UNL     1       9.700  -4.285  12.871  1.00  0.00    -0.248 OA
BRANCH   6   8
ATOM      8  C   UNL     1       9.354  -3.476  10.608  1.00  0.00     0.352 C 
BRANCH   8   9
ATOM      9  O   UNL     1       8.545  -2.702   9.737  1.00  0.00    -0.479 OA
BRANCH   9  10
ATOM     10  C   UNL     1       7.984  -3.125   8.553  1.00  0.00     0.157 A 
ATOM     11  C   UNL     1       6.314  -3.777   6.279  1.00  0.00    -0.021 A 
ATOM     12  C   UNL     1       6.216  -2.540   6.917  1.00  0.00     0.032 A 
ATOM     13  C   UNL     1       7.339  -4.625   6.701  1.00  0.00     0.032 A 
ATOM     14  C   UNL     1       7.034  -2.224   8.022  1.00  0.00     0.085 A 
ATOM     15  C   UNL     1       8.182  -4.297   7.805  1.00  0.00     0.085 A 
ATOM     16  Cl  UNL     1       6.833  -0.637   8.702  1.00  0.00    -0.080 Cl
ATOM     17  Cl  UNL     1       9.492  -5.402   8.051  1.00  0.00    -0.080 Cl
BRANCH  11  18
ATOM     18  C   UNL     1       5.460  -4.048   5.101  1.00  0.00     0.028 C 
ATOM     19  N   UNL     1       2.202  -3.589   3.970  1.00  0.00    -0.253 N 
ATOM     20  C   UNL     1       3.471  -4.184   3.741  1.00  0.00     0.270 C 
ATOM     21  C   UNL     1       1.592  -3.465   5.239  1.00  0.00     0.187 C 
ATOM     22  O   UNL     1       4.027  -4.348   2.661  1.00  0.00    -0.268 OA
ATOM     23  C   UNL     1       4.181  -4.475   5.007  1.00  0.00     0.106 C 
ATOM     24  N   UNL     1       2.233  -4.100   6.268  1.00  0.00    -0.298 N 
ATOM     25  S   UNL     1       0.114  -2.767   5.645  1.00  0.00    -0.040 S 
ATOM     26  C   UNL     1       3.256  -4.968   6.029  1.00  0.00     0.263 C 
ATOM     27  H   UNL     1       1.951  -3.927   7.195  1.00  0.00     0.172 HD
ATOM     28  O   UNL     1       3.178  -6.138   6.350  1.00  0.00    -0.269 OA
BRANCH  19  29
ATOM     29  C   UNL     1       1.594  -3.010   2.825  1.00  0.00     0.052 A 
ATOM     30  C   UNL     1       0.677  -1.779   0.486  1.00  0.00    -0.048 A 
ATOM     31  C   UNL     1       0.826  -3.174   0.544  1.00  0.00     0.006 A 
ATOM     32  C   UNL     1       0.930  -1.021   1.635  1.00  0.00     0.006 A 
ATOM     33  C   UNL     1       1.296  -3.788   1.704  1.00  0.00     0.027 A 
ATOM     34  C   UNL     1       1.399  -1.629   2.791  1.00  0.00     0.027 A 
BRANCH  30  35
ATOM     35  C   UNL     1       0.254  -1.137  -0.811  1.00  0.00     0.032 C 
ATOM     36  C   UNL     1       0.783   0.280  -1.010  1.00  0.00     0.009 C 
ENDBRANCH  30  35
ENDBRANCH  19  29
ENDBRANCH  11  18
ENDBRANCH   9  10
ENDBRANCH   8   9
ENDBRANCH   6   8
ENDBRANCH   5   6
ENDBRANCH   4   5
ENDBRANCH   3   4
ENDBRANCH   2   3
ENDBRANCH   1   2
BRANCH   1  37
ATOM     37  C   UNL     1       5.542  -3.830  10.944  1.00  0.00     0.188 C 
BRANCH  37  38
ATOM     38  O   UNL     1       4.224  -3.390  11.248  1.00  0.00    -0.376 OA
BRANCH  38  39
ATOM     39  C   UNL     1       3.331  -3.392  10.149  1.00  0.00     0.202 C 
BRANCH  39  40
ATOM     40  C   UNL     1       2.542  -4.713  10.083  1.00  0.00     0.261 C 
BRANCH  40  41
ATOM     41  O   UNL     1       3.252  -5.954   9.849  1.00  0.00    -0.460 OA
BRANCH  41  42
ATOM     42  C   UNL     1       4.190  -5.938   8.890  1.00  0.00     0.338 C 
ATOM     43  O   UNL     1       4.567  -4.936   8.293  1.00  0.00    -0.246 OA
BRANCH  42  44
ATOM     44  C   UNL     1       4.813  -7.230   8.583  1.00  0.00     0.060 A 
ATOM     45  C   UNL     1       6.207  -7.240   8.530  1.00  0.00     0.016 A 
ATOM     46  C   UNL     1       4.079  -8.282   8.032  1.00  0.00     0.016 A 
ATOM     47  C   UNL     1       6.870  -8.247   7.842  1.00  0.00     0.010 A 
ATOM     48  C   UNL     1       4.750  -9.322   7.378  1.00  0.00     0.010 A 
ATOM     49  C   UNL     1       6.149  -9.301   7.262  1.00  0.00    -0.014 A 
BRANCH  49  50
ATOM     50  C   UNL     1       6.890 -10.424   6.640  1.00  0.00     0.031 A 
ATOM     51  C   UNL     1       6.865 -10.680   5.160  1.00  0.00     0.074 A 
ATOM     52  C   UNL     1       7.628 -11.205   7.451  1.00  0.00     0.049 A 
ATOM     53  N   UNL     1       7.405 -11.669   4.492  1.00  0.00    -0.248 NA
ATOM     54  C   UNL     1       6.157  -9.702   4.320  1.00  0.00     0.031 C 
ATOM     55  C   UNL     1       7.775 -11.010   8.897  1.00  0.00     0.029 A 
ATOM     56  N   UNL     1       8.403 -12.301   7.182  1.00  0.00    -0.354 N 
ATOM     57  C   UNL     1       7.081 -11.455   3.158  1.00  0.00     0.074 A 
ATOM     58  C   UNL     1       6.303 -10.232   3.110  1.00  0.00     0.031 C 
ATOM     59  C   UNL     1       8.622 -11.928   9.379  1.00  0.00     0.029 A 
ATOM     60  C   UNL     1       9.002 -12.829   8.299  1.00  0.00     0.049 A 
ATOM     61  H   UNL     1       8.518 -12.674   6.278  1.00  0.00     0.167 HD
ATOM     62  C   UNL     1       7.391 -12.219   2.080  1.00  0.00     0.031 A 
ATOM     63  C   UNL     1       9.741 -13.942   8.455  1.00  0.00     0.031 A 
ATOM     64  C   UNL     1       8.153 -13.444   2.147  1.00  0.00     0.049 A 
ATOM     65  C   UNL     1      10.002 -14.810   7.263  1.00  0.00     0.074 A 
ATOM     66  C   UNL     1       8.500 -14.303   1.117  1.00  0.00     0.029 A 
ATOM     67  N   UNL     1       8.683 -13.987   3.310  1.00  0.00    -0.354 N 
ATOM     68  N   UNL     1       9.640 -14.622   6.017  1.00  0.00    -0.248 NA
ATOM     69  C   UNL     1      10.754 -16.046   7.502  1.00  0.00     0.031 C 
ATOM     70  C   UNL     1       9.197 -15.388   1.664  1.00  0.00     0.029 A 
ATOM     71  C   UNL     1       9.332 -15.180   3.027  1.00  0.00     0.049 A 
ATOM     72  H   UNL     1       8.609 -13.584   4.205  1.00  0.00     0.167 HD
ATOM     73  C   UNL     1      10.127 -15.718   5.316  1.00  0.00     0.074 A 
ATOM     74  C   UNL     1      10.825 -16.550   6.277  1.00  0.00     0.031 C 
ATOM     75  C   UNL     1      10.003 -16.008   3.998  1.00  0.00     0.031 A 
BRANCH  62  76
ATOM     76  C   UNL     1       6.846 -11.792   0.741  1.00  0.00    -0.014 A 
ATOM     77  C   UNL     1       7.378 -10.695   0.041  1.00  0.00     0.010 A 
ATOM     78  C   UNL     1       5.796 -12.527   0.157  1.00  0.00     0.010 A 
ATOM     79  C   UNL     1       6.841 -10.314  -1.195  1.00  0.00     0.020 A 
ATOM     80  C   UNL     1       5.271 -12.164  -1.087  1.00  0.00     0.020 A 
ATOM     81  C   UNL     1       5.783 -11.045  -1.746  1.00  0.00     0.054 A 
BRANCH  81  82
ATOM     82  S   UNL     1       5.094 -10.528  -3.344  1.00  0.00     0.124 S 
ATOM     83  O   UNL     1       4.306  -9.357  -2.967  1.00  0.00    -0.237 OA
ATOM     84  O   UNL     1       6.288 -10.252  -4.138  1.00  0.00    -0.237 OA
ATOM     85  O   UNL     1       4.317 -11.687  -3.777  1.00  0.00    -0.744 OA
ENDBRANCH  81  82
ENDBRANCH  62  76
BRANCH  63  86
ATOM     86  C   UNL     1      10.232 -14.301   9.810  1.00  0.00    -0.014 A 
ATOM     87  C   UNL     1      11.593 -14.182  10.131  1.00  0.00     0.010 A 
ATOM     88  C   UNL     1       9.319 -14.691  10.809  1.00  0.00     0.010 A 
ATOM     89  C   UNL     1      12.034 -14.440  11.432  1.00  0.00     0.020 A 
ATOM     90  C   UNL     1       9.751 -14.920  12.116  1.00  0.00     0.020 A 
ATOM     91  C   UNL     1      11.108 -14.800  12.418  1.00  0.00     0.054 A 
BRANCH  91  92
ATOM     92  S   UNL     1      11.687 -15.040  14.120  1.00  0.00     0.124 S 
ATOM     93  O   UNL     1      12.300 -16.362  14.046  1.00  0.00    -0.237 OA
ATOM     94  O   UNL     1      12.609 -13.922  14.304  1.00  0.00    -0.237 OA
ATOM     95  O   UNL     1      10.460 -14.960  14.910  1.00  0.00    -0.744 OA
ENDBRANCH  91  92
ENDBRANCH  63  86
BRANCH  75  96
ATOM     96  C   UNL     1      10.659 -17.276   3.523  1.00  0.00    -0.014 A 
ATOM     97  C   UNL     1      10.109 -18.535   3.825  1.00  0.00     0.010 A 
ATOM     98  C   UNL     1      11.839 -17.205   2.763  1.00  0.00     0.010 A 
ATOM     99  C   UNL     1      10.753 -19.703   3.409  1.00  0.00     0.020 A 
ATOM    100  C   UNL     1      12.472 -18.371   2.325  1.00  0.00     0.020 A 
ATOM    101  C   UNL     1      11.935 -19.614   2.667  1.00  0.00     0.054 A 
BRANCH 101 102
ATOM    102  S   UNL     1      12.746 -21.142   2.122  1.00  0.00     0.124 S 
ATOM    103  O   UNL     1      13.395 -21.594   3.349  1.00  0.00    -0.237 OA
ATOM    104  O   UNL     1      11.624 -21.959   1.667  1.00  0.00    -0.237 OA
ATOM    105  O   UNL     1      13.651 -20.694   1.066  1.00  0.00    -0.744 OA
ENDBRANCH 101 102
ENDBRANCH  75  96
ENDBRANCH  49  50
ENDBRANCH  42  44
ENDBRANCH  41  42
ENDBRANCH  40  41
ENDBRANCH  39  40
ENDBRANCH  38  39
ENDBRANCH  37  38
ENDBRANCH   1  37
TORSDOF 25
