REMARK SMILES O=C(/C=C/c1ccc(O)c(O)c1)OCCOCCOCCOC(=O)c1ccc(-c2c3nc(c(-c4ccc(S(=O)(=O)[O-])cc4)c4ccc([nH]4)c(-c4ccc(S(=O)(=O)[O-])cc4)c4nc(c(-c5ccc(S(=O)(=O)[O-])cc5)c5ccc2[nH]5)C=C4)C=C3)cc1
REMARK SMILES IDX 18 1 17 2 16 3 15 4 14 5 13 6 2 7 1 8 3 9 4 10 5 11 6 12
REMARK SMILES IDX 12 13 7 14 10 15 8 16 11 17 9 19 19 21 20 22 21 23 22 24
REMARK SMILES IDX 23 25 24 26 25 27 26 28 84 29 27 30 83 31 28 32 29 33 30 34
REMARK SMILES IDX 77 35 31 36 82 37 76 38 78 39 32 40 81 41 75 42 74 43 33 45
REMARK SMILES IDX 63 46 44 47 62 48 45 49 48 50 61 51 79 52 46 53 47 54 60 56
REMARK SMILES IDX 80 57 49 58 34 59 35 60 43 61 36 62 42 63 37 64 38 65 39 66
REMARK SMILES IDX 40 67 41 68 64 69 65 70 73 71 66 72 72 73 67 74 68 75 69 76
REMARK SMILES IDX 70 77 71 78 50 79 51 80 59 81 52 82 58 83 53 84 54 85 55 86
REMARK SMILES IDX 56 87 57 88
REMARK H PARENT 11 18 9 20 78 44 48 55
REMARK Flexibility Score: inf
ROOT
ATOM      1  C   UNL     1       2.280   2.735   1.125  1.00  0.00     0.188 C 
ENDROOT
BRANCH   1   2
ATOM      2  C   UNL     1       3.057   1.415   0.979  1.00  0.00     0.188 C 
BRANCH   2   3
ATOM      3  O   UNL     1       4.395   1.667   0.614  1.00  0.00    -0.376 OA
BRANCH   3   4
ATOM      4  C   UNL     1       5.111   0.699  -0.115  1.00  0.00     0.202 C 
BRANCH   4   5
ATOM      5  C   UNL     1       4.539   0.361  -1.485  1.00  0.00     0.261 C 
BRANCH   5   6
ATOM      6  O   UNL     1       3.373  -0.494  -1.612  1.00  0.00    -0.460 OA
BRANCH   6   7
ATOM      7  C   UNL     1       2.933  -1.588  -0.964  1.00  0.00     0.330 C 
ATOM      8  O   UNL     1       1.932  -2.180  -1.355  1.00  0.00    -0.247 OA
BRANCH   7   9
ATOM      9  C   UNL     1       3.542  -2.001   0.300  1.00  0.00     0.094 C 
ATOM     10  C   UNL     1       4.791  -2.473   0.417  1.00  0.00     0.016 C 
BRANCH  10  11
ATOM     11  C   UNL     1       5.306  -2.880   1.730  1.00  0.00    -0.021 A 
ATOM     12  C   UNL     1       4.863  -4.071   2.323  1.00  0.00     0.012 A 
ATOM     13  C   UNL     1       6.226  -2.073   2.414  1.00  0.00     0.058 A 
ATOM     14  C   UNL     1       5.342  -4.465   3.577  1.00  0.00     0.051 A 
ATOM     15  C   UNL     1       6.689  -2.467   3.661  1.00  0.00     0.157 A 
ATOM     16  C   UNL     1       6.258  -3.658   4.239  1.00  0.00     0.157 A 
BRANCH  15  17
ATOM     17  O   UNL     1       7.578  -1.670   4.325  1.00  0.00    -0.504 OA
ATOM     18  H   UNL     1       7.898  -1.925   5.168  1.00  0.00     0.293 HD
ENDBRANCH  15  17
BRANCH  16  19
ATOM     19  O   UNL     1       6.771  -3.991   5.461  1.00  0.00    -0.504 OA
ATOM     20  H   UNL     1       6.503  -4.786   5.880  1.00  0.00     0.293 HD
ENDBRANCH  16  19
ENDBRANCH  10  11
ENDBRANCH   7   9
ENDBRANCH   6   7
ENDBRANCH   5   6
ENDBRANCH   4   5
ENDBRANCH   3   4
ENDBRANCH   2   3
ENDBRANCH   1   2
BRANCH   1  21
ATOM     21  O   UNL     1       2.920   3.951   0.745  1.00  0.00    -0.376 OA
BRANCH  21  22
ATOM     22  C   UNL     1       4.190   4.277   1.310  1.00  0.00     0.202 C 
BRANCH  22  23
ATOM     23  C   UNL     1       4.324   4.345   2.836  1.00  0.00     0.261 C 
BRANCH  23  24
ATOM     24  O   UNL     1       3.973   3.137   3.535  1.00  0.00    -0.460 OA
BRANCH  24  25
ATOM     25  C   UNL     1       2.901   3.269   4.356  1.00  0.00     0.338 C 
ATOM     26  O   UNL     1       2.212   4.265   4.504  1.00  0.00    -0.246 OA
BRANCH  25  27
ATOM     27  C   UNL     1       2.550   1.997   5.012  1.00  0.00     0.060 A 
ATOM     28  C   UNL     1       1.235   1.539   4.858  1.00  0.00     0.016 A 
ATOM     29  C   UNL     1       3.407   1.395   5.937  1.00  0.00     0.016 A 
ATOM     30  C   UNL     1       0.745   0.535   5.690  1.00  0.00     0.010 A 
ATOM     31  C   UNL     1       2.909   0.391   6.779  1.00  0.00     0.010 A 
ATOM     32  C   UNL     1       1.560   0.002   6.699  1.00  0.00    -0.014 A 
BRANCH  32  33
ATOM     33  C   UNL     1       0.919  -0.784   7.784  1.00  0.00     0.031 A 
ATOM     34  C   UNL     1       0.492  -0.071   9.043  1.00  0.00     0.074 A 
ATOM     35  C   UNL     1       0.640  -2.090   7.628  1.00  0.00     0.049 A 
ATOM     36  N   UNL     1      -0.168  -0.534  10.074  1.00  0.00    -0.248 NA
ATOM     37  C   UNL     1       0.854   1.352   9.150  1.00  0.00     0.031 C 
ATOM     38  C   UNL     1       0.962  -2.891   6.448  1.00  0.00     0.029 A 
ATOM     39  N   UNL     1       0.003  -2.968   8.469  1.00  0.00    -0.354 N 
ATOM     40  C   UNL     1      -0.303   0.539  10.949  1.00  0.00     0.074 A 
ATOM     41  C   UNL     1       0.370   1.667  10.342  1.00  0.00     0.031 C 
ATOM     42  C   UNL     1       0.512  -4.144   6.638  1.00  0.00     0.029 A 
ATOM     43  C   UNL     1      -0.118  -4.236   7.955  1.00  0.00     0.049 A 
ATOM     44  H   UNL     1      -0.336  -2.713   9.357  1.00  0.00     0.167 HD
ATOM     45  C   UNL     1      -0.936   0.589  12.146  1.00  0.00     0.031 A 
ATOM     46  C   UNL     1      -0.675  -5.343   8.483  1.00  0.00     0.031 A 
ATOM     47  C   UNL     1      -1.599  -0.528  12.763  1.00  0.00     0.049 A 
ATOM     48  C   UNL     1      -1.335  -5.276   9.836  1.00  0.00     0.074 A 
ATOM     49  C   UNL     1      -2.278  -0.569  13.969  1.00  0.00     0.029 A 
ATOM     50  N   UNL     1      -1.663  -1.803  12.224  1.00  0.00    -0.354 N 
ATOM     51  N   UNL     1      -1.478  -4.246  10.634  1.00  0.00    -0.248 NA
ATOM     52  C   UNL     1      -1.922  -6.523  10.349  1.00  0.00     0.031 C 
ATOM     53  C   UNL     1      -2.718  -1.881  14.178  1.00  0.00     0.029 A 
ATOM     54  C   UNL     1      -2.353  -2.644  13.081  1.00  0.00     0.049 A 
ATOM     55  H   UNL     1      -1.276  -2.071  11.360  1.00  0.00     0.167 HD
ATOM     56  C   UNL     1      -2.200  -4.713  11.728  1.00  0.00     0.074 A 
ATOM     57  C   UNL     1      -2.467  -6.116  11.488  1.00  0.00     0.031 C 
ATOM     58  C   UNL     1      -2.612  -4.038  12.830  1.00  0.00     0.031 A 
BRANCH  45  59
ATOM     59  C   UNL     1      -0.911   1.901  12.882  1.00  0.00    -0.014 A 
ATOM     60  C   UNL     1      -1.706   2.984  12.466  1.00  0.00     0.010 A 
ATOM     61  C   UNL     1      -0.092   2.047  14.016  1.00  0.00     0.010 A 
ATOM     62  C   UNL     1      -1.651   4.203  13.146  1.00  0.00     0.020 A 
ATOM     63  C   UNL     1      -0.050   3.258  14.711  1.00  0.00     0.020 A 
ATOM     64  C   UNL     1      -0.815   4.335  14.260  1.00  0.00     0.054 A 
BRANCH  64  65
ATOM     65  S   UNL     1      -0.762   5.925  15.131  1.00  0.00     0.124 S 
ATOM     66  O   UNL     1       0.074   6.727  14.241  1.00  0.00    -0.237 OA
ATOM     67  O   UNL     1      -2.169   6.311  15.188  1.00  0.00    -0.237 OA
ATOM     68  O   UNL     1      -0.159   5.593  16.420  1.00  0.00    -0.744 OA
ENDBRANCH  64  65
ENDBRANCH  45  59
BRANCH  46  69
ATOM     69  C   UNL     1      -0.639  -6.622   7.726  1.00  0.00    -0.014 A 
ATOM     70  C   UNL     1      -1.805  -7.141   7.137  1.00  0.00     0.010 A 
ATOM     71  C   UNL     1       0.570  -7.329   7.598  1.00  0.00     0.010 A 
ATOM     72  C   UNL     1      -1.766  -8.355   6.444  1.00  0.00     0.020 A 
ATOM     73  C   UNL     1       0.617  -8.531   6.888  1.00  0.00     0.020 A 
ATOM     74  C   UNL     1      -0.554  -9.042   6.324  1.00  0.00     0.054 A 
BRANCH  74  75
ATOM     75  S   UNL     1      -0.505 -10.586   5.373  1.00  0.00     0.124 S 
ATOM     76  O   UNL     1      -1.048 -11.547   6.327  1.00  0.00    -0.237 OA
ATOM     77  O   UNL     1      -1.354 -10.281   4.224  1.00  0.00    -0.237 OA
ATOM     78  O   UNL     1       0.915 -10.743   5.062  1.00  0.00    -0.744 OA
ENDBRANCH  74  75
ENDBRANCH  46  69
BRANCH  58  79
ATOM     79  C   UNL     1      -3.429  -4.795  13.842  1.00  0.00    -0.014 A 
ATOM     80  C   UNL     1      -2.835  -5.736  14.703  1.00  0.00     0.010 A 
ATOM     81  C   UNL     1      -4.806  -4.532  13.959  1.00  0.00     0.010 A 
ATOM     82  C   UNL     1      -3.613  -6.427  15.637  1.00  0.00     0.020 A 
ATOM     83  C   UNL     1      -5.582  -5.205  14.906  1.00  0.00     0.020 A 
ATOM     84  C   UNL     1      -4.983  -6.162  15.728  1.00  0.00     0.054 A 
BRANCH  84  85
ATOM     85  S   UNL     1      -5.971  -7.050  16.964  1.00  0.00     0.124 S 
ATOM     86  O   UNL     1      -6.173  -8.343  16.317  1.00  0.00    -0.237 OA
ATOM     87  O   UNL     1      -5.095  -7.061  18.133  1.00  0.00    -0.237 OA
ATOM     88  O   UNL     1      -7.170  -6.226  17.102  1.00  0.00    -0.744 OA
ENDBRANCH  84  85
ENDBRANCH  58  79
ENDBRANCH  32  33
ENDBRANCH  25  27
ENDBRANCH  24  25
ENDBRANCH  23  24
ENDBRANCH  22  23
ENDBRANCH  21  22
ENDBRANCH   1  21
TORSDOF 23
