REMARK SMILES O=C(OCCOCCOCCOC(=O)c1ccc2c(c1)[C@@H]1C=CC[C@@H]1[C@H](c1ccncc1)N2)c1ccc(-c2c3nc(c(-c4ccc(S(=O)(=O)[O-])cc4)c4ccc([nH]4)c(-c4ccc(S(=O)(=O)[O-])cc4)c4nc(c(-c5ccc(S(=O)(=O)[O-])cc5)c5ccc2[nH]5)C=C4)C=C3)cc1
REMARK SMILES IDX 7 1 6 2 5 3 4 4 3 5 2 6 1 7 34 8 35 9 93 10 36 11 92 12
REMARK SMILES IDX 37 13 38 14 39 15 86 16 40 17 91 18 85 19 87 20 41 21 90 22
REMARK SMILES IDX 84 23 83 24 42 26 72 27 53 28 71 29 54 30 57 31 70 32 88 33
REMARK SMILES IDX 55 34 56 35 69 37 89 38 58 39 43 40 44 41 52 42 45 43 51 44
REMARK SMILES IDX 46 45 47 46 48 47 49 48 50 49 73 50 74 51 82 52 75 53 81 54
REMARK SMILES IDX 76 55 77 56 78 57 79 58 80 59 59 60 60 61 68 62 61 63 67 64
REMARK SMILES IDX 62 65 63 66 64 67 65 68 66 69 8 70 9 71 10 72 11 73 12 74
REMARK SMILES IDX 13 75 14 76 15 77 16 78 20 79 17 80 19 81 18 82 21 83 33 84
REMARK SMILES IDX 22 85 25 86 26 87 23 89 24 90 27 91 28 92 32 93 29 94 31 95
REMARK SMILES IDX 30 96
REMARK H PARENT 87 25 57 36 33 88
REMARK Flexibility Score: inf
ROOT
ATOM      1  C   UNL     1       2.486  -1.522  -1.387  1.00  0.00     0.188 C 
ENDROOT
BRANCH   1   2
ATOM      2  O   UNL     1       3.733  -0.828  -1.249  1.00  0.00    -0.376 OA
BRANCH   2   3
ATOM      3  C   UNL     1       4.637  -1.457  -0.336  1.00  0.00     0.202 C 
BRANCH   3   4
ATOM      4  C   UNL     1       4.435  -1.055   1.131  1.00  0.00     0.261 C 
BRANCH   4   5
ATOM      5  O   UNL     1       3.065  -0.738   1.426  1.00  0.00    -0.460 OA
BRANCH   5   6
ATOM      6  C   UNL     1       2.462   0.478   1.384  1.00  0.00     0.338 C 
ATOM      7  O   UNL     1       1.262   0.545   1.648  1.00  0.00    -0.246 OA
BRANCH   6   8
ATOM      8  C   UNL     1       3.186   1.757   1.095  1.00  0.00     0.060 A 
ATOM      9  C   UNL     1       4.325   1.876   0.298  1.00  0.00     0.016 A 
ATOM     10  C   UNL     1       2.644   2.935   1.637  1.00  0.00     0.016 A 
ATOM     11  C   UNL     1       4.996   3.090   0.169  1.00  0.00     0.010 A 
ATOM     12  C   UNL     1       3.271   4.175   1.446  1.00  0.00     0.010 A 
ATOM     13  C   UNL     1       4.486   4.250   0.752  1.00  0.00    -0.014 A 
BRANCH  13  14
ATOM     14  C   UNL     1       5.308   5.485   0.748  1.00  0.00     0.031 A 
ATOM     15  C   UNL     1       5.927   5.941   2.041  1.00  0.00     0.074 A 
ATOM     16  C   UNL     1       5.633   6.108  -0.402  1.00  0.00     0.049 A 
ATOM     17  N   UNL     1       6.657   6.998   2.280  1.00  0.00    -0.248 NA
ATOM     18  C   UNL     1       5.734   5.067   3.212  1.00  0.00     0.031 C 
ATOM     19  C   UNL     1       5.260   5.657  -1.743  1.00  0.00     0.029 A 
ATOM     20  N   UNL     1       6.383   7.237  -0.632  1.00  0.00    -0.354 N 
ATOM     21  C   UNL     1       7.030   6.904   3.614  1.00  0.00     0.074 A 
ATOM     22  C   UNL     1       6.405   5.717   4.151  1.00  0.00     0.031 C 
ATOM     23  C   UNL     1       5.798   6.493  -2.646  1.00  0.00     0.029 A 
ATOM     24  C   UNL     1       6.449   7.595  -1.961  1.00  0.00     0.049 A 
ATOM     25  H   UNL     1       6.830   7.743   0.085  1.00  0.00     0.167 HD
ATOM     26  C   UNL     1       7.841   7.723   4.324  1.00  0.00     0.031 A 
ATOM     27  C   UNL     1       6.923   8.715  -2.545  1.00  0.00     0.031 A 
ATOM     28  C   UNL     1       8.438   8.916   3.792  1.00  0.00     0.049 A 
ATOM     29  C   UNL     1       7.560   9.752  -1.675  1.00  0.00     0.074 A 
ATOM     30  C   UNL     1       9.257   9.833   4.426  1.00  0.00     0.029 A 
ATOM     31  N   UNL     1       8.266   9.364   2.491  1.00  0.00    -0.354 N 
ATOM     32  N   UNL     1       7.784   9.715  -0.386  1.00  0.00    -0.248 NA
ATOM     33  C   UNL     1       8.021  10.973  -2.347  1.00  0.00     0.031 C 
ATOM     34  C   UNL     1       9.534  10.866   3.523  1.00  0.00     0.029 A 
ATOM     35  C   UNL     1       8.932  10.563   2.313  1.00  0.00     0.049 A 
ATOM     36  H   UNL     1       7.747   8.897   1.797  1.00  0.00     0.167 HD
ATOM     37  C   UNL     1       8.444  10.897  -0.095  1.00  0.00     0.074 A 
ATOM     38  C   UNL     1       8.552  11.641  -1.335  1.00  0.00     0.031 C 
ATOM     39  C   UNL     1       8.962  11.309   1.086  1.00  0.00     0.031 A 
BRANCH  26  40
ATOM     40  C   UNL     1       8.075   7.366   5.764  1.00  0.00    -0.014 A 
ATOM     41  C   UNL     1       8.902   6.285   6.123  1.00  0.00     0.010 A 
ATOM     42  C   UNL     1       7.435   8.108   6.772  1.00  0.00     0.010 A 
ATOM     43  C   UNL     1       9.043   5.922   7.465  1.00  0.00     0.020 A 
ATOM     44  C   UNL     1       7.591   7.761   8.115  1.00  0.00     0.020 A 
ATOM     45  C   UNL     1       8.376   6.656   8.452  1.00  0.00     0.054 A 
BRANCH  45  46
ATOM     46  S   UNL     1       8.555   6.153  10.185  1.00  0.00     0.124 S 
ATOM     47  O   UNL     1       7.710   4.962  10.239  1.00  0.00    -0.237 OA
ATOM     48  O   UNL     1       9.990   5.911  10.304  1.00  0.00    -0.237 OA
ATOM     49  O   UNL     1       8.056   7.304  10.932  1.00  0.00    -0.744 OA
ENDBRANCH  45  46
ENDBRANCH  26  40
BRANCH  27  50
ATOM     50  C   UNL     1       6.705   9.010  -3.988  1.00  0.00    -0.014 A 
ATOM     51  C   UNL     1       7.521   8.476  -4.997  1.00  0.00     0.010 A 
ATOM     52  C   UNL     1       5.652   9.873  -4.348  1.00  0.00     0.010 A 
ATOM     53  C   UNL     1       7.236   8.734  -6.347  1.00  0.00     0.020 A 
ATOM     54  C   UNL     1       5.366  10.135  -5.692  1.00  0.00     0.020 A 
ATOM     55  C   UNL     1       6.139   9.536  -6.686  1.00  0.00     0.054 A 
BRANCH  55  56
ATOM     56  S   UNL     1       5.565   9.627  -8.410  1.00  0.00     0.124 S 
ATOM     57  O   UNL     1       6.114  10.905  -8.849  1.00  0.00    -0.237 OA
ATOM     58  O   UNL     1       6.157   8.440  -9.024  1.00  0.00    -0.237 OA
ATOM     59  O   UNL     1       4.109   9.582  -8.272  1.00  0.00    -0.744 OA
ENDBRANCH  55  56
ENDBRANCH  27  50
BRANCH  39  60
ATOM     60  C   UNL     1       9.712  12.604   1.053  1.00  0.00    -0.014 A 
ATOM     61  C   UNL     1       9.038  13.835   0.999  1.00  0.00     0.010 A 
ATOM     62  C   UNL     1      11.117  12.574   1.034  1.00  0.00     0.010 A 
ATOM     63  C   UNL     1       9.763  15.021   0.893  1.00  0.00     0.020 A 
ATOM     64  C   UNL     1      11.844  13.759   0.951  1.00  0.00     0.020 A 
ATOM     65  C   UNL     1      11.162  14.975   0.864  1.00  0.00     0.054 A 
BRANCH  65  66
ATOM     66  S   UNL     1      12.087  16.527   0.744  1.00  0.00     0.124 S 
ATOM     67  O   UNL     1      11.952  16.851  -0.673  1.00  0.00    -0.237 OA
ATOM     68  O   UNL     1      11.365  17.404   1.662  1.00  0.00    -0.237 OA
ATOM     69  O   UNL     1      13.434  16.158   1.175  1.00  0.00    -0.744 OA
ENDBRANCH  65  66
ENDBRANCH  39  60
ENDBRANCH  13  14
ENDBRANCH   6   8
ENDBRANCH   5   6
ENDBRANCH   4   5
ENDBRANCH   3   4
ENDBRANCH   2   3
ENDBRANCH   1   2
BRANCH   1  70
ATOM     70  C   UNL     1       1.935  -1.413  -2.811  1.00  0.00     0.188 C 
BRANCH  70  71
ATOM     71  O   UNL     1       2.668  -2.112  -3.819  1.00  0.00    -0.376 OA
BRANCH  71  72
ATOM     72  C   UNL     1       4.038  -1.763  -3.987  1.00  0.00     0.202 C 
BRANCH  72  73
ATOM     73  C   UNL     1       4.359  -0.402  -4.619  1.00  0.00     0.261 C 
BRANCH  73  74
ATOM     74  O   UNL     1       3.655   0.718  -4.062  1.00  0.00    -0.460 OA
BRANCH  74  75
ATOM     75  C   UNL     1       2.645   1.168  -4.849  1.00  0.00     0.338 C 
ATOM     76  O   UNL     1       2.228   0.652  -5.874  1.00  0.00    -0.246 OA
BRANCH  75  77
ATOM     77  C   UNL     1       2.164   2.483  -4.396  1.00  0.00     0.060 A 
ATOM     78  C   UNL     1       1.596   2.729  -3.148  1.00  0.00     0.018 A 
ATOM     79  C   UNL     1       2.244   3.505  -5.334  1.00  0.00     0.022 A 
ATOM     80  C   UNL     1       1.071   4.005  -2.868  1.00  0.00     0.027 A 
ATOM     81  C   UNL     1       1.773   4.790  -5.033  1.00  0.00    -0.017 A 
ATOM     82  C   UNL     1       1.123   5.043  -3.813  1.00  0.00     0.038 A 
ATOM     83  C   UNL     1       2.031   5.896  -6.027  1.00  0.00     0.049 C 
ATOM     84  N   UNL     1       0.653   6.314  -3.486  1.00  0.00    -0.378 N 
ATOM     85  C   UNL     1       3.482   5.962  -6.416  1.00  0.00    -0.023 C 
ATOM     86  C   UNL     1       1.873   7.276  -5.394  1.00  0.00     0.031 C 
ATOM     87  C   UNL     1       0.647   7.380  -4.493  1.00  0.00     0.114 C 
ATOM     88  H   UNL     1       0.323   6.496  -2.576  1.00  0.00     0.161 HD
ATOM     89  C   UNL     1       4.132   6.849  -5.659  1.00  0.00    -0.030 C 
ATOM     90  C   UNL     1       3.211   7.531  -4.700  1.00  0.00     0.034 C 
BRANCH  87  91
ATOM     91  C   UNL     1       0.511   8.791  -3.913  1.00  0.00    -0.022 A 
ATOM     92  C   UNL     1       0.522   9.896  -4.786  1.00  0.00     0.026 A 
ATOM     93  C   UNL     1       0.395   9.069  -2.547  1.00  0.00     0.026 A 
ATOM     94  C   UNL     1       0.434  11.183  -4.276  1.00  0.00     0.111 A 
ATOM     95  C   UNL     1       0.288  10.393  -2.133  1.00  0.00     0.111 A 
ATOM     96  N   UNL     1       0.294  11.455  -2.965  1.00  0.00    -0.265 NA
ENDBRANCH  87  91
ENDBRANCH  75  77
ENDBRANCH  74  75
ENDBRANCH  73  74
ENDBRANCH  72  73
ENDBRANCH  71  72
ENDBRANCH  70  71
ENDBRANCH   1  70
TORSDOF 21
