REMARK SMILES C[C@H](CNC(=O)c1ccc(Br)nc1)C(=O)OCCOCCOCCOC(=O)c1ccc(-c2c3nc(c(-c4ccc(S(=O)(=O)[O-])cc4)c4ccc([nH]4)c(-c4ccc(S(=O)(=O)[O-])cc4)c4nc(c(-c5ccc(S(=O)(=O)[O-])cc5)c5ccc2[nH]5)C=C4)C=C3)cc1
REMARK SMILES IDX 20 1 19 2 18 3 17 4 16 5 14 6 15 7 2 8 1 9 3 10 4 11 5 12
REMARK SMILES IDX 6 14 7 15 8 16 13 17 9 18 12 19 10 20 11 21 21 22 22 23
REMARK SMILES IDX 23 24 24 25 25 26 26 27 27 28 28 29 29 30 87 31 30 32 86 33
REMARK SMILES IDX 31 34 32 35 33 36 80 37 34 38 85 39 79 40 81 41 35 42 84 43
REMARK SMILES IDX 78 44 77 45 36 47 66 48 47 49 65 50 48 51 51 52 64 53 82 54
REMARK SMILES IDX 49 55 50 56 63 58 83 59 52 60 37 61 38 62 46 63 39 64 45 65
REMARK SMILES IDX 40 66 41 67 42 68 43 69 44 70 67 71 68 72 76 73 69 74 75 75
REMARK SMILES IDX 70 76 71 77 72 78 73 79 74 80 53 81 54 82 62 83 55 84 61 85
REMARK SMILES IDX 56 86 57 87 58 88 59 89 60 90
REMARK H PARENT 4 13 81 46 51 57
REMARK Flexibility Score: inf
ROOT
ATOM      1  C   UNL     1      -2.425   1.085   1.570  1.00  0.00     0.188 C 
ENDROOT
BRANCH   1   2
ATOM      2  O   UNL     1      -3.673   1.294   0.928  1.00  0.00    -0.376 OA
BRANCH   2   3
ATOM      3  C   UNL     1      -3.837   0.876  -0.419  1.00  0.00     0.202 C 
BRANCH   3   4
ATOM      4  C   UNL     1      -2.839   1.363  -1.485  1.00  0.00     0.261 C 
BRANCH   4   5
ATOM      5  O   UNL     1      -1.433   1.067  -1.271  1.00  0.00    -0.463 OA
BRANCH   5   6
ATOM      6  C   UNL     1      -0.634   2.154  -1.117  1.00  0.00     0.310 C 
ATOM      7  O   UNL     1      -1.060   3.306  -1.093  1.00  0.00    -0.252 OA
BRANCH   6   8
ATOM      8  C   UNL     1       0.869   1.891  -1.048  1.00  0.00     0.115 C 
ATOM      9  C   UNL     1       1.456   2.464  -2.346  1.00  0.00     0.022 C 
BRANCH   8  10
ATOM     10  C   UNL     1       1.424   0.477  -0.786  1.00  0.00     0.131 C 
BRANCH  10  11
ATOM     11  N   UNL     1       2.844   0.559  -0.409  1.00  0.00    -0.351 N 
ATOM     12  C   UNL     1       3.471   0.490   0.810  1.00  0.00     0.252 C 
ATOM     13  H   UNL     1       3.455   0.686  -1.170  1.00  0.00     0.163 HD
ATOM     14  O   UNL     1       4.526   1.107   0.948  1.00  0.00    -0.269 OA
BRANCH  12  15
ATOM     15  C   UNL     1       3.000  -0.348   1.931  1.00  0.00     0.058 A 
ATOM     16  C   UNL     1       2.438  -1.613   1.762  1.00  0.00     0.018 A 
ATOM     17  C   UNL     1       3.338   0.035   3.226  1.00  0.00     0.126 A 
ATOM     18  C   UNL     1       2.232  -2.431   2.882  1.00  0.00     0.037 A 
ATOM     19  N   UNL     1       3.130  -0.731   4.327  1.00  0.00    -0.249 NA
ATOM     20  C   UNL     1       2.600  -1.956   4.135  1.00  0.00     0.106 A 
ATOM     21  Br  UNL     1       2.295  -3.034   5.664  1.00  0.00    -0.029 Br
ENDBRANCH  12  15
ENDBRANCH  10  11
ENDBRANCH   8  10
ENDBRANCH   6   8
ENDBRANCH   5   6
ENDBRANCH   4   5
ENDBRANCH   3   4
ENDBRANCH   2   3
ENDBRANCH   1   2
BRANCH   1  22
ATOM     22  C   UNL     1      -1.668  -0.224   1.312  1.00  0.00     0.188 C 
BRANCH  22  23
ATOM     23  O   UNL     1      -2.341  -1.186   0.527  1.00  0.00    -0.376 OA
BRANCH  23  24
ATOM     24  C   UNL     1      -2.608  -2.436   1.148  1.00  0.00     0.202 C 
BRANCH  24  25
ATOM     25  C   UNL     1      -3.561  -2.389   2.353  1.00  0.00     0.261 C 
BRANCH  25  26
ATOM     26  O   UNL     1      -3.130  -1.567   3.454  1.00  0.00    -0.460 OA
BRANCH  26  27
ATOM     27  C   UNL     1      -2.000  -1.952   4.086  1.00  0.00     0.338 C 
ATOM     28  O   UNL     1      -1.330  -2.950   3.838  1.00  0.00    -0.246 OA
BRANCH  27  29
ATOM     29  C   UNL     1      -1.538  -0.838   4.936  1.00  0.00     0.060 A 
ATOM     30  C   UNL     1      -0.303  -0.257   4.638  1.00  0.00     0.016 A 
ATOM     31  C   UNL     1      -2.277  -0.384   6.027  1.00  0.00     0.016 A 
ATOM     32  C   UNL     1       0.250   0.708   5.471  1.00  0.00     0.010 A 
ATOM     33  C   UNL     1      -1.722   0.589   6.869  1.00  0.00     0.010 A 
ATOM     34  C   UNL     1      -0.431   1.095   6.626  1.00  0.00    -0.014 A 
BRANCH  34  35
ATOM     35  C   UNL     1       0.327   1.817   7.677  1.00  0.00     0.031 A 
ATOM     36  C   UNL     1       0.843   1.022   8.848  1.00  0.00     0.074 A 
ATOM     37  C   UNL     1       0.650   3.117   7.551  1.00  0.00     0.049 A 
ATOM     38  N   UNL     1       1.499   1.427   9.904  1.00  0.00    -0.248 NA
ATOM     39  C   UNL     1       0.582  -0.428   8.822  1.00  0.00     0.031 C 
ATOM     40  C   UNL     1       0.308   3.974   6.416  1.00  0.00     0.029 A 
ATOM     41  N   UNL     1       1.360   3.940   8.390  1.00  0.00    -0.354 N 
ATOM     42  C   UNL     1       1.700   0.290  10.680  1.00  0.00     0.074 A 
ATOM     43  C   UNL     1       1.080  -0.816   9.986  1.00  0.00     0.031 C 
ATOM     44  C   UNL     1       0.815   5.201   6.628  1.00  0.00     0.029 A 
ATOM     45  C   UNL     1       1.480   5.229   7.929  1.00  0.00     0.049 A 
ATOM     46  H   UNL     1       1.746   3.635   9.243  1.00  0.00     0.167 HD
ATOM     47  C   UNL     1       2.345   0.174  11.864  1.00  0.00     0.031 A 
ATOM     48  C   UNL     1       2.047   6.311   8.501  1.00  0.00     0.031 A 
ATOM     49  C   UNL     1       2.983   1.269  12.544  1.00  0.00     0.049 A 
ATOM     50  C   UNL     1       2.696   6.174   9.855  1.00  0.00     0.074 A 
ATOM     51  C   UNL     1       3.661   1.256  13.750  1.00  0.00     0.029 A 
ATOM     52  N   UNL     1       3.029   2.571  12.071  1.00  0.00    -0.354 N 
ATOM     53  N   UNL     1       2.844   5.101  10.597  1.00  0.00    -0.248 NA
ATOM     54  C   UNL     1       3.260   7.396  10.446  1.00  0.00     0.031 C 
ATOM     55  C   UNL     1       4.073   2.562  14.032  1.00  0.00     0.029 A 
ATOM     56  C   UNL     1       3.705   3.376  12.972  1.00  0.00     0.049 A 
ATOM     57  H   UNL     1       2.639   2.879  11.221  1.00  0.00     0.167 HD
ATOM     58  C   UNL     1       3.549   5.513  11.725  1.00  0.00     0.074 A 
ATOM     59  C   UNL     1       3.803   6.930  11.563  1.00  0.00     0.031 C 
ATOM     60  C   UNL     1       3.954   4.784  12.795  1.00  0.00     0.031 A 
BRANCH  47  61
ATOM     61  C   UNL     1       2.337  -1.178  12.525  1.00  0.00    -0.014 A 
ATOM     62  C   UNL     1       3.093  -2.252  12.024  1.00  0.00     0.010 A 
ATOM     63  C   UNL     1       1.556  -1.370  13.680  1.00  0.00     0.010 A 
ATOM     64  C   UNL     1       3.036  -3.505  12.642  1.00  0.00     0.020 A 
ATOM     65  C   UNL     1       1.519  -2.612  14.317  1.00  0.00     0.020 A 
ATOM     66  C   UNL     1       2.245  -3.678  13.782  1.00  0.00     0.054 A 
BRANCH  66  67
ATOM     67  S   UNL     1       2.196  -5.309  14.574  1.00  0.00     0.124 S 
ATOM     68  O   UNL     1       1.371  -6.073  13.640  1.00  0.00    -0.237 OA
ATOM     69  O   UNL     1       3.606  -5.687  14.620  1.00  0.00    -0.237 OA
ATOM     70  O   UNL     1       1.582  -5.046  15.873  1.00  0.00    -0.744 OA
ENDBRANCH  66  67
ENDBRANCH  47  61
BRANCH  48  71
ATOM     71  C   UNL     1       2.008   7.630   7.811  1.00  0.00    -0.014 A 
ATOM     72  C   UNL     1       3.186   8.222   7.321  1.00  0.00     0.010 A 
ATOM     73  C   UNL     1       0.787   8.313   7.656  1.00  0.00     0.010 A 
ATOM     74  C   UNL     1       3.147   9.478   6.707  1.00  0.00     0.020 A 
ATOM     75  C   UNL     1       0.740   9.556   7.017  1.00  0.00     0.020 A 
ATOM     76  C   UNL     1       1.923  10.137   6.558  1.00  0.00     0.054 A 
BRANCH  76  77
ATOM     77  S   UNL     1       1.887  11.745   5.718  1.00  0.00     0.124 S 
ATOM     78  O   UNL     1       2.456  12.629   6.730  1.00  0.00    -0.237 OA
ATOM     79  O   UNL     1       2.721  11.508   4.543  1.00  0.00    -0.237 OA
ATOM     80  O   UNL     1       0.468  11.950   5.434  1.00  0.00    -0.744 OA
ENDBRANCH  76  77
ENDBRANCH  48  71
BRANCH  60  81
ATOM     81  C   UNL     1       4.761   5.492  13.852  1.00  0.00    -0.014 A 
ATOM     82  C   UNL     1       4.173   6.424  14.725  1.00  0.00     0.010 A 
ATOM     83  C   UNL     1       6.127   5.184  13.997  1.00  0.00     0.010 A 
ATOM     84  C   UNL     1       4.947   7.067  15.696  1.00  0.00     0.020 A 
ATOM     85  C   UNL     1       6.896   5.803  14.985  1.00  0.00     0.020 A 
ATOM     86  C   UNL     1       6.305   6.756  15.816  1.00  0.00     0.054 A 
BRANCH  86  87
ATOM     87  S   UNL     1       7.285   7.588  17.096  1.00  0.00     0.124 S 
ATOM     88  O   UNL     1       7.467   8.918  16.523  1.00  0.00    -0.237 OA
ATOM     89  O   UNL     1       6.411   7.521  18.265  1.00  0.00    -0.237 OA
ATOM     90  O   UNL     1       8.497   6.777  17.186  1.00  0.00    -0.744 OA
ENDBRANCH  86  87
ENDBRANCH  60  81
ENDBRANCH  34  35
ENDBRANCH  27  29
ENDBRANCH  26  27
ENDBRANCH  25  26
ENDBRANCH  24  25
ENDBRANCH  23  24
ENDBRANCH  22  23
ENDBRANCH   1  22
TORSDOF 23
