REMARK SMILES O=C(CC1(NC(=O)[C@]2(C(F)(F)F)CC[NH2+]C2)CCC1)OCCOCCOCCOC(=O)c1ccc(-c2c3nc(c(-c4ccc(S(=O)(=O)[O-])cc4)c4ccc([nH]4)c(-c4ccc(S(=O)(=O)[O-])cc4)c4nc(c(-c5ccc(S(=O)(=O)[O-])cc5)c5ccc2[nH]5)C=C4)C=C3)cc1
REMARK SMILES IDX 24 1 23 2 22 3 21 4 20 5 2 6 1 7 3 8 4 9 17 10 19 11 18 12
REMARK SMILES IDX 5 13 6 14 7 16 8 17 13 18 16 19 14 20 15 21 9 24 10 25 11 26
REMARK SMILES IDX 12 27 25 28 26 29 27 30 28 31 29 32 30 33 31 34 32 35 33 36
REMARK SMILES IDX 91 37 34 38 90 39 35 40 36 41 37 42 84 43 38 44 89 45 83 46
REMARK SMILES IDX 85 47 39 48 88 49 82 50 81 51 40 53 70 54 51 55 69 56 52 57
REMARK SMILES IDX 55 58 68 59 86 60 53 61 54 62 67 64 87 65 56 66 41 67 42 68
REMARK SMILES IDX 50 69 43 70 49 71 44 72 45 73 46 74 47 75 48 76 71 77 72 78
REMARK SMILES IDX 80 79 73 80 79 81 74 82 75 83 76 84 77 85 78 86 57 87 58 88
REMARK SMILES IDX 66 89 59 90 65 91 60 92 61 93 62 94 63 95 64 96
REMARK H PARENT 5 15 15 22 15 23 85 52 55 63
REMARK Flexibility Score: inf
ROOT
ATOM      1  C   UNL     1       2.154  -2.212   0.761  1.00  0.00     0.188 C 
ENDROOT
BRANCH   1   2
ATOM      2  O   UNL     1       3.085  -1.170   0.585  1.00  0.00    -0.376 OA
BRANCH   2   3
ATOM      3  C   UNL     1       4.201  -1.154   1.431  1.00  0.00     0.202 C 
BRANCH   3   4
ATOM      4  C   UNL     1       4.017  -0.155   2.545  1.00  0.00     0.261 C 
BRANCH   4   5
ATOM      5  O   UNL     1       2.865   0.712   2.481  1.00  0.00    -0.463 OA
BRANCH   5   6
ATOM      6  C   UNL     1       2.188   1.233   1.442  1.00  0.00     0.308 C 
ATOM      7  O   UNL     1       0.984   1.455   1.605  1.00  0.00    -0.252 OA
BRANCH   6   8
ATOM      8  C   UNL     1       2.817   1.567   0.104  1.00  0.00     0.151 C 
BRANCH   8   9
ATOM      9  C   UNL     1       4.251   2.075  -0.037  1.00  0.00     0.051 C 
ATOM     10  C   UNL     1       4.343   3.561  -0.591  1.00  0.00     0.029 C 
ATOM     11  C   UNL     1       4.892   2.664   1.284  1.00  0.00     0.029 C 
ATOM     12  C   UNL     1       4.741   4.091   0.783  1.00  0.00     0.005 C 
BRANCH   9  13
ATOM     13  N   UNL     1       5.247   1.135  -0.760  1.00  0.00    -0.349 N 
ATOM     14  C   UNL     1       5.369   0.300  -1.864  1.00  0.00     0.241 C 
ATOM     15  H   UNL     1       6.095   1.126  -0.261  1.00  0.00     0.164 HD
ATOM     16  O   UNL     1       6.558   0.003  -2.080  1.00  0.00    -0.274 OA
BRANCH  14  17
ATOM     17  C   UNL     1       4.269  -0.286  -2.828  1.00  0.00     0.197 C 
ATOM     18  C   UNL     1       3.304  -1.833  -1.947  1.00  0.00     0.094 C 
ATOM     19  C   UNL     1       5.141  -1.107  -4.446  1.00  0.00     0.287 C 
ATOM     20  C   UNL     1       3.640  -3.551  -3.118  1.00  0.00     0.262 C 
ATOM     21  N   UNL     1       4.704  -2.990  -4.660  1.00  0.00    -0.345 N 
ATOM     22  H   UNL     1       4.168  -3.125  -5.517  1.00  0.00     0.346 HD
ATOM     23  H   UNL     1       5.558  -3.545  -4.719  1.00  0.00     0.346 HD
BRANCH  17  24
ATOM     24  C   UNL     1       3.491   0.955  -3.216  1.00  0.00     0.408 C 
ATOM     25  F   UNL     1       2.203   0.861  -2.831  1.00  0.00    -0.170 F 
ATOM     26  F   UNL     1       3.940   2.116  -2.711  1.00  0.00    -0.170 F 
ATOM     27  F   UNL     1       3.551   1.158  -4.545  1.00  0.00    -0.170 F 
ENDBRANCH  17  24
ENDBRANCH  14  17
ENDBRANCH   9  13
ENDBRANCH   8   9
ENDBRANCH   6   8
ENDBRANCH   5   6
ENDBRANCH   4   5
ENDBRANCH   3   4
ENDBRANCH   2   3
ENDBRANCH   1   2
BRANCH   1  28
ATOM     28  C   UNL     1       2.380  -3.558   0.003  1.00  0.00     0.188 C 
BRANCH  28  29
ATOM     29  O   UNL     1       3.596  -4.211  -0.390  1.00  0.00    -0.376 OA
BRANCH  29  30
ATOM     30  C   UNL     1       4.925  -3.711  -0.564  1.00  0.00     0.202 C 
BRANCH  30  31
ATOM     31  C   UNL     1       5.566  -3.002  -1.887  1.00  0.00     0.261 C 
BRANCH  31  32
ATOM     32  O   UNL     1       4.662  -2.079  -3.032  1.00  0.00    -0.460 OA
BRANCH  32  33
ATOM     33  C   UNL     1       3.014  -1.838  -3.956  1.00  0.00     0.338 C 
ATOM     34  O   UNL     1       1.930  -2.393  -3.582  1.00  0.00    -0.246 OA
BRANCH  33  35
ATOM     35  C   UNL     1       2.478  -1.039  -5.110  1.00  0.00     0.060 A 
ATOM     36  C   UNL     1       1.212  -0.440  -4.819  1.00  0.00     0.016 A 
ATOM     37  C   UNL     1       2.989  -0.912  -6.394  1.00  0.00     0.016 A 
ATOM     38  C   UNL     1       0.670   0.524  -5.619  1.00  0.00     0.010 A 
ATOM     39  C   UNL     1       2.499   0.117  -7.174  1.00  0.00     0.010 A 
ATOM     40  C   UNL     1       1.406   0.881  -6.727  1.00  0.00    -0.014 A 
BRANCH  40  41
ATOM     41  C   UNL     1       1.004   2.058  -7.474  1.00  0.00     0.031 A 
ATOM     42  C   UNL     1       0.361   1.807  -8.778  1.00  0.00     0.074 A 
ATOM     43  C   UNL     1       1.315   3.270  -6.981  1.00  0.00     0.049 A 
ATOM     44  N   UNL     1       0.106   2.656  -9.722  1.00  0.00    -0.248 NA
ATOM     45  C   UNL     1      -0.008   0.408  -9.078  1.00  0.00     0.031 C 
ATOM     46  C   UNL     1       1.907   3.537  -5.665  1.00  0.00     0.029 A 
ATOM     47  N   UNL     1       1.213   4.507  -7.546  1.00  0.00    -0.354 N 
ATOM     48  C   UNL     1      -0.420   1.893 -10.746  1.00  0.00     0.074 A 
ATOM     49  C   UNL     1      -0.418   0.511 -10.330  1.00  0.00     0.031 C 
ATOM     50  C   UNL     1       2.170   4.848  -5.549  1.00  0.00     0.029 A 
ATOM     51  C   UNL     1       1.782   5.504  -6.787  1.00  0.00     0.049 A 
ATOM     52  H   UNL     1       0.775   4.671  -8.413  1.00  0.00     0.167 HD
ATOM     53  C   UNL     1      -0.865   2.341 -11.933  1.00  0.00     0.031 A 
ATOM     54  C   UNL     1       1.984   6.796  -7.095  1.00  0.00     0.031 A 
ATOM     55  C   UNL     1      -0.842   3.729 -12.284  1.00  0.00     0.049 A 
ATOM     56  C   UNL     1       1.504   7.250  -8.447  1.00  0.00     0.074 A 
ATOM     57  C   UNL     1      -1.315   4.328 -13.431  1.00  0.00     0.029 A 
ATOM     58  N   UNL     1      -0.303   4.731 -11.486  1.00  0.00    -0.354 N 
ATOM     59  N   UNL     1       0.922   6.543  -9.390  1.00  0.00    -0.248 NA
ATOM     60  C   UNL     1       1.691   8.665  -8.778  1.00  0.00     0.031 C 
ATOM     61  C   UNL     1      -0.994   5.685 -13.361  1.00  0.00     0.029 A 
ATOM     62  C   UNL     1      -0.390   5.944 -12.137  1.00  0.00     0.049 A 
ATOM     63  H   UNL     1       0.084   4.596 -10.591  1.00  0.00     0.167 HD
ATOM     64  C   UNL     1       0.647   7.433 -10.416  1.00  0.00     0.074 A 
ATOM     65  C   UNL     1       1.103   8.735  -9.965  1.00  0.00     0.031 C 
ATOM     66  C   UNL     1       0.077   7.208 -11.626  1.00  0.00     0.031 A 
BRANCH  53  67
ATOM     67  C   UNL     1      -1.365   1.328 -12.909  1.00  0.00    -0.014 A 
ATOM     68  C   UNL     1      -2.564   0.628 -12.685  1.00  0.00     0.010 A 
ATOM     69  C   UNL     1      -0.636   1.099 -14.087  1.00  0.00     0.010 A 
ATOM     70  C   UNL     1      -3.030  -0.281 -13.633  1.00  0.00     0.020 A 
ATOM     71  C   UNL     1      -1.115   0.213 -15.051  1.00  0.00     0.020 A 
ATOM     72  C   UNL     1      -2.311  -0.468 -14.818  1.00  0.00     0.054 A 
BRANCH  72  73
ATOM     73  S   UNL     1      -3.005  -1.563 -16.082  1.00  0.00     0.124 S 
ATOM     74  O   UNL     1      -2.872  -2.875 -15.452  1.00  0.00    -0.237 OA
ATOM     75  O   UNL     1      -4.372  -1.065 -16.213  1.00  0.00    -0.237 OA
ATOM     76  O   UNL     1      -2.148  -1.341 -17.243  1.00  0.00    -0.744 OA
ENDBRANCH  72  73
ENDBRANCH  53  67
BRANCH  54  77
ATOM     77  C   UNL     1       2.672   7.720  -6.152  1.00  0.00    -0.014 A 
ATOM     78  C   UNL     1       1.990   8.816  -5.596  1.00  0.00     0.010 A 
ATOM     79  C   UNL     1       4.030   7.532  -5.828  1.00  0.00     0.010 A 
ATOM     80  C   UNL     1       2.662   9.737  -4.785  1.00  0.00     0.020 A 
ATOM     81  C   UNL     1       4.698   8.432  -4.990  1.00  0.00     0.020 A 
ATOM     82  C   UNL     1       4.015   9.543  -4.494  1.00  0.00     0.054 A 
BRANCH  82  83
ATOM     83  S   UNL     1       4.868  10.762  -3.455  1.00  0.00     0.124 S 
ATOM     84  O   UNL     1       4.931  11.922  -4.338  1.00  0.00    -0.237 OA
ATOM     85  O   UNL     1       3.969  10.883  -2.311  1.00  0.00    -0.237 OA
ATOM     86  O   UNL     1       6.152  10.127  -3.165  1.00  0.00    -0.744 OA
ENDBRANCH  82  83
ENDBRANCH  54  77
BRANCH  66  87
ATOM     87  C   UNL     1      -0.096   8.397 -12.524  1.00  0.00    -0.014 A 
ATOM     88  C   UNL     1       1.011   8.990 -13.153  1.00  0.00     0.010 A 
ATOM     89  C   UNL     1      -1.393   8.853 -12.817  1.00  0.00     0.010 A 
ATOM     90  C   UNL     1       0.823  10.039 -14.051  1.00  0.00     0.020 A 
ATOM     91  C   UNL     1      -1.587   9.874 -13.745  1.00  0.00     0.020 A 
ATOM     92  C   UNL     1      -0.475  10.466 -14.349  1.00  0.00     0.054 A 
BRANCH  92  93
ATOM     93  S   UNL     1      -0.691  11.774 -15.581  1.00  0.00     0.124 S 
ATOM     94  O   UNL     1      -0.173  12.943 -14.876  1.00  0.00    -0.237 OA
ATOM     95  O   UNL     1       0.124  11.298 -16.696  1.00  0.00    -0.237 OA
ATOM     96  O   UNL     1      -2.131  11.784 -15.829  1.00  0.00    -0.744 OA
ENDBRANCH  92  93
ENDBRANCH  66  87
ENDBRANCH  40  41
ENDBRANCH  33  35
ENDBRANCH  32  33
ENDBRANCH  31  32
ENDBRANCH  30  31
ENDBRANCH  29  30
ENDBRANCH  28  29
ENDBRANCH   1  28
TORSDOF 24
