REMARK SMILES COc1cc(F)ccc1-c1ccc(=O)n(CC(=O)NCc2ccc(C(=O)OCCOCCOCCOC(=O)c3ccc(-c4c5nc(c(-c6ccc(S(=O)(=O)[O-])cc6)c6ccc([nH]6)c(-c6ccc(S(=O)(=O)[O-])cc6)c6nc(c(-c7ccc(S(=O)(=O)[O-])cc7)c7ccc4[nH]7)C=C6)C=C5)cc3)cc2)n1
REMARK SMILES IDX 30 1 29 2 28 3 27 4 25 5 26 6 24 7 21 8 22 9 100 10 23 11
REMARK SMILES IDX 99 12 20 13 19 14 17 15 18 16 16 18 15 19 10 20 11 21 101 22
REMARK SMILES IDX 12 23 13 24 14 25 9 26 3 27 4 28 5 29 8 30 6 31 7 32 2 33
REMARK SMILES IDX 1 34 31 35 32 36 33 37 34 38 35 39 36 40 37 41 38 42 39 43
REMARK SMILES IDX 40 44 98 45 41 46 97 47 42 48 43 49 44 50 91 51 45 52 96 53
REMARK SMILES IDX 90 54 92 55 46 56 95 57 89 58 88 59 47 61 77 62 58 63 76 64
REMARK SMILES IDX 59 65 62 66 75 67 93 68 60 69 61 70 74 72 94 73 63 74 48 75
REMARK SMILES IDX 49 76 57 77 50 78 56 79 51 80 52 81 53 82 54 83 55 84 78 85
REMARK SMILES IDX 79 86 87 87 80 88 86 89 81 90 82 91 83 92 84 93 85 94 64 95
REMARK SMILES IDX 65 96 73 97 66 98 72 99 67 100 68 101 69 102 70 103 71 104
REMARK H PARENT 19 17 92 60 62 71
REMARK Flexibility Score: inf
ROOT
ATOM      1  O   UNL     1      -1.722 -10.895   2.057  1.00  0.00    -0.376 OA
ENDROOT
BRANCH   1   2
ATOM      2  C   UNL     1      -2.899 -11.431   2.640  1.00  0.00     0.202 C 
BRANCH   2   3
ATOM      3  C   UNL     1      -4.259 -10.713   2.750  1.00  0.00     0.261 C 
BRANCH   3   4
ATOM      4  O   UNL     1      -4.514  -9.639   1.839  1.00  0.00    -0.460 OA
BRANCH   4   5
ATOM      5  C   UNL     1      -4.675  -8.424   2.426  1.00  0.00     0.338 C 
ATOM      6  O   UNL     1      -4.660  -8.183   3.621  1.00  0.00    -0.246 OA
BRANCH   5   7
ATOM      7  C   UNL     1      -4.635  -7.360   1.405  1.00  0.00     0.060 A 
ATOM      8  C   UNL     1      -4.447  -5.266  -0.459  1.00  0.00    -0.029 A 
ATOM      9  C   UNL     1      -3.665  -5.271   0.699  1.00  0.00     0.006 A 
ATOM     10  C   UNL     1      -5.306  -6.352  -0.690  1.00  0.00     0.006 A 
ATOM     11  C   UNL     1      -3.763  -6.294   1.635  1.00  0.00     0.016 A 
ATOM     12  C   UNL     1      -5.392  -7.405   0.232  1.00  0.00     0.016 A 
BRANCH   8  13
ATOM     13  C   UNL     1      -4.407  -4.073  -1.383  1.00  0.00     0.151 C 
BRANCH  13  14
ATOM     14  N   UNL     1      -5.557  -3.224  -1.167  1.00  0.00    -0.350 N 
ATOM     15  C   UNL     1      -5.652  -1.930  -0.755  1.00  0.00     0.242 C 
ATOM     16  O   UNL     1      -6.759  -1.393  -0.897  1.00  0.00    -0.273 OA
ATOM     17  H   UNL     1      -6.423  -3.657  -1.348  1.00  0.00     0.163 HD
BRANCH  15  18
ATOM     18  C   UNL     1      -4.434  -1.095  -0.352  1.00  0.00     0.248 C 
BRANCH  18  19
ATOM     19  N   UNL     1      -3.557  -1.690   0.644  1.00  0.00    -0.220 N 
ATOM     20  C   UNL     1      -1.433  -2.369   1.151  1.00  0.00     0.095 A 
ATOM     21  C   UNL     1      -1.766  -2.597   2.571  1.00  0.00     0.037 A 
ATOM     22  N   UNL     1      -2.264  -1.955   0.246  1.00  0.00    -0.169 NA
ATOM     23  C   UNL     1      -3.024  -2.327   2.933  1.00  0.00     0.075 A 
ATOM     24  C   UNL     1      -4.002  -1.796   1.957  1.00  0.00     0.267 A 
ATOM     25  O   UNL     1      -5.133  -1.504   2.333  1.00  0.00    -0.268 OA
BRANCH  20  26
ATOM     26  C   UNL     1      -0.072  -2.738   0.729  1.00  0.00     0.044 A 
ATOM     27  C   UNL     1       0.987  -1.833   0.830  1.00  0.00     0.131 A 
ATOM     28  C   UNL     1       2.264  -2.201   0.404  1.00  0.00     0.086 A 
ATOM     29  C   UNL     1       2.438  -3.421  -0.235  1.00  0.00     0.126 A 
ATOM     30  C   UNL     1       0.110  -3.962   0.078  1.00  0.00     0.017 A 
ATOM     31  F   UNL     1       3.644  -3.761  -0.702  1.00  0.00    -0.207 F 
ATOM     32  C   UNL     1       1.365  -4.280  -0.440  1.00  0.00     0.040 A 
BRANCH  27  33
ATOM     33  O   UNL     1       0.754  -0.568   1.300  1.00  0.00    -0.496 OA
ATOM     34  C   UNL     1       0.908   0.374   0.232  1.00  0.00     0.278 C 
ENDBRANCH  27  33
ENDBRANCH  20  26
ENDBRANCH  18  19
ENDBRANCH  15  18
ENDBRANCH  13  14
ENDBRANCH   8  13
ENDBRANCH   5   7
ENDBRANCH   4   5
ENDBRANCH   3   4
ENDBRANCH   2   3
ENDBRANCH   1   2
BRANCH   1  35
ATOM     35  C   UNL     1      -1.717  -9.588   1.534  1.00  0.00     0.188 C 
BRANCH  35  36
ATOM     36  C   UNL     1      -2.110  -9.438   0.048  1.00  0.00     0.188 C 
BRANCH  36  37
ATOM     37  O   UNL     1      -2.806 -10.475  -0.619  1.00  0.00    -0.376 OA
BRANCH  37  38
ATOM     38  C   UNL     1      -2.201 -11.759  -0.700  1.00  0.00     0.202 C 
BRANCH  38  39
ATOM     39  C   UNL     1      -0.708 -11.943  -1.033  1.00  0.00     0.261 C 
BRANCH  39  40
ATOM     40  O   UNL     1       0.209 -11.107  -0.312  1.00  0.00    -0.460 OA
BRANCH  40  41
ATOM     41  C   UNL     1       0.916 -10.225  -1.066  1.00  0.00     0.338 C 
ATOM     42  O   UNL     1       0.847 -10.051  -2.266  1.00  0.00    -0.246 OA
BRANCH  41  43
ATOM     43  C   UNL     1       1.689  -9.352  -0.163  1.00  0.00     0.060 A 
ATOM     44  C   UNL     1       2.897  -9.780   0.381  1.00  0.00     0.016 A 
ATOM     45  C   UNL     1       1.205  -8.072   0.117  1.00  0.00     0.016 A 
ATOM     46  C   UNL     1       3.627  -8.911   1.202  1.00  0.00     0.010 A 
ATOM     47  C   UNL     1       1.915  -7.232   0.972  1.00  0.00     0.010 A 
ATOM     48  C   UNL     1       3.153  -7.617   1.490  1.00  0.00    -0.014 A 
BRANCH  48  49
ATOM     49  C   UNL     1       3.998  -6.613   2.195  1.00  0.00     0.031 A 
ATOM     50  C   UNL     1       3.593  -6.004   3.509  1.00  0.00     0.074 A 
ATOM     51  C   UNL     1       5.121  -6.179   1.585  1.00  0.00     0.049 A 
ATOM     52  N   UNL     1       4.274  -5.186   4.273  1.00  0.00    -0.248 NA
ATOM     53  C   UNL     1       2.249  -6.317   4.021  1.00  0.00     0.031 C 
ATOM     54  C   UNL     1       5.556  -6.583   0.247  1.00  0.00     0.029 A 
ATOM     55  N   UNL     1       6.106  -5.319   2.007  1.00  0.00    -0.354 N 
ATOM     56  C   UNL     1       3.458  -4.909   5.362  1.00  0.00     0.074 A 
ATOM     57  C   UNL     1       2.195  -5.573   5.118  1.00  0.00     0.031 C 
ATOM     58  C   UNL     1       6.750  -6.033  -0.012  1.00  0.00     0.029 A 
ATOM     59  C   UNL     1       7.156  -5.210   1.124  1.00  0.00     0.049 A 
ATOM     60  H   UNL     1       6.064  -4.827   2.859  1.00  0.00     0.167 HD
ATOM     61  C   UNL     1       3.753  -4.208   6.483  1.00  0.00     0.031 A 
ATOM     62  C   UNL     1       8.331  -4.554   1.221  1.00  0.00     0.031 A 
ATOM     63  C   UNL     1       5.021  -3.564   6.721  1.00  0.00     0.049 A 
ATOM     64  C   UNL     1       8.656  -3.812   2.488  1.00  0.00     0.074 A 
ATOM     65  C   UNL     1       5.443  -2.903   7.863  1.00  0.00     0.029 A 
ATOM     66  N   UNL     1       6.070  -3.499   5.816  1.00  0.00    -0.354 N 
ATOM     67  N   UNL     1       7.924  -3.672   3.568  1.00  0.00    -0.248 NA
ATOM     68  C   UNL     1       9.973  -3.165   2.567  1.00  0.00     0.031 C 
ATOM     69  C   UNL     1       6.713  -2.377   7.623  1.00  0.00     0.029 A 
ATOM     70  C   UNL     1       7.126  -2.789   6.366  1.00  0.00     0.049 A 
ATOM     71  H   UNL     1       6.066  -3.899   4.917  1.00  0.00     0.167 HD
ATOM     72  C   UNL     1       8.706  -2.953   4.466  1.00  0.00     0.074 A 
ATOM     73  C   UNL     1       9.970  -2.698   3.810  1.00  0.00     0.031 C 
ATOM     74  C   UNL     1       8.395  -2.545   5.721  1.00  0.00     0.031 A 
BRANCH  61  75
ATOM     75  C   UNL     1       2.722  -4.145   7.587  1.00  0.00    -0.014 A 
ATOM     76  C   UNL     1       2.213  -2.905   8.016  1.00  0.00     0.010 A 
ATOM     77  C   UNL     1       2.376  -5.306   8.303  1.00  0.00     0.010 A 
ATOM     78  C   UNL     1       1.411  -2.823   9.159  1.00  0.00     0.020 A 
ATOM     79  C   UNL     1       1.545  -5.233   9.424  1.00  0.00     0.020 A 
ATOM     80  C   UNL     1       1.091  -3.988   9.861  1.00  0.00     0.054 A 
BRANCH  80  81
ATOM     81  S   UNL     1       0.088  -3.858  11.368  1.00  0.00     0.124 S 
ATOM     82  O   UNL     1       1.027  -3.262  12.312  1.00  0.00    -0.237 OA
ATOM     83  O   UNL     1      -1.013  -2.998  10.940  1.00  0.00    -0.237 OA
ATOM     84  O   UNL     1      -0.287  -5.242  11.649  1.00  0.00    -0.744 OA
ENDBRANCH  80  81
ENDBRANCH  61  75
BRANCH  62  85
ATOM     85  C   UNL     1       9.321  -4.676   0.113  1.00  0.00    -0.014 A 
ATOM     86  C   UNL     1       9.052  -4.130  -1.156  1.00  0.00     0.010 A 
ATOM     87  C   UNL     1      10.496  -5.428   0.294  1.00  0.00     0.010 A 
ATOM     88  C   UNL     1       9.904  -4.384  -2.234  1.00  0.00     0.020 A 
ATOM     89  C   UNL     1      11.372  -5.653  -0.773  1.00  0.00     0.020 A 
ATOM     90  C   UNL     1      11.052  -5.155  -2.038  1.00  0.00     0.054 A 
BRANCH  90  91
ATOM     91  S   UNL     1      12.105  -5.526  -3.467  1.00  0.00     0.124 S 
ATOM     92  O   UNL     1      11.282  -6.480  -4.206  1.00  0.00    -0.237 OA
ATOM     93  O   UNL     1      12.265  -4.216  -4.092  1.00  0.00    -0.237 OA
ATOM     94  O   UNL     1      13.317  -6.080  -2.868  1.00  0.00    -0.744 OA
ENDBRANCH  90  91
ENDBRANCH  62  85
BRANCH  74  95
ATOM     95  C   UNL     1       9.433  -1.788   6.515  1.00  0.00    -0.014 A 
ATOM     96  C   UNL     1       9.933  -2.343   7.709  1.00  0.00     0.010 A 
ATOM     97  C   UNL     1       9.802  -0.476   6.169  1.00  0.00     0.010 A 
ATOM     98  C   UNL     1      10.737  -1.587   8.566  1.00  0.00     0.020 A 
ATOM     99  C   UNL     1      10.638   0.272   7.006  1.00  0.00     0.020 A 
ATOM    100  C   UNL     1      11.075  -0.279   8.213  1.00  0.00     0.054 A 
BRANCH 100 101
ATOM    101  S   UNL     1      12.073   0.705   9.365  1.00  0.00     0.124 S 
ATOM    102  O   UNL     1      11.115   1.003  10.426  1.00  0.00    -0.237 OA
ATOM    103  O   UNL     1      13.146  -0.218   9.727  1.00  0.00    -0.237 OA
ATOM    104  O   UNL     1      12.492   1.852   8.563  1.00  0.00    -0.744 OA
ENDBRANCH 100 101
ENDBRANCH  74  95
ENDBRANCH  48  49
ENDBRANCH  41  43
ENDBRANCH  40  41
ENDBRANCH  39  40
ENDBRANCH  38  39
ENDBRANCH  37  38
ENDBRANCH  36  37
ENDBRANCH  35  36
ENDBRANCH   1  35
TORSDOF 26
