REMARK SMILES Cc1ccc(S(C)(=O)=O)cc1C(=O)NCCOCC(=O)OCCOCCOCCOC(=O)c1ccc(-c2c3nc(c(-c4ccc(S(=O)(=O)[O-])cc4)c4ccc([nH]4)c(-c4ccc(S(=O)(=O)[O-])cc4)c4nc(c(-c5ccc(S(=O)(=O)[O-])cc5)c5ccc2[nH]5)C=C4)C=C3)cc1
REMARK SMILES IDX 24 1 23 2 22 3 21 4 19 5 20 6 18 7 17 8 16 9 15 10 14 11
REMARK SMILES IDX 12 12 13 13 11 15 1 16 2 17 3 18 4 19 10 20 5 21 6 22 7 23
REMARK SMILES IDX 8 24 9 25 25 26 26 27 27 28 28 29 29 30 30 31 31 32 32 33
REMARK SMILES IDX 33 34 34 35 92 36 35 37 91 38 36 39 37 40 38 41 85 42 39 43
REMARK SMILES IDX 90 44 84 45 86 46 40 47 89 48 83 49 82 50 41 52 71 53 52 54
REMARK SMILES IDX 70 55 53 56 56 57 69 58 87 59 54 60 55 61 68 63 88 64 57 65
REMARK SMILES IDX 42 66 43 67 51 68 44 69 50 70 45 71 46 72 47 73 48 74 49 75
REMARK SMILES IDX 72 76 73 77 81 78 74 79 80 80 75 81 76 82 77 83 78 84 79 85
REMARK SMILES IDX 58 86 59 87 67 88 60 89 66 90 61 91 62 92 63 93 64 94 65 95
REMARK H PARENT 14 14 86 51 56 62
REMARK Flexibility Score: inf
ROOT
ATOM      1  O   UNL     1       0.630   0.598  -4.998  1.00  0.00    -0.376 OA
ENDROOT
BRANCH   1   2
ATOM      2  C   UNL     1       1.212   1.873  -5.203  1.00  0.00     0.202 C 
BRANCH   2   3
ATOM      3  C   UNL     1       2.614   1.997  -4.656  1.00  0.00     0.261 C 
BRANCH   3   4
ATOM      4  O   UNL     1       3.006   2.265  -3.222  1.00  0.00    -0.462 OA
BRANCH   4   5
ATOM      5  C   UNL     1       2.422   2.808  -2.125  1.00  0.00     0.332 C 
ATOM      6  O   UNL     1       1.226   2.886  -1.943  1.00  0.00    -0.250 OA
BRANCH   5   7
ATOM      7  C   UNL     1       3.388   3.587  -1.168  1.00  0.00     0.282 C 
BRANCH   7   8
ATOM      8  O   UNL     1       4.282   2.994  -0.241  1.00  0.00    -0.368 OA
BRANCH   8   9
ATOM      9  C   UNL     1       3.800   1.778   0.315  1.00  0.00     0.182 C 
BRANCH   9  10
ATOM     10  C   UNL     1       2.992   1.963   1.605  1.00  0.00     0.144 C 
BRANCH  10  11
ATOM     11  N   UNL     1       1.702   2.579   1.401  1.00  0.00    -0.350 N 
ATOM     12  C   UNL     1       0.402   2.211   1.212  1.00  0.00     0.251 C 
ATOM     13  O   UNL     1      -0.351   3.198   1.198  1.00  0.00    -0.269 OA
ATOM     14  H   UNL     1       1.786   3.560   1.396  1.00  0.00     0.163 HD
BRANCH  12  15
ATOM     15  C   UNL     1      -0.227   0.838   1.077  1.00  0.00     0.044 A 
ATOM     16  C   UNL     1       1.764  -0.784   0.625  1.00  0.00     0.045 C 
ATOM     17  C   UNL     1       0.328  -0.443   0.841  1.00  0.00    -0.038 A 
ATOM     18  C   UNL     1      -0.525  -1.572   0.722  1.00  0.00     0.005 A 
ATOM     19  C   UNL     1      -1.905  -1.467   0.787  1.00  0.00     0.020 A 
ATOM     20  C   UNL     1      -1.648   0.905   1.145  1.00  0.00     0.034 A 
ATOM     21  C   UNL     1      -2.466  -0.217   0.976  1.00  0.00     0.067 A 
BRANCH  21  22
ATOM     22  S   UNL     1      -4.233  -0.084   1.041  1.00  0.00     0.175 S 
ATOM     23  C   UNL     1      -4.834  -0.578  -0.546  1.00  0.00     0.163 C 
ATOM     24  O   UNL     1      -4.668  -1.078   2.007  1.00  0.00    -0.224 OA
ATOM     25  O   UNL     1      -4.584   1.313   1.250  1.00  0.00    -0.224 OA
ENDBRANCH  21  22
ENDBRANCH  12  15
ENDBRANCH  10  11
ENDBRANCH   9  10
ENDBRANCH   8   9
ENDBRANCH   7   8
ENDBRANCH   5   7
ENDBRANCH   4   5
ENDBRANCH   3   4
ENDBRANCH   2   3
ENDBRANCH   1   2
BRANCH   1  26
ATOM     26  C   UNL     1       0.610   0.267  -3.621  1.00  0.00     0.188 C 
BRANCH  26  27
ATOM     27  C   UNL     1       1.665  -0.751  -3.250  1.00  0.00     0.188 C 
BRANCH  27  28
ATOM     28  O   UNL     1       2.844  -0.654  -4.018  1.00  0.00    -0.376 OA
BRANCH  28  29
ATOM     29  C   UNL     1       2.805  -1.331  -5.274  1.00  0.00     0.202 C 
BRANCH  29  30
ATOM     30  C   UNL     1       3.804  -2.468  -5.129  1.00  0.00     0.261 C 
BRANCH  30  31
ATOM     31  O   UNL     1       5.138  -1.903  -5.023  1.00  0.00    -0.460 OA
BRANCH  31  32
ATOM     32  C   UNL     1       5.442  -1.353  -3.809  1.00  0.00     0.338 C 
ATOM     33  O   UNL     1       5.318  -1.917  -2.733  1.00  0.00    -0.246 OA
BRANCH  32  34
ATOM     34  C   UNL     1       5.774   0.105  -3.970  1.00  0.00     0.060 A 
ATOM     35  C   UNL     1       5.834   0.919  -2.835  1.00  0.00     0.016 A 
ATOM     36  C   UNL     1       5.799   0.717  -5.229  1.00  0.00     0.016 A 
ATOM     37  C   UNL     1       5.728   2.315  -2.967  1.00  0.00     0.010 A 
ATOM     38  C   UNL     1       5.611   2.104  -5.344  1.00  0.00     0.010 A 
ATOM     39  C   UNL     1       5.409   2.897  -4.205  1.00  0.00    -0.014 A 
BRANCH  39  40
ATOM     40  C   UNL     1       4.966   4.327  -4.380  1.00  0.00     0.031 A 
ATOM     41  C   UNL     1       6.043   5.284  -4.069  1.00  0.00     0.074 A 
ATOM     42  C   UNL     1       3.742   4.900  -4.680  1.00  0.00     0.049 A 
ATOM     43  N   UNL     1       5.862   6.473  -3.594  1.00  0.00    -0.248 NA
ATOM     44  C   UNL     1       7.452   4.856  -4.080  1.00  0.00     0.031 C 
ATOM     45  C   UNL     1       3.580   6.015  -5.616  1.00  0.00     0.029 A 
ATOM     46  N   UNL     1       2.395   4.589  -4.416  1.00  0.00    -0.354 N 
ATOM     47  C   UNL     1       7.092   7.063  -3.752  1.00  0.00     0.074 A 
ATOM     48  C   UNL     1       8.034   5.977  -3.663  1.00  0.00     0.031 C 
ATOM     49  C   UNL     1       2.270   6.288  -5.808  1.00  0.00     0.029 A 
ATOM     50  C   UNL     1       1.434   5.437  -4.961  1.00  0.00     0.049 A 
ATOM     51  H   UNL     1       2.144   3.809  -3.872  1.00  0.00     0.167 HD
ATOM     52  C   UNL     1       7.173   8.244  -4.435  1.00  0.00     0.031 A 
ATOM     53  C   UNL     1       0.256   5.772  -4.328  1.00  0.00     0.031 A 
ATOM     54  C   UNL     1       5.850   8.841  -4.676  1.00  0.00     0.049 A 
ATOM     55  C   UNL     1       0.458   7.118  -3.670  1.00  0.00     0.074 A 
ATOM     56  C   UNL     1       5.107   9.092  -5.821  1.00  0.00     0.029 A 
ATOM     57  N   UNL     1       4.965   9.016  -3.610  1.00  0.00    -0.354 N 
ATOM     58  N   UNL     1       1.609   7.724  -3.736  1.00  0.00    -0.248 NA
ATOM     59  C   UNL     1      -0.514   7.892  -2.903  1.00  0.00     0.031 C 
ATOM     60  C   UNL     1       3.781   9.423  -5.439  1.00  0.00     0.029 A 
ATOM     61  C   UNL     1       3.709   9.375  -4.060  1.00  0.00     0.049 A 
ATOM     62  H   UNL     1       5.205   8.900  -2.663  1.00  0.00     0.167 HD
ATOM     63  C   UNL     1       1.559   8.925  -3.105  1.00  0.00     0.074 A 
ATOM     64  C   UNL     1       0.210   8.984  -2.572  1.00  0.00     0.031 C 
ATOM     65  C   UNL     1       2.653   9.738  -3.116  1.00  0.00     0.031 A 
BRANCH  52  66
ATOM     66  C   UNL     1       8.432   8.566  -5.233  1.00  0.00    -0.014 A 
ATOM     67  C   UNL     1       8.357   9.321  -6.417  1.00  0.00     0.010 A 
ATOM     68  C   UNL     1       9.718   8.089  -4.899  1.00  0.00     0.010 A 
ATOM     69  C   UNL     1       9.465   9.506  -7.259  1.00  0.00     0.020 A 
ATOM     70  C   UNL     1      10.822   8.214  -5.752  1.00  0.00     0.020 A 
ATOM     71  C   UNL     1      10.690   8.934  -6.929  1.00  0.00     0.054 A 
BRANCH  71  72
ATOM     72  S   UNL     1      12.115   9.191  -8.012  1.00  0.00     0.124 S 
ATOM     73  O   UNL     1      11.609   8.765  -9.314  1.00  0.00    -0.237 OA
ATOM     74  O   UNL     1      12.355  10.623  -7.865  1.00  0.00    -0.237 OA
ATOM     75  O   UNL     1      13.146   8.326  -7.440  1.00  0.00    -0.744 OA
ENDBRANCH  71  72
ENDBRANCH  52  66
BRANCH  53  76
ATOM     76  C   UNL     1      -0.778   4.720  -3.954  1.00  0.00    -0.014 A 
ATOM     77  C   UNL     1      -1.455   4.060  -5.012  1.00  0.00     0.010 A 
ATOM     78  C   UNL     1      -1.011   4.190  -2.671  1.00  0.00     0.010 A 
ATOM     79  C   UNL     1      -2.158   2.842  -4.834  1.00  0.00     0.020 A 
ATOM     80  C   UNL     1      -1.703   2.948  -2.484  1.00  0.00     0.020 A 
ATOM     81  C   UNL     1      -2.242   2.259  -3.575  1.00  0.00     0.054 A 
BRANCH  81  82
ATOM     82  S   UNL     1      -2.895   0.546  -3.446  1.00  0.00     0.124 S 
ATOM     83  O   UNL     1      -4.339   0.736  -3.512  1.00  0.00    -0.237 OA
ATOM     84  O   UNL     1      -2.332  -0.149  -4.601  1.00  0.00    -0.237 OA
ATOM     85  O   UNL     1      -2.396   0.072  -2.155  1.00  0.00    -0.744 OA
ENDBRANCH  81  82
ENDBRANCH  53  76
BRANCH  65  86
ATOM     86  C   UNL     1       2.836  11.018  -2.354  1.00  0.00    -0.014 A 
ATOM     87  C   UNL     1       2.140  11.360  -1.190  1.00  0.00     0.010 A 
ATOM     88  C   UNL     1       3.881  11.884  -2.768  1.00  0.00     0.010 A 
ATOM     89  C   UNL     1       2.454  12.536  -0.492  1.00  0.00     0.020 A 
ATOM     90  C   UNL     1       4.231  13.025  -2.059  1.00  0.00     0.020 A 
ATOM     91  C   UNL     1       3.497  13.358  -0.932  1.00  0.00     0.054 A 
BRANCH  91  92
ATOM     92  S   UNL     1       3.933  14.841   0.002  1.00  0.00     0.124 S 
ATOM     93  O   UNL     1       2.957  15.805  -0.497  1.00  0.00    -0.237 OA
ATOM     94  O   UNL     1       3.749  14.417   1.387  1.00  0.00    -0.237 OA
ATOM     95  O   UNL     1       5.319  15.096  -0.385  1.00  0.00    -0.744 OA
ENDBRANCH  91  92
ENDBRANCH  65  86
ENDBRANCH  39  40
ENDBRANCH  32  34
ENDBRANCH  31  32
ENDBRANCH  30  31
ENDBRANCH  29  30
ENDBRANCH  28  29
ENDBRANCH  27  28
ENDBRANCH  26  27
ENDBRANCH   1  26
TORSDOF 26
