REMARK SMILES C[C@@H](C(=O)OCCOCCOCCOC(=O)c1ccc(-c2c3nc(c(-c4ccc(S(=O)(=O)[O-])cc4)c4ccc([nH]4)c(-c4ccc(S(=O)(=O)[O-])cc4)c4nc(c(-c5ccc(S(=O)(=O)[O-])cc5)c5ccc2[nH]5)C=C4)C=C3)cc1)[C@@H](C)C(=O)c1cccc(Cl)c1
REMARK SMILES IDX 9 1 8 2 7 3 6 4 5 5 3 6 4 7 2 8 1 9 77 10 78 11 79 12 80 13
REMARK SMILES IDX 81 14 82 15 87 16 83 17 85 18 84 19 86 20 10 21 11 22 12 23
REMARK SMILES IDX 13 24 14 25 15 26 16 27 17 28 18 29 76 30 19 31 75 32 20 33
REMARK SMILES IDX 21 34 22 35 69 36 23 37 74 38 68 39 70 40 24 41 73 42 67 43
REMARK SMILES IDX 66 44 25 46 55 47 36 48 54 49 37 50 40 51 53 52 71 53 38 54
REMARK SMILES IDX 39 55 52 57 72 58 41 59 26 60 27 61 35 62 28 63 34 64 29 65
REMARK SMILES IDX 30 66 31 67 32 68 33 69 56 70 57 71 65 72 58 73 64 74 59 75
REMARK SMILES IDX 60 76 61 77 62 78 63 79 42 80 43 81 51 82 44 83 50 84 45 85
REMARK SMILES IDX 46 86 47 87 48 88 49 89
REMARK H PARENT 70 45 40 56
REMARK Flexibility Score: inf
ROOT
ATOM      1  C   UNL     1       0.291  -3.419   1.995  1.00  0.00     0.188 C 
ENDROOT
BRANCH   1   2
ATOM      2  O   UNL     1       1.109  -4.551   2.217  1.00  0.00    -0.376 OA
BRANCH   2   3
ATOM      3  C   UNL     1       2.404  -4.601   1.632  1.00  0.00     0.202 C 
BRANCH   3   4
ATOM      4  C   UNL     1       2.683  -4.066   0.215  1.00  0.00     0.261 C 
BRANCH   4   5
ATOM      5  O   UNL     1       2.266  -2.708  -0.050  1.00  0.00    -0.463 OA
BRANCH   5   6
ATOM      6  C   UNL     1       1.370  -2.567  -1.052  1.00  0.00     0.309 C 
ATOM      7  O   UNL     1       1.001  -3.516  -1.736  1.00  0.00    -0.252 OA
BRANCH   6   8
ATOM      8  C   UNL     1       0.833  -1.141  -1.294  1.00  0.00     0.106 C 
ATOM      9  C   UNL     1       1.425   0.001  -0.453  1.00  0.00     0.021 C 
BRANCH   8  10
ATOM     10  C   UNL     1      -0.718  -1.159  -1.268  1.00  0.00     0.072 C 
ATOM     11  C   UNL     1      -1.380   0.163  -1.661  1.00  0.00     0.017 C 
BRANCH  10  12
ATOM     12  C   UNL     1      -1.446  -2.294  -2.012  1.00  0.00     0.166 C 
ATOM     13  O   UNL     1      -2.297  -2.947  -1.399  1.00  0.00    -0.294 OA
BRANCH  12  14
ATOM     14  C   UNL     1      -1.268  -2.565  -3.480  1.00  0.00     0.019 A 
ATOM     15  C   UNL     1      -2.364  -3.085  -4.182  1.00  0.00     0.012 A 
ATOM     16  C   UNL     1      -0.058  -2.423  -4.166  1.00  0.00     0.032 A 
ATOM     17  C   UNL     1      -2.246  -3.442  -5.531  1.00  0.00     0.002 A 
ATOM     18  C   UNL     1       0.065  -2.799  -5.502  1.00  0.00     0.041 A 
ATOM     19  C   UNL     1      -1.027  -3.303  -6.192  1.00  0.00     0.020 A 
ATOM     20  Cl  UNL     1       1.599  -2.668  -6.275  1.00  0.00    -0.084 Cl
ENDBRANCH  12  14
ENDBRANCH  10  12
ENDBRANCH   8  10
ENDBRANCH   6   8
ENDBRANCH   5   6
ENDBRANCH   4   5
ENDBRANCH   3   4
ENDBRANCH   2   3
ENDBRANCH   1   2
BRANCH   1  21
ATOM     21  C   UNL     1       0.868  -2.032   2.291  1.00  0.00     0.188 C 
BRANCH  21  22
ATOM     22  O   UNL     1       2.249  -1.930   2.526  1.00  0.00    -0.376 OA
BRANCH  22  23
ATOM     23  C   UNL     1       2.771  -1.918   3.842  1.00  0.00     0.202 C 
BRANCH  23  24
ATOM     24  C   UNL     1       1.990  -2.262   5.126  1.00  0.00     0.261 C 
BRANCH  24  25
ATOM     25  O   UNL     1       0.561  -2.273   5.083  1.00  0.00    -0.460 OA
BRANCH  25  26
ATOM     26  C   UNL     1      -0.061  -1.076   5.216  1.00  0.00     0.338 C 
ATOM     27  O   UNL     1       0.471   0.011   5.374  1.00  0.00    -0.246 OA
BRANCH  26  28
ATOM     28  C   UNL     1      -1.486  -1.280   4.864  1.00  0.00     0.060 A 
ATOM     29  C   UNL     1      -2.019  -0.588   3.765  1.00  0.00     0.016 A 
ATOM     30  C   UNL     1      -2.275  -2.184   5.577  1.00  0.00     0.016 A 
ATOM     31  C   UNL     1      -3.348  -0.782   3.388  1.00  0.00     0.010 A 
ATOM     32  C   UNL     1      -3.616  -2.351   5.220  1.00  0.00     0.010 A 
ATOM     33  C   UNL     1      -4.167  -1.630   4.143  1.00  0.00    -0.014 A 
BRANCH  33  34
ATOM     34  C   UNL     1      -5.638  -1.604   3.954  1.00  0.00     0.031 A 
ATOM     35  C   UNL     1      -6.453  -0.751   4.890  1.00  0.00     0.074 A 
ATOM     36  C   UNL     1      -6.244  -2.310   2.983  1.00  0.00     0.049 A 
ATOM     37  N   UNL     1      -7.751  -0.626   4.983  1.00  0.00    -0.248 NA
ATOM     38  C   UNL     1      -5.698   0.068   5.854  1.00  0.00     0.031 C 
ATOM     39  C   UNL     1      -5.569  -3.119   1.971  1.00  0.00     0.029 A 
ATOM     40  N   UNL     1      -7.580  -2.462   2.702  1.00  0.00    -0.354 N 
ATOM     41  C   UNL     1      -7.969   0.269   6.025  1.00  0.00     0.074 A 
ATOM     42  C   UNL     1      -6.672   0.637   6.547  1.00  0.00     0.031 C 
ATOM     43  C   UNL     1      -6.498  -3.696   1.186  1.00  0.00     0.029 A 
ATOM     44  C   UNL     1      -7.830  -3.330   1.665  1.00  0.00     0.049 A 
ATOM     45  H   UNL     1      -8.292  -1.995   3.196  1.00  0.00     0.167 HD
ATOM     46  C   UNL     1      -9.143   0.741   6.505  1.00  0.00     0.031 A 
ATOM     47  C   UNL     1      -9.000  -3.793   1.177  1.00  0.00     0.031 A 
ATOM     48  C   UNL     1     -10.433   0.362   5.994  1.00  0.00     0.049 A 
ATOM     49  C   UNL     1     -10.297  -3.324   1.790  1.00  0.00     0.074 A 
ATOM     50  C   UNL     1     -11.680   0.800   6.403  1.00  0.00     0.029 A 
ATOM     51  N   UNL     1     -10.644  -0.552   4.973  1.00  0.00    -0.354 N 
ATOM     52  N   UNL     1     -10.491  -2.461   2.760  1.00  0.00    -0.248 NA
ATOM     53  C   UNL     1     -11.537  -3.889   1.235  1.00  0.00     0.031 C 
ATOM     54  C   UNL     1     -12.648   0.099   5.677  1.00  0.00     0.029 A 
ATOM     55  C   UNL     1     -12.002  -0.718   4.762  1.00  0.00     0.049 A 
ATOM     56  H   UNL     1      -9.934  -1.014   4.472  1.00  0.00     0.167 HD
ATOM     57  C   UNL     1     -11.872  -2.353   2.904  1.00  0.00     0.074 A 
ATOM     58  C   UNL     1     -12.465  -3.230   1.917  1.00  0.00     0.031 C 
ATOM     59  C   UNL     1     -12.584  -1.592   3.773  1.00  0.00     0.031 A 
BRANCH  46  60
ATOM     60  C   UNL     1      -9.086   1.685   7.678  1.00  0.00    -0.014 A 
ATOM     61  C   UNL     1      -8.591   2.995   7.544  1.00  0.00     0.010 A 
ATOM     62  C   UNL     1      -9.570   1.261   8.929  1.00  0.00     0.010 A 
ATOM     63  C   UNL     1      -8.548   3.849   8.649  1.00  0.00     0.020 A 
ATOM     64  C   UNL     1      -9.558   2.123  10.028  1.00  0.00     0.020 A 
ATOM     65  C   UNL     1      -9.032   3.407   9.884  1.00  0.00     0.054 A 
BRANCH  65  66
ATOM     66  S   UNL     1      -8.986   4.547  11.294  1.00  0.00     0.124 S 
ATOM     67  O   UNL     1      -7.555   4.617  11.578  1.00  0.00    -0.237 OA
ATOM     68  O   UNL     1      -9.577   5.762  10.741  1.00  0.00    -0.237 OA
ATOM     69  O   UNL     1      -9.789   3.874  12.312  1.00  0.00    -0.744 OA
ENDBRANCH  65  66
ENDBRANCH  46  60
BRANCH  47  70
ATOM     70  C   UNL     1      -9.007  -4.774   0.054  1.00  0.00    -0.014 A 
ATOM     71  C   UNL     1      -9.514  -4.417  -1.208  1.00  0.00     0.010 A 
ATOM     72  C   UNL     1      -8.521  -6.081   0.246  1.00  0.00     0.010 A 
ATOM     73  C   UNL     1      -9.552  -5.349  -2.249  1.00  0.00     0.020 A 
ATOM     74  C   UNL     1      -8.528  -7.008  -0.802  1.00  0.00     0.020 A 
ATOM     75  C   UNL     1      -9.054  -6.639  -2.041  1.00  0.00     0.054 A 
BRANCH  75  76
ATOM     76  S   UNL     1      -9.070  -7.814  -3.423  1.00  0.00     0.124 S 
ATOM     77  O   UNL     1     -10.495  -8.099  -3.565  1.00  0.00    -0.237 OA
ATOM     78  O   UNL     1      -8.470  -7.036  -4.504  1.00  0.00    -0.237 OA
ATOM     79  O   UNL     1      -8.255  -8.926  -2.939  1.00  0.00    -0.744 OA
ENDBRANCH  75  76
ENDBRANCH  47  70
BRANCH  59  80
ATOM     80  C   UNL     1     -14.089  -1.627   3.670  1.00  0.00    -0.014 A 
ATOM     81  C   UNL     1     -14.828  -2.760   4.056  1.00  0.00     0.010 A 
ATOM     82  C   UNL     1     -14.778  -0.477   3.240  1.00  0.00     0.010 A 
ATOM     83  C   UNL     1     -16.225  -2.752   3.981  1.00  0.00     0.020 A 
ATOM     84  C   UNL     1     -16.175  -0.454   3.196  1.00  0.00     0.020 A 
ATOM     85  C   UNL     1     -16.889  -1.598   3.553  1.00  0.00     0.054 A 
BRANCH  85  86
ATOM     86  S   UNL     1     -18.703  -1.600   3.509  1.00  0.00     0.124 S 
ATOM     87  O   UNL     1     -18.980  -2.476   2.374  1.00  0.00    -0.237 OA
ATOM     88  O   UNL     1     -19.055  -2.140   4.820  1.00  0.00    -0.237 OA
ATOM     89  O   UNL     1     -19.048  -0.194   3.308  1.00  0.00    -0.744 OA
ENDBRANCH  85  86
ENDBRANCH  59  80
ENDBRANCH  33  34
ENDBRANCH  26  28
ENDBRANCH  25  26
ENDBRANCH  24  25
ENDBRANCH  23  24
ENDBRANCH  22  23
ENDBRANCH  21  22
ENDBRANCH   1  21
TORSDOF 23
