REMARK SMILES Cc1nc(SCc2ccccc2)[nH]c(=O)c1CCC(=O)OCCOCCOCCOC(=O)c1ccc(-c2c3nc(c(-c4ccc(S(=O)(=O)[O-])cc4)c4ccc([nH]4)c(-c4ccc(S(=O)(=O)[O-])cc4)c4nc(c(-c5ccc(S(=O)(=O)[O-])cc5)c5ccc2[nH]5)C=C4)C=C3)cc1
REMARK SMILES IDX 25 1 24 2 23 3 22 4 21 5 19 6 20 7 18 8 17 9 16 10 1 11 2 12
REMARK SMILES IDX 3 13 4 14 14 15 13 16 15 17 5 19 6 20 7 21 8 22 12 23 9 24
REMARK SMILES IDX 11 25 10 26 26 27 27 28 28 29 29 30 30 31 31 32 32 33 33 34
REMARK SMILES IDX 34 35 92 36 35 37 91 38 36 39 37 40 38 41 85 42 39 43 90 44
REMARK SMILES IDX 84 45 86 46 40 47 89 48 83 49 82 50 41 52 71 53 52 54 70 55
REMARK SMILES IDX 53 56 56 57 69 58 87 59 54 60 55 61 68 63 88 64 57 65 42 66
REMARK SMILES IDX 43 67 51 68 44 69 50 70 45 71 46 72 47 73 48 74 49 75 72 76
REMARK SMILES IDX 73 77 81 78 74 79 80 80 75 81 76 82 77 83 78 84 79 85 58 86
REMARK SMILES IDX 59 87 67 88 60 89 66 90 61 91 62 92 63 93 64 94 65 95
REMARK H PARENT 13 18 86 51 56 62
REMARK Flexibility Score: inf
ROOT
ATOM      1  C   UNL     1       3.443  -3.014  -0.270  1.00  0.00     0.188 C 
ENDROOT
BRANCH   1   2
ATOM      2  O   UNL     1       4.693  -2.632  -0.823  1.00  0.00    -0.376 OA
BRANCH   2   3
ATOM      3  C   UNL     1       4.686  -1.319  -1.383  1.00  0.00     0.202 C 
BRANCH   3   4
ATOM      4  C   UNL     1       3.916  -1.165  -2.718  1.00  0.00     0.261 C 
BRANCH   4   5
ATOM      5  O   UNL     1       2.470  -1.198  -2.603  1.00  0.00    -0.463 OA
BRANCH   5   6
ATOM      6  C   UNL     1       1.844  -2.385  -2.791  1.00  0.00     0.306 C 
ATOM      7  O   UNL     1       2.373  -3.379  -3.271  1.00  0.00    -0.252 OA
BRANCH   6   8
ATOM      8  C   UNL     1       0.392  -2.364  -2.327  1.00  0.00     0.128 C 
BRANCH   8   9
ATOM      9  C   UNL     1       0.069  -2.158  -0.827  1.00  0.00     0.055 C 
BRANCH   9  10
ATOM     10  C   UNL     1      -0.158  -0.750  -0.304  1.00  0.00     0.039 A 
ATOM     11  C   UNL     1      -2.571  -1.096   0.311  1.00  0.00     0.067 C 
ATOM     12  C   UNL     1      -1.307  -0.274   0.231  1.00  0.00     0.049 A 
ATOM     13  N   UNL     1      -1.500   1.042   0.619  1.00  0.00    -0.229 NA
ATOM     14  C   UNL     1      -0.562   1.876   0.333  1.00  0.00     0.168 A 
ATOM     15  C   UNL     1       0.972   0.216  -0.272  1.00  0.00     0.254 A 
ATOM     16  N   UNL     1       0.650   1.516  -0.117  1.00  0.00    -0.301 N 
ATOM     17  O   UNL     1       2.147  -0.088  -0.376  1.00  0.00    -0.269 OA
ATOM     18  H   UNL     1       1.313   2.210  -0.338  1.00  0.00     0.172 HD
BRANCH  14  19
ATOM     19  S   UNL     1      -0.715   3.595   0.393  1.00  0.00    -0.083 SA
BRANCH  19  20
ATOM     20  C   UNL     1      -2.463   3.806   0.009  1.00  0.00     0.113 C 
BRANCH  20  21
ATOM     21  C   UNL     1      -2.966   3.467  -1.385  1.00  0.00    -0.038 A 
ATOM     22  C   UNL     1      -3.772   4.392  -2.064  1.00  0.00     0.004 A 
ATOM     23  C   UNL     1      -2.832   2.198  -1.966  1.00  0.00     0.004 A 
ATOM     24  C   UNL     1      -4.450   4.037  -3.237  1.00  0.00     0.000 A 
ATOM     25  C   UNL     1      -3.513   1.832  -3.127  1.00  0.00     0.000 A 
ATOM     26  C   UNL     1      -4.337   2.749  -3.756  1.00  0.00     0.000 A 
ENDBRANCH  20  21
ENDBRANCH  19  20
ENDBRANCH  14  19
ENDBRANCH   9  10
ENDBRANCH   8   9
ENDBRANCH   6   8
ENDBRANCH   5   6
ENDBRANCH   4   5
ENDBRANCH   3   4
ENDBRANCH   2   3
ENDBRANCH   1   2
BRANCH   1  27
ATOM     27  C   UNL     1       3.380  -2.952   1.237  1.00  0.00     0.188 C 
BRANCH  27  28
ATOM     28  O   UNL     1       2.914  -1.716   1.783  1.00  0.00    -0.376 OA
BRANCH  28  29
ATOM     29  C   UNL     1       3.909  -0.959   2.459  1.00  0.00     0.202 C 
BRANCH  29  30
ATOM     30  C   UNL     1       4.344  -1.500   3.838  1.00  0.00     0.261 C 
BRANCH  30  31
ATOM     31  O   UNL     1       4.470  -2.931   3.901  1.00  0.00    -0.460 OA
BRANCH  31  32
ATOM     32  C   UNL     1       3.322  -3.607   4.180  1.00  0.00     0.338 C 
ATOM     33  O   UNL     1       2.268  -3.123   4.564  1.00  0.00    -0.246 OA
BRANCH  32  34
ATOM     34  C   UNL     1       3.462  -5.016   3.721  1.00  0.00     0.060 A 
ATOM     35  C   UNL     1       2.379  -5.613   3.050  1.00  0.00     0.016 A 
ATOM     36  C   UNL     1       4.655  -5.724   3.873  1.00  0.00     0.016 A 
ATOM     37  C   UNL     1       2.484  -6.908   2.538  1.00  0.00     0.010 A 
ATOM     38  C   UNL     1       4.746  -7.037   3.400  1.00  0.00     0.010 A 
ATOM     39  C   UNL     1       3.652  -7.646   2.756  1.00  0.00    -0.014 A 
BRANCH  39  40
ATOM     40  C   UNL     1       3.644  -9.118   2.564  1.00  0.00     0.031 A 
ATOM     41  C   UNL     1       3.367  -9.970   3.775  1.00  0.00     0.074 A 
ATOM     42  C   UNL     1       3.872  -9.696   1.371  1.00  0.00     0.049 A 
ATOM     43  N   UNL     1       3.403 -11.270   3.905  1.00  0.00    -0.248 NA
ATOM     44  C   UNL     1       3.007  -9.250   5.010  1.00  0.00     0.031 C 
ATOM     45  C   UNL     1       4.087  -8.990   0.109  1.00  0.00     0.029 A 
ATOM     46  N   UNL     1       3.972 -11.025   1.034  1.00  0.00    -0.354 N 
ATOM     47  C   UNL     1       3.092 -11.521   5.237  1.00  0.00     0.074 A 
ATOM     48  C   UNL     1       2.895 -10.241   5.879  1.00  0.00     0.031 C 
ATOM     49  C   UNL     1       4.311  -9.894  -0.863  1.00  0.00     0.029 A 
ATOM     50  C   UNL     1       4.298 -11.239  -0.285  1.00  0.00     0.049 A 
ATOM     51  H   UNL     1       3.824 -11.756   1.677  1.00  0.00     0.167 HD
ATOM     52  C   UNL     1       2.980 -12.710   5.871  1.00  0.00     0.031 A 
ATOM     53  C   UNL     1       4.582 -12.384  -0.941  1.00  0.00     0.031 A 
ATOM     54  C   UNL     1       3.193 -13.981   5.234  1.00  0.00     0.049 A 
ATOM     55  C   UNL     1       4.540 -13.696  -0.194  1.00  0.00     0.074 A 
ATOM     56  C   UNL     1       3.095 -15.245   5.788  1.00  0.00     0.029 A 
ATOM     57  N   UNL     1       3.554 -14.151   3.907  1.00  0.00    -0.354 N 
ATOM     58  N   UNL     1       4.234 -13.922   1.063  1.00  0.00    -0.248 NA
ATOM     59  C   UNL     1       4.877 -14.909  -0.954  1.00  0.00     0.031 C 
ATOM     60  C   UNL     1       3.463 -16.176   4.813  1.00  0.00     0.029 A 
ATOM     61  C   UNL     1       3.711 -15.497   3.630  1.00  0.00     0.049 A 
ATOM     62  H   UNL     1       3.680 -13.421   3.257  1.00  0.00     0.167 HD
ATOM     63  C   UNL     1       4.302 -15.303   1.230  1.00  0.00     0.074 A 
ATOM     64  C   UNL     1       4.675 -15.862  -0.053  1.00  0.00     0.031 C 
ATOM     65  C   UNL     1       4.070 -16.042   2.344  1.00  0.00     0.031 A 
BRANCH  52  66
ATOM     66  C   UNL     1       2.659 -12.687   7.342  1.00  0.00    -0.014 A 
ATOM     67  C   UNL     1       1.395 -12.284   7.811  1.00  0.00     0.010 A 
ATOM     68  C   UNL     1       3.631 -13.105   8.269  1.00  0.00     0.010 A 
ATOM     69  C   UNL     1       1.124 -12.262   9.182  1.00  0.00     0.020 A 
ATOM     70  C   UNL     1       3.353 -13.117   9.638  1.00  0.00     0.020 A 
ATOM     71  C   UNL     1       2.105 -12.680  10.087  1.00  0.00     0.054 A 
BRANCH  71  72
ATOM     72  S   UNL     1       1.716 -12.666  11.858  1.00  0.00     0.124 S 
ATOM     73  O   UNL     1       1.673 -11.235  12.146  1.00  0.00    -0.237 OA
ATOM     74  O   UNL     1       0.429 -13.355  11.906  1.00  0.00    -0.237 OA
ATOM     75  O   UNL     1       2.830 -13.390  12.465  1.00  0.00    -0.744 OA
ENDBRANCH  71  72
ENDBRANCH  52  66
BRANCH  53  76
ATOM     76  C   UNL     1       4.959 -12.347  -2.384  1.00  0.00    -0.014 A 
ATOM     77  C   UNL     1       4.119 -12.909  -3.363  1.00  0.00     0.010 A 
ATOM     78  C   UNL     1       6.171 -11.757  -2.788  1.00  0.00     0.010 A 
ATOM     79  C   UNL     1       4.490 -12.894  -4.712  1.00  0.00     0.020 A 
ATOM     80  C   UNL     1       6.532 -11.712  -4.138  1.00  0.00     0.020 A 
ATOM     81  C   UNL     1       5.693 -12.290  -5.092  1.00  0.00     0.054 A 
BRANCH  81  82
ATOM     82  S   UNL     1       6.127 -12.238  -6.854  1.00  0.00     0.124 S 
ATOM     83  O   UNL     1       6.434 -13.636  -7.134  1.00  0.00    -0.237 OA
ATOM     84  O   UNL     1       4.902 -11.725  -7.463  1.00  0.00    -0.237 OA
ATOM     85  O   UNL     1       7.267 -11.325  -6.899  1.00  0.00    -0.744 OA
ENDBRANCH  81  82
ENDBRANCH  53  76
BRANCH  65  86
ATOM     86  C   UNL     1       4.146 -17.544   2.229  1.00  0.00    -0.014 A 
ATOM     87  C   UNL     1       5.373 -18.212   2.079  1.00  0.00     0.010 A 
ATOM     88  C   UNL     1       2.967 -18.302   2.368  1.00  0.00     0.010 A 
ATOM     89  C   UNL     1       5.417 -19.610   2.052  1.00  0.00     0.020 A 
ATOM     90  C   UNL     1       3.011 -19.698   2.373  1.00  0.00     0.020 A 
ATOM     91  C   UNL     1       4.236 -20.344   2.205  1.00  0.00     0.054 A 
BRANCH  91  92
ATOM     92  S   UNL     1       4.331 -22.156   2.234  1.00  0.00     0.124 S 
ATOM     93  O   UNL     1       4.643 -22.468   0.842  1.00  0.00    -0.237 OA
ATOM     94  O   UNL     1       5.406 -22.404   3.191  1.00  0.00    -0.237 OA
ATOM     95  O   UNL     1       3.001 -22.567   2.680  1.00  0.00    -0.744 OA
ENDBRANCH  91  92
ENDBRANCH  65  86
ENDBRANCH  39  40
ENDBRANCH  32  34
ENDBRANCH  31  32
ENDBRANCH  30  31
ENDBRANCH  29  30
ENDBRANCH  28  29
ENDBRANCH  27  28
ENDBRANCH   1  27
TORSDOF 25
