REMARK SMILES NC(=O)c1cc(NC(=O)/C=C\C(=O)OCCOCCOCCOC(=O)c2ccc(-c3c4nc(c(-c5ccc(S(=O)(=O)[O-])cc5)c5ccc([nH]5)c(-c5ccc(S(=O)(=O)[O-])cc5)c5nc(c(-c6ccc(S(=O)(=O)[O-])cc6)c6ccc3[nH]6)C=C5)C=C4)cc2)ccc1N1CCOCC1
REMARK SMILES IDX 18 1 17 2 16 3 15 4 14 5 12 6 13 7 11 8 10 9 8 10 7 11 9 13
REMARK SMILES IDX 6 14 4 15 5 16 88 17 87 18 86 19 2 20 1 21 3 24 89 25 90 26
REMARK SMILES IDX 94 27 91 28 93 29 92 30 19 31 20 32 21 33 22 34 23 35 24 36
REMARK SMILES IDX 25 37 26 38 27 39 85 40 28 41 84 42 29 43 30 44 31 45 78 46
REMARK SMILES IDX 32 47 83 48 77 49 79 50 33 51 82 52 76 53 75 54 34 56 64 57
REMARK SMILES IDX 45 58 63 59 46 60 49 61 62 62 80 63 47 64 48 65 61 67 81 68
REMARK SMILES IDX 50 69 35 70 36 71 44 72 37 73 43 74 38 75 39 76 40 77 41 78
REMARK SMILES IDX 42 79 65 80 66 81 74 82 67 83 73 84 68 85 69 86 70 87 71 88
REMARK SMILES IDX 72 89 51 90 52 91 60 92 53 93 59 94 54 95 55 96 56 97 57 98
REMARK SMILES IDX 58 99
REMARK H PARENT 7 12 1 22 1 23 79 55 49 66
REMARK Flexibility Score: inf
ROOT
ATOM      1  C   UNL     1       3.699   3.178  -0.470  1.00  0.00     0.188 C 
ENDROOT
BRANCH   1   2
ATOM      2  O   UNL     1       4.290   3.055  -1.762  1.00  0.00    -0.376 OA
BRANCH   2   3
ATOM      3  C   UNL     1       3.381   2.969  -2.852  1.00  0.00     0.202 C 
BRANCH   3   4
ATOM      4  C   UNL     1       2.836   4.320  -3.319  1.00  0.00     0.261 C 
BRANCH   4   5
ATOM      5  O   UNL     1       1.471   4.700  -3.010  1.00  0.00    -0.460 OA
BRANCH   5   6
ATOM      6  C   UNL     1       0.681   4.056  -2.133  1.00  0.00     0.331 C 
ATOM      7  O   UNL     1       0.968   3.126  -1.398  1.00  0.00    -0.247 OA
BRANCH   6   8
ATOM      8  C   UNL     1      -0.653   4.658  -2.078  1.00  0.00     0.099 C 
ATOM      9  C   UNL     1      -1.405   4.973  -3.141  1.00  0.00     0.079 C 
BRANCH   9  10
ATOM     10  C   UNL     1      -1.027   4.881  -4.570  1.00  0.00     0.248 C 
ATOM     11  N   UNL     1      -0.463   3.769  -5.130  1.00  0.00    -0.322 N 
ATOM     12  H   UNL     1      -0.165   3.900  -6.060  1.00  0.00     0.170 HD
ATOM     13  O   UNL     1      -1.205   5.880  -5.270  1.00  0.00    -0.270 OA
BRANCH  11  14
ATOM     14  C   UNL     1      -0.226   2.474  -4.637  1.00  0.00     0.042 A 
ATOM     15  C   UNL     1      -0.454   0.772  -2.921  1.00  0.00     0.064 A 
ATOM     16  C   UNL     1      -0.957   1.894  -3.609  1.00  0.00     0.042 A 
ATOM     17  C   UNL     1       0.751   0.149  -3.322  1.00  0.00     0.050 A 
ATOM     18  C   UNL     1       1.358   0.640  -4.491  1.00  0.00     0.029 A 
ATOM     19  C   UNL     1       0.877   1.786  -5.143  1.00  0.00     0.028 A 
BRANCH  15  20
ATOM     20  C   UNL     1      -1.185   0.453  -1.661  1.00  0.00     0.250 C 
ATOM     21  N   UNL     1      -0.429   0.104  -0.582  1.00  0.00    -0.366 N 
ATOM     22  H   UNL     1      -0.865  -0.117   0.274  1.00  0.00     0.159 HD
ATOM     23  H   UNL     1       0.552   0.071  -0.657  1.00  0.00     0.159 HD
ATOM     24  O   UNL     1      -2.400   0.587  -1.580  1.00  0.00    -0.269 OA
ENDBRANCH  15  20
BRANCH  17  25
ATOM     25  N   UNL     1       1.348  -0.869  -2.588  1.00  0.00    -0.366 N 
ATOM     26  C   UNL     1       0.715  -2.203  -2.635  1.00  0.00     0.145 C 
ATOM     27  C   UNL     1       2.801  -0.902  -2.356  1.00  0.00     0.145 C 
ATOM     28  C   UNL     1       1.121  -3.014  -1.391  1.00  0.00     0.181 C 
ATOM     29  C   UNL     1       3.096  -1.750  -1.109  1.00  0.00     0.181 C 
ATOM     30  O   UNL     1       2.553  -3.071  -1.242  1.00  0.00    -0.378 OA
ENDBRANCH  17  25
ENDBRANCH  11  14
ENDBRANCH   9  10
ENDBRANCH   6   8
ENDBRANCH   5   6
ENDBRANCH   4   5
ENDBRANCH   3   4
ENDBRANCH   2   3
ENDBRANCH   1   2
BRANCH   1  31
ATOM     31  C   UNL     1       3.271   4.611  -0.105  1.00  0.00     0.188 C 
BRANCH  31  32
ATOM     32  O   UNL     1       4.139   5.681  -0.467  1.00  0.00    -0.376 OA
BRANCH  32  33
ATOM     33  C   UNL     1       5.538   5.462  -0.355  1.00  0.00     0.202 C 
BRANCH  33  34
ATOM     34  C   UNL     1       6.088   5.359   1.071  1.00  0.00     0.261 C 
BRANCH  34  35
ATOM     35  O   UNL     1       5.536   4.246   1.802  1.00  0.00    -0.460 OA
BRANCH  35  36
ATOM     36  C   UNL     1       4.685   4.577   2.809  1.00  0.00     0.338 C 
ATOM     37  O   UNL     1       4.444   5.693   3.220  1.00  0.00    -0.246 OA
BRANCH  36  38
ATOM     38  C   UNL     1       3.897   3.386   3.220  1.00  0.00     0.060 A 
ATOM     39  C   UNL     1       2.509   3.543   3.354  1.00  0.00     0.016 A 
ATOM     40  C   UNL     1       4.496   2.163   3.524  1.00  0.00     0.016 A 
ATOM     41  C   UNL     1       1.724   2.505   3.854  1.00  0.00     0.010 A 
ATOM     42  C   UNL     1       3.714   1.131   4.060  1.00  0.00     0.010 A 
ATOM     43  C   UNL     1       2.334   1.318   4.274  1.00  0.00    -0.014 A 
BRANCH  43  44
ATOM     44  C   UNL     1       1.603   0.422   5.205  1.00  0.00     0.031 A 
ATOM     45  C   UNL     1       1.734   0.700   6.682  1.00  0.00     0.074 A 
ATOM     46  C   UNL     1       0.833  -0.594   4.777  1.00  0.00     0.049 A 
ATOM     47  N   UNL     1       1.269   0.025   7.700  1.00  0.00    -0.248 NA
ATOM     48  C   UNL     1       2.495   1.905   7.058  1.00  0.00     0.031 C 
ATOM     49  C   UNL     1       0.566  -0.933   3.380  1.00  0.00     0.029 A 
ATOM     50  N   UNL     1       0.138  -1.539   5.492  1.00  0.00    -0.354 N 
ATOM     51  C   UNL     1       1.693   0.712   8.832  1.00  0.00     0.074 A 
ATOM     52  C   UNL     1       2.458   1.851   8.380  1.00  0.00     0.031 C 
ATOM     53  C   UNL     1      -0.218  -2.027   3.341  1.00  0.00     0.029 A 
ATOM     54  C   UNL     1      -0.479  -2.484   4.707  1.00  0.00     0.049 A 
ATOM     55  H   UNL     1       0.087  -1.540   6.475  1.00  0.00     0.167 HD
ATOM     56  C   UNL     1       1.473   0.421  10.134  1.00  0.00     0.031 A 
ATOM     57  C   UNL     1      -1.147  -3.604   5.054  1.00  0.00     0.031 A 
ATOM     58  C   UNL     1       0.728  -0.717  10.593  1.00  0.00     0.049 A 
ATOM     59  C   UNL     1      -1.311  -3.952   6.515  1.00  0.00     0.074 A 
ATOM     60  C   UNL     1       0.453  -1.096  11.895  1.00  0.00     0.029 A 
ATOM     61  N   UNL     1       0.146  -1.663   9.765  1.00  0.00    -0.354 N 
ATOM     62  N   UNL     1      -0.911  -3.288   7.574  1.00  0.00    -0.248 NA
ATOM     63  C   UNL     1      -2.016  -5.206   6.826  1.00  0.00     0.031 C 
ATOM     64  C   UNL     1      -0.255  -2.301  11.855  1.00  0.00     0.029 A 
ATOM     65  C   UNL     1      -0.465  -2.641  10.528  1.00  0.00     0.049 A 
ATOM     66  H   UNL     1       0.166  -1.643   8.781  1.00  0.00     0.167 HD
ATOM     67  C   UNL     1      -1.337  -4.031   8.672  1.00  0.00     0.074 A 
ATOM     68  C   UNL     1      -2.036  -5.187   8.152  1.00  0.00     0.031 C 
ATOM     69  C   UNL     1      -1.165  -3.781   9.994  1.00  0.00     0.031 A 
BRANCH  56  70
ATOM     70  C   UNL     1       2.091   1.330  11.160  1.00  0.00    -0.014 A 
ATOM     71  C   UNL     1       1.559   2.605  11.418  1.00  0.00     0.010 A 
ATOM     72  C   UNL     1       3.199   0.882  11.902  1.00  0.00     0.010 A 
ATOM     73  C   UNL     1       2.141   3.428  12.386  1.00  0.00     0.020 A 
ATOM     74  C   UNL     1       3.769   1.693  12.886  1.00  0.00     0.020 A 
ATOM     75  C   UNL     1       3.243   2.966  13.113  1.00  0.00     0.054 A 
BRANCH  75  76
ATOM     76  S   UNL     1       3.955   4.038  14.391  1.00  0.00     0.124 S 
ATOM     77  O   UNL     1       4.655   5.039  13.589  1.00  0.00    -0.237 OA
ATOM     78  O   UNL     1       2.773   4.519  15.102  1.00  0.00    -0.237 OA
ATOM     79  O   UNL     1       4.816   3.140  15.156  1.00  0.00    -0.744 OA
ENDBRANCH  75  76
ENDBRANCH  56  70
BRANCH  57  80
ATOM     80  C   UNL     1      -1.672  -4.522   4.005  1.00  0.00    -0.014 A 
ATOM     81  C   UNL     1      -3.056  -4.683   3.812  1.00  0.00     0.010 A 
ATOM     82  C   UNL     1      -0.781  -5.278   3.221  1.00  0.00     0.010 A 
ATOM     83  C   UNL     1      -3.539  -5.602   2.874  1.00  0.00     0.020 A 
ATOM     84  C   UNL     1      -1.260  -6.178   2.264  1.00  0.00     0.020 A 
ATOM     85  C   UNL     1      -2.637  -6.346   2.109  1.00  0.00     0.054 A 
BRANCH  85  86
ATOM     86  S   UNL     1      -3.277  -7.513   0.875  1.00  0.00     0.124 S 
ATOM     87  O   UNL     1      -3.679  -8.643   1.706  1.00  0.00    -0.237 OA
ATOM     88  O   UNL     1      -4.366  -6.760   0.259  1.00  0.00    -0.237 OA
ATOM     89  O   UNL     1      -2.127  -7.750   0.005  1.00  0.00    -0.744 OA
ENDBRANCH  85  86
ENDBRANCH  57  80
BRANCH  69  90
ATOM     90  C   UNL     1      -1.769  -4.748  10.978  1.00  0.00    -0.014 A 
ATOM     91  C   UNL     1      -1.196  -6.011  11.203  1.00  0.00     0.010 A 
ATOM     92  C   UNL     1      -2.882  -4.352  11.743  1.00  0.00     0.010 A 
ATOM     93  C   UNL     1      -1.742  -6.874  12.158  1.00  0.00     0.020 A 
ATOM     94  C   UNL     1      -3.415  -5.202  12.716  1.00  0.00     0.020 A 
ATOM     95  C   UNL     1      -2.849  -6.463  12.908  1.00  0.00     0.054 A 
BRANCH  95  96
ATOM     96  S   UNL     1      -3.509  -7.579  14.178  1.00  0.00     0.124 S 
ATOM     97  O   UNL     1      -4.228  -8.563  13.373  1.00  0.00    -0.237 OA
ATOM     98  O   UNL     1      -2.301  -8.068  14.838  1.00  0.00    -0.237 OA
ATOM     99  O   UNL     1      -4.351  -6.710  14.998  1.00  0.00    -0.744 OA
ENDBRANCH  95  96
ENDBRANCH  69  90
ENDBRANCH  43  44
ENDBRANCH  36  38
ENDBRANCH  35  36
ENDBRANCH  34  35
ENDBRANCH  33  34
ENDBRANCH  32  33
ENDBRANCH  31  32
ENDBRANCH   1  31
TORSDOF 24
