REMARK SMILES COc1ccc(N2C(=O)/C(=C/c3c(C(=O)OCCOCCOCCOC(=O)c4ccc(-c5c6nc(c(-c7ccc(S(=O)(=O)[O-])cc7)c7ccc([nH]7)c(-c7ccc(S(=O)(=O)[O-])cc7)c7nc(c(-c8ccc(S(=O)(=O)[O-])cc8)c8ccc5[nH]8)C=C7)C=C6)cc4)[nH]c4cc(OC)ccc34)SC2=S)cc1
REMARK SMILES IDX 20 1 19 2 18 3 17 4 16 5 14 6 15 7 13 8 12 9 96 10 88 11
REMARK SMILES IDX 89 12 95 13 90 15 94 16 91 17 11 18 7 19 8 20 98 21 9 22
REMARK SMILES IDX 10 23 97 24 99 25 6 26 3 27 4 28 101 29 5 30 100 31 2 32
REMARK SMILES IDX 1 33 92 34 93 35 21 36 22 37 23 38 24 39 25 40 26 41 27 42
REMARK SMILES IDX 28 43 29 44 87 45 30 46 86 47 31 48 32 49 33 50 80 51 34 52
REMARK SMILES IDX 85 53 79 54 81 55 35 56 84 57 78 58 77 59 36 61 66 62 47 63
REMARK SMILES IDX 65 64 48 65 51 66 64 67 82 68 49 69 50 70 63 72 83 73 52 74
REMARK SMILES IDX 37 75 38 76 46 77 39 78 45 79 40 80 41 81 42 82 43 83 44 84
REMARK SMILES IDX 67 85 68 86 76 87 69 88 75 89 70 90 71 91 72 92 73 93 74 94
REMARK SMILES IDX 53 95 54 96 62 97 55 98 61 99 56 100 57 101 58 102 59 103
REMARK SMILES IDX 60 104
REMARK H PARENT 88 14 81 60 51 71
REMARK Flexibility Score: inf
ROOT
ATOM      1  C   UNL     1       3.587  10.919   1.564  1.00  0.00     0.188 C 
ENDROOT
BRANCH   1   2
ATOM      2  O   UNL     1       4.419  10.648   0.443  1.00  0.00    -0.376 OA
BRANCH   2   3
ATOM      3  C   UNL     1       4.971   9.321   0.369  1.00  0.00     0.202 C 
BRANCH   3   4
ATOM      4  C   UNL     1       5.990   8.942   1.463  1.00  0.00     0.261 C 
BRANCH   4   5
ATOM      5  O   UNL     1       5.301   8.596   2.683  1.00  0.00    -0.459 OA
BRANCH   5   6
ATOM      6  C   UNL     1       5.847   9.090   3.817  1.00  0.00     0.355 C 
ATOM      7  O   UNL     1       7.045   9.307   3.957  1.00  0.00    -0.244 OA
BRANCH   6   8
ATOM      8  C   UNL     1       4.826   9.665   4.669  1.00  0.00     0.133 A 
ATOM      9  C   UNL     1       3.632   9.264   5.281  1.00  0.00     0.016 A 
ATOM     10  C   UNL     1       3.199  10.386   6.103  1.00  0.00     0.008 A 
ATOM     11  N   UNL     1       5.004  11.000   4.979  1.00  0.00    -0.348 N 
ATOM     12  C   UNL     1       4.030  11.467   5.810  1.00  0.00     0.050 A 
ATOM     13  C   UNL     1       2.177  10.613   7.058  1.00  0.00     0.015 A 
ATOM     14  H   UNL     1       5.747  11.549   4.640  1.00  0.00     0.167 HD
ATOM     15  C   UNL     1       3.861  12.758   6.325  1.00  0.00     0.073 A 
ATOM     16  C   UNL     1       2.024  11.889   7.640  1.00  0.00     0.047 A 
ATOM     17  C   UNL     1       2.850  12.943   7.262  1.00  0.00     0.120 A 
BRANCH   9  18
ATOM     18  C   UNL     1       2.977   7.963   5.244  1.00  0.00     0.032 C 
ATOM     19  N   UNL     1       1.708   5.468   2.856  1.00  0.00    -0.261 N 
ATOM     20  C   UNL     1       1.836   5.921   4.175  1.00  0.00     0.270 C 
ATOM     21  C   UNL     1       2.172   6.305   1.860  1.00  0.00     0.152 C 
ATOM     22  O   UNL     1       1.478   5.348   5.195  1.00  0.00    -0.268 OA
ATOM     23  C   UNL     1       2.498   7.280   4.182  1.00  0.00     0.081 C 
ATOM     24  S   UNL     1       2.513   7.840   2.574  1.00  0.00    -0.054 SA
ATOM     25  S   UNL     1       2.446   5.992   0.236  1.00  0.00    -0.051 S 
BRANCH  19  26
ATOM     26  C   UNL     1       1.139   4.219   2.503  1.00  0.00     0.051 A 
ATOM     27  C   UNL     1       0.376   1.993   0.963  1.00  0.00     0.119 A 
ATOM     28  C   UNL     1      -0.462   3.106   1.058  1.00  0.00     0.048 A 
ATOM     29  C   UNL     1       1.574   1.977   1.682  1.00  0.00     0.048 A 
ATOM     30  C   UNL     1      -0.086   4.214   1.820  1.00  0.00     0.030 A 
ATOM     31  C   UNL     1       1.954   3.084   2.457  1.00  0.00     0.030 A 
BRANCH  27  32
ATOM     32  O   UNL     1      -0.071   1.021   0.111  1.00  0.00    -0.497 OA
ATOM     33  C   UNL     1       0.729  -0.147  -0.015  1.00  0.00     0.278 C 
ENDBRANCH  27  32
ENDBRANCH  19  26
ENDBRANCH   9  18
BRANCH  17  34
ATOM     34  O   UNL     1       2.620  14.209   7.728  1.00  0.00    -0.497 OA
ATOM     35  C   UNL     1       3.278  14.441   8.973  1.00  0.00     0.278 C 
ENDBRANCH  17  34
ENDBRANCH   6   8
ENDBRANCH   5   6
ENDBRANCH   4   5
ENDBRANCH   3   4
ENDBRANCH   2   3
ENDBRANCH   1   2
BRANCH   1  36
ATOM     36  C   UNL     1       2.057  10.896   1.390  1.00  0.00     0.188 C 
BRANCH  36  37
ATOM     37  O   UNL     1       1.457   9.872   0.609  1.00  0.00    -0.376 OA
BRANCH  37  38
ATOM     38  C   UNL     1       1.663   9.901  -0.801  1.00  0.00     0.202 C 
BRANCH  38  39
ATOM     39  C   UNL     1       1.150  11.148  -1.523  1.00  0.00     0.261 C 
BRANCH  39  40
ATOM     40  O   UNL     1       2.060  12.246  -1.327  1.00  0.00    -0.460 OA
BRANCH  40  41
ATOM     41  C   UNL     1       1.538  13.340  -0.723  1.00  0.00     0.338 C 
ATOM     42  O   UNL     1       0.366  13.551  -0.464  1.00  0.00    -0.246 OA
BRANCH  41  43
ATOM     43  C   UNL     1       2.644  14.154  -0.181  1.00  0.00     0.060 A 
ATOM     44  C   UNL     1       2.604  14.509   1.176  1.00  0.00     0.016 A 
ATOM     45  C   UNL     1       3.680  14.597  -1.003  1.00  0.00     0.016 A 
ATOM     46  C   UNL     1       3.577  15.353   1.705  1.00  0.00     0.010 A 
ATOM     47  C   UNL     1       4.633  15.473  -0.482  1.00  0.00     0.010 A 
ATOM     48  C   UNL     1       4.557  15.885   0.860  1.00  0.00    -0.014 A 
BRANCH  48  49
ATOM     49  C   UNL     1       5.343  17.057   1.304  1.00  0.00     0.031 A 
ATOM     50  C   UNL     1       4.757  18.423   1.070  1.00  0.00     0.074 A 
ATOM     51  C   UNL     1       6.543  16.915   1.892  1.00  0.00     0.049 A 
ATOM     52  N   UNL     1       5.275  19.598   1.310  1.00  0.00    -0.248 NA
ATOM     53  C   UNL     1       3.404  18.467   0.488  1.00  0.00     0.031 C 
ATOM     54  C   UNL     1       7.188  15.643   2.213  1.00  0.00     0.029 A 
ATOM     55  N   UNL     1       7.438  17.865   2.312  1.00  0.00    -0.354 N 
ATOM     56  C   UNL     1       4.313  20.519   0.911  1.00  0.00     0.074 A 
ATOM     57  C   UNL     1       3.189  19.770   0.398  1.00  0.00     0.031 C 
ATOM     58  C   UNL     1       8.388  15.894   2.767  1.00  0.00     0.029 A 
ATOM     59  C   UNL     1       8.605  17.339   2.809  1.00  0.00     0.049 A 
ATOM     60  H   UNL     1       7.260  18.832   2.262  1.00  0.00     0.167 HD
ATOM     61  C   UNL     1       4.361  21.870   0.965  1.00  0.00     0.031 A 
ATOM     62  C   UNL     1       9.726  17.959   3.225  1.00  0.00     0.031 A 
ATOM     63  C   UNL     1       5.496  22.615   1.434  1.00  0.00     0.049 A 
ATOM     64  C   UNL     1       9.793  19.465   3.190  1.00  0.00     0.074 A 
ATOM     65  C   UNL     1       5.657  23.986   1.508  1.00  0.00     0.029 A 
ATOM     66  N   UNL     1       6.671  22.045   1.899  1.00  0.00    -0.354 N 
ATOM     67  N   UNL     1       8.874  20.323   2.817  1.00  0.00    -0.248 NA
ATOM     68  C   UNL     1      11.051  20.083   3.633  1.00  0.00     0.031 C 
ATOM     69  C   UNL     1       6.947  24.247   1.982  1.00  0.00     0.029 A 
ATOM     70  C   UNL     1       7.570  23.037   2.248  1.00  0.00     0.049 A 
ATOM     71  H   UNL     1       6.840  21.078   1.972  1.00  0.00     0.167 HD
ATOM     72  C   UNL     1       9.432  21.583   3.009  1.00  0.00     0.074 A 
ATOM     73  C   UNL     1      10.765  21.375   3.534  1.00  0.00     0.031 C 
ATOM     74  C   UNL     1       8.890  22.804   2.775  1.00  0.00     0.031 A 
BRANCH  61  75
ATOM     75  C   UNL     1       3.159  22.618   0.462  1.00  0.00    -0.014 A 
ATOM     76  C   UNL     1       1.974  22.671   1.218  1.00  0.00     0.010 A 
ATOM     77  C   UNL     1       3.215  23.279  -0.777  1.00  0.00     0.010 A 
ATOM     78  C   UNL     1       0.853  23.344   0.726  1.00  0.00     0.020 A 
ATOM     79  C   UNL     1       2.101  23.970  -1.263  1.00  0.00     0.020 A 
ATOM     80  C   UNL     1       0.922  23.983  -0.515  1.00  0.00     0.054 A 
BRANCH  80  81
ATOM     81  S   UNL     1      -0.543  24.860  -1.129  1.00  0.00     0.124 S 
ATOM     82  O   UNL     1      -1.391  23.755  -1.571  1.00  0.00    -0.237 OA
ATOM     83  O   UNL     1      -1.011  25.575   0.056  1.00  0.00    -0.237 OA
ATOM     84  O   UNL     1      -0.017  25.707  -2.196  1.00  0.00    -0.744 OA
ENDBRANCH  80  81
ENDBRANCH  61  75
BRANCH  62  85
ATOM     85  C   UNL     1      10.891  17.161   3.692  1.00  0.00    -0.014 A 
ATOM     86  C   UNL     1      11.245  17.141   5.052  1.00  0.00     0.010 A 
ATOM     87  C   UNL     1      11.661  16.426   2.772  1.00  0.00     0.010 A 
ATOM     88  C   UNL     1      12.360  16.416   5.482  1.00  0.00     0.020 A 
ATOM     89  C   UNL     1      12.763  15.681   3.202  1.00  0.00     0.020 A 
ATOM     90  C   UNL     1      13.114  15.692   4.553  1.00  0.00     0.054 A 
BRANCH  90  91
ATOM     91  S   UNL     1      14.533  14.723   5.137  1.00  0.00     0.124 S 
ATOM     92  O   UNL     1      15.544  15.757   5.333  1.00  0.00    -0.237 OA
ATOM     93  O   UNL     1      14.016  14.104   6.355  1.00  0.00    -0.237 OA
ATOM     94  O   UNL     1      14.787  13.796   4.037  1.00  0.00    -0.744 OA
ENDBRANCH  90  91
ENDBRANCH  62  85
BRANCH  74  95
ATOM     95  C   UNL     1       9.718  24.009   3.125  1.00  0.00    -0.014 A 
ATOM     96  C   UNL     1      10.790  24.417   2.313  1.00  0.00     0.010 A 
ATOM     97  C   UNL     1       9.373  24.781   4.250  1.00  0.00     0.010 A 
ATOM     98  C   UNL     1      11.522  25.563   2.636  1.00  0.00     0.020 A 
ATOM     99  C   UNL     1      10.088  25.939   4.563  1.00  0.00     0.020 A 
ATOM    100  C   UNL     1      11.167  26.316   3.760  1.00  0.00     0.054 A 
BRANCH 100 101
ATOM    101  S   UNL     1      12.098  27.827   4.134  1.00  0.00     0.124 S 
ATOM    102  O   UNL     1      13.315  27.292   4.738  1.00  0.00    -0.237 OA
ATOM    103  O   UNL     1      12.265  28.439   2.818  1.00  0.00    -0.237 OA
ATOM    104  O   UNL     1      11.218  28.558   5.045  1.00  0.00    -0.744 OA
ENDBRANCH 100 101
ENDBRANCH  74  95
ENDBRANCH  48  49
ENDBRANCH  41  43
ENDBRANCH  40  41
ENDBRANCH  39  40
ENDBRANCH  38  39
ENDBRANCH  37  38
ENDBRANCH  36  37
ENDBRANCH   1  36
TORSDOF 24
