REMARK SMILES C/C(=N\NC(N)=S)c1nnn(-c2ccc(C(=O)OCCOCCOCCOC(=O)c3ccc(-c4c5nc(c(-c6ccc(S(=O)(=O)[O-])cc6)c6ccc([nH]6)c(-c6ccc(S(=O)(=O)[O-])cc6)c6nc(c(-c7ccc(S(=O)(=O)[O-])cc7)c7ccc4[nH]7)C=C6)C=C5)cc3)cc2)c1C
REMARK SMILES IDX 22 1 21 2 20 3 19 4 18 5 16 6 17 7 15 8 12 9 13 10 91 11
REMARK SMILES IDX 14 12 90 13 11 14 8 15 9 16 92 17 10 18 93 19 2 20 1 21 3 22
REMARK SMILES IDX 4 23 5 25 7 26 6 27 23 30 24 31 25 32 26 33 27 34 28 35
REMARK SMILES IDX 29 36 30 37 31 38 89 39 32 40 88 41 33 42 34 43 35 44 82 45
REMARK SMILES IDX 36 46 87 47 81 48 83 49 37 50 86 51 80 52 79 53 38 55 68 56
REMARK SMILES IDX 49 57 67 58 50 59 53 60 66 61 84 62 51 63 52 64 65 66 85 67
REMARK SMILES IDX 54 68 39 69 40 70 48 71 41 72 47 73 42 74 43 75 44 76 45 77
REMARK SMILES IDX 46 78 69 79 70 80 78 81 71 82 77 83 72 84 73 85 74 86 75 87
REMARK SMILES IDX 76 88 55 89 56 90 64 91 57 92 63 93 58 94 59 95 60 96 61 97
REMARK SMILES IDX 62 98
REMARK H PARENT 4 24 6 28 6 29 83 54 53 65
REMARK Flexibility Score: inf
ROOT
ATOM      1  C   UNL     1       7.027  -1.278   9.132  1.00  0.00     0.188 C 
ENDROOT
BRANCH   1   2
ATOM      2  O   UNL     1       8.340  -1.752   9.410  1.00  0.00    -0.376 OA
BRANCH   2   3
ATOM      3  C   UNL     1       9.442  -1.305   8.631  1.00  0.00     0.202 C 
BRANCH   3   4
ATOM      4  C   UNL     1       9.393  -1.395   7.095  1.00  0.00     0.261 C 
BRANCH   4   5
ATOM      5  O   UNL     1       8.224  -0.822   6.490  1.00  0.00    -0.460 OA
BRANCH   5   6
ATOM      6  C   UNL     1       7.366  -1.687   5.915  1.00  0.00     0.338 C 
ATOM      7  O   UNL     1       7.533  -2.893   5.750  1.00  0.00    -0.246 OA
BRANCH   6   8
ATOM      8  C   UNL     1       6.085  -1.017   5.606  1.00  0.00     0.060 A 
ATOM      9  C   UNL     1       3.653   0.048   4.803  1.00  0.00     0.067 A 
ATOM     10  C   UNL     1       3.672  -1.204   5.425  1.00  0.00     0.029 A 
ATOM     11  C   UNL     1       4.814   0.829   4.716  1.00  0.00     0.029 A 
ATOM     12  C   UNL     1       4.900  -1.746   5.798  1.00  0.00     0.018 A 
ATOM     13  C   UNL     1       6.035   0.298   5.130  1.00  0.00     0.018 A 
BRANCH   9  14
ATOM     14  N   UNL     1       2.513   0.400   4.050  1.00  0.00    -0.217 N 
ATOM     15  C   UNL     1       1.151   0.599   2.362  1.00  0.00     0.132 A 
ATOM     16  N   UNL     1       0.416   0.355   3.490  1.00  0.00    -0.128 NA
ATOM     17  C   UNL     1       2.494   0.622   2.679  1.00  0.00     0.071 A 
ATOM     18  N   UNL     1       1.257   0.174   4.498  1.00  0.00    -0.061 NA
ATOM     19  C   UNL     1       3.691   0.620   1.804  1.00  0.00     0.069 C 
BRANCH  15  20
ATOM     20  C   UNL     1       0.564   0.573   1.038  1.00  0.00     0.087 C 
ATOM     21  C   UNL     1       0.422  -0.785   0.396  1.00  0.00     0.071 C 
ATOM     22  N   UNL     1       0.214   1.725   0.545  1.00  0.00    -0.176 NA
BRANCH  22  23
ATOM     23  N   UNL     1      -0.386   1.786  -0.678  1.00  0.00    -0.254 N 
ATOM     24  H   UNL     1      -1.349   1.989  -0.689  1.00  0.00     0.193 HD
BRANCH  23  25
ATOM     25  C   UNL     1       0.222   1.591  -1.902  1.00  0.00     0.184 C 
ATOM     26  S   UNL     1       1.784   1.125  -2.236  1.00  0.00    -0.040 S 
BRANCH  25  27
ATOM     27  N   UNL     1      -0.632   1.816  -2.946  1.00  0.00    -0.375 N 
ATOM     28  H   UNL     1      -1.560   2.092  -2.772  1.00  0.00     0.159 HD
ATOM     29  H   UNL     1      -0.318   1.701  -3.872  1.00  0.00     0.159 HD
ENDBRANCH  25  27
ENDBRANCH  23  25
ENDBRANCH  22  23
ENDBRANCH  15  20
ENDBRANCH   9  14
ENDBRANCH   6   8
ENDBRANCH   5   6
ENDBRANCH   4   5
ENDBRANCH   3   4
ENDBRANCH   2   3
ENDBRANCH   1   2
BRANCH   1  30
ATOM     30  C   UNL     1       6.776   0.217   8.825  1.00  0.00     0.188 C 
BRANCH  30  31
ATOM     31  O   UNL     1       7.948   0.962   8.550  1.00  0.00    -0.376 OA
BRANCH  31  32
ATOM     32  C   UNL     1       8.340   1.977   9.462  1.00  0.00     0.202 C 
BRANCH  32  33
ATOM     33  C   UNL     1       8.548   1.639  10.939  1.00  0.00     0.261 C 
BRANCH  33  34
ATOM     34  O   UNL     1       7.689   0.646  11.471  1.00  0.00    -0.460 OA
BRANCH  34  35
ATOM     35  C   UNL     1       6.462   1.066  11.812  1.00  0.00     0.338 C 
ATOM     36  O   UNL     1       5.924   2.121  11.465  1.00  0.00    -0.246 OA
BRANCH  35  37
ATOM     37  C   UNL     1       5.877   0.099  12.736  1.00  0.00     0.060 A 
ATOM     38  C   UNL     1       4.519   0.227  13.034  1.00  0.00     0.016 A 
ATOM     39  C   UNL     1       6.733  -0.719  13.493  1.00  0.00     0.016 A 
ATOM     40  C   UNL     1       4.064  -0.289  14.226  1.00  0.00     0.010 A 
ATOM     41  C   UNL     1       6.283  -1.215  14.691  1.00  0.00     0.010 A 
ATOM     42  C   UNL     1       4.981  -0.910  15.080  1.00  0.00    -0.014 A 
BRANCH  42  43
ATOM     43  C   UNL     1       4.547  -1.203  16.427  1.00  0.00     0.031 A 
ATOM     44  C   UNL     1       3.728  -2.419  16.555  1.00  0.00     0.074 A 
ATOM     45  C   UNL     1       4.962  -0.469  17.476  1.00  0.00     0.049 A 
ATOM     46  N   UNL     1       2.485  -2.509  16.888  1.00  0.00    -0.248 NA
ATOM     47  C   UNL     1       4.341  -3.685  16.125  1.00  0.00     0.031 C 
ATOM     48  C   UNL     1       6.015   0.552  17.485  1.00  0.00     0.029 A 
ATOM     49  N   UNL     1       4.615  -0.576  18.786  1.00  0.00    -0.354 N 
ATOM     50  C   UNL     1       2.223  -3.871  16.937  1.00  0.00     0.074 A 
ATOM     51  C   UNL     1       3.319  -4.526  16.267  1.00  0.00     0.031 C 
ATOM     52  C   UNL     1       6.378   0.796  18.763  1.00  0.00     0.029 A 
ATOM     53  C   UNL     1       5.505   0.046  19.651  1.00  0.00     0.049 A 
ATOM     54  H   UNL     1       3.809  -1.049  19.093  1.00  0.00     0.167 HD
ATOM     55  C   UNL     1       1.296  -4.385  17.789  1.00  0.00     0.031 A 
ATOM     56  C   UNL     1       5.576  -0.126  20.993  1.00  0.00     0.031 A 
ATOM     57  C   UNL     1       0.369  -3.388  18.256  1.00  0.00     0.049 A 
ATOM     58  C   UNL     1       4.285  -0.701  21.444  1.00  0.00     0.074 A 
ATOM     59  C   UNL     1      -0.498  -2.504  17.646  1.00  0.00     0.029 A 
ATOM     60  N   UNL     1       0.516  -2.949  19.551  1.00  0.00    -0.354 N 
ATOM     61  N   UNL     1       3.153  -0.054  21.421  1.00  0.00    -0.248 NA
ATOM     62  C   UNL     1       4.169  -2.146  21.569  1.00  0.00     0.031 C 
ATOM     63  C   UNL     1      -0.496  -1.342  18.471  1.00  0.00     0.029 A 
ATOM     64  C   UNL     1       0.343  -1.588  19.559  1.00  0.00     0.049 A 
ATOM     65  H   UNL     1       0.711  -3.512  20.334  1.00  0.00     0.167 HD
ATOM     66  C   UNL     1       2.197  -1.012  21.114  1.00  0.00     0.074 A 
ATOM     67  C   UNL     1       2.861  -2.291  21.342  1.00  0.00     0.031 C 
ATOM     68  C   UNL     1       1.057  -0.681  20.437  1.00  0.00     0.031 A 
BRANCH  55  69
ATOM     69  C   UNL     1       1.532  -5.682  18.527  1.00  0.00    -0.014 A 
ATOM     70  C   UNL     1       0.504  -6.212  19.328  1.00  0.00     0.010 A 
ATOM     71  C   UNL     1       2.822  -6.237  18.689  1.00  0.00     0.010 A 
ATOM     72  C   UNL     1       0.774  -7.191  20.293  1.00  0.00     0.020 A 
ATOM     73  C   UNL     1       3.090  -7.248  19.607  1.00  0.00     0.020 A 
ATOM     74  C   UNL     1       2.071  -7.688  20.435  1.00  0.00     0.054 A 
BRANCH  74  75
ATOM     75  S   UNL     1       2.443  -8.849  21.770  1.00  0.00     0.124 S 
ATOM     76  O   UNL     1       2.320  -7.994  22.946  1.00  0.00    -0.237 OA
ATOM     77  O   UNL     1       1.401  -9.858  21.604  1.00  0.00    -0.237 OA
ATOM     78  O   UNL     1       3.797  -9.302  21.459  1.00  0.00    -0.744 OA
ENDBRANCH  74  75
ENDBRANCH  55  69
BRANCH  56  79
ATOM     79  C   UNL     1       6.793  -0.111  21.841  1.00  0.00    -0.014 A 
ATOM     80  C   UNL     1       6.696  -0.079  23.244  1.00  0.00     0.010 A 
ATOM     81  C   UNL     1       8.057  -0.392  21.279  1.00  0.00     0.010 A 
ATOM     82  C   UNL     1       7.808  -0.373  24.051  1.00  0.00     0.020 A 
ATOM     83  C   UNL     1       9.171  -0.670  22.075  1.00  0.00     0.020 A 
ATOM     84  C   UNL     1       9.035  -0.684  23.460  1.00  0.00     0.054 A 
BRANCH  84  85
ATOM     85  S   UNL     1      10.419  -1.230  24.501  1.00  0.00     0.124 S 
ATOM     86  O   UNL     1      10.797   0.003  25.186  1.00  0.00    -0.237 OA
ATOM     87  O   UNL     1       9.803  -2.256  25.338  1.00  0.00    -0.237 OA
ATOM     88  O   UNL     1      11.400  -1.728  23.537  1.00  0.00    -0.744 OA
ENDBRANCH  84  85
ENDBRANCH  56  79
BRANCH  68  89
ATOM     89  C   UNL     1       0.655   0.774  20.373  1.00  0.00    -0.014 A 
ATOM     90  C   UNL     1       1.451   1.780  19.794  1.00  0.00     0.010 A 
ATOM     91  C   UNL     1      -0.645   1.109  20.795  1.00  0.00     0.010 A 
ATOM     92  C   UNL     1       0.970   3.091  19.667  1.00  0.00     0.020 A 
ATOM     93  C   UNL     1      -1.138   2.409  20.654  1.00  0.00     0.020 A 
ATOM     94  C   UNL     1      -0.325   3.397  20.099  1.00  0.00     0.054 A 
BRANCH  94  95
ATOM     95  S   UNL     1      -0.962   5.082  19.879  1.00  0.00     0.124 S 
ATOM     96  O   UNL     1      -0.186   5.845  20.853  1.00  0.00    -0.237 OA
ATOM     97  O   UNL     1      -0.662   5.364  18.477  1.00  0.00    -0.237 OA
ATOM     98  O   UNL     1      -2.387   4.959  20.185  1.00  0.00    -0.744 OA
ENDBRANCH  94  95
ENDBRANCH  68  89
ENDBRANCH  42  43
ENDBRANCH  35  37
ENDBRANCH  34  35
ENDBRANCH  33  34
ENDBRANCH  32  33
ENDBRANCH  31  32
ENDBRANCH  30  31
ENDBRANCH   1  30
TORSDOF 25
