REMARK SMILES Cc1cccc(-c2ncc(C[NH+]3CCC4(CC3)NC(=O)C[C@H]4C(=O)OCCOCCOCCOC(=O)c3ccc(-c4c5nc(c(-c6ccc(S(=O)(=O)[O-])cc6)c6ccc([nH]6)c(-c6ccc(S(=O)(=O)[O-])cc6)c6nc(c(-c7ccc(S(=O)(=O)[O-])cc7)c7ccc4[nH]7)C=C6)C=C5)cc3)cn2)c1
REMARK SMILES IDX 29 1 28 2 27 3 26 4 25 5 23 6 24 7 22 8 12 9 13 10 17 11
REMARK SMILES IDX 14 13 16 14 15 15 18 16 19 17 21 19 20 20 11 21 10 22 7 23
REMARK SMILES IDX 8 24 98 25 9 26 97 27 6 28 1 29 2 30 3 31 99 32 4 33 5 34
REMARK SMILES IDX 30 35 31 36 32 37 33 38 34 39 35 40 36 41 37 42 38 43 96 44
REMARK SMILES IDX 39 45 95 46 40 47 41 48 42 49 89 50 43 51 94 52 88 53 90 54
REMARK SMILES IDX 44 55 93 56 87 57 86 58 45 60 75 61 56 62 74 63 57 64 60 65
REMARK SMILES IDX 73 66 91 67 58 68 59 69 72 71 92 72 61 73 46 74 47 75 55 76
REMARK SMILES IDX 48 77 54 78 49 79 50 80 51 81 52 82 53 83 76 84 77 85 85 86
REMARK SMILES IDX 78 87 84 88 79 89 80 90 81 91 82 92 83 93 62 94 63 95 71 96
REMARK SMILES IDX 64 97 70 98 65 99 66 100 67 101 68 102 69 103
REMARK H PARENT 12 12 18 18 90 59 60 70
REMARK Flexibility Score: inf
ROOT
ATOM      1  C   UNL     1      -2.251   7.598  -5.468  1.00  0.00     0.188 C 
ENDROOT
BRANCH   1   2
ATOM      2  O   UNL     1      -1.077   6.896  -5.963  1.00  0.00    -0.376 OA
BRANCH   2   3
ATOM      3  C   UNL     1      -0.536   5.564  -5.726  1.00  0.00     0.202 C 
BRANCH   3   4
ATOM      4  C   UNL     1       0.046   4.622  -4.309  1.00  0.00     0.261 C 
BRANCH   4   5
ATOM      5  O   UNL     1       0.630   4.837  -2.553  1.00  0.00    -0.463 OA
BRANCH   5   6
ATOM      6  C   UNL     1       1.448   5.657  -1.499  1.00  0.00     0.311 C 
ATOM      7  O   UNL     1       2.118   6.699  -1.653  1.00  0.00    -0.252 OA
BRANCH   6   8
ATOM      8  C   UNL     1       1.272   5.469  -0.060  1.00  0.00     0.134 C 
ATOM      9  N   UNL     1      -3.401   7.222   0.330  1.00  0.00    -0.331 N 
ATOM     10  C   UNL     1      -2.077   7.514   1.326  1.00  0.00     0.264 C 
ATOM     11  C   UNL     1      -2.722   6.669  -1.386  1.00  0.00     0.264 C 
ATOM     12  H   UNL     1      -4.011   8.004   0.087  1.00  0.00     0.348 HD
ATOM     13  C   UNL     1      -0.685   6.373   1.599  1.00  0.00     0.091 C 
ATOM     14  C   UNL     1      -1.257   4.983  -1.304  1.00  0.00     0.091 C 
ATOM     15  C   UNL     1      -0.125   5.113   0.321  1.00  0.00     0.064 C 
ATOM     16  N   UNL     1       0.154   3.910   1.068  1.00  0.00    -0.349 N 
ATOM     17  C   UNL     1       1.494   3.662   1.330  1.00  0.00     0.221 C 
ATOM     18  H   UNL     1      -0.561   3.305   1.373  1.00  0.00     0.164 HD
ATOM     19  C   UNL     1       2.325   4.705   0.684  1.00  0.00     0.117 C 
ATOM     20  O   UNL     1       1.927   2.756   2.021  1.00  0.00    -0.275 OA
BRANCH   9  21
ATOM     21  C   UNL     1      -4.375   6.086   1.274  1.00  0.00     0.302 C 
BRANCH  21  22
ATOM     22  C   UNL     1      -4.116   4.446   1.586  1.00  0.00     0.043 A 
ATOM     23  C   UNL     1      -2.791   1.984   1.144  1.00  0.00     0.159 A 
ATOM     24  N   UNL     1      -2.343   2.818   2.110  1.00  0.00    -0.236 NA
ATOM     25  N   UNL     1      -4.009   2.166   0.611  1.00  0.00    -0.236 NA
ATOM     26  C   UNL     1      -3.076   3.967   2.372  1.00  0.00     0.124 A 
ATOM     27  C   UNL     1      -4.652   3.362   0.889  1.00  0.00     0.124 A 
BRANCH  23  28
ATOM     28  C   UNL     1      -1.931   0.829   0.668  1.00  0.00     0.019 A 
ATOM     29  C   UNL     1       1.819  -0.035   0.083  1.00  0.00     0.044 C 
ATOM     30  C   UNL     1       0.319  -0.186   0.155  1.00  0.00    -0.050 A 
ATOM     31  C   UNL     1      -0.266  -1.428  -0.025  1.00  0.00     0.003 A 
ATOM     32  C   UNL     1      -0.528   0.903   0.469  1.00  0.00     0.015 A 
ATOM     33  C   UNL     1      -1.654  -1.542   0.055  1.00  0.00     0.001 A 
ATOM     34  C   UNL     1      -2.469  -0.434   0.384  1.00  0.00     0.012 A 
ENDBRANCH  23  28
ENDBRANCH  21  22
ENDBRANCH   9  21
ENDBRANCH   6   8
ENDBRANCH   5   6
ENDBRANCH   4   5
ENDBRANCH   3   4
ENDBRANCH   2   3
ENDBRANCH   1   2
BRANCH   1  35
ATOM     35  C   UNL     1      -3.637   6.940  -5.384  1.00  0.00     0.188 C 
BRANCH  35  36
ATOM     36  O   UNL     1      -3.610   5.648  -5.958  1.00  0.00    -0.376 OA
BRANCH  36  37
ATOM     37  C   UNL     1      -4.447   4.633  -5.415  1.00  0.00     0.202 C 
BRANCH  37  38
ATOM     38  C   UNL     1      -5.552   4.950  -4.375  1.00  0.00     0.261 C 
BRANCH  38  39
ATOM     39  O   UNL     1      -5.432   4.949  -2.864  1.00  0.00    -0.460 OA
BRANCH  39  40
ATOM     40  C   UNL     1      -4.976   4.925  -1.577  1.00  0.00     0.338 C 
ATOM     41  O   UNL     1      -5.850   5.114  -0.744  1.00  0.00    -0.246 OA
BRANCH  40  42
ATOM     42  C   UNL     1      -3.389   4.714  -1.215  1.00  0.00     0.060 A 
ATOM     43  C   UNL     1      -2.269   5.597  -0.022  1.00  0.00     0.016 A 
ATOM     44  C   UNL     1      -2.944   4.819  -2.720  1.00  0.00     0.016 A 
ATOM     45  C   UNL     1      -0.907   6.783  -0.823  1.00  0.00     0.010 A 
ATOM     46  C   UNL     1      -1.787   5.859  -3.298  1.00  0.00     0.010 A 
ATOM     47  C   UNL     1      -0.595   6.777  -2.584  1.00  0.00    -0.014 A 
BRANCH  47  48
ATOM     48  C   UNL     1       0.991   6.729  -3.627  1.00  0.00     0.031 A 
ATOM     49  C   UNL     1       2.391   5.409  -3.644  1.00  0.00     0.074 A 
ATOM     50  C   UNL     1       1.176   7.603  -4.629  1.00  0.00     0.049 A 
ATOM     51  N   UNL     1       3.635   5.567  -3.210  1.00  0.00    -0.248 NA
ATOM     52  C   UNL     1       2.253   3.739  -3.520  1.00  0.00     0.031 C 
ATOM     53  C   UNL     1       2.147   7.558  -5.723  1.00  0.00     0.029 A 
ATOM     54  N   UNL     1       0.448   8.746  -4.899  1.00  0.00    -0.354 N 
ATOM     55  C   UNL     1       4.219   4.273  -3.012  1.00  0.00     0.074 A 
ATOM     56  C   UNL     1       3.198   3.379  -2.674  1.00  0.00     0.031 C 
ATOM     57  C   UNL     1       2.187   8.779  -6.298  1.00  0.00     0.029 A 
ATOM     58  C   UNL     1       1.337   9.647  -5.490  1.00  0.00     0.049 A 
ATOM     59  H   UNL     1      -0.507   8.896  -4.712  1.00  0.00     0.167 HD
ATOM     60  C   UNL     1       5.296   3.812  -3.721  1.00  0.00     0.031 A 
ATOM     61  C   UNL     1       1.740  10.674  -4.689  1.00  0.00     0.031 A 
ATOM     62  C   UNL     1       5.676   4.888  -4.593  1.00  0.00     0.049 A 
ATOM     63  C   UNL     1       3.195  10.446  -4.331  1.00  0.00     0.074 A 
ATOM     64  C   UNL     1       5.322   5.201  -5.893  1.00  0.00     0.029 A 
ATOM     65  N   UNL     1       5.986   6.071  -3.962  1.00  0.00    -0.354 N 
ATOM     66  N   UNL     1       3.777   9.276  -4.213  1.00  0.00    -0.248 NA
ATOM     67  C   UNL     1       4.145  11.550  -4.316  1.00  0.00     0.031 C 
ATOM     68  C   UNL     1       5.368   6.627  -6.002  1.00  0.00     0.029 A 
ATOM     69  C   UNL     1       5.744   7.152  -4.775  1.00  0.00     0.049 A 
ATOM     70  H   UNL     1       6.338   6.135  -3.044  1.00  0.00     0.167 HD
ATOM     71  C   UNL     1       5.136   9.447  -4.199  1.00  0.00     0.074 A 
ATOM     72  C   UNL     1       5.310  10.889  -4.247  1.00  0.00     0.031 C 
ATOM     73  C   UNL     1       6.075   8.453  -4.225  1.00  0.00     0.031 A 
BRANCH  60  74
ATOM     74  C   UNL     1       5.688   2.332  -3.905  1.00  0.00    -0.014 A 
ATOM     75  C   UNL     1       6.495   1.991  -5.005  1.00  0.00     0.010 A 
ATOM     76  C   UNL     1       5.331   1.242  -3.064  1.00  0.00     0.010 A 
ATOM     77  C   UNL     1       6.897   0.669  -5.271  1.00  0.00     0.020 A 
ATOM     78  C   UNL     1       5.684  -0.098  -3.345  1.00  0.00     0.020 A 
ATOM     79  C   UNL     1       6.487  -0.373  -4.443  1.00  0.00     0.054 A 
BRANCH  79  80
ATOM     80  S   UNL     1       7.071  -2.057  -4.790  1.00  0.00     0.124 S 
ATOM     81  O   UNL     1       6.633  -2.268  -6.168  1.00  0.00    -0.237 OA
ATOM     82  O   UNL     1       8.513  -1.931  -4.602  1.00  0.00    -0.237 OA
ATOM     83  O   UNL     1       6.385  -2.880  -3.795  1.00  0.00    -0.744 OA
ENDBRANCH  79  80
ENDBRANCH  60  74
BRANCH  61  84
ATOM     84  C   UNL     1       0.581  11.165  -3.841  1.00  0.00    -0.014 A 
ATOM     85  C   UNL     1      -0.534  11.691  -4.556  1.00  0.00     0.010 A 
ATOM     86  C   UNL     1       0.344  10.696  -2.532  1.00  0.00     0.010 A 
ATOM     87  C   UNL     1      -1.841  11.607  -4.055  1.00  0.00     0.020 A 
ATOM     88  C   UNL     1      -0.973  10.634  -2.015  1.00  0.00     0.020 A 
ATOM     89  C   UNL     1      -2.057  11.036  -2.804  1.00  0.00     0.054 A 
BRANCH  89  90
ATOM     90  S   UNL     1      -3.778  10.719  -2.299  1.00  0.00     0.124 S 
ATOM     91  O   UNL     1      -4.449  11.973  -2.639  1.00  0.00    -0.237 OA
ATOM     92  O   UNL     1      -4.132   9.579  -3.147  1.00  0.00    -0.237 OA
ATOM     93  O   UNL     1      -3.669  10.453  -0.870  1.00  0.00    -0.744 OA
ENDBRANCH  89  90
ENDBRANCH  61  84
BRANCH  73  94
ATOM     94  C   UNL     1       7.475   8.611  -3.658  1.00  0.00    -0.014 A 
ATOM     95  C   UNL     1       7.864   9.699  -2.872  1.00  0.00     0.010 A 
ATOM     96  C   UNL     1       8.404   7.539  -3.758  1.00  0.00     0.010 A 
ATOM     97  C   UNL     1       9.146   9.773  -2.329  1.00  0.00     0.020 A 
ATOM     98  C   UNL     1       9.635   7.545  -3.116  1.00  0.00     0.020 A 
ATOM     99  C   UNL     1      10.024   8.698  -2.461  1.00  0.00     0.054 A 
BRANCH  99 100
ATOM    100  S   UNL     1      11.690   8.832  -1.799  1.00  0.00     0.124 S 
ATOM    101  O   UNL     1      12.357   9.595  -2.852  1.00  0.00    -0.237 OA
ATOM    102  O   UNL     1      11.482   9.544  -0.541  1.00  0.00    -0.237 OA
ATOM    103  O   UNL     1      12.121   7.443  -1.661  1.00  0.00    -0.744 OA
ENDBRANCH  99 100
ENDBRANCH  73  94
ENDBRANCH  47  48
ENDBRANCH  40  42
ENDBRANCH  39  40
ENDBRANCH  38  39
ENDBRANCH  37  38
ENDBRANCH  36  37
ENDBRANCH  35  36
ENDBRANCH   1  35
TORSDOF 23
