REMARK SMILES C[C@H]([NH2+]C1C(C)(C)C1(C)C)[C@H](C)C(=O)OCCOCCOCCOC(=O)c1ccc(-c2c3nc(c(-c4ccc(S(=O)(=O)[O-])cc4)c4ccc([nH]4)c(-c4ccc(S(=O)(=O)[O-])cc4)c4nc(c(-c5ccc(S(=O)(=O)[O-])cc5)c5ccc2[nH]5)C=C4)C=C3)cc1
REMARK SMILES IDX 19 1 18 2 17 3 16 4 15 5 13 6 14 7 11 8 12 9 2 10 1 11 3 12
REMARK SMILES IDX 4 15 5 16 8 17 6 18 7 19 9 20 10 21 20 22 21 23 22 24 23 25
REMARK SMILES IDX 24 26 25 27 26 28 27 29 28 30 86 31 29 32 85 33 30 34 31 35
REMARK SMILES IDX 32 36 79 37 33 38 84 39 78 40 80 41 34 42 83 43 77 44 76 45
REMARK SMILES IDX 35 47 65 48 46 49 64 50 47 51 50 52 63 53 81 54 48 55 49 56
REMARK SMILES IDX 62 58 82 59 51 60 36 61 37 62 45 63 38 64 44 65 39 66 40 67
REMARK SMILES IDX 41 68 42 69 43 70 66 71 67 72 75 73 68 74 74 75 69 76 70 77
REMARK SMILES IDX 71 78 72 79 73 80 52 81 53 82 61 83 54 84 60 85 55 86 56 87
REMARK SMILES IDX 57 88 58 89 59 90
REMARK H PARENT 3 13 3 14 80 46 50 57
REMARK Flexibility Score: inf
ROOT
ATOM      1  C   UNL     1      -1.804   0.041   5.233  1.00  0.00     0.188 C 
ENDROOT
BRANCH   1   2
ATOM      2  O   UNL     1      -2.281  -1.125   5.884  1.00  0.00    -0.376 OA
BRANCH   2   3
ATOM      3  C   UNL     1      -2.084  -2.374   5.232  1.00  0.00     0.202 C 
BRANCH   3   4
ATOM      4  C   UNL     1      -2.682  -2.510   3.833  1.00  0.00     0.261 C 
BRANCH   4   5
ATOM      5  O   UNL     1      -1.892  -1.857   2.813  1.00  0.00    -0.463 OA
BRANCH   5   6
ATOM      6  C   UNL     1      -2.601  -1.114   1.925  1.00  0.00     0.314 C 
ATOM      7  O   UNL     1      -3.790  -0.839   2.052  1.00  0.00    -0.252 OA
BRANCH   6   8
ATOM      8  C   UNL     1      -1.814  -0.691   0.694  1.00  0.00     0.154 C 
ATOM      9  C   UNL     1      -0.720   0.325   0.985  1.00  0.00     0.026 C 
BRANCH   8  10
ATOM     10  C   UNL     1      -1.504  -1.844  -0.306  1.00  0.00     0.193 C 
ATOM     11  C   UNL     1      -2.503  -3.006  -0.201  1.00  0.00     0.076 C 
BRANCH  10  12
ATOM     12  N   UNL     1      -0.156  -2.388  -0.562  1.00  0.00    -0.340 N 
ATOM     13  H   UNL     1       0.235  -1.848  -1.334  1.00  0.00     0.346 HD
ATOM     14  H   UNL     1      -0.336  -3.380  -0.718  1.00  0.00     0.346 HD
BRANCH  12  15
ATOM     15  C   UNL     1       0.854  -2.400   0.493  1.00  0.00     0.195 C 
ATOM     16  C   UNL     1       1.039  -3.523   1.487  1.00  0.00     0.028 C 
ATOM     17  C   UNL     1       2.064  -3.321   0.360  1.00  0.00     0.028 C 
ATOM     18  C   UNL     1       1.420  -3.133   2.899  1.00  0.00     0.018 C 
ATOM     19  C   UNL     1       0.146  -4.740   1.457  1.00  0.00     0.018 C 
ATOM     20  C   UNL     1       2.150  -4.333  -0.761  1.00  0.00     0.018 C 
ATOM     21  C   UNL     1       3.423  -2.732   0.693  1.00  0.00     0.018 C 
ENDBRANCH  12  15
ENDBRANCH  10  12
ENDBRANCH   8  10
ENDBRANCH   6   8
ENDBRANCH   5   6
ENDBRANCH   4   5
ENDBRANCH   3   4
ENDBRANCH   2   3
ENDBRANCH   1   2
BRANCH   1  22
ATOM     22  C   UNL     1      -0.347   0.060   4.752  1.00  0.00     0.188 C 
BRANCH  22  23
ATOM     23  O   UNL     1       0.577  -0.909   5.224  1.00  0.00    -0.376 OA
BRANCH  23  24
ATOM     24  C   UNL     1       0.778  -0.990   6.630  1.00  0.00     0.202 C 
BRANCH  24  25
ATOM     25  C   UNL     1       1.797   0.008   7.181  1.00  0.00     0.261 C 
BRANCH  25  26
ATOM     26  O   UNL     1       1.332   1.354   7.009  1.00  0.00    -0.460 OA
BRANCH  26  27
ATOM     27  C   UNL     1       2.014   2.090   6.091  1.00  0.00     0.338 C 
ATOM     28  O   UNL     1       3.050   1.798   5.534  1.00  0.00    -0.246 OA
BRANCH  27  29
ATOM     29  C   UNL     1       1.157   3.231   5.690  1.00  0.00     0.060 A 
ATOM     30  C   UNL     1       1.050   3.513   4.320  1.00  0.00     0.016 A 
ATOM     31  C   UNL     1       0.422   3.965   6.624  1.00  0.00     0.016 A 
ATOM     32  C   UNL     1       0.228   4.550   3.882  1.00  0.00     0.010 A 
ATOM     33  C   UNL     1      -0.386   5.015   6.187  1.00  0.00     0.010 A 
ATOM     34  C   UNL     1      -0.463   5.329   4.818  1.00  0.00    -0.014 A 
BRANCH  34  35
ATOM     35  C   UNL     1      -1.079   6.609   4.403  1.00  0.00     0.031 A 
ATOM     36  C   UNL     1      -0.248   7.856   4.527  1.00  0.00     0.074 A 
ATOM     37  C   UNL     1      -2.342   6.672   3.945  1.00  0.00     0.049 A 
ATOM     38  N   UNL     1      -0.583   9.100   4.312  1.00  0.00    -0.248 NA
ATOM     39  C   UNL     1       1.149   7.670   4.958  1.00  0.00     0.031 C 
ATOM     40  C   UNL     1      -3.231   5.531   3.737  1.00  0.00     0.029 A 
ATOM     41  N   UNL     1      -3.098   7.760   3.584  1.00  0.00    -0.354 N 
ATOM     42  C   UNL     1       0.556   9.845   4.590  1.00  0.00     0.074 A 
ATOM     43  C   UNL     1       1.584   8.918   5.009  1.00  0.00     0.031 C 
ATOM     44  C   UNL     1      -4.421   5.981   3.301  1.00  0.00     0.029 A 
ATOM     45  C   UNL     1      -4.387   7.442   3.232  1.00  0.00     0.049 A 
ATOM     46  H   UNL     1      -2.749   8.680   3.579  1.00  0.00     0.167 HD
ATOM     47  C   UNL     1       0.733  11.184   4.507  1.00  0.00     0.031 A 
ATOM     48  C   UNL     1      -5.425   8.243   2.917  1.00  0.00     0.031 A 
ATOM     49  C   UNL     1      -0.296  12.107   4.118  1.00  0.00     0.049 A 
ATOM     50  C   UNL     1      -5.229   9.739   2.909  1.00  0.00     0.074 A 
ATOM     51  C   UNL     1      -0.217  13.483   4.000  1.00  0.00     0.029 A 
ATOM     52  N   UNL     1      -1.596  11.749   3.796  1.00  0.00    -0.354 N 
ATOM     53  N   UNL     1      -4.140  10.430   3.154  1.00  0.00    -0.248 NA
ATOM     54  C   UNL     1      -6.402  10.561   2.580  1.00  0.00     0.031 C 
ATOM     55  C   UNL     1      -1.485  13.962   3.655  1.00  0.00     0.029 A 
ATOM     56  C   UNL     1      -2.338  12.879   3.503  1.00  0.00     0.049 A 
ATOM     57  H   UNL     1      -1.940  10.827   3.778  1.00  0.00     0.167 HD
ATOM     58  C   UNL     1      -4.493  11.766   2.985  1.00  0.00     0.074 A 
ATOM     59  C   UNL     1      -5.891  11.785   2.606  1.00  0.00     0.031 C 
ATOM     60  C   UNL     1      -3.729  12.878   3.128  1.00  0.00     0.031 A 
BRANCH  47  61
ATOM     61  C   UNL     1       2.083  11.721   4.889  1.00  0.00    -0.014 A 
ATOM     62  C   UNL     1       3.202  11.533   4.058  1.00  0.00     0.010 A 
ATOM     63  C   UNL     1       2.233  12.428   6.096  1.00  0.00     0.010 A 
ATOM     64  C   UNL     1       4.456  12.009   4.447  1.00  0.00     0.020 A 
ATOM     65  C   UNL     1       3.481  12.927   6.476  1.00  0.00     0.020 A 
ATOM     66  C   UNL     1       4.588  12.699   5.656  1.00  0.00     0.054 A 
BRANCH  66  67
ATOM     67  S   UNL     1       6.226  13.317   6.132  1.00  0.00     0.124 S 
ATOM     68  O   UNL     1       6.905  12.088   6.535  1.00  0.00    -0.237 OA
ATOM     69  O   UNL     1       6.711  13.925   4.895  1.00  0.00    -0.237 OA
ATOM     70  O   UNL     1       5.941  14.255   7.214  1.00  0.00    -0.744 OA
ENDBRANCH  66  67
ENDBRANCH  47  61
BRANCH  48  71
ATOM     71  C   UNL     1      -6.757   7.654   2.608  1.00  0.00    -0.014 A 
ATOM     72  C   UNL     1      -7.275   7.695   1.302  1.00  0.00     0.010 A 
ATOM     73  C   UNL     1      -7.524   7.059   3.627  1.00  0.00     0.010 A 
ATOM     74  C   UNL     1      -8.539   7.167   1.023  1.00  0.00     0.020 A 
ATOM     75  C   UNL     1      -8.777   6.507   3.348  1.00  0.00     0.020 A 
ATOM     76  C   UNL     1      -9.283   6.575   2.048  1.00  0.00     0.054 A 
BRANCH  76  77
ATOM     77  S   UNL     1     -10.901   5.854   1.654  1.00  0.00     0.124 S 
ATOM     78  O   UNL     1     -11.733   7.043   1.500  1.00  0.00    -0.237 OA
ATOM     79  O   UNL     1     -10.625   5.110   0.428  1.00  0.00    -0.237 OA
ATOM     80  O   UNL     1     -11.199   5.027   2.822  1.00  0.00    -0.744 OA
ENDBRANCH  76  77
ENDBRANCH  48  71
BRANCH  60  81
ATOM     81  C   UNL     1      -4.372  14.209   2.842  1.00  0.00    -0.014 A 
ATOM     82  C   UNL     1      -5.289  14.783   3.739  1.00  0.00     0.010 A 
ATOM     83  C   UNL     1      -3.997  14.926   1.691  1.00  0.00     0.010 A 
ATOM     84  C   UNL     1      -5.840  16.040   3.476  1.00  0.00     0.020 A 
ATOM     85  C   UNL     1      -4.526  16.193   1.437  1.00  0.00     0.020 A 
ATOM     86  C   UNL     1      -5.455  16.738   2.326  1.00  0.00     0.054 A 
BRANCH  86  87
ATOM     87  S   UNL     1      -6.146  18.389   2.031  1.00  0.00     0.124 S 
ATOM     88  O   UNL     1      -7.501  18.076   1.585  1.00  0.00    -0.237 OA
ATOM     89  O   UNL     1      -6.046  19.020   3.345  1.00  0.00    -0.237 OA
ATOM     90  O   UNL     1      -5.268  18.953   1.008  1.00  0.00    -0.744 OA
ENDBRANCH  86  87
ENDBRANCH  60  81
ENDBRANCH  34  35
ENDBRANCH  27  29
ENDBRANCH  26  27
ENDBRANCH  25  26
ENDBRANCH  24  25
ENDBRANCH  23  24
ENDBRANCH  22  23
ENDBRANCH   1  22
TORSDOF 23
