REMARK SMILES Cc1c(C(=O)OCCOCCOCCOC(=O)c2ccc(-c3c4nc(c(-c5ccc(S(=O)(=O)[O-])cc5)c5ccc([nH]5)c(-c5ccc(S(=O)(=O)[O-])cc5)c5nc(c(-c6ccc(S(=O)(=O)[O-])cc6)c6ccc3[nH]6)C=C5)C=C4)cc2)oc2c1/C(=N/NC(=O)C(c1ccccc1)c1ccccc1)CCC2
REMARK SMILES IDX 10 1 9 2 8 3 7 4 6 5 4 6 5 7 3 8 1 9 2 10 80 11 78 12 79 13
REMARK SMILES IDX 81 14 101 15 82 16 99 17 100 18 83 19 84 20 85 22 86 23
REMARK SMILES IDX 87 24 88 25 92 26 89 27 91 28 90 29 93 30 94 31 98 32 95 33
REMARK SMILES IDX 97 34 96 35 11 36 12 37 13 38 14 39 15 40 16 41 17 42 18 43
REMARK SMILES IDX 19 44 77 45 20 46 76 47 21 48 22 49 23 50 70 51 24 52 75 53
REMARK SMILES IDX 69 54 71 55 25 56 74 57 68 58 67 59 26 61 56 62 37 63 55 64
REMARK SMILES IDX 38 65 41 66 54 67 72 68 39 69 40 70 53 72 73 73 42 74 27 75
REMARK SMILES IDX 28 76 36 77 29 78 35 79 30 80 31 81 32 82 33 83 34 84 57 85
REMARK SMILES IDX 58 86 66 87 59 88 65 89 60 90 61 91 62 92 63 93 64 94 43 95
REMARK SMILES IDX 44 96 52 97 45 98 51 99 46 100 47 101 48 102 49 103 50 104
REMARK H PARENT 83 21 71 60 41 71
REMARK Flexibility Score: inf
ROOT
ATOM      1  C   UNL     1       0.630  -1.583  -3.784  1.00  0.00     0.188 C 
ENDROOT
BRANCH   1   2
ATOM      2  O   UNL     1      -0.230  -2.673  -4.096  1.00  0.00    -0.376 OA
BRANCH   2   3
ATOM      3  C   UNL     1      -1.331  -2.507  -4.970  1.00  0.00     0.202 C 
BRANCH   3   4
ATOM      4  C   UNL     1      -2.511  -1.662  -4.475  1.00  0.00     0.261 C 
BRANCH   4   5
ATOM      5  O   UNL     1      -2.133  -0.427  -3.871  1.00  0.00    -0.457 OA
BRANCH   5   6
ATOM      6  C   UNL     1      -1.998  -0.435  -2.509  1.00  0.00     0.374 C 
ATOM      7  O   UNL     1      -2.324  -1.339  -1.770  1.00  0.00    -0.242 OA
BRANCH   6   8
ATOM      8  C   UNL     1      -1.281   0.764  -2.127  1.00  0.00     0.215 A 
ATOM      9  C   UNL     1       0.139   0.086  -0.066  1.00  0.00     0.049 C 
ATOM     10  C   UNL     1      -0.379   1.023  -1.096  1.00  0.00     0.012 A 
ATOM     11  C   UNL     1      -0.018   2.391  -1.249  1.00  0.00     0.043 A 
ATOM     12  O   UNL     1      -1.384   1.855  -2.950  1.00  0.00    -0.453 OA
ATOM     13  C   UNL     1      -0.582   2.800  -2.438  1.00  0.00     0.114 A 
ATOM     14  C   UNL     1       0.736   3.344  -0.436  1.00  0.00     0.072 C 
ATOM     15  C   UNL     1      -0.469   4.095  -3.143  1.00  0.00     0.076 C 
ATOM     16  N   UNL     1       1.431   2.808   0.519  1.00  0.00    -0.177 NA
ATOM     17  C   UNL     1       0.417   4.756  -0.886  1.00  0.00     0.059 C 
ATOM     18  C   UNL     1       0.552   4.955  -2.400  1.00  0.00     0.014 C 
BRANCH  16  19
ATOM     19  N   UNL     1       2.201   3.213   1.568  1.00  0.00    -0.246 N 
ATOM     20  C   UNL     1       2.554   4.366   2.233  1.00  0.00     0.252 C 
ATOM     21  H   UNL     1       2.644   2.436   1.980  1.00  0.00     0.193 HD
ATOM     22  O   UNL     1       3.256   4.242   3.248  1.00  0.00    -0.272 OA
BRANCH  20  23
ATOM     23  C   UNL     1       2.120   5.765   1.781  1.00  0.00     0.140 C 
BRANCH  23  24
ATOM     24  C   UNL     1       2.918   6.115   0.472  1.00  0.00    -0.031 A 
ATOM     25  C   UNL     1       3.814   5.175  -0.110  1.00  0.00     0.005 A 
ATOM     26  C   UNL     1       2.769   7.324  -0.224  1.00  0.00     0.005 A 
ATOM     27  C   UNL     1       4.392   5.353  -1.368  1.00  0.00     0.000 A 
ATOM     28  C   UNL     1       3.359   7.510  -1.490  1.00  0.00     0.000 A 
ATOM     29  C   UNL     1       4.145   6.516  -2.072  1.00  0.00     0.000 A 
ENDBRANCH  23  24
BRANCH  23  30
ATOM     30  C   UNL     1       0.558   5.860   1.916  1.00  0.00    -0.031 A 
ATOM     31  C   UNL     1      -0.220   6.908   1.402  1.00  0.00     0.005 A 
ATOM     32  C   UNL     1      -0.165   4.823   2.568  1.00  0.00     0.005 A 
ATOM     33  C   UNL     1      -1.626   6.818   1.367  1.00  0.00     0.000 A 
ATOM     34  C   UNL     1      -1.556   4.716   2.510  1.00  0.00     0.000 A 
ATOM     35  C   UNL     1      -2.289   5.704   1.880  1.00  0.00     0.000 A 
ENDBRANCH  23  30
ENDBRANCH  20  23
ENDBRANCH  16  19
ENDBRANCH   6   8
ENDBRANCH   5   6
ENDBRANCH   4   5
ENDBRANCH   3   4
ENDBRANCH   2   3
ENDBRANCH   1   2
BRANCH   1  36
ATOM     36  C   UNL     1       0.769  -0.319  -4.668  1.00  0.00     0.188 C 
BRANCH  36  37
ATOM     37  O   UNL     1       0.127  -0.362  -5.934  1.00  0.00    -0.376 OA
BRANCH  37  38
ATOM     38  C   UNL     1       0.984  -0.231  -7.064  1.00  0.00     0.202 C 
BRANCH  38  39
ATOM     39  C   UNL     1       1.699  -1.527  -7.433  1.00  0.00     0.261 C 
BRANCH  39  40
ATOM     40  O   UNL     1       2.340  -2.148  -6.328  1.00  0.00    -0.460 OA
BRANCH  40  41
ATOM     41  C   UNL     1       3.400  -1.499  -5.806  1.00  0.00     0.338 C 
ATOM     42  O   UNL     1       3.810  -0.395  -6.116  1.00  0.00    -0.246 OA
BRANCH  41  43
ATOM     43  C   UNL     1       4.028  -2.384  -4.815  1.00  0.00     0.060 A 
ATOM     44  C   UNL     1       5.141  -1.885  -4.137  1.00  0.00     0.016 A 
ATOM     45  C   UNL     1       3.693  -3.748  -4.805  1.00  0.00     0.016 A 
ATOM     46  C   UNL     1       6.090  -2.786  -3.717  1.00  0.00     0.010 A 
ATOM     47  C   UNL     1       4.648  -4.645  -4.409  1.00  0.00     0.010 A 
ATOM     48  C   UNL     1       5.877  -4.137  -3.996  1.00  0.00    -0.014 A 
BRANCH  48  49
ATOM     49  C   UNL     1       7.041  -4.989  -4.077  1.00  0.00     0.031 A 
ATOM     50  C   UNL     1       7.455  -5.630  -2.821  1.00  0.00     0.074 A 
ATOM     51  C   UNL     1       7.607  -5.232  -5.275  1.00  0.00     0.049 A 
ATOM     52  N   UNL     1       8.572  -5.479  -2.196  1.00  0.00    -0.248 NA
ATOM     53  C   UNL     1       6.458  -6.443  -2.113  1.00  0.00     0.031 C 
ATOM     54  C   UNL     1       7.084  -4.877  -6.601  1.00  0.00     0.029 A 
ATOM     55  N   UNL     1       8.698  -5.986  -5.565  1.00  0.00    -0.354 N 
ATOM     56  C   UNL     1       8.493  -6.312  -1.088  1.00  0.00     0.074 A 
ATOM     57  C   UNL     1       7.120  -6.745  -0.998  1.00  0.00     0.031 C 
ATOM     58  C   UNL     1       7.708  -5.629  -7.532  1.00  0.00     0.029 A 
ATOM     59  C   UNL     1       8.732  -6.428  -6.879  1.00  0.00     0.049 A 
ATOM     60  H   UNL     1       9.398  -6.199  -4.905  1.00  0.00     0.167 HD
ATOM     61  C   UNL     1       9.601  -6.761  -0.442  1.00  0.00     0.031 A 
ATOM     62  C   UNL     1       9.457  -7.471  -7.354  1.00  0.00     0.031 A 
ATOM     63  C   UNL     1      10.786  -6.048  -0.834  1.00  0.00     0.049 A 
ATOM     64  C   UNL     1      10.544  -7.738  -6.374  1.00  0.00     0.074 A 
ATOM     65  C   UNL     1      11.199  -4.735  -0.737  1.00  0.00     0.029 A 
ATOM     66  N   UNL     1      11.602  -6.645  -1.769  1.00  0.00    -0.354 N 
ATOM     67  N   UNL     1      11.527  -6.910  -6.145  1.00  0.00    -0.248 NA
ATOM     68  C   UNL     1      10.310  -8.717  -5.320  1.00  0.00     0.031 C 
ATOM     69  C   UNL     1      11.952  -4.493  -1.920  1.00  0.00     0.029 A 
ATOM     70  C   UNL     1      11.989  -5.677  -2.661  1.00  0.00     0.049 A 
ATOM     71  H   UNL     1      11.862  -7.594  -1.792  1.00  0.00     0.167 HD
ATOM     72  C   UNL     1      11.747  -6.980  -4.774  1.00  0.00     0.074 A 
ATOM     73  C   UNL     1      11.054  -8.190  -4.343  1.00  0.00     0.031 C 
ATOM     74  C   UNL     1      12.220  -5.904  -4.075  1.00  0.00     0.031 A 
BRANCH  61  75
ATOM     75  C   UNL     1       9.657  -8.077   0.280  1.00  0.00    -0.014 A 
ATOM     76  C   UNL     1      10.793  -8.383   1.051  1.00  0.00     0.010 A 
ATOM     77  C   UNL     1       8.753  -9.127   0.013  1.00  0.00     0.010 A 
ATOM     78  C   UNL     1      11.047  -9.695   1.470  1.00  0.00     0.020 A 
ATOM     79  C   UNL     1       8.970 -10.425   0.469  1.00  0.00     0.020 A 
ATOM     80  C   UNL     1      10.141 -10.709   1.157  1.00  0.00     0.054 A 
BRANCH  80  81
ATOM     81  S   UNL     1      10.549 -12.423   1.562  1.00  0.00     0.124 S 
ATOM     82  O   UNL     1      11.650 -12.691   0.642  1.00  0.00    -0.237 OA
ATOM     83  O   UNL     1      10.907 -12.334   2.975  1.00  0.00    -0.237 OA
ATOM     84  O   UNL     1       9.309 -13.144   1.284  1.00  0.00    -0.744 OA
ENDBRANCH  80  81
ENDBRANCH  61  75
BRANCH  62  85
ATOM     85  C   UNL     1       9.028  -8.432  -8.404  1.00  0.00    -0.014 A 
ATOM     86  C   UNL     1       9.925  -9.361  -8.959  1.00  0.00     0.010 A 
ATOM     87  C   UNL     1       7.657  -8.595  -8.705  1.00  0.00     0.010 A 
ATOM     88  C   UNL     1       9.461 -10.433  -9.745  1.00  0.00     0.020 A 
ATOM     89  C   UNL     1       7.190  -9.645  -9.501  1.00  0.00     0.020 A 
ATOM     90  C   UNL     1       8.094 -10.575  -9.999  1.00  0.00     0.054 A 
BRANCH  90  91
ATOM     91  S   UNL     1       7.484 -12.044 -10.874  1.00  0.00     0.124 S 
ATOM     92  O   UNL     1       7.940 -11.805 -12.239  1.00  0.00    -0.237 OA
ATOM     93  O   UNL     1       8.148 -13.134 -10.164  1.00  0.00    -0.237 OA
ATOM     94  O   UNL     1       6.035 -11.981 -10.684  1.00  0.00    -0.744 OA
ENDBRANCH  90  91
ENDBRANCH  62  85
BRANCH  74  95
ATOM     95  C   UNL     1      12.761  -4.723  -4.852  1.00  0.00    -0.014 A 
ATOM     96  C   UNL     1      11.968  -3.964  -5.737  1.00  0.00     0.010 A 
ATOM     97  C   UNL     1      14.045  -4.248  -4.531  1.00  0.00     0.010 A 
ATOM     98  C   UNL     1      12.452  -2.773  -6.294  1.00  0.00     0.020 A 
ATOM     99  C   UNL     1      14.526  -3.050  -5.069  1.00  0.00     0.020 A 
ATOM    100  C   UNL     1      13.729  -2.320  -5.952  1.00  0.00     0.054 A 
BRANCH 100 101
ATOM    101  S   UNL     1      14.310  -0.730  -6.605  1.00  0.00     0.124 S 
ATOM    102  O   UNL     1      14.572  -1.040  -8.007  1.00  0.00    -0.237 OA
ATOM    103  O   UNL     1      13.176   0.159  -6.358  1.00  0.00    -0.237 OA
ATOM    104  O   UNL     1      15.498  -0.438  -5.803  1.00  0.00    -0.744 OA
ENDBRANCH 100 101
ENDBRANCH  74  95
ENDBRANCH  48  49
ENDBRANCH  41  43
ENDBRANCH  40  41
ENDBRANCH  39  40
ENDBRANCH  38  39
ENDBRANCH  37  38
ENDBRANCH  36  37
ENDBRANCH   1  36
TORSDOF 24
