REMARK SMILES CN1C(=O)C(=Cc2ccc(OCc3cccc(C(=O)OCCOCCOCCOC(=O)c4ccc(-c5c6nc(c(-c7ccc(S(=O)(=O)[O-])cc7)c7ccc([nH]7)c(-c7ccc(S(=O)(=O)[O-])cc7)c7nc(c(-c8ccc(S(=O)(=O)[O-])cc8)c8ccc5[nH]8)C=C7)C=C6)cc4)c3)c(Cl)c2)C(=O)N(C)C1=S
REMARK SMILES IDX 24 1 23 2 22 3 21 4 20 5 18 6 19 7 17 8 13 9 14 10 92 11
REMARK SMILES IDX 15 12 16 13 12 14 11 15 10 16 7 17 8 18 95 19 9 20 93 21
REMARK SMILES IDX 94 22 6 23 1 24 2 25 3 26 100 27 4 28 5 29 98 30 101 31
REMARK SMILES IDX 96 32 99 33 97 34 25 35 26 36 27 37 28 38 29 39 30 40 31 41
REMARK SMILES IDX 32 42 33 43 91 44 34 45 90 46 35 47 36 48 37 49 84 50 38 51
REMARK SMILES IDX 89 52 83 53 85 54 39 55 88 56 82 57 81 58 40 60 70 61 51 62
REMARK SMILES IDX 69 63 52 64 55 65 68 66 86 67 53 68 54 69 67 71 87 72 56 73
REMARK SMILES IDX 41 74 42 75 50 76 43 77 49 78 44 79 45 80 46 81 47 82 48 83
REMARK SMILES IDX 71 84 72 85 80 86 73 87 79 88 74 89 75 90 76 91 77 92 78 93
REMARK SMILES IDX 57 94 58 95 66 96 59 97 65 98 60 99 61 100 62 101 63 102
REMARK SMILES IDX 64 103
REMARK H PARENT 85 59 55 70
REMARK Flexibility Score: inf
ROOT
ATOM      1  C   UNL     1       8.187  -4.177  -8.192  1.00  0.00     0.188 C 
ENDROOT
BRANCH   1   2
ATOM      2  O   UNL     1       9.422  -3.735  -8.738  1.00  0.00    -0.376 OA
BRANCH   2   3
ATOM      3  C   UNL     1       9.431  -3.530 -10.145  1.00  0.00     0.202 C 
BRANCH   3   4
ATOM      4  C   UNL     1       8.784  -2.207 -10.571  1.00  0.00     0.261 C 
BRANCH   4   5
ATOM      5  O   UNL     1       7.406  -2.078 -10.184  1.00  0.00    -0.460 OA
BRANCH   5   6
ATOM      6  C   UNL     1       6.522  -2.849 -10.856  1.00  0.00     0.338 C 
ATOM      7  O   UNL     1       6.774  -3.575 -11.804  1.00  0.00    -0.246 OA
BRANCH   6   8
ATOM      8  C   UNL     1       5.227  -2.830 -10.133  1.00  0.00     0.060 A 
ATOM      9  C   UNL     1       3.488  -1.683  -8.858  1.00  0.00    -0.010 A 
ATOM     10  C   UNL     1       2.836  -2.917  -8.712  1.00  0.00     0.007 A 
ATOM     11  C   UNL     1       4.707  -1.655  -9.561  1.00  0.00     0.023 A 
ATOM     12  C   UNL     1       3.365  -4.089  -9.259  1.00  0.00     0.001 A 
ATOM     13  C   UNL     1       4.551  -4.044  -9.984  1.00  0.00     0.016 A 
BRANCH   9  14
ATOM     14  C   UNL     1       2.847  -0.397  -8.364  1.00  0.00     0.265 C 
BRANCH  14  15
ATOM     15  O   UNL     1       2.965  -0.097  -6.971  1.00  0.00    -0.487 OA
BRANCH  15  16
ATOM     16  C   UNL     1       2.365  -0.892  -6.037  1.00  0.00     0.138 A 
ATOM     17  C   UNL     1       1.521  -2.578  -3.943  1.00  0.00    -0.023 A 
ATOM     18  C   UNL     1       2.739  -1.901  -3.852  1.00  0.00     0.012 A 
ATOM     19  C   UNL     1       0.693  -2.350  -5.042  1.00  0.00     0.032 A 
ATOM     20  C   UNL     1       3.154  -1.070  -4.892  1.00  0.00     0.048 A 
ATOM     21  C   UNL     1       1.090  -1.474  -6.064  1.00  0.00     0.083 A 
ATOM     22  Cl  UNL     1      -0.110  -1.117  -7.257  1.00  0.00    -0.080 Cl
BRANCH  17  23
ATOM     23  C   UNL     1       1.117  -3.492  -2.873  1.00  0.00     0.027 C 
ATOM     24  C   UNL     1       0.390   0.050   0.233  1.00  0.00     0.156 C 
ATOM     25  N   UNL     1       0.413  -1.393  -0.028  1.00  0.00    -0.288 N 
ATOM     26  C   UNL     1       0.242  -1.733  -1.366  1.00  0.00     0.265 C 
ATOM     27  C   UNL     1       0.591  -2.316   1.030  1.00  0.00     0.185 C 
ATOM     28  O   UNL     1      -0.181  -0.960  -2.222  1.00  0.00    -0.268 OA
ATOM     29  C   UNL     1       0.590  -3.119  -1.690  1.00  0.00     0.106 C 
ATOM     30  N   UNL     1       0.607  -3.677   0.655  1.00  0.00    -0.288 N 
ATOM     31  S   UNL     1       0.748  -1.803   2.641  1.00  0.00    -0.040 S 
ATOM     32  C   UNL     1       0.480  -4.150  -0.652  1.00  0.00     0.265 C 
ATOM     33  C   UNL     1       0.775  -4.765   1.627  1.00  0.00     0.156 C 
ATOM     34  O   UNL     1       0.338  -5.334  -0.947  1.00  0.00    -0.268 OA
ENDBRANCH  17  23
ENDBRANCH  15  16
ENDBRANCH  14  15
ENDBRANCH   9  14
ENDBRANCH   6   8
ENDBRANCH   5   6
ENDBRANCH   4   5
ENDBRANCH   3   4
ENDBRANCH   2   3
ENDBRANCH   1   2
BRANCH   1  35
ATOM     35  C   UNL     1       7.484  -3.153  -7.277  1.00  0.00     0.188 C 
BRANCH  35  36
ATOM     36  O   UNL     1       8.175  -2.029  -6.747  1.00  0.00    -0.376 OA
BRANCH  36  37
ATOM     37  C   UNL     1       9.541  -2.149  -6.392  1.00  0.00     0.202 C 
BRANCH  37  38
ATOM     38  C   UNL     1       9.933  -3.144  -5.292  1.00  0.00     0.261 C 
BRANCH  38  39
ATOM     39  O   UNL     1       9.360  -4.454  -5.416  1.00  0.00    -0.460 OA
BRANCH  39  40
ATOM     40  C   UNL     1       8.358  -4.733  -4.545  1.00  0.00     0.338 C 
ATOM     41  O   UNL     1       7.914  -4.006  -3.673  1.00  0.00    -0.246 OA
BRANCH  40  42
ATOM     42  C   UNL     1       7.741  -6.029  -4.898  1.00  0.00     0.060 A 
ATOM     43  C   UNL     1       6.366  -6.057  -5.166  1.00  0.00     0.016 A 
ATOM     44  C   UNL     1       8.487  -7.209  -4.906  1.00  0.00     0.016 A 
ATOM     45  C   UNL     1       5.726  -7.270  -5.422  1.00  0.00     0.010 A 
ATOM     46  C   UNL     1       7.839  -8.428  -5.138  1.00  0.00     0.010 A 
ATOM     47  C   UNL     1       6.452  -8.467  -5.370  1.00  0.00    -0.014 A 
BRANCH  47  48
ATOM     48  C   UNL     1       5.732  -9.764  -5.383  1.00  0.00     0.031 A 
ATOM     49  C   UNL     1       5.394 -10.415  -4.069  1.00  0.00     0.074 A 
ATOM     50  C   UNL     1       5.367 -10.348  -6.538  1.00  0.00     0.049 A 
ATOM     51  N   UNL     1       4.797 -11.556  -3.839  1.00  0.00    -0.248 NA
ATOM     52  C   UNL     1       5.780  -9.679  -2.854  1.00  0.00     0.031 C 
ATOM     53  C   UNL     1       5.595  -9.801  -7.875  1.00  0.00     0.029 A 
ATOM     54  N   UNL     1       4.729 -11.542  -6.766  1.00  0.00    -0.354 N 
ATOM     55  C   UNL     1       4.738 -11.677  -2.456  1.00  0.00     0.074 A 
ATOM     56  C   UNL     1       5.383 -10.508  -1.899  1.00  0.00     0.031 C 
ATOM     57  C   UNL     1       5.114 -10.666  -8.786  1.00  0.00     0.029 A 
ATOM     58  C   UNL     1       4.572 -11.838  -8.099  1.00  0.00     0.049 A 
ATOM     59  H   UNL     1       4.414 -12.131  -6.043  1.00  0.00     0.167 HD
ATOM     60  C   UNL     1       4.194 -12.670  -1.713  1.00  0.00     0.031 A 
ATOM     61  C   UNL     1       4.069 -12.937  -8.697  1.00  0.00     0.031 A 
ATOM     62  C   UNL     1       3.575 -13.846  -2.263  1.00  0.00     0.049 A 
ATOM     63  C   UNL     1       3.544 -14.069  -7.850  1.00  0.00     0.074 A 
ATOM     64  C   UNL     1       2.989 -14.904  -1.590  1.00  0.00     0.029 A 
ATOM     65  N   UNL     1       3.470 -14.125  -3.617  1.00  0.00    -0.354 N 
ATOM     66  N   UNL     1       3.473 -14.158  -6.543  1.00  0.00    -0.248 NA
ATOM     67  C   UNL     1       3.026 -15.247  -8.562  1.00  0.00     0.031 C 
ATOM     68  C   UNL     1       2.578 -15.849  -2.537  1.00  0.00     0.029 A 
ATOM     69  C   UNL     1       2.855 -15.352  -3.800  1.00  0.00     0.049 A 
ATOM     70  H   UNL     1       3.787 -13.538  -4.341  1.00  0.00     0.167 HD
ATOM     71  C   UNL     1       2.877 -15.388  -6.278  1.00  0.00     0.074 A 
ATOM     72  C   UNL     1       2.599 -16.003  -7.559  1.00  0.00     0.031 C 
ATOM     73  C   UNL     1       2.584 -15.955  -5.081  1.00  0.00     0.031 A 
BRANCH  60  74
ATOM     74  C   UNL     1       4.282 -12.538  -0.217  1.00  0.00    -0.014 A 
ATOM     75  C   UNL     1       3.497 -11.600   0.477  1.00  0.00     0.010 A 
ATOM     76  C   UNL     1       5.146 -13.378   0.507  1.00  0.00     0.010 A 
ATOM     77  C   UNL     1       3.607 -11.475   1.864  1.00  0.00     0.020 A 
ATOM     78  C   UNL     1       5.241 -13.274   1.897  1.00  0.00     0.020 A 
ATOM     79  C   UNL     1       4.484 -12.309   2.565  1.00  0.00     0.054 A 
BRANCH  79  80
ATOM     80  S   UNL     1       4.603 -12.130   4.365  1.00  0.00     0.124 S 
ATOM     81  O   UNL     1       5.352 -10.882   4.493  1.00  0.00    -0.237 OA
ATOM     82  O   UNL     1       3.202 -12.064   4.775  1.00  0.00    -0.237 OA
ATOM     83  O   UNL     1       5.318 -13.332   4.788  1.00  0.00    -0.744 OA
ENDBRANCH  79  80
ENDBRANCH  60  74
BRANCH  61  84
ATOM     84  C   UNL     1       4.054 -13.034 -10.182  1.00  0.00    -0.014 A 
ATOM     85  C   UNL     1       2.843 -12.981 -10.893  1.00  0.00     0.010 A 
ATOM     86  C   UNL     1       5.259 -13.188 -10.893  1.00  0.00     0.010 A 
ATOM     87  C   UNL     1       2.835 -13.093 -12.287  1.00  0.00     0.020 A 
ATOM     88  C   UNL     1       5.257 -13.274 -12.288  1.00  0.00     0.020 A 
ATOM     89  C   UNL     1       4.043 -13.236 -12.976  1.00  0.00     0.054 A 
BRANCH  89  90
ATOM     90  S   UNL     1       4.013 -13.325 -14.788  1.00  0.00     0.124 S 
ATOM     91  O   UNL     1       3.509 -14.675 -15.018  1.00  0.00    -0.237 OA
ATOM     92  O   UNL     1       3.102 -12.240 -15.143  1.00  0.00    -0.237 OA
ATOM     93  O   UNL     1       5.408 -13.105 -15.163  1.00  0.00    -0.744 OA
ENDBRANCH  89  90
ENDBRANCH  61  84
BRANCH  73  94
ATOM     94  C   UNL     1       1.897 -17.295  -5.092  1.00  0.00    -0.014 A 
ATOM     95  C   UNL     1       2.590 -18.469  -5.438  1.00  0.00     0.010 A 
ATOM     96  C   UNL     1       0.552 -17.388  -4.688  1.00  0.00     0.010 A 
ATOM     97  C   UNL     1       1.942 -19.707  -5.406  1.00  0.00     0.020 A 
ATOM     98  C   UNL     1      -0.091 -18.627  -4.630  1.00  0.00     0.020 A 
ATOM     99  C   UNL     1       0.605 -19.779  -5.003  1.00  0.00     0.054 A 
BRANCH  99 100
ATOM    100  S   UNL     1      -0.200 -21.403  -4.924  1.00  0.00     0.124 S 
ATOM    101  O   UNL     1      -0.426 -21.699  -6.336  1.00  0.00    -0.237 OA
ATOM    102  O   UNL     1       0.806 -22.229  -4.261  1.00  0.00    -0.237 OA
ATOM    103  O   UNL     1      -1.407 -21.153  -4.139  1.00  0.00    -0.744 OA
ENDBRANCH  99 100
ENDBRANCH  73  94
ENDBRANCH  47  48
ENDBRANCH  40  42
ENDBRANCH  39  40
ENDBRANCH  38  39
ENDBRANCH  37  38
ENDBRANCH  36  37
ENDBRANCH  35  36
ENDBRANCH   1  35
TORSDOF 24
