REMARK SMILES O=C(Cc1ccc(=O)n(C(F)F)c1)OCCOCCOCCOC(=O)c1ccc(-c2c3nc(c(-c4ccc(S(=O)(=O)[O-])cc4)c4ccc([nH]4)c(-c4ccc(S(=O)(=O)[O-])cc4)c4nc(c(-c5ccc(S(=O)(=O)[O-])cc5)c5ccc2[nH]5)C=C4)C=C3)cc1
REMARK SMILES IDX 19 1 18 2 17 3 16 4 15 5 14 6 2 7 1 8 3 9 4 10 5 11 13 12
REMARK SMILES IDX 6 13 9 14 7 15 8 16 10 17 11 18 12 19 20 20 21 21 22 22
REMARK SMILES IDX 23 23 24 24 25 25 26 26 27 27 85 28 28 29 84 30 29 31 30 32
REMARK SMILES IDX 31 33 78 34 32 35 83 36 77 37 79 38 33 39 82 40 76 41 75 42
REMARK SMILES IDX 34 44 64 45 45 46 63 47 46 48 49 49 62 50 80 51 47 52 48 53
REMARK SMILES IDX 61 55 81 56 50 57 35 58 36 59 44 60 37 61 43 62 38 63 39 64
REMARK SMILES IDX 40 65 41 66 42 67 65 68 66 69 74 70 67 71 73 72 68 73 69 74
REMARK SMILES IDX 70 75 71 76 72 77 51 78 52 79 60 80 53 81 59 82 54 83 55 84
REMARK SMILES IDX 56 85 57 86 58 87
REMARK H PARENT 79 43 49 54
REMARK Flexibility Score: inf
ROOT
ATOM      1  C   UNL     1       2.351   0.018  -2.721  1.00  0.00     0.188 C 
ENDROOT
BRANCH   1   2
ATOM      2  C   UNL     1       3.149   0.871  -1.725  1.00  0.00     0.188 C 
BRANCH   2   3
ATOM      3  O   UNL     1       4.513   0.529  -1.607  1.00  0.00    -0.376 OA
BRANCH   3   4
ATOM      4  C   UNL     1       4.955   0.081  -0.343  1.00  0.00     0.202 C 
BRANCH   4   5
ATOM      5  C   UNL     1       4.285  -1.204   0.127  1.00  0.00     0.261 C 
BRANCH   5   6
ATOM      6  O   UNL     1       2.857  -1.173   0.419  1.00  0.00    -0.463 OA
BRANCH   6   7
ATOM      7  C   UNL     1       2.069  -0.372   1.169  1.00  0.00     0.310 C 
ATOM      8  O   UNL     1       0.865  -0.618   1.226  1.00  0.00    -0.252 OA
BRANCH   7   9
ATOM      9  C   UNL     1       2.628   0.862   1.868  1.00  0.00     0.159 C 
BRANCH   9  10
ATOM     10  C   UNL     1       3.797   0.640   2.776  1.00  0.00    -0.020 A 
ATOM     11  C   UNL     1       4.655   1.776   3.053  1.00  0.00     0.011 A 
ATOM     12  C   UNL     1       4.133  -0.561   3.267  1.00  0.00     0.099 A 
ATOM     13  C   UNL     1       5.805   1.615   3.720  1.00  0.00     0.072 A 
ATOM     14  N   UNL     1       5.345  -0.768   3.888  1.00  0.00    -0.258 N 
ATOM     15  C   UNL     1       6.235   0.259   4.161  1.00  0.00     0.254 A 
ATOM     16  O   UNL     1       7.334   0.125   4.688  1.00  0.00    -0.269 OA
BRANCH  14  17
ATOM     17  C   UNL     1       5.770  -2.112   4.173  1.00  0.00     0.451 C 
ATOM     18  F   UNL     1       6.935  -2.396   3.538  1.00  0.00    -0.185 F 
ATOM     19  F   UNL     1       5.944  -2.313   5.498  1.00  0.00    -0.185 F 
ENDBRANCH  14  17
ENDBRANCH   9  10
ENDBRANCH   7   9
ENDBRANCH   6   7
ENDBRANCH   5   6
ENDBRANCH   4   5
ENDBRANCH   3   4
ENDBRANCH   2   3
ENDBRANCH   1   2
BRANCH   1  20
ATOM     20  O   UNL     1       3.020  -0.948  -3.518  1.00  0.00    -0.376 OA
BRANCH  20  21
ATOM     21  C   UNL     1       4.287  -0.632  -4.081  1.00  0.00     0.202 C 
BRANCH  21  22
ATOM     22  C   UNL     1       4.440   0.647  -4.924  1.00  0.00     0.261 C 
BRANCH  22  23
ATOM     23  O   UNL     1       4.123   1.886  -4.257  1.00  0.00    -0.460 OA
BRANCH  23  24
ATOM     24  C   UNL     1       2.999   2.528  -4.677  1.00  0.00     0.338 C 
ATOM     25  O   UNL     1       2.233   2.160  -5.545  1.00  0.00    -0.246 OA
BRANCH  24  26
ATOM     26  C   UNL     1       2.713   3.681  -3.784  1.00  0.00     0.060 A 
ATOM     27  C   UNL     1       3.635   4.713  -3.615  1.00  0.00     0.016 A 
ATOM     28  C   UNL     1       1.479   3.729  -3.112  1.00  0.00     0.016 A 
ATOM     29  C   UNL     1       3.303   5.809  -2.807  1.00  0.00     0.010 A 
ATOM     30  C   UNL     1       1.156   4.818  -2.291  1.00  0.00     0.010 A 
ATOM     31  C   UNL     1       2.053   5.886  -2.156  1.00  0.00    -0.014 A 
BRANCH  31  32
ATOM     32  C   UNL     1       1.623   7.177  -1.549  1.00  0.00     0.031 A 
ATOM     33  C   UNL     1       1.591   7.423  -0.070  1.00  0.00     0.074 A 
ATOM     34  C   UNL     1       1.265   8.169  -2.389  1.00  0.00     0.049 A 
ATOM     35  N   UNL     1       1.434   8.558   0.565  1.00  0.00    -0.248 NA
ATOM     36  C   UNL     1       1.742   6.258   0.811  1.00  0.00     0.031 C 
ATOM     37  C   UNL     1       1.196   8.035  -3.845  1.00  0.00     0.029 A 
ATOM     38  N   UNL     1       0.926   9.479  -2.155  1.00  0.00    -0.354 N 
ATOM     39  C   UNL     1       1.504   8.257   1.919  1.00  0.00     0.074 A 
ATOM     40  C   UNL     1       1.653   6.818   2.013  1.00  0.00     0.031 C 
ATOM     41  C   UNL     1       0.901   9.228  -4.378  1.00  0.00     0.029 A 
ATOM     42  C   UNL     1       0.728  10.206  -3.306  1.00  0.00     0.049 A 
ATOM     43  H   UNL     1       0.834   9.861  -1.252  1.00  0.00     0.167 HD
ATOM     44  C   UNL     1       1.471   9.107   2.977  1.00  0.00     0.031 A 
ATOM     45  C   UNL     1       0.466  11.515  -3.495  1.00  0.00     0.031 A 
ATOM     46  C   UNL     1       1.277  10.535   2.868  1.00  0.00     0.049 A 
ATOM     47  C   UNL     1       0.411  12.435  -2.311  1.00  0.00     0.074 A 
ATOM     48  C   UNL     1       1.280  11.480   3.882  1.00  0.00     0.029 A 
ATOM     49  N   UNL     1       1.025  11.227   1.690  1.00  0.00    -0.354 N 
ATOM     50  N   UNL     1       0.605  12.154  -1.044  1.00  0.00    -0.248 NA
ATOM     51  C   UNL     1       0.124  13.851  -2.578  1.00  0.00     0.031 C 
ATOM     52  C   UNL     1       0.946  12.720   3.332  1.00  0.00     0.029 A 
ATOM     53  C   UNL     1       0.825  12.574   1.960  1.00  0.00     0.049 A 
ATOM     54  H   UNL     1       0.994  10.820   0.794  1.00  0.00     0.167 HD
ATOM     55  C   UNL     1       0.466  13.358  -0.362  1.00  0.00     0.074 A 
ATOM     56  C   UNL     1       0.210  14.376  -1.362  1.00  0.00     0.031 C 
ATOM     57  C   UNL     1       0.538  13.590   0.972  1.00  0.00     0.031 A 
BRANCH  44  58
ATOM     58  C   UNL     1       1.679   8.534   4.362  1.00  0.00    -0.014 A 
ATOM     59  C   UNL     1       0.673   8.650   5.341  1.00  0.00     0.010 A 
ATOM     60  C   UNL     1       2.926   7.999   4.735  1.00  0.00     0.010 A 
ATOM     61  C   UNL     1       0.916   8.267   6.664  1.00  0.00     0.020 A 
ATOM     62  C   UNL     1       3.163   7.583   6.049  1.00  0.00     0.020 A 
ATOM     63  C   UNL     1       2.162   7.739   7.010  1.00  0.00     0.054 A 
BRANCH  63  64
ATOM     64  S   UNL     1       2.465   7.256   8.733  1.00  0.00     0.124 S 
ATOM     65  O   UNL     1       2.580   8.547   9.402  1.00  0.00    -0.237 OA
ATOM     66  O   UNL     1       1.272   6.478   9.057  1.00  0.00    -0.237 OA
ATOM     67  O   UNL     1       3.700   6.478   8.656  1.00  0.00    -0.744 OA
ENDBRANCH  63  64
ENDBRANCH  44  58
BRANCH  45  68
ATOM     68  C   UNL     1       0.320  12.013  -4.892  1.00  0.00    -0.014 A 
ATOM     69  C   UNL     1      -0.754  11.577  -5.691  1.00  0.00     0.010 A 
ATOM     70  C   UNL     1       1.327  12.804  -5.473  1.00  0.00     0.010 A 
ATOM     71  C   UNL     1      -0.771  11.843  -7.062  1.00  0.00     0.020 A 
ATOM     72  C   UNL     1       1.293  13.104  -6.838  1.00  0.00     0.020 A 
ATOM     73  C   UNL     1       0.266  12.586  -7.630  1.00  0.00     0.054 A 
BRANCH  73  74
ATOM     74  S   UNL     1       0.283  12.813  -9.429  1.00  0.00     0.124 S 
ATOM     75  O   UNL     1       0.627  11.472  -9.896  1.00  0.00    -0.237 OA
ATOM     76  O   UNL     1      -1.084  13.246  -9.707  1.00  0.00    -0.237 OA
ATOM     77  O   UNL     1       1.311  13.829  -9.638  1.00  0.00    -0.744 OA
ENDBRANCH  73  74
ENDBRANCH  45  68
BRANCH  57  78
ATOM     78  C   UNL     1       0.294  14.999   1.464  1.00  0.00    -0.014 A 
ATOM     79  C   UNL     1       1.315  15.706   2.127  1.00  0.00     0.010 A 
ATOM     80  C   UNL     1      -0.983  15.582   1.373  1.00  0.00     0.010 A 
ATOM     81  C   UNL     1       1.055  16.945   2.723  1.00  0.00     0.020 A 
ATOM     82  C   UNL     1      -1.238  16.838   1.934  1.00  0.00     0.020 A 
ATOM     83  C   UNL     1      -0.224  17.498   2.630  1.00  0.00     0.054 A 
BRANCH  83  84
ATOM     84  S   UNL     1      -0.551  19.088   3.442  1.00  0.00     0.124 S 
ATOM     85  O   UNL     1      -0.565  18.715   4.853  1.00  0.00    -0.237 OA
ATOM     86  O   UNL     1       0.584  19.904   3.017  1.00  0.00    -0.237 OA
ATOM     87  O   UNL     1      -1.842  19.496   2.892  1.00  0.00    -0.744 OA
ENDBRANCH  83  84
ENDBRANCH  57  78
ENDBRANCH  31  32
ENDBRANCH  24  26
ENDBRANCH  23  24
ENDBRANCH  22  23
ENDBRANCH  21  22
ENDBRANCH  20  21
ENDBRANCH   1  20
TORSDOF 22
