REMARK SMILES COc1cc(C)c(S(=O)(=O)Nc2cc(C(=O)OCCOCCOCCOC(=O)c3ccc(-c4c5nc(c(-c6ccc(S(=O)(=O)[O-])cc6)c6ccc([nH]6)c(-c6ccc(S(=O)(=O)[O-])cc6)c6nc(c(-c7ccc(S(=O)(=O)[O-])cc7)c7ccc4[nH]7)C=C6)C=C5)cc3)ccc2F)cc1OC
REMARK SMILES IDX 21 1 20 2 19 3 18 4 17 5 15 6 16 7 14 8 12 9 13 10 91 11
REMARK SMILES IDX 90 12 92 13 89 14 11 15 8 17 9 18 10 19 7 20 3 21 4 22 94 23
REMARK SMILES IDX 5 24 93 25 6 26 2 27 1 28 95 29 96 30 22 31 23 32 24 33
REMARK SMILES IDX 25 34 26 35 27 36 28 37 29 38 30 39 88 40 31 41 87 42 32 43
REMARK SMILES IDX 33 44 34 45 81 46 35 47 86 48 80 49 82 50 36 51 85 52 79 53
REMARK SMILES IDX 78 54 37 56 67 57 48 58 66 59 49 60 52 61 65 62 83 63 50 64
REMARK SMILES IDX 51 65 64 67 84 68 53 69 38 70 39 71 47 72 40 73 46 74 41 75
REMARK SMILES IDX 42 76 43 77 44 78 45 79 68 80 69 81 77 82 70 83 76 84 71 85
REMARK SMILES IDX 72 86 73 87 74 88 75 89 54 90 55 91 63 92 56 93 62 94 57 95
REMARK SMILES IDX 58 96 59 97 60 98 61 99
REMARK H PARENT 11 16 82 55 52 66
REMARK Flexibility Score: inf
ROOT
ATOM      1  C   UNL     1       5.397  -6.636   1.956  1.00  0.00     0.188 C 
ENDROOT
BRANCH   1   2
ATOM      2  O   UNL     1       4.263  -6.563   2.771  1.00  0.00    -0.376 OA
BRANCH   2   3
ATOM      3  C   UNL     1       3.097  -6.100   2.073  1.00  0.00     0.202 C 
BRANCH   3   4
ATOM      4  C   UNL     1       2.744  -6.426   0.521  1.00  0.00     0.261 C 
BRANCH   4   5
ATOM      5  O   UNL     1       3.347  -5.839  -0.965  1.00  0.00    -0.460 OA
BRANCH   5   6
ATOM      6  C   UNL     1       3.522  -4.754  -1.907  1.00  0.00     0.338 C 
ATOM      7  O   UNL     1       3.094  -3.597  -1.943  1.00  0.00    -0.246 OA
BRANCH   6   8
ATOM      8  C   UNL     1       4.391  -4.830  -3.076  1.00  0.00     0.062 A 
ATOM      9  C   UNL     1       3.996  -4.877  -5.364  1.00  0.00     0.085 A 
ATOM     10  C   UNL     1       3.769  -5.440  -4.127  1.00  0.00     0.045 A 
ATOM     11  C   UNL     1       5.134  -4.083  -5.612  1.00  0.00     0.147 A 
ATOM     12  C   UNL     1       5.827  -3.511  -4.566  1.00  0.00     0.042 A 
ATOM     13  F   UNL     1       5.407  -3.676  -6.861  1.00  0.00    -0.205 F 
ATOM     14  C   UNL     1       5.352  -3.787  -3.297  1.00  0.00     0.019 A 
BRANCH   9  15
ATOM     15  N   UNL     1       2.937  -4.849  -6.304  1.00  0.00    -0.277 N 
ATOM     16  H   UNL     1       3.155  -5.017  -7.249  1.00  0.00     0.180 HD
BRANCH  15  17
ATOM     17  S   UNL     1       1.323  -4.543  -5.903  1.00  0.00     0.262 S 
ATOM     18  O   UNL     1       0.920  -5.671  -5.041  1.00  0.00    -0.201 OA
ATOM     19  O   UNL     1       0.673  -4.334  -7.151  1.00  0.00    -0.201 OA
BRANCH  17  20
ATOM     20  C   UNL     1       1.031  -3.067  -4.905  1.00  0.00     0.094 A 
ATOM     21  C   UNL     1       0.249  -1.025  -3.064  1.00  0.00     0.161 A 
ATOM     22  C   UNL     1       1.494  -1.014  -3.701  1.00  0.00     0.055 A 
ATOM     23  C   UNL     1      -0.657  -2.025  -3.413  1.00  0.00     0.162 A 
ATOM     24  C   UNL     1       1.866  -1.968  -4.688  1.00  0.00    -0.027 A 
ATOM     25  C   UNL     1      -0.237  -3.055  -4.278  1.00  0.00     0.073 A 
ATOM     26  C   UNL     1       3.026  -1.547  -5.528  1.00  0.00     0.046 C 
BRANCH  21  27
ATOM     27  O   UNL     1      -0.094  -0.136  -2.088  1.00  0.00    -0.493 OA
ATOM     28  C   UNL     1       0.611   1.096  -2.033  1.00  0.00     0.278 C 
ENDBRANCH  21  27
BRANCH  23  29
ATOM     29  O   UNL     1      -1.939  -2.194  -2.960  1.00  0.00    -0.493 OA
ATOM     30  C   UNL     1      -2.569  -1.130  -2.251  1.00  0.00     0.278 C 
ENDBRANCH  23  29
ENDBRANCH  17  20
ENDBRANCH  15  17
ENDBRANCH   9  15
ENDBRANCH   6   8
ENDBRANCH   5   6
ENDBRANCH   4   5
ENDBRANCH   3   4
ENDBRANCH   2   3
ENDBRANCH   1   2
BRANCH   1  31
ATOM     31  C   UNL     1       5.476  -8.001   1.286  1.00  0.00     0.188 C 
BRANCH  31  32
ATOM     32  O   UNL     1       6.002  -9.028   2.106  1.00  0.00    -0.376 OA
BRANCH  32  33
ATOM     33  C   UNL     1       7.080  -8.609   2.935  1.00  0.00     0.202 C 
BRANCH  33  34
ATOM     34  C   UNL     1       8.299  -7.868   2.276  1.00  0.00     0.261 C 
BRANCH  34  35
ATOM     35  O   UNL     1       8.235  -7.721   0.831  1.00  0.00    -0.460 OA
BRANCH  35  36
ATOM     36  C   UNL     1       8.984  -6.767   0.148  1.00  0.00     0.338 C 
ATOM     37  O   UNL     1       9.989  -7.057  -0.485  1.00  0.00    -0.246 OA
BRANCH  36  38
ATOM     38  C   UNL     1       8.043  -5.700  -0.338  1.00  0.00     0.060 A 
ATOM     39  C   UNL     1       8.011  -4.324  -0.160  1.00  0.00     0.016 A 
ATOM     40  C   UNL     1       6.985  -6.175  -1.014  1.00  0.00     0.016 A 
ATOM     41  C   UNL     1       6.762  -3.583  -0.094  1.00  0.00     0.010 A 
ATOM     42  C   UNL     1       5.781  -5.523  -0.765  1.00  0.00     0.010 A 
ATOM     43  C   UNL     1       5.522  -4.231  -0.166  1.00  0.00    -0.014 A 
BRANCH  43  44
ATOM     44  C   UNL     1       4.124  -3.623   0.614  1.00  0.00     0.031 A 
ATOM     45  C   UNL     1       2.439  -3.466   0.299  1.00  0.00     0.074 A 
ATOM     46  C   UNL     1       4.394  -3.227   1.885  1.00  0.00     0.049 A 
ATOM     47  N   UNL     1       1.710  -2.432   0.670  1.00  0.00    -0.248 NA
ATOM     48  C   UNL     1       1.464  -4.356  -0.475  1.00  0.00     0.031 C 
ATOM     49  C   UNL     1       3.510  -2.661   2.910  1.00  0.00     0.029 A 
ATOM     50  N   UNL     1       5.648  -3.185   2.488  1.00  0.00    -0.354 N 
ATOM     51  C   UNL     1       0.388  -2.665   0.246  1.00  0.00     0.074 A 
ATOM     52  C   UNL     1       0.452  -3.589  -0.779  1.00  0.00     0.031 C 
ATOM     53  C   UNL     1       4.268  -2.039   3.830  1.00  0.00     0.029 A 
ATOM     54  C   UNL     1       5.647  -2.114   3.383  1.00  0.00     0.049 A 
ATOM     55  H   UNL     1       6.398  -3.800   2.316  1.00  0.00     0.167 HD
ATOM     56  C   UNL     1      -0.760  -2.252   0.840  1.00  0.00     0.031 A 
ATOM     57  C   UNL     1       6.439  -1.058   3.046  1.00  0.00     0.031 A 
ATOM     58  C   UNL     1      -0.391  -1.145   1.710  1.00  0.00     0.049 A 
ATOM     59  C   UNL     1       5.556   0.087   2.515  1.00  0.00     0.074 A 
ATOM     60  C   UNL     1      -0.265  -0.999   3.074  1.00  0.00     0.029 A 
ATOM     61  N   UNL     1       0.441  -0.147   1.149  1.00  0.00    -0.354 N 
ATOM     62  N   UNL     1       4.272  -0.045   2.230  1.00  0.00    -0.248 NA
ATOM     63  C   UNL     1       5.973   1.479   2.399  1.00  0.00     0.031 C 
ATOM     64  C   UNL     1       0.816  -0.072   3.305  1.00  0.00     0.029 A 
ATOM     65  C   UNL     1       1.312   0.398   2.092  1.00  0.00     0.049 A 
ATOM     66  H   UNL     1       0.408   0.131   0.205  1.00  0.00     0.167 HD
ATOM     67  C   UNL     1       3.687   1.162   1.965  1.00  0.00     0.074 A 
ATOM     68  C   UNL     1       4.812   2.088   2.087  1.00  0.00     0.031 C 
ATOM     69  C   UNL     1       2.352   1.379   1.691  1.00  0.00     0.031 A 
BRANCH  56  70
ATOM     70  C   UNL     1      -2.134  -3.001   0.559  1.00  0.00    -0.014 A 
ATOM     71  C   UNL     1      -3.357  -2.568   1.091  1.00  0.00     0.010 A 
ATOM     72  C   UNL     1      -2.288  -4.171  -0.263  1.00  0.00     0.010 A 
ATOM     73  C   UNL     1      -4.609  -3.153   0.709  1.00  0.00     0.020 A 
ATOM     74  C   UNL     1      -3.509  -4.698  -0.733  1.00  0.00     0.020 A 
ATOM     75  C   UNL     1      -4.682  -4.169  -0.253  1.00  0.00     0.054 A 
BRANCH  75  76
ATOM     76  S   UNL     1      -6.277  -4.818  -0.846  1.00  0.00     0.124 S 
ATOM     77  O   UNL     1      -6.926  -5.244   0.392  1.00  0.00    -0.237 OA
ATOM     78  O   UNL     1      -6.867  -3.655  -1.500  1.00  0.00    -0.237 OA
ATOM     79  O   UNL     1      -5.908  -5.911  -1.746  1.00  0.00    -0.744 OA
ENDBRANCH  75  76
ENDBRANCH  56  70
BRANCH  57  80
ATOM     80  C   UNL     1       7.885  -1.533   2.899  1.00  0.00    -0.014 A 
ATOM     81  C   UNL     1       8.329  -2.362   3.979  1.00  0.00     0.010 A 
ATOM     82  C   UNL     1       8.703  -1.558   1.757  1.00  0.00     0.010 A 
ATOM     83  C   UNL     1       9.351  -3.317   3.862  1.00  0.00     0.020 A 
ATOM     84  C   UNL     1       9.815  -2.460   1.670  1.00  0.00     0.020 A 
ATOM     85  C   UNL     1      10.078  -3.386   2.689  1.00  0.00     0.054 A 
BRANCH  85  86
ATOM     86  S   UNL     1      11.221  -4.797   2.468  1.00  0.00     0.124 S 
ATOM     87  O   UNL     1      12.373  -4.394   3.265  1.00  0.00    -0.237 OA
ATOM     88  O   UNL     1      10.455  -5.918   3.009  1.00  0.00    -0.237 OA
ATOM     89  O   UNL     1      11.421  -4.826   1.025  1.00  0.00    -0.744 OA
ENDBRANCH  85  86
ENDBRANCH  57  80
BRANCH  69  90
ATOM     90  C   UNL     1       1.906   2.659   0.994  1.00  0.00    -0.014 A 
ATOM     91  C   UNL     1       2.767   3.404   0.164  1.00  0.00     0.010 A 
ATOM     92  C   UNL     1       0.545   3.041   0.996  1.00  0.00     0.010 A 
ATOM     93  C   UNL     1       2.320   4.504  -0.574  1.00  0.00     0.020 A 
ATOM     94  C   UNL     1       0.071   4.096   0.200  1.00  0.00     0.020 A 
ATOM     95  C   UNL     1       0.969   4.833  -0.568  1.00  0.00     0.054 A 
BRANCH  95  96
ATOM     96  S   UNL     1       0.368   6.134  -1.677  1.00  0.00     0.124 S 
ATOM     97  O   UNL     1       0.267   7.278  -0.775  1.00  0.00    -0.237 OA
ATOM     98  O   UNL     1       1.421   6.224  -2.686  1.00  0.00    -0.237 OA
ATOM     99  O   UNL     1      -0.898   5.591  -2.160  1.00  0.00    -0.744 OA
ENDBRANCH  95  96
ENDBRANCH  69  90
ENDBRANCH  43  44
ENDBRANCH  36  38
ENDBRANCH  35  36
ENDBRANCH  34  35
ENDBRANCH  33  34
ENDBRANCH  32  33
ENDBRANCH  31  32
ENDBRANCH   1  31
TORSDOF 25
