REMARK SMILES N#Cc1ccc(C[N@H+]2CCCC[C@H]2C(=O)OCCOCCOCCOC(=O)c2ccc(-c3c4nc(c(-c5ccc(S(=O)(=O)[O-])cc5)c5ccc([nH]5)c(-c5ccc(S(=O)(=O)[O-])cc5)c5nc(c(-c6ccc(S(=O)(=O)[O-])cc6)c6ccc3[nH]6)C=C5)C=C4)cc2)c(F)c1
REMARK SMILES IDX 20 1 19 2 18 3 17 4 16 5 14 6 15 7 13 8 8 9 9 10 10 12 12 13
REMARK SMILES IDX 11 14 7 15 6 16 3 17 4 18 90 19 5 20 88 21 89 22 2 23 1 24
REMARK SMILES IDX 21 25 22 26 23 27 24 28 25 29 26 30 27 31 28 32 29 33 87 34
REMARK SMILES IDX 30 35 86 36 31 37 32 38 33 39 80 40 34 41 85 42 79 43 81 44
REMARK SMILES IDX 35 45 84 46 78 47 77 48 36 50 66 51 47 52 65 53 48 54 51 55
REMARK SMILES IDX 64 56 82 57 49 58 50 59 63 61 83 62 52 63 37 64 38 65 46 66
REMARK SMILES IDX 39 67 45 68 40 69 41 70 42 71 43 72 44 73 67 74 68 75 76 76
REMARK SMILES IDX 69 77 75 78 70 79 71 80 72 81 73 82 74 83 53 84 54 85 62 86
REMARK SMILES IDX 55 87 61 88 56 89 57 90 58 91 59 92 60 93
REMARK H PARENT 8 11 81 49 51 60
REMARK Flexibility Score: inf
ROOT
ATOM      1  C   UNL     1       0.400  -0.745   3.292  1.00  0.00     0.188 C 
ENDROOT
BRANCH   1   2
ATOM      2  O   UNL     1      -0.481  -1.814   3.041  1.00  0.00    -0.376 OA
BRANCH   2   3
ATOM      3  C   UNL     1      -0.362  -2.564   1.849  1.00  0.00     0.202 C 
BRANCH   3   4
ATOM      4  C   UNL     1       0.925  -3.254   1.278  1.00  0.00     0.261 C 
BRANCH   4   5
ATOM      5  O   UNL     1       2.280  -2.753   1.395  1.00  0.00    -0.459 OA
BRANCH   5   6
ATOM      6  C   UNL     1       2.440  -1.492   0.936  1.00  0.00     0.364 C 
ATOM      7  O   UNL     1       1.442  -0.837   0.697  1.00  0.00    -0.245 OA
BRANCH   6   8
ATOM      8  C   UNL     1       3.890  -0.987   0.725  1.00  0.00     0.295 C 
ATOM      9  N   UNL     1       4.002   0.498   0.639  1.00  0.00    -0.319 N 
ATOM     10  C   UNL     1       3.897   1.194   1.913  1.00  0.00     0.263 C 
ATOM     11  H   UNL     1       4.986   0.564   0.378  1.00  0.00     0.349 HD
ATOM     12  C   UNL     1       5.026   0.752   2.851  1.00  0.00     0.062 C 
ATOM     13  C   UNL     1       4.936  -1.531   1.733  1.00  0.00     0.078 C 
ATOM     14  C   UNL     1       5.102  -0.755   3.044  1.00  0.00     0.013 C 
BRANCH   9  15
ATOM     15  C   UNL     1       3.467   1.214  -0.544  1.00  0.00     0.302 C 
BRANCH  15  16
ATOM     16  C   UNL     1       1.974   1.200  -0.815  1.00  0.00     0.042 A 
ATOM     17  C   UNL     1      -0.796   0.675  -0.840  1.00  0.00     0.055 A 
ATOM     18  C   UNL     1      -0.294   1.773  -0.130  1.00  0.00     0.020 A 
ATOM     19  C   UNL     1       0.059  -0.069  -1.656  1.00  0.00     0.059 A 
ATOM     20  C   UNL     1       1.085   2.038  -0.118  1.00  0.00     0.014 A 
ATOM     21  C   UNL     1       1.428   0.213  -1.655  1.00  0.00     0.133 A 
ATOM     22  F   UNL     1       2.245  -0.632  -2.304  1.00  0.00    -0.206 F 
BRANCH  17  23
ATOM     23  C   UNL     1      -2.146   0.225  -0.628  1.00  0.00     0.099 C 
ATOM     24  N   UNL     1      -3.205  -0.195  -0.430  1.00  0.00    -0.192 NA
ENDBRANCH  17  23
ENDBRANCH  15  16
ENDBRANCH   9  15
ENDBRANCH   6   8
ENDBRANCH   5   6
ENDBRANCH   4   5
ENDBRANCH   3   4
ENDBRANCH   2   3
ENDBRANCH   1   2
BRANCH   1  25
ATOM     25  C   UNL     1       1.700  -1.246   3.910  1.00  0.00     0.188 C 
BRANCH  25  26
ATOM     26  O   UNL     1       1.765  -2.556   4.441  1.00  0.00    -0.376 OA
BRANCH  26  27
ATOM     27  C   UNL     1       0.700  -2.964   5.282  1.00  0.00     0.202 C 
BRANCH  27  28
ATOM     28  C   UNL     1       0.130  -2.025   6.373  1.00  0.00     0.261 C 
BRANCH  28  29
ATOM     29  O   UNL     1       0.206  -0.596   6.171  1.00  0.00    -0.460 OA
BRANCH  29  30
ATOM     30  C   UNL     1       1.217   0.059   6.801  1.00  0.00     0.338 C 
ATOM     31  O   UNL     1       2.040  -0.437   7.551  1.00  0.00    -0.246 OA
BRANCH  30  32
ATOM     32  C   UNL     1       1.336   1.455   6.294  1.00  0.00     0.060 A 
ATOM     33  C   UNL     1       2.399   1.775   5.435  1.00  0.00     0.016 A 
ATOM     34  C   UNL     1       0.508   2.475   6.756  1.00  0.00     0.016 A 
ATOM     35  C   UNL     1       2.639   3.087   5.027  1.00  0.00     0.010 A 
ATOM     36  C   UNL     1       0.773   3.805   6.378  1.00  0.00     0.010 A 
ATOM     37  C   UNL     1       1.855   4.124   5.530  1.00  0.00    -0.014 A 
BRANCH  37  38
ATOM     38  C   UNL     1       2.296   5.534   5.342  1.00  0.00     0.031 A 
ATOM     39  C   UNL     1       2.885   6.266   6.520  1.00  0.00     0.074 A 
ATOM     40  C   UNL     1       2.245   6.149   4.145  1.00  0.00     0.049 A 
ATOM     41  N   UNL     1       3.199   7.530   6.647  1.00  0.00    -0.248 NA
ATOM     42  C   UNL     1       3.155   5.455   7.717  1.00  0.00     0.031 C 
ATOM     43  C   UNL     1       1.843   5.527   2.884  1.00  0.00     0.029 A 
ATOM     44  N   UNL     1       2.537   7.447   3.799  1.00  0.00    -0.354 N 
ATOM     45  C   UNL     1       3.651   7.677   7.954  1.00  0.00     0.074 A 
ATOM     46  C   UNL     1       3.558   6.374   8.579  1.00  0.00     0.031 C 
ATOM     47  C   UNL     1       1.911   6.445   1.903  1.00  0.00     0.029 A 
ATOM     48  C   UNL     1       2.290   7.735   2.477  1.00  0.00     0.049 A 
ATOM     49  H   UNL     1       2.889   8.108   4.437  1.00  0.00     0.167 HD
ATOM     50  C   UNL     1       4.092   8.794   8.582  1.00  0.00     0.031 A 
ATOM     51  C   UNL     1       2.324   8.910   1.815  1.00  0.00     0.031 A 
ATOM     52  C   UNL     1       4.176  10.088   7.954  1.00  0.00     0.049 A 
ATOM     53  C   UNL     1       2.682  10.170   2.561  1.00  0.00     0.074 A 
ATOM     54  C   UNL     1       4.596  11.287   8.503  1.00  0.00     0.029 A 
ATOM     55  N   UNL     1       3.827  10.354   6.637  1.00  0.00    -0.354 N 
ATOM     56  N   UNL     1       3.055  10.312   3.811  1.00  0.00    -0.248 NA
ATOM     57  C   UNL     1       2.618  11.430   1.806  1.00  0.00     0.031 C 
ATOM     58  C   UNL     1       4.423  12.291   7.543  1.00  0.00     0.029 A 
ATOM     59  C   UNL     1       3.983  11.704   6.367  1.00  0.00     0.049 A 
ATOM     60  H   UNL     1       3.515   9.681   5.989  1.00  0.00     0.167 HD
ATOM     61  C   UNL     1       3.306  11.671   3.982  1.00  0.00     0.074 A 
ATOM     62  C   UNL     1       3.050  12.305   2.704  1.00  0.00     0.031 C 
ATOM     63  C   UNL     1       3.720  12.331   5.093  1.00  0.00     0.031 A 
BRANCH  50  64
ATOM     64  C   UNL     1       4.423   8.674  10.050  1.00  0.00    -0.014 A 
ATOM     65  C   UNL     1       5.500   7.895  10.513  1.00  0.00     0.010 A 
ATOM     66  C   UNL     1       3.611   9.336  10.991  1.00  0.00     0.010 A 
ATOM     67  C   UNL     1       5.704   7.713  11.885  1.00  0.00     0.020 A 
ATOM     68  C   UNL     1       3.838   9.193  12.362  1.00  0.00     0.020 A 
ATOM     69  C   UNL     1       4.864   8.356  12.800  1.00  0.00     0.054 A 
BRANCH  69  70
ATOM     70  S   UNL     1       5.126   8.071  14.572  1.00  0.00     0.124 S 
ATOM     71  O   UNL     1       4.693   6.684  14.721  1.00  0.00    -0.237 OA
ATOM     72  O   UNL     1       6.561   8.301  14.723  1.00  0.00    -0.237 OA
ATOM     73  O   UNL     1       4.267   9.063  15.214  1.00  0.00    -0.744 OA
ENDBRANCH  69  70
ENDBRANCH  50  64
BRANCH  51  74
ATOM     74  C   UNL     1       1.989   8.958   0.363  1.00  0.00    -0.014 A 
ATOM     75  C   UNL     1       2.979   9.272  -0.584  1.00  0.00     0.010 A 
ATOM     76  C   UNL     1       0.685   8.674  -0.085  1.00  0.00     0.010 A 
ATOM     77  C   UNL     1       2.676   9.292  -1.949  1.00  0.00     0.020 A 
ATOM     78  C   UNL     1       0.385   8.662  -1.451  1.00  0.00     0.020 A 
ATOM     79  C   UNL     1       1.385   8.972  -2.375  1.00  0.00     0.054 A 
BRANCH  79  80
ATOM     80  S   UNL     1       1.047   8.909  -4.156  1.00  0.00     0.124 S 
ATOM     81  O   UNL     1       1.158  10.312  -4.540  1.00  0.00    -0.237 OA
ATOM     82  O   UNL     1       2.110   8.032  -4.641  1.00  0.00    -0.237 OA
ATOM     83  O   UNL     1      -0.298   8.343  -4.230  1.00  0.00    -0.744 OA
ENDBRANCH  79  80
ENDBRANCH  51  74
BRANCH  63  84
ATOM     84  C   UNL     1       3.974  13.814   4.976  1.00  0.00    -0.014 A 
ATOM     85  C   UNL     1       2.925  14.733   4.796  1.00  0.00     0.010 A 
ATOM     86  C   UNL     1       5.289  14.300   5.110  1.00  0.00     0.010 A 
ATOM     87  C   UNL     1       3.189  16.104   4.719  1.00  0.00     0.020 A 
ATOM     88  C   UNL     1       5.553  15.672   5.071  1.00  0.00     0.020 A 
ATOM     89  C   UNL     1       4.502  16.565   4.862  1.00  0.00     0.054 A 
BRANCH  89  90
ATOM     90  S   UNL     1       4.811  18.352   4.809  1.00  0.00     0.124 S 
ATOM     91  O   UNL     1       4.552  18.665   3.407  1.00  0.00    -0.237 OA
ATOM     92  O   UNL     1       3.831  18.872   5.761  1.00  0.00    -0.237 OA
ATOM     93  O   UNL     1       6.205  18.477   5.228  1.00  0.00    -0.744 OA
ENDBRANCH  89  90
ENDBRANCH  63  84
ENDBRANCH  37  38
ENDBRANCH  30  32
ENDBRANCH  29  30
ENDBRANCH  28  29
ENDBRANCH  27  28
ENDBRANCH  26  27
ENDBRANCH  25  26
ENDBRANCH   1  25
TORSDOF 23
