REMARK SMILES CCOc1ccc(-c2cnc(N)cc2C(=O)OCCOCCOCCOC(=O)c2ccc(-c3c4nc(c(-c5ccc(S(=O)(=O)[O-])cc5)c5ccc([nH]5)c(-c5ccc(S(=O)(=O)[O-])cc5)c5nc(c(-c6ccc(S(=O)(=O)[O-])cc6)c6ccc3[nH]6)C=C5)C=C4)cc2)c(Cl)c1
REMARK SMILES IDX 21 1 20 2 19 3 18 4 17 5 15 6 16 7 14 8 8 9 9 10 10 11 13 12
REMARK SMILES IDX 11 13 7 14 4 15 5 16 91 17 6 18 89 19 90 20 3 21 2 22 1 23
REMARK SMILES IDX 12 24 22 27 23 28 24 29 25 30 26 31 27 32 28 33 29 34 30 35
REMARK SMILES IDX 88 36 31 37 87 38 32 39 33 40 34 41 81 42 35 43 86 44 80 45
REMARK SMILES IDX 82 46 36 47 85 48 79 49 78 50 37 52 67 53 48 54 66 55 49 56
REMARK SMILES IDX 52 57 65 58 83 59 50 60 51 61 64 63 84 64 53 65 38 66 39 67
REMARK SMILES IDX 47 68 40 69 46 70 41 71 42 72 43 73 44 74 45 75 68 76 69 77
REMARK SMILES IDX 77 78 70 79 76 80 71 81 72 82 73 83 74 84 75 85 54 86 55 87
REMARK SMILES IDX 63 88 56 89 62 90 57 91 58 92 59 93 60 94 61 95
REMARK H PARENT 12 25 12 26 82 51 52 62
REMARK Flexibility Score: inf
ROOT
ATOM      1  C   UNL     1       5.439   5.067  -3.514  1.00  0.00     0.188 C 
ENDROOT
BRANCH   1   2
ATOM      2  O   UNL     1       5.335   6.280  -2.814  1.00  0.00    -0.376 OA
BRANCH   2   3
ATOM      3  C   UNL     1       6.083   6.511  -1.641  1.00  0.00     0.202 C 
BRANCH   3   4
ATOM      4  C   UNL     1       7.220   5.628  -1.088  1.00  0.00     0.261 C 
BRANCH   4   5
ATOM      5  O   UNL     1       7.601   4.444  -1.798  1.00  0.00    -0.460 OA
BRANCH   5   6
ATOM      6  C   UNL     1       7.285   3.255  -1.215  1.00  0.00     0.339 C 
ATOM      7  O   UNL     1       6.630   3.111  -0.203  1.00  0.00    -0.246 OA
BRANCH   6   8
ATOM      8  C   UNL     1       7.861   2.123  -2.001  1.00  0.00     0.073 A 
ATOM      9  C   UNL     1       7.117   0.948  -2.230  1.00  0.00     0.016 A 
ATOM     10  C   UNL     1       7.762  -0.063  -2.930  1.00  0.00     0.123 A 
ATOM     11  N   UNL     1       9.019   0.033  -3.422  1.00  0.00    -0.239 NA
ATOM     12  C   UNL     1       9.150   2.247  -2.525  1.00  0.00     0.062 A 
ATOM     13  C   UNL     1       9.680   1.185  -3.235  1.00  0.00     0.124 A 
BRANCH   9  14
ATOM     14  C   UNL     1       5.667   0.898  -2.020  1.00  0.00     0.003 A 
ATOM     15  C   UNL     1       2.934   1.293  -1.465  1.00  0.00     0.120 A 
ATOM     16  C   UNL     1       3.695   0.416  -0.699  1.00  0.00     0.047 A 
ATOM     17  C   UNL     1       3.517   1.873  -2.588  1.00  0.00     0.067 A 
ATOM     18  C   UNL     1       5.068   0.258  -0.939  1.00  0.00     0.014 A 
ATOM     19  C   UNL     1       4.830   1.573  -2.915  1.00  0.00     0.052 A 
ATOM     20  Cl  UNL     1       5.394   1.935  -4.500  1.00  0.00    -0.084 Cl
BRANCH  15  21
ATOM     21  O   UNL     1       1.595   1.502  -1.363  1.00  0.00    -0.494 OA
BRANCH  21  22
ATOM     22  C   UNL     1       0.946   1.625  -0.101  1.00  0.00     0.226 C 
ATOM     23  C   UNL     1       0.898   0.372   0.749  1.00  0.00     0.049 C 
ENDBRANCH  21  22
ENDBRANCH  15  21
ENDBRANCH   9  14
BRANCH  13  24
ATOM     24  N   UNL     1      10.899   1.293  -3.869  1.00  0.00    -0.384 N 
ATOM     25  H   UNL     1      11.262   0.527  -4.370  1.00  0.00     0.158 HD
ATOM     26  H   UNL     1      11.406   2.135  -3.820  1.00  0.00     0.158 HD
ENDBRANCH  13  24
ENDBRANCH   6   8
ENDBRANCH   5   6
ENDBRANCH   4   5
ENDBRANCH   3   4
ENDBRANCH   2   3
ENDBRANCH   1   2
BRANCH   1  27
ATOM     27  C   UNL     1       6.582   4.980  -4.548  1.00  0.00     0.188 C 
BRANCH  27  28
ATOM     28  O   UNL     1       7.225   6.170  -4.982  1.00  0.00    -0.376 OA
BRANCH  28  29
ATOM     29  C   UNL     1       6.420   7.298  -5.282  1.00  0.00     0.202 C 
BRANCH  29  30
ATOM     30  C   UNL     1       5.332   7.188  -6.362  1.00  0.00     0.261 C 
BRANCH  30  31
ATOM     31  O   UNL     1       4.388   6.109  -6.214  1.00  0.00    -0.460 OA
BRANCH  31  32
ATOM     32  C   UNL     1       4.454   5.141  -7.167  1.00  0.00     0.338 C 
ATOM     33  O   UNL     1       5.270   5.080  -8.074  1.00  0.00    -0.246 OA
BRANCH  32  34
ATOM     34  C   UNL     1       3.458   4.064  -6.923  1.00  0.00     0.060 A 
ATOM     35  C   UNL     1       3.853   2.743  -7.167  1.00  0.00     0.016 A 
ATOM     36  C   UNL     1       2.145   4.319  -6.517  1.00  0.00     0.016 A 
ATOM     37  C   UNL     1       2.963   1.680  -6.967  1.00  0.00     0.010 A 
ATOM     38  C   UNL     1       1.236   3.254  -6.367  1.00  0.00     0.010 A 
ATOM     39  C   UNL     1       1.636   1.925  -6.592  1.00  0.00    -0.014 A 
BRANCH  39  40
ATOM     40  C   UNL     1       0.649   0.803  -6.614  1.00  0.00     0.031 A 
ATOM     41  C   UNL     1       0.072   0.385  -7.928  1.00  0.00     0.074 A 
ATOM     42  C   UNL     1       0.301   0.108  -5.514  1.00  0.00     0.049 A 
ATOM     43  N   UNL     1      -0.763  -0.587  -8.181  1.00  0.00    -0.248 NA
ATOM     44  C   UNL     1       0.512   1.139  -9.112  1.00  0.00     0.031 C 
ATOM     45  C   UNL     1       0.869   0.332  -4.203  1.00  0.00     0.029 A 
ATOM     46  N   UNL     1      -0.585  -0.924  -5.306  1.00  0.00    -0.354 N 
ATOM     47  C   UNL     1      -0.926  -0.586  -9.555  1.00  0.00     0.074 A 
ATOM     48  C   UNL     1      -0.130   0.504 -10.080  1.00  0.00     0.031 C 
ATOM     49  C   UNL     1       0.319  -0.508  -3.314  1.00  0.00     0.029 A 
ATOM     50  C   UNL     1      -0.684  -1.312  -3.986  1.00  0.00     0.049 A 
ATOM     51  H   UNL     1      -1.100  -1.346  -6.032  1.00  0.00     0.167 HD
ATOM     52  C   UNL     1      -1.673  -1.423 -10.310  1.00  0.00     0.031 A 
ATOM     53  C   UNL     1      -1.496  -2.192  -3.367  1.00  0.00     0.031 A 
ATOM     54  C   UNL     1      -2.523  -2.455  -9.779  1.00  0.00     0.049 A 
ATOM     55  C   UNL     1      -2.442  -2.992  -4.209  1.00  0.00     0.074 A 
ATOM     56  C   UNL     1      -3.352  -3.320 -10.470  1.00  0.00     0.029 A 
ATOM     57  N   UNL     1      -2.676  -2.746  -8.431  1.00  0.00    -0.354 N 
ATOM     58  N   UNL     1      -2.579  -2.980  -5.512  1.00  0.00    -0.248 NA
ATOM     59  C   UNL     1      -3.325  -3.936  -3.512  1.00  0.00     0.031 C 
ATOM     60  C   UNL     1      -4.060  -4.084  -9.537  1.00  0.00     0.029 A 
ATOM     61  C   UNL     1      -3.616  -3.751  -8.268  1.00  0.00     0.049 A 
ATOM     62  H   UNL     1      -2.189  -2.304  -7.699  1.00  0.00     0.167 HD
ATOM     63  C   UNL     1      -3.537  -3.940  -5.797  1.00  0.00     0.074 A 
ATOM     64  C   UNL     1      -3.941  -4.520  -4.531  1.00  0.00     0.031 C 
ATOM     65  C   UNL     1      -4.025  -4.312  -7.004  1.00  0.00     0.031 A 
BRANCH  52  66
ATOM     66  C   UNL     1      -1.644  -1.193 -11.793  1.00  0.00    -0.014 A 
ATOM     67  C   UNL     1      -0.501  -1.496 -12.554  1.00  0.00     0.010 A 
ATOM     68  C   UNL     1      -2.776  -0.656 -12.430  1.00  0.00     0.010 A 
ATOM     69  C   UNL     1      -0.479  -1.233 -13.925  1.00  0.00     0.020 A 
ATOM     70  C   UNL     1      -2.768  -0.419 -13.805  1.00  0.00     0.020 A 
ATOM     71  C   UNL     1      -1.614  -0.695 -14.541  1.00  0.00     0.054 A 
BRANCH  71  72
ATOM     72  S   UNL     1      -1.565  -0.381 -16.325  1.00  0.00     0.124 S 
ATOM     73  O   UNL     1      -0.650   0.755 -16.407  1.00  0.00    -0.237 OA
ATOM     74  O   UNL     1      -1.052  -1.641 -16.856  1.00  0.00    -0.237 OA
ATOM     75  O   UNL     1      -2.955  -0.085 -16.663  1.00  0.00    -0.744 OA
ENDBRANCH  71  72
ENDBRANCH  52  66
BRANCH  53  76
ATOM     76  C   UNL     1      -1.493  -2.337  -1.880  1.00  0.00    -0.014 A 
ATOM     77  C   UNL     1      -1.029  -3.510  -1.258  1.00  0.00     0.010 A 
ATOM     78  C   UNL     1      -2.005  -1.301  -1.076  1.00  0.00     0.010 A 
ATOM     79  C   UNL     1      -1.083  -3.647   0.136  1.00  0.00     0.020 A 
ATOM     80  C   UNL     1      -2.050  -1.430   0.317  1.00  0.00     0.020 A 
ATOM     81  C   UNL     1      -1.590  -2.603   0.915  1.00  0.00     0.054 A 
BRANCH  81  82
ATOM     82  S   UNL     1      -1.570  -2.762   2.724  1.00  0.00     0.124 S 
ATOM     83  O   UNL     1      -2.664  -3.697   2.963  1.00  0.00    -0.237 OA
ATOM     84  O   UNL     1      -0.227  -3.276   2.981  1.00  0.00    -0.237 OA
ATOM     85  O   UNL     1      -1.799  -1.394   3.188  1.00  0.00    -0.744 OA
ENDBRANCH  81  82
ENDBRANCH  53  76
BRANCH  65  86
ATOM     86  C   UNL     1      -5.032  -5.428  -7.019  1.00  0.00    -0.014 A 
ATOM     87  C   UNL     1      -6.337  -5.244  -6.529  1.00  0.00     0.010 A 
ATOM     88  C   UNL     1      -4.674  -6.669  -7.576  1.00  0.00     0.010 A 
ATOM     89  C   UNL     1      -7.257  -6.294  -6.569  1.00  0.00     0.020 A 
ATOM     90  C   UNL     1      -5.601  -7.709  -7.649  1.00  0.00     0.020 A 
ATOM     91  C   UNL     1      -6.884  -7.518  -7.133  1.00  0.00     0.054 A 
BRANCH  91  92
ATOM     92  S   UNL     1      -8.114  -8.846  -7.221  1.00  0.00     0.124 S 
ATOM     93  O   UNL     1      -8.223  -9.254  -5.823  1.00  0.00    -0.237 OA
ATOM     94  O   UNL     1      -9.283  -8.162  -7.770  1.00  0.00    -0.237 OA
ATOM     95  O   UNL     1      -7.500  -9.829  -8.111  1.00  0.00    -0.744 OA
ENDBRANCH  91  92
ENDBRANCH  65  86
ENDBRANCH  39  40
ENDBRANCH  32  34
ENDBRANCH  31  32
ENDBRANCH  30  31
ENDBRANCH  29  30
ENDBRANCH  28  29
ENDBRANCH  27  28
ENDBRANCH   1  27
TORSDOF 24
