REMARK SMILES C=CC[NH2+]CC(=O)N1CCC[C@@H]1C(=O)OCCOCCOCCOC(=O)c1ccc(-c2c3nc(c(-c4ccc(S(=O)(=O)[O-])cc4)c4ccc([nH]4)c(-c4ccc(S(=O)(=O)[O-])cc4)c4nc(c(-c5ccc(S(=O)(=O)[O-])cc5)c5ccc2[nH]5)C=C4)C=C3)cc1
REMARK SMILES IDX 19 1 18 2 17 3 16 4 15 5 13 6 14 7 12 8 8 9 9 10 10 11 11 12
REMARK SMILES IDX 6 13 7 14 5 15 4 16 3 19 2 20 1 21 20 22 21 23 22 24 23 25
REMARK SMILES IDX 24 26 25 27 26 28 27 29 28 30 86 31 29 32 85 33 30 34 31 35
REMARK SMILES IDX 32 36 79 37 33 38 84 39 78 40 80 41 34 42 83 43 77 44 76 45
REMARK SMILES IDX 35 47 65 48 46 49 64 50 47 51 50 52 63 53 81 54 48 55 49 56
REMARK SMILES IDX 62 58 82 59 51 60 36 61 37 62 45 63 38 64 44 65 39 66 40 67
REMARK SMILES IDX 41 68 42 69 43 70 66 71 67 72 75 73 68 74 74 75 69 76 70 77
REMARK SMILES IDX 71 78 72 79 73 80 52 81 53 82 61 83 54 84 60 85 55 86 56 87
REMARK SMILES IDX 57 88 58 89 59 90
REMARK H PARENT 4 17 4 18 80 46 50 57
REMARK Flexibility Score: inf
ROOT
ATOM      1  C   UNL     1      -7.753   2.234  -0.236  1.00  0.00     0.188 C 
ENDROOT
BRANCH   1   2
ATOM      2  O   UNL     1      -8.764   1.619   0.556  1.00  0.00    -0.376 OA
BRANCH   2   3
ATOM      3  C   UNL     1      -8.366   1.062   1.812  1.00  0.00     0.202 C 
BRANCH   3   4
ATOM      4  C   UNL     1      -7.155   0.120   1.801  1.00  0.00     0.261 C 
BRANCH   4   5
ATOM      5  O   UNL     1      -5.941   0.771   1.373  1.00  0.00    -0.462 OA
BRANCH   5   6
ATOM      6  C   UNL     1      -5.224   0.104   0.436  1.00  0.00     0.328 C 
ATOM      7  O   UNL     1      -5.473  -1.043   0.072  1.00  0.00    -0.250 OA
BRANCH   6   8
ATOM      8  C   UNL     1      -4.075   0.920  -0.172  1.00  0.00     0.195 C 
ATOM      9  N   UNL     1      -2.841   0.151  -0.034  1.00  0.00    -0.324 N 
ATOM     10  C   UNL     1      -1.740   1.089   0.086  1.00  0.00     0.121 C 
ATOM     11  C   UNL     1      -2.312   2.228   0.889  1.00  0.00     0.024 C 
ATOM     12  C   UNL     1      -3.743   2.314   0.387  1.00  0.00     0.039 C 
BRANCH   9  13
ATOM     13  C   UNL     1      -2.719  -0.994  -0.825  1.00  0.00     0.278 C 
ATOM     14  O   UNL     1      -2.636  -0.948  -2.049  1.00  0.00    -0.268 OA
BRANCH  13  15
ATOM     15  C   UNL     1      -2.574  -2.303  -0.008  1.00  0.00     0.362 C 
BRANCH  15  16
ATOM     16  N   UNL     1      -1.169  -2.819  -0.013  1.00  0.00    -0.335 N 
ATOM     17  H   UNL     1      -1.085  -3.598   0.640  1.00  0.00     0.347 HD
ATOM     18  H   UNL     1      -0.916  -3.148  -0.945  1.00  0.00     0.347 HD
BRANCH  16  19
ATOM     19  C   UNL     1      -0.290  -1.736   0.396  1.00  0.00     0.289 C 
BRANCH  19  20
ATOM     20  C   UNL     1       1.167  -2.010   0.514  1.00  0.00     0.025 C 
ATOM     21  C   UNL     1       2.061  -1.111   0.069  1.00  0.00     0.010 C 
ENDBRANCH  19  20
ENDBRANCH  16  19
ENDBRANCH  15  16
ENDBRANCH  13  15
ENDBRANCH   9  13
ENDBRANCH   6   8
ENDBRANCH   5   6
ENDBRANCH   4   5
ENDBRANCH   3   4
ENDBRANCH   2   3
ENDBRANCH   1   2
BRANCH   1  22
ATOM     22  C   UNL     1      -7.047   3.440   0.395  1.00  0.00     0.188 C 
BRANCH  22  23
ATOM     23  O   UNL     1      -6.908   3.356   1.802  1.00  0.00    -0.376 OA
BRANCH  23  24
ATOM     24  C   UNL     1      -6.836   4.559   2.561  1.00  0.00     0.202 C 
BRANCH  24  25
ATOM     25  C   UNL     1      -7.987   5.575   2.397  1.00  0.00     0.261 C 
BRANCH  25  26
ATOM     26  O   UNL     1      -8.193   6.114   1.076  1.00  0.00    -0.460 OA
BRANCH  26  27
ATOM     27  C   UNL     1      -7.125   6.652   0.439  1.00  0.00     0.338 C 
ATOM     28  O   UNL     1      -6.056   6.949   0.949  1.00  0.00    -0.246 OA
BRANCH  27  29
ATOM     29  C   UNL     1      -7.355   6.534  -1.030  1.00  0.00     0.060 A 
ATOM     30  C   UNL     1      -6.309   6.042  -1.827  1.00  0.00     0.016 A 
ATOM     31  C   UNL     1      -8.602   6.792  -1.607  1.00  0.00     0.016 A 
ATOM     32  C   UNL     1      -6.497   5.840  -3.200  1.00  0.00     0.010 A 
ATOM     33  C   UNL     1      -8.782   6.607  -2.984  1.00  0.00     0.010 A 
ATOM     34  C   UNL     1      -7.724   6.157  -3.795  1.00  0.00    -0.014 A 
BRANCH  34  35
ATOM     35  C   UNL     1      -7.857   6.229  -5.276  1.00  0.00     0.031 A 
ATOM     36  C   UNL     1      -7.722   7.581  -5.929  1.00  0.00     0.074 A 
ATOM     37  C   UNL     1      -8.107   5.146  -6.035  1.00  0.00     0.049 A 
ATOM     38  N   UNL     1      -7.908   7.925  -7.177  1.00  0.00    -0.248 NA
ATOM     39  C   UNL     1      -7.328   8.693  -5.049  1.00  0.00     0.031 C 
ATOM     40  C   UNL     1      -8.203   3.770  -5.551  1.00  0.00     0.029 A 
ATOM     41  N   UNL     1      -8.342   5.042  -7.387  1.00  0.00    -0.354 N 
ATOM     42  C   UNL     1      -7.671   9.294  -7.229  1.00  0.00     0.074 A 
ATOM     43  C   UNL     1      -7.349   9.720  -5.885  1.00  0.00     0.031 C 
ATOM     44  C   UNL     1      -8.494   2.962  -6.588  1.00  0.00     0.029 A 
ATOM     45  C   UNL     1      -8.649   3.767  -7.801  1.00  0.00     0.049 A 
ATOM     46  H   UNL     1      -8.295   5.810  -8.001  1.00  0.00     0.167 HD
ATOM     47  C   UNL     1      -7.718  10.126  -8.296  1.00  0.00     0.031 A 
ATOM     48  C   UNL     1      -9.041   3.305  -9.008  1.00  0.00     0.031 A 
ATOM     49  C   UNL     1      -8.056   9.711  -9.631  1.00  0.00     0.049 A 
ATOM     50  C   UNL     1      -9.182   4.267 -10.165  1.00  0.00     0.074 A 
ATOM     51  C   UNL     1      -8.121  10.482 -10.778  1.00  0.00     0.029 A 
ATOM     52  N   UNL     1      -8.397   8.418  -9.996  1.00  0.00    -0.354 N 
ATOM     53  N   UNL     1      -8.941   5.556 -10.202  1.00  0.00    -0.248 NA
ATOM     54  C   UNL     1      -9.650   3.709 -11.444  1.00  0.00     0.031 C 
ATOM     55  C   UNL     1      -8.564   9.668 -11.825  1.00  0.00     0.029 A 
ATOM     56  C   UNL     1      -8.706   8.376 -11.346  1.00  0.00     0.049 A 
ATOM     57  H   UNL     1      -8.418   7.645  -9.387  1.00  0.00     0.167 HD
ATOM     58  C   UNL     1      -9.197   5.955 -11.513  1.00  0.00     0.074 A 
ATOM     59  C   UNL     1      -9.602   4.770 -12.239  1.00  0.00     0.031 C 
ATOM     60  C   UNL     1      -9.103   7.191 -12.064  1.00  0.00     0.031 A 
BRANCH  47  61
ATOM     61  C   UNL     1      -7.437  11.584  -8.051  1.00  0.00    -0.014 A 
ATOM     62  C   UNL     1      -6.142  12.037  -7.740  1.00  0.00     0.010 A 
ATOM     63  C   UNL     1      -8.481  12.520  -8.166  1.00  0.00     0.010 A 
ATOM     64  C   UNL     1      -5.905  13.395  -7.511  1.00  0.00     0.020 A 
ATOM     65  C   UNL     1      -8.242  13.882  -7.968  1.00  0.00     0.020 A 
ATOM     66  C   UNL     1      -6.958  14.309  -7.625  1.00  0.00     0.054 A 
BRANCH  66  67
ATOM     67  S   UNL     1      -6.616  16.067  -7.342  1.00  0.00     0.124 S 
ATOM     68  O   UNL     1      -6.402  16.103  -5.898  1.00  0.00    -0.237 OA
ATOM     69  O   UNL     1      -5.427  16.297  -8.159  1.00  0.00    -0.237 OA
ATOM     70  O   UNL     1      -7.828  16.737  -7.808  1.00  0.00    -0.744 OA
ENDBRANCH  66  67
ENDBRANCH  47  61
BRANCH  48  71
ATOM     71  C   UNL     1      -9.368   1.861  -9.190  1.00  0.00    -0.014 A 
ATOM     72  C   UNL     1      -8.566   1.038 -10.002  1.00  0.00     0.010 A 
ATOM     73  C   UNL     1     -10.501   1.305  -8.569  1.00  0.00     0.010 A 
ATOM     74  C   UNL     1      -8.899  -0.307 -10.200  1.00  0.00     0.020 A 
ATOM     75  C   UNL     1     -10.821  -0.046  -8.739  1.00  0.00     0.020 A 
ATOM     76  C   UNL     1     -10.023  -0.841  -9.564  1.00  0.00     0.054 A 
BRANCH  76  77
ATOM     77  S   UNL     1     -10.409  -2.600  -9.797  1.00  0.00     0.124 S 
ATOM     78  O   UNL     1     -10.884  -2.627 -11.177  1.00  0.00    -0.237 OA
ATOM     79  O   UNL     1      -9.117  -3.239  -9.560  1.00  0.00    -0.237 OA
ATOM     80  O   UNL     1     -11.424  -2.865  -8.780  1.00  0.00    -0.744 OA
ENDBRANCH  76  77
ENDBRANCH  48  71
BRANCH  60  81
ATOM     81  C   UNL     1      -9.399   7.335 -13.536  1.00  0.00    -0.014 A 
ATOM     82  C   UNL     1     -10.711   7.245 -14.033  1.00  0.00     0.010 A 
ATOM     83  C   UNL     1      -8.353   7.650 -14.424  1.00  0.00     0.010 A 
ATOM     84  C   UNL     1     -10.968   7.444 -15.393  1.00  0.00     0.020 A 
ATOM     85  C   UNL     1      -8.609   7.879 -15.779  1.00  0.00     0.020 A 
ATOM     86  C   UNL     1      -9.915   7.765 -16.257  1.00  0.00     0.054 A 
BRANCH  86  87
ATOM     87  S   UNL     1     -10.284   8.080 -18.006  1.00  0.00     0.124 S 
ATOM     88  O   UNL     1     -10.594   6.740 -18.498  1.00  0.00    -0.237 OA
ATOM     89  O   UNL     1     -11.417   9.000 -17.933  1.00  0.00    -0.237 OA
ATOM     90  O   UNL     1      -9.048   8.662 -18.523  1.00  0.00    -0.744 OA
ENDBRANCH  86  87
ENDBRANCH  60  81
ENDBRANCH  34  35
ENDBRANCH  27  29
ENDBRANCH  26  27
ENDBRANCH  25  26
ENDBRANCH  24  25
ENDBRANCH  23  24
ENDBRANCH  22  23
ENDBRANCH   1  22
TORSDOF 25
