REMARK SMILES O=C(/C=C\N1[C@@H]2CC[C@H]1C[C@H](O)C2)OCCOCCOCCOC(=O)c1ccc(-c2c3nc(c(-c4ccc(S(=O)(=O)[O-])cc4)c4ccc([nH]4)c(-c4ccc(S(=O)(=O)[O-])cc4)c4nc(c(-c5ccc(S(=O)(=O)[O-])cc5)c5ccc2[nH]5)C=C4)C=C3)cc1
REMARK SMILES IDX 19 1 18 2 17 3 16 4 15 5 14 6 2 7 1 8 3 9 4 10 5 11 6 12
REMARK SMILES IDX 9 13 7 14 13 15 8 16 10 17 11 18 12 19 20 21 21 22 22 23
REMARK SMILES IDX 23 24 24 25 25 26 26 27 27 28 85 29 28 30 84 31 29 32 30 33
REMARK SMILES IDX 31 34 78 35 32 36 83 37 77 38 79 39 33 40 82 41 76 42 75 43
REMARK SMILES IDX 34 45 64 46 45 47 63 48 46 49 49 50 62 51 80 52 47 53 48 54
REMARK SMILES IDX 61 56 81 57 50 58 35 59 36 60 44 61 37 62 43 63 38 64 39 65
REMARK SMILES IDX 40 66 41 67 42 68 65 69 66 70 74 71 67 72 73 73 68 74 69 75
REMARK SMILES IDX 70 76 71 77 72 78 51 79 52 80 60 81 53 82 59 83 54 84 55 85
REMARK SMILES IDX 56 86 57 87 58 88
REMARK H PARENT 12 20 79 44 49 55
REMARK Flexibility Score: inf
ROOT
ATOM      1  C   UNL     1       2.381  -1.312  -2.715  1.00  0.00     0.188 C 
ENDROOT
BRANCH   1   2
ATOM      2  C   UNL     1       3.479  -0.260  -2.354  1.00  0.00     0.188 C 
BRANCH   2   3
ATOM      3  O   UNL     1       4.694  -0.904  -1.977  1.00  0.00    -0.376 OA
BRANCH   3   4
ATOM      4  C   UNL     1       5.484  -0.709  -0.717  1.00  0.00     0.202 C 
BRANCH   4   5
ATOM      5  C   UNL     1       4.741  -0.975   1.313  1.00  0.00     0.261 C 
BRANCH   5   6
ATOM      6  O   UNL     1       2.980  -0.446   1.649  1.00  0.00    -0.460 OA
BRANCH   6   7
ATOM      7  C   UNL     1       2.095   0.540   1.315  1.00  0.00     0.332 C 
ATOM      8  O   UNL     1       0.893   0.425   1.518  1.00  0.00    -0.247 OA
BRANCH   7   9
ATOM      9  C   UNL     1       2.653   1.762   0.772  1.00  0.00     0.111 C 
ATOM     10  C   UNL     1       3.895   1.609   0.357  1.00  0.00     0.089 C 
BRANCH  10  11
ATOM     11  N   UNL     1       4.493   0.368   0.301  1.00  0.00    -0.371 N 
ATOM     12  C   UNL     1       6.233   0.050   1.288  1.00  0.00     0.084 C 
ATOM     13  C   UNL     1       3.725  -1.544   0.042  1.00  0.00     0.084 C 
ATOM     14  C   UNL     1       6.795  -1.707   0.758  1.00  0.00     0.027 C 
ATOM     15  C   UNL     1       5.855  -0.657   3.101  1.00  0.00     0.056 C 
ATOM     16  C   UNL     1       5.322  -2.686  -0.003  1.00  0.00     0.027 C 
ATOM     17  C   UNL     1       3.312  -2.462   1.757  1.00  0.00     0.056 C 
ATOM     18  C   UNL     1       4.310  -1.829   3.294  1.00  0.00     0.118 C 
BRANCH  18  19
ATOM     19  O   UNL     1       3.386  -1.198   4.173  1.00  0.00    -0.393 OA
ATOM     20  H   UNL     1       3.034  -0.399   3.753  1.00  0.00     0.210 HD
ENDBRANCH  18  19
ENDBRANCH  10  11
ENDBRANCH   7   9
ENDBRANCH   6   7
ENDBRANCH   5   6
ENDBRANCH   4   5
ENDBRANCH   3   4
ENDBRANCH   2   3
ENDBRANCH   1   2
BRANCH   1  21
ATOM     21  O   UNL     1       2.733  -2.689  -2.863  1.00  0.00    -0.376 OA
BRANCH  21  22
ATOM     22  C   UNL     1       3.954  -3.035  -3.500  1.00  0.00     0.202 C 
BRANCH  22  23
ATOM     23  C   UNL     1       4.237  -2.565  -4.929  1.00  0.00     0.261 C 
BRANCH  23  24
ATOM     24  O   UNL     1       3.866  -1.214  -5.218  1.00  0.00    -0.460 OA
BRANCH  24  25
ATOM     25  C   UNL     1       2.647  -1.069  -5.798  1.00  0.00     0.338 C 
ATOM     26  O   UNL     1       1.873  -1.955  -6.114  1.00  0.00    -0.246 OA
BRANCH  25  27
ATOM     27  C   UNL     1       2.293   0.365  -5.790  1.00  0.00     0.060 A 
ATOM     28  C   UNL     1       1.098   0.766  -5.171  1.00  0.00     0.016 A 
ATOM     29  C   UNL     1       3.137   1.304  -6.382  1.00  0.00     0.016 A 
ATOM     30  C   UNL     1       0.742   2.108  -5.137  1.00  0.00     0.010 A 
ATOM     31  C   UNL     1       2.750   2.643  -6.402  1.00  0.00     0.010 A 
ATOM     32  C   UNL     1       1.542   3.040  -5.802  1.00  0.00    -0.014 A 
BRANCH  32  33
ATOM     33  C   UNL     1       1.005   4.388  -6.063  1.00  0.00     0.031 A 
ATOM     34  C   UNL     1       0.328   4.624  -7.383  1.00  0.00     0.074 A 
ATOM     35  C   UNL     1       1.116   5.364  -5.147  1.00  0.00     0.049 A 
ATOM     36  N   UNL     1      -0.121   5.739  -7.892  1.00  0.00    -0.248 NA
ATOM     37  C   UNL     1       0.135   3.444  -8.246  1.00  0.00     0.031 C 
ATOM     38  C   UNL     1       1.690   5.210  -3.810  1.00  0.00     0.029 A 
ATOM     39  N   UNL     1       0.761   6.685  -5.213  1.00  0.00    -0.354 N 
ATOM     40  C   UNL     1      -0.627   5.401  -9.141  1.00  0.00     0.074 A 
ATOM     41  C   UNL     1      -0.423   3.982  -9.321  1.00  0.00     0.031 C 
ATOM     42  C   UNL     1       1.674   6.403  -3.191  1.00  0.00     0.029 A 
ATOM     43  C   UNL     1       1.134   7.407  -4.105  1.00  0.00     0.049 A 
ATOM     44  H   UNL     1       0.286   7.079  -5.980  1.00  0.00     0.167 HD
ATOM     45  C   UNL     1      -1.203   6.212 -10.056  1.00  0.00     0.031 A 
ATOM     46  C   UNL     1       1.082   8.735  -3.881  1.00  0.00     0.031 A 
ATOM     47  C   UNL     1      -1.387   7.624  -9.860  1.00  0.00     0.049 A 
ATOM     48  C   UNL     1       0.517   9.628  -4.958  1.00  0.00     0.074 A 
ATOM     49  C   UNL     1      -1.978   8.539 -10.713  1.00  0.00     0.029 A 
ATOM     50  N   UNL     1      -0.972   8.327  -8.739  1.00  0.00    -0.354 N 
ATOM     51  N   UNL     1       0.012   9.297  -6.125  1.00  0.00    -0.248 NA
ATOM     52  C   UNL     1       0.512  11.072  -4.689  1.00  0.00     0.031 C 
ATOM     53  C   UNL     1      -1.849   9.807 -10.142  1.00  0.00     0.029 A 
ATOM     54  C   UNL     1      -1.252   9.672  -8.897  1.00  0.00     0.049 A 
ATOM     55  H   UNL     1      -0.541   7.928  -7.949  1.00  0.00     0.167 HD
ATOM     56  C   UNL     1      -0.393  10.490  -6.715  1.00  0.00     0.074 A 
ATOM     57  C   UNL     1      -0.099  11.544  -5.766  1.00  0.00     0.031 C 
ATOM     58  C   UNL     1      -0.951  10.701  -7.934  1.00  0.00     0.031 A 
BRANCH  45  59
ATOM     59  C   UNL     1      -1.631   5.611 -11.367  1.00  0.00    -0.014 A 
ATOM     60  C   UNL     1      -2.742   4.754 -11.457  1.00  0.00     0.010 A 
ATOM     61  C   UNL     1      -0.954   5.979 -12.545  1.00  0.00     0.010 A 
ATOM     62  C   UNL     1      -3.164   4.273 -12.700  1.00  0.00     0.020 A 
ATOM     63  C   UNL     1      -1.389   5.523 -13.791  1.00  0.00     0.020 A 
ATOM     64  C   UNL     1      -2.491   4.669 -13.860  1.00  0.00     0.054 A 
BRANCH  64  65
ATOM     65  S   UNL     1      -3.112   4.094 -15.464  1.00  0.00     0.124 S 
ATOM     66  O   UNL     1      -2.807   2.667 -15.413  1.00  0.00    -0.237 OA
ATOM     67  O   UNL     1      -4.530   4.437 -15.396  1.00  0.00    -0.237 OA
ATOM     68  O   UNL     1      -2.334   4.861 -16.434  1.00  0.00    -0.744 OA
ENDBRANCH  64  65
ENDBRANCH  45  59
BRANCH  46  69
ATOM     69  C   UNL     1       1.632   9.311  -2.622  1.00  0.00    -0.014 A 
ATOM     70  C   UNL     1       0.798   9.978  -1.707  1.00  0.00     0.010 A 
ATOM     71  C   UNL     1       3.010   9.228  -2.349  1.00  0.00     0.010 A 
ATOM     72  C   UNL     1       1.336  10.582  -0.566  1.00  0.00     0.020 A 
ATOM     73  C   UNL     1       3.547   9.797  -1.192  1.00  0.00     0.020 A 
ATOM     74  C   UNL     1       2.708  10.488  -0.317  1.00  0.00     0.054 A 
BRANCH  74  75
ATOM     75  S   UNL     1       3.382  11.266   1.177  1.00  0.00     0.124 S 
ATOM     76  O   UNL     1       3.266  12.685   0.858  1.00  0.00    -0.237 OA
ATOM     77  O   UNL     1       2.485  10.774   2.219  1.00  0.00    -0.237 OA
ATOM     78  O   UNL     1       4.747  10.749   1.246  1.00  0.00    -0.744 OA
ENDBRANCH  74  75
ENDBRANCH  46  69
BRANCH  58  79
ATOM     79  C   UNL     1      -1.308  12.118  -8.297  1.00  0.00    -0.014 A 
ATOM     80  C   UNL     1      -0.312  13.076  -8.560  1.00  0.00     0.010 A 
ATOM     81  C   UNL     1      -2.661  12.479  -8.438  1.00  0.00     0.010 A 
ATOM     82  C   UNL     1      -0.665  14.378  -8.922  1.00  0.00     0.020 A 
ATOM     83  C   UNL     1      -3.016  13.769  -8.837  1.00  0.00     0.020 A 
ATOM     84  C   UNL     1      -2.015  14.714  -9.063  1.00  0.00     0.054 A 
BRANCH  84  85
ATOM     85  S   UNL     1      -2.440  16.398  -9.582  1.00  0.00     0.124 S 
ATOM     86  O   UNL     1      -2.082  17.180  -8.402  1.00  0.00    -0.237 OA
ATOM     87  O   UNL     1      -1.586  16.596 -10.750  1.00  0.00    -0.237 OA
ATOM     88  O   UNL     1      -3.871  16.323  -9.868  1.00  0.00    -0.744 OA
ENDBRANCH  84  85
ENDBRANCH  58  79
ENDBRANCH  32  33
ENDBRANCH  25  27
ENDBRANCH  24  25
ENDBRANCH  23  24
ENDBRANCH  22  23
ENDBRANCH  21  22
ENDBRANCH   1  21
TORSDOF 22
