REMARK SMILES O=C(OCCOCCOCCOC(=O)[C@@H]1CCn2c(C(=O)c3ccccc3)ccc21)c1ccc(-c2c3nc(c(-c4ccc(S(=O)(=O)[O-])cc4)c4ccc([nH]4)c(-c4ccc(S(=O)(=O)[O-])cc4)c4nc(c(-c5ccc(S(=O)(=O)[O-])cc5)c5ccc2[nH]5)C=C4)C=C3)cc1
REMARK SMILES IDX 7 1 6 2 5 3 4 4 3 5 2 6 1 7 31 8 32 9 90 10 33 11 89 12
REMARK SMILES IDX 34 13 35 14 36 15 83 16 37 17 88 18 82 19 84 20 38 21 87 22
REMARK SMILES IDX 81 23 80 24 39 26 69 27 50 28 68 29 51 30 54 31 67 32 85 33
REMARK SMILES IDX 52 34 53 35 66 37 86 38 55 39 40 40 41 41 49 42 42 43 48 44
REMARK SMILES IDX 43 45 44 46 45 47 46 48 47 49 70 50 71 51 79 52 72 53 78 54
REMARK SMILES IDX 73 55 74 56 75 57 76 58 77 59 56 60 57 61 65 62 58 63 64 64
REMARK SMILES IDX 59 65 60 66 61 67 62 68 63 69 8 70 9 71 10 72 11 73 12 74
REMARK SMILES IDX 13 75 14 76 15 77 16 78 30 79 17 80 18 81 29 82 19 83 28 84
REMARK SMILES IDX 20 85 21 86 22 87 23 88 27 89 24 90 26 91 25 92
REMARK H PARENT 84 25 54 36
REMARK Flexibility Score: inf
ROOT
ATOM      1  C   UNL     1       2.551  -1.456  -0.896  1.00  0.00     0.188 C 
ENDROOT
BRANCH   1   2
ATOM      2  O   UNL     1       3.915  -1.053  -1.060  1.00  0.00    -0.376 OA
BRANCH   2   3
ATOM      3  C   UNL     1       4.766  -1.467   0.019  1.00  0.00     0.202 C 
BRANCH   3   4
ATOM      4  C   UNL     1       4.601  -0.697   1.343  1.00  0.00     0.261 C 
BRANCH   4   5
ATOM      5  O   UNL     1       3.254  -0.279   1.604  1.00  0.00    -0.460 OA
BRANCH   5   6
ATOM      6  C   UNL     1       2.639   0.872   1.236  1.00  0.00     0.338 C 
ATOM      7  O   UNL     1       1.480   1.046   1.615  1.00  0.00    -0.246 OA
BRANCH   6   8
ATOM      8  C   UNL     1       3.268   1.937   0.386  1.00  0.00     0.060 A 
ATOM      9  C   UNL     1       4.444   1.814  -0.361  1.00  0.00     0.016 A 
ATOM     10  C   UNL     1       2.591   3.165   0.322  1.00  0.00     0.016 A 
ATOM     11  C   UNL     1       4.979   2.872  -1.087  1.00  0.00     0.010 A 
ATOM     12  C   UNL     1       3.113   4.229  -0.415  1.00  0.00     0.010 A 
ATOM     13  C   UNL     1       4.325   4.093  -1.101  1.00  0.00    -0.014 A 
BRANCH  13  14
ATOM     14  C   UNL     1       5.010   5.276  -1.649  1.00  0.00     0.031 A 
ATOM     15  C   UNL     1       5.584   6.239  -0.665  1.00  0.00     0.074 A 
ATOM     16  C   UNL     1       5.172   5.446  -2.972  1.00  0.00     0.049 A 
ATOM     17  N   UNL     1       6.183   7.372  -0.885  1.00  0.00    -0.248 NA
ATOM     18  C   UNL     1       5.512   5.849   0.755  1.00  0.00     0.031 C 
ATOM     19  C   UNL     1       4.841   4.450  -3.979  1.00  0.00     0.029 A 
ATOM     20  N   UNL     1       5.647   6.495  -3.707  1.00  0.00    -0.354 N 
ATOM     21  C   UNL     1       6.567   7.828   0.366  1.00  0.00     0.074 A 
ATOM     22  C   UNL     1       6.092   6.879   1.345  1.00  0.00     0.031 C 
ATOM     23  C   UNL     1       5.008   4.961  -5.207  1.00  0.00     0.029 A 
ATOM     24  C   UNL     1       5.499   6.322  -5.066  1.00  0.00     0.049 A 
ATOM     25  H   UNL     1       6.056   7.296  -3.305  1.00  0.00     0.167 HD
ATOM     26  C   UNL     1       7.274   8.940   0.658  1.00  0.00     0.031 A 
ATOM     27  C   UNL     1       5.737   7.173  -6.079  1.00  0.00     0.031 A 
ATOM     28  C   UNL     1       7.688   9.877  -0.347  1.00  0.00     0.049 A 
ATOM     29  C   UNL     1       6.372   8.485  -5.724  1.00  0.00     0.074 A 
ATOM     30  C   UNL     1       8.350  11.077  -0.190  1.00  0.00     0.029 A 
ATOM     31  N   UNL     1       7.457   9.713  -1.710  1.00  0.00    -0.354 N 
ATOM     32  N   UNL     1       6.702   8.928  -4.532  1.00  0.00    -0.248 NA
ATOM     33  C   UNL     1       6.708   9.387  -6.827  1.00  0.00     0.031 C 
ATOM     34  C   UNL     1       8.458  11.672  -1.451  1.00  0.00     0.029 A 
ATOM     35  C   UNL     1       7.934  10.807  -2.404  1.00  0.00     0.049 A 
ATOM     36  H   UNL     1       7.019   8.933  -2.119  1.00  0.00     0.167 HD
ATOM     37  C   UNL     1       7.337  10.141  -4.742  1.00  0.00     0.074 A 
ATOM     38  C   UNL     1       7.331  10.364  -6.178  1.00  0.00     0.031 C 
ATOM     39  C   UNL     1       7.893  10.984  -3.837  1.00  0.00     0.031 A 
BRANCH  26  40
ATOM     40  C   UNL     1       7.535   9.205   2.113  1.00  0.00    -0.014 A 
ATOM     41  C   UNL     1       8.396   8.386   2.868  1.00  0.00     0.010 A 
ATOM     42  C   UNL     1       6.835  10.240   2.756  1.00  0.00     0.010 A 
ATOM     43  C   UNL     1       8.504   8.560   4.251  1.00  0.00     0.020 A 
ATOM     44  C   UNL     1       6.963  10.437   4.132  1.00  0.00     0.020 A 
ATOM     45  C   UNL     1       7.778   9.580   4.875  1.00  0.00     0.054 A 
BRANCH  45  46
ATOM     46  S   UNL     1       7.915   9.768   6.673  1.00  0.00     0.124 S 
ATOM     47  O   UNL     1       7.169   8.609   7.154  1.00  0.00    -0.237 OA
ATOM     48  O   UNL     1       9.356   9.724   6.889  1.00  0.00    -0.237 OA
ATOM     49  O   UNL     1       7.287  11.065   6.932  1.00  0.00    -0.744 OA
ENDBRANCH  45  46
ENDBRANCH  26  40
BRANCH  27  50
ATOM     50  C   UNL     1       5.398   6.791  -7.478  1.00  0.00    -0.014 A 
ATOM     51  C   UNL     1       6.400   6.513  -8.423  1.00  0.00     0.010 A 
ATOM     52  C   UNL     1       4.048   6.657  -7.862  1.00  0.00     0.010 A 
ATOM     53  C   UNL     1       6.061   6.123  -9.725  1.00  0.00     0.020 A 
ATOM     54  C   UNL     1       3.705   6.247  -9.155  1.00  0.00     0.020 A 
ATOM     55  C   UNL     1       4.716   5.990 -10.081  1.00  0.00     0.054 A 
BRANCH  55  56
ATOM     56  S   UNL     1       4.307   5.436 -11.762  1.00  0.00     0.124 S 
ATOM     57  O   UNL     1       4.726   6.577 -12.569  1.00  0.00    -0.237 OA
ATOM     58  O   UNL     1       5.119   4.230 -11.897  1.00  0.00    -0.237 OA
ATOM     59  O   UNL     1       2.865   5.205 -11.703  1.00  0.00    -0.744 OA
ENDBRANCH  55  56
ENDBRANCH  27  50
BRANCH  39  60
ATOM     60  C   UNL     1       8.571  12.206  -4.382  1.00  0.00    -0.014 A 
ATOM     61  C   UNL     1       7.829  13.280  -4.897  1.00  0.00     0.010 A 
ATOM     62  C   UNL     1       9.971  12.306  -4.287  1.00  0.00     0.010 A 
ATOM     63  C   UNL     1       8.482  14.435  -5.326  1.00  0.00     0.020 A 
ATOM     64  C   UNL     1      10.623  13.471  -4.684  1.00  0.00     0.020 A 
ATOM     65  C   UNL     1       9.873  14.525  -5.209  1.00  0.00     0.054 A 
BRANCH  65  66
ATOM     66  S   UNL     1      10.686  16.068  -5.699  1.00  0.00     0.124 S 
ATOM     67  O   UNL     1      10.591  16.010  -7.155  1.00  0.00    -0.237 OA
ATOM     68  O   UNL     1       9.857  17.082  -5.053  1.00  0.00    -0.237 OA
ATOM     69  O   UNL     1      12.036  15.935  -5.156  1.00  0.00    -0.744 OA
ENDBRANCH  65  66
ENDBRANCH  39  60
ENDBRANCH  13  14
ENDBRANCH   6   8
ENDBRANCH   5   6
ENDBRANCH   4   5
ENDBRANCH   3   4
ENDBRANCH   2   3
ENDBRANCH   1   2
BRANCH   1  70
ATOM     70  C   UNL     1       1.959  -2.244  -2.064  1.00  0.00     0.188 C 
BRANCH  70  71
ATOM     71  O   UNL     1       2.656  -3.401  -2.505  1.00  0.00    -0.376 OA
BRANCH  71  72
ATOM     72  C   UNL     1       3.991  -3.224  -2.963  1.00  0.00     0.202 C 
BRANCH  72  73
ATOM     73  C   UNL     1       4.268  -2.313  -4.173  1.00  0.00     0.261 C 
BRANCH  73  74
ATOM     74  O   UNL     1       3.649  -1.015  -4.159  1.00  0.00    -0.463 OA
BRANCH  74  75
ATOM     75  C   UNL     1       2.600  -0.845  -5.018  1.00  0.00     0.315 C 
ATOM     76  O   UNL     1       2.129  -1.744  -5.708  1.00  0.00    -0.251 OA
BRANCH  75  77
ATOM     77  C   UNL     1       2.043   0.571  -5.030  1.00  0.00     0.148 C 
ATOM     78  C   UNL     1       2.951   1.672  -4.458  1.00  0.00     0.043 C 
ATOM     79  C   UNL     1       0.811   0.774  -4.210  1.00  0.00     0.033 A 
ATOM     80  C   UNL     1       1.985   2.779  -3.991  1.00  0.00     0.124 C 
ATOM     81  N   UNL     1       0.778   2.039  -3.672  1.00  0.00    -0.341 N 
ATOM     82  C   UNL     1      -0.317   0.116  -3.814  1.00  0.00     0.025 A 
ATOM     83  C   UNL     1      -0.349   2.260  -2.940  1.00  0.00     0.090 A 
ATOM     84  C   UNL     1      -1.033   1.038  -3.003  1.00  0.00     0.032 A 
BRANCH  83  85
ATOM     85  C   UNL     1      -0.817   3.422  -2.183  1.00  0.00     0.209 C 
ATOM     86  O   UNL     1      -1.785   3.336  -1.423  1.00  0.00    -0.287 OA
BRANCH  85  87
ATOM     87  C   UNL     1      -0.190   4.770  -2.248  1.00  0.00     0.024 A 
ATOM     88  C   UNL     1      -0.081   5.501  -1.052  1.00  0.00     0.012 A 
ATOM     89  C   UNL     1       0.193   5.372  -3.448  1.00  0.00     0.012 A 
ATOM     90  C   UNL     1       0.481   6.781  -1.047  1.00  0.00     0.001 A 
ATOM     91  C   UNL     1       0.775   6.646  -3.438  1.00  0.00     0.001 A 
ATOM     92  C   UNL     1       0.930   7.343  -2.239  1.00  0.00     0.000 A 
ENDBRANCH  85  87
ENDBRANCH  83  85
ENDBRANCH  75  77
ENDBRANCH  74  75
ENDBRANCH  73  74
ENDBRANCH  72  73
ENDBRANCH  71  72
ENDBRANCH  70  71
ENDBRANCH   1  70
TORSDOF 22
