REMARK SMILES O=C(OCCOCCOCCOC(=O)c1cccc(Nc2ccc([N+](=O)[O-])cc2)c1)c1ccc(-c2c3nc(c(-c4ccc(S(=O)(=O)[O-])cc4)c4ccc([nH]4)c(-c4ccc(S(=O)(=O)[O-])cc4)c4nc(c(-c5ccc(S(=O)(=O)[O-])cc5)c5ccc2[nH]5)C=C4)C=C3)cc1
REMARK SMILES IDX 7 1 6 2 5 3 4 4 3 5 2 6 1 7 31 8 32 9 90 10 33 11 89 12
REMARK SMILES IDX 34 13 35 14 36 15 83 16 37 17 88 18 82 19 84 20 38 21 87 22
REMARK SMILES IDX 81 23 80 24 39 26 69 27 50 28 68 29 51 30 54 31 67 32 85 33
REMARK SMILES IDX 52 34 53 35 66 37 86 38 55 39 40 40 41 41 49 42 42 43 48 44
REMARK SMILES IDX 43 45 44 46 45 47 46 48 47 49 70 50 71 51 79 52 72 53 78 54
REMARK SMILES IDX 73 55 74 56 75 57 76 58 77 59 56 60 57 61 65 62 58 63 64 64
REMARK SMILES IDX 59 65 60 66 61 67 62 68 63 69 8 70 9 71 10 72 11 73 12 74
REMARK SMILES IDX 13 75 14 76 15 77 16 78 30 79 17 80 19 81 18 82 20 83 21 85
REMARK SMILES IDX 22 86 29 87 23 88 28 89 24 90 25 91 26 92 27 93
REMARK H PARENT 84 25 54 36 20 84
REMARK Flexibility Score: inf
ROOT
ATOM      1  C   UNL     1       2.500   0.304  -2.293  1.00  0.00     0.188 C 
ENDROOT
BRANCH   1   2
ATOM      2  O   UNL     1       3.777   0.499  -1.673  1.00  0.00    -0.376 OA
BRANCH   2   3
ATOM      3  C   UNL     1       4.577  -0.686  -1.617  1.00  0.00     0.202 C 
BRANCH   3   4
ATOM      4  C   UNL     1       4.359  -1.525  -0.353  1.00  0.00     0.261 C 
BRANCH   4   5
ATOM      5  O   UNL     1       2.976  -1.539   0.039  1.00  0.00    -0.460 OA
BRANCH   5   6
ATOM      6  C   UNL     1       2.351  -0.710   0.915  1.00  0.00     0.338 C 
ATOM      7  O   UNL     1       1.135  -0.824   1.062  1.00  0.00    -0.246 OA
BRANCH   6   8
ATOM      8  C   UNL     1       3.067   0.286   1.770  1.00  0.00     0.060 A 
ATOM      9  C   UNL     1       4.239   0.958   1.419  1.00  0.00     0.016 A 
ATOM     10  C   UNL     1       2.483   0.589   3.013  1.00  0.00     0.016 A 
ATOM     11  C   UNL     1       4.906   1.765   2.338  1.00  0.00     0.010 A 
ATOM     12  C   UNL     1       3.110   1.458   3.914  1.00  0.00     0.010 A 
ATOM     13  C   UNL     1       4.363   1.995   3.603  1.00  0.00    -0.014 A 
BRANCH  13  14
ATOM     14  C   UNL     1       5.197   2.678   4.617  1.00  0.00     0.031 A 
ATOM     15  C   UNL     1       5.814   1.856   5.718  1.00  0.00     0.074 A 
ATOM     16  C   UNL     1       5.507   3.979   4.469  1.00  0.00     0.049 A 
ATOM     17  N   UNL     1       6.651   2.221   6.653  1.00  0.00    -0.248 NA
ATOM     18  C   UNL     1       5.449   0.429   5.763  1.00  0.00     0.031 C 
ATOM     19  C   UNL     1       5.016   4.848   3.397  1.00  0.00     0.029 A 
ATOM     20  N   UNL     1       6.345   4.785   5.195  1.00  0.00    -0.354 N 
ATOM     21  C   UNL     1       6.895   1.079   7.407  1.00  0.00     0.074 A 
ATOM     22  C   UNL     1       6.109   0.011   6.832  1.00  0.00     0.031 C 
ATOM     23  C   UNL     1       5.604   6.051   3.505  1.00  0.00     0.029 A 
ATOM     24  C   UNL     1       6.478   6.051   4.675  1.00  0.00     0.049 A 
ATOM     25  H   UNL     1       6.807   4.487   6.011  1.00  0.00     0.167 HD
ATOM     26  C   UNL     1       7.702   0.930   8.484  1.00  0.00     0.031 A 
ATOM     27  C   UNL     1       7.225   7.089   5.098  1.00  0.00     0.031 A 
ATOM     28  C   UNL     1       8.473   1.998   9.056  1.00  0.00     0.049 A 
ATOM     29  C   UNL     1       8.082   6.912   6.321  1.00  0.00     0.074 A 
ATOM     30  C   UNL     1       9.280   1.979  10.178  1.00  0.00     0.029 A 
ATOM     31  N   UNL     1       8.530   3.284   8.538  1.00  0.00    -0.354 N 
ATOM     32  N   UNL     1       8.271   5.832   7.044  1.00  0.00    -0.248 NA
ATOM     33  C   UNL     1       8.820   8.091   6.790  1.00  0.00     0.031 C 
ATOM     34  C   UNL     1       9.801   3.266  10.357  1.00  0.00     0.029 A 
ATOM     35  C   UNL     1       9.351   4.072   9.323  1.00  0.00     0.049 A 
ATOM     36  H   UNL     1       8.057   3.590   7.731  1.00  0.00     0.167 HD
ATOM     37  C   UNL     1       9.156   6.201   8.050  1.00  0.00     0.074 A 
ATOM     38  C   UNL     1       9.482   7.596   7.828  1.00  0.00     0.031 C 
ATOM     39  C   UNL     1       9.651   5.459   9.072  1.00  0.00     0.031 A 
BRANCH  26  40
ATOM     40  C   UNL     1       7.723  -0.426   9.134  1.00  0.00    -0.014 A 
ATOM     41  C   UNL     1       8.402  -1.509   8.545  1.00  0.00     0.010 A 
ATOM     42  C   UNL     1       7.014  -0.629  10.331  1.00  0.00     0.010 A 
ATOM     43  C   UNL     1       8.324  -2.784   9.114  1.00  0.00     0.020 A 
ATOM     44  C   UNL     1       6.951  -1.898  10.913  1.00  0.00     0.020 A 
ATOM     45  C   UNL     1       7.585  -2.973  10.287  1.00  0.00     0.054 A 
BRANCH  45  46
ATOM     46  S   UNL     1       7.466  -4.642  10.988  1.00  0.00     0.124 S 
ATOM     47  O   UNL     1       6.489  -5.269  10.102  1.00  0.00    -0.237 OA
ATOM     48  O   UNL     1       8.833  -5.142  10.869  1.00  0.00    -0.237 OA
ATOM     49  O   UNL     1       7.008  -4.410  12.356  1.00  0.00    -0.744 OA
ENDBRANCH  45  46
ENDBRANCH  26  40
BRANCH  27  50
ATOM     50  C   UNL     1       7.182   8.384   4.365  1.00  0.00    -0.014 A 
ATOM     51  C   UNL     1       8.292   8.835   3.629  1.00  0.00     0.010 A 
ATOM     52  C   UNL     1       6.013   9.166   4.384  1.00  0.00     0.010 A 
ATOM     53  C   UNL     1       8.232  10.043   2.924  1.00  0.00     0.020 A 
ATOM     54  C   UNL     1       5.942  10.361   3.664  1.00  0.00     0.020 A 
ATOM     55  C   UNL     1       7.053  10.795   2.941  1.00  0.00     0.054 A 
BRANCH  55  56
ATOM     56  S   UNL     1       6.953  12.310   1.947  1.00  0.00     0.124 S 
ATOM     57  O   UNL     1       7.654  13.273   2.788  1.00  0.00    -0.237 OA
ATOM     58  O   UNL     1       7.635  11.926   0.714  1.00  0.00    -0.237 OA
ATOM     59  O   UNL     1       5.514  12.526   1.804  1.00  0.00    -0.744 OA
ENDBRANCH  55  56
ENDBRANCH  27  50
BRANCH  39  60
ATOM     60  C   UNL     1      10.606   6.139  10.010  1.00  0.00    -0.014 A 
ATOM     61  C   UNL     1      10.141   7.036  10.987  1.00  0.00     0.010 A 
ATOM     62  C   UNL     1      11.977   5.834   9.947  1.00  0.00     0.010 A 
ATOM     63  C   UNL     1      11.038   7.640  11.870  1.00  0.00     0.020 A 
ATOM     64  C   UNL     1      12.874   6.421  10.842  1.00  0.00     0.020 A 
ATOM     65  C   UNL     1      12.400   7.332  11.789  1.00  0.00     0.054 A 
BRANCH  65  66
ATOM     66  S   UNL     1      13.544   8.093  12.972  1.00  0.00     0.124 S 
ATOM     67  O   UNL     1      13.736   9.420  12.395  1.00  0.00    -0.237 OA
ATOM     68  O   UNL     1      12.792   8.053  14.224  1.00  0.00    -0.237 OA
ATOM     69  O   UNL     1      14.714   7.217  12.929  1.00  0.00    -0.744 OA
ENDBRANCH  65  66
ENDBRANCH  39  60
ENDBRANCH  13  14
ENDBRANCH   6   8
ENDBRANCH   5   6
ENDBRANCH   4   5
ENDBRANCH   3   4
ENDBRANCH   2   3
ENDBRANCH   1   2
BRANCH   1  70
ATOM     70  C   UNL     1       2.097   1.526  -3.121  1.00  0.00     0.188 C 
BRANCH  70  71
ATOM     71  O   UNL     1       2.857   1.720  -4.314  1.00  0.00    -0.376 OA
BRANCH  71  72
ATOM     72  C   UNL     1       4.230   2.075  -4.146  1.00  0.00     0.202 C 
BRANCH  72  73
ATOM     73  C   UNL     1       4.509   3.517  -3.712  1.00  0.00     0.261 C 
BRANCH  73  74
ATOM     74  O   UNL     1       3.984   3.852  -2.415  1.00  0.00    -0.460 OA
BRANCH  74  75
ATOM     75  C   UNL     1       3.067   4.850  -2.422  1.00  0.00     0.338 C 
ATOM     76  O   UNL     1       2.599   5.421  -3.393  1.00  0.00    -0.246 OA
BRANCH  75  77
ATOM     77  C   UNL     1       2.703   5.235  -1.052  1.00  0.00     0.062 A 
ATOM     78  C   UNL     1       1.702   4.551  -0.364  1.00  0.00     0.016 A 
ATOM     79  C   UNL     1       3.218   6.438  -0.556  1.00  0.00     0.041 A 
ATOM     80  C   UNL     1       1.202   5.097   0.816  1.00  0.00     0.003 A 
ATOM     81  C   UNL     1       2.709   7.011   0.619  1.00  0.00     0.039 A 
ATOM     82  C   UNL     1       1.687   6.325   1.286  1.00  0.00     0.026 A 
BRANCH  81  83
ATOM     83  N   UNL     1       3.177   8.286   0.981  1.00  0.00    -0.355 N 
ATOM     84  H   UNL     1       4.017   8.542   0.538  1.00  0.00     0.167 HD
BRANCH  83  85
ATOM     85  C   UNL     1       2.674   9.263   1.855  1.00  0.00     0.039 A 
ATOM     86  C   UNL     1       2.535  10.572   1.362  1.00  0.00     0.033 A 
ATOM     87  C   UNL     1       2.251   8.992   3.159  1.00  0.00     0.033 A 
ATOM     88  C   UNL     1       1.968  11.585   2.137  1.00  0.00     0.088 A 
ATOM     89  C   UNL     1       1.690  10.000   3.954  1.00  0.00     0.088 A 
ATOM     90  C   UNL     1       1.540  11.291   3.431  1.00  0.00     0.269 A 
BRANCH  90  91
ATOM     91  N   UNL     1       0.900  12.335   4.238  1.00  0.00     0.062 N 
ATOM     92  O   UNL     1       0.520  13.365   3.660  1.00  0.00    -0.258 OA
ATOM     93  O   UNL     1       0.724  12.105   5.444  1.00  0.00    -0.258 OA
ENDBRANCH  90  91
ENDBRANCH  83  85
ENDBRANCH  81  83
ENDBRANCH  75  77
ENDBRANCH  74  75
ENDBRANCH  73  74
ENDBRANCH  72  73
ENDBRANCH  71  72
ENDBRANCH  70  71
ENDBRANCH   1  70
TORSDOF 23
