REMARK SMILES O=C(OCCOCCOCCOC(=O)c1ccc(-c2c3nc(c(-c4ccc(S(=O)(=O)[O-])cc4)c4ccc([nH]4)c(-c4ccc(S(=O)(=O)[O-])cc4)c4nc(c(-c5ccc(S(=O)(=O)[O-])cc5)c5ccc2[nH]5)C=C4)C=C3)cc1)C1=Cc2cc(Cl)ccc2O[C@@H]1C(F)(F)F
REMARK SMILES IDX 8 1 7 2 6 3 5 4 4 5 3 6 2 7 1 8 75 9 76 10 85 11 77 12 84 13
REMARK SMILES IDX 78 14 83 15 79 16 82 17 80 18 81 19 86 20 87 21 88 22 89 23
REMARK SMILES IDX 9 24 10 25 11 26 12 27 13 28 14 29 15 30 16 31 74 32 17 33
REMARK SMILES IDX 73 34 18 35 19 36 20 37 67 38 21 39 72 40 66 41 68 42 22 43
REMARK SMILES IDX 71 44 65 45 64 46 23 48 53 49 34 50 52 51 35 52 38 53 51 54
REMARK SMILES IDX 69 55 36 56 37 57 50 59 70 60 39 61 24 62 25 63 33 64 26 65
REMARK SMILES IDX 32 66 27 67 28 68 29 69 30 70 31 71 54 72 55 73 63 74 56 75
REMARK SMILES IDX 62 76 57 77 58 78 59 79 60 80 61 81 40 82 41 83 49 84 42 85
REMARK SMILES IDX 48 86 43 87 44 88 45 89 46 90 47 91
REMARK H PARENT 68 47 38 58
REMARK Flexibility Score: inf
ROOT
ATOM      1  C   UNL     1       2.172  -2.894   1.901  1.00  0.00     0.188 C 
ENDROOT
BRANCH   1   2
ATOM      2  C   UNL     1       2.455  -2.214   0.551  1.00  0.00     0.188 C 
BRANCH   2   3
ATOM      3  O   UNL     1       3.844  -2.006   0.044  1.00  0.00    -0.376 OA
BRANCH   3   4
ATOM      4  C   UNL     1       4.564  -0.540  -0.519  1.00  0.00     0.202 C 
BRANCH   4   5
ATOM      5  C   UNL     1       3.885   1.452   0.027  1.00  0.00     0.261 C 
BRANCH   5   6
ATOM      6  O   UNL     1       2.910   2.314  -0.751  1.00  0.00    -0.460 OA
BRANCH   6   7
ATOM      7  C   UNL     1       3.065   2.168  -2.076  1.00  0.00     0.338 C 
ATOM      8  O   UNL     1       2.328   2.558  -2.947  1.00  0.00    -0.246 OA
BRANCH   7   9
ATOM      9  C   UNL     1       3.962   1.021  -2.023  1.00  0.00     0.087 C 
ATOM     10  C   UNL     1       5.356   1.295  -1.679  1.00  0.00     0.027 C 
ATOM     11  C   UNL     1       2.744   0.018  -0.932  1.00  0.00     0.316 C 
ATOM     12  C   UNL     1       6.071   1.010  -0.052  1.00  0.00     0.019 A 
ATOM     13  O   UNL     1       3.422  -0.145   0.891  1.00  0.00    -0.475 OA
ATOM     14  C   UNL     1       7.363   1.380   0.197  1.00  0.00     0.032 A 
ATOM     15  C   UNL     1       5.145   0.355   1.254  1.00  0.00     0.128 A 
ATOM     16  C   UNL     1       7.805   1.126   1.509  1.00  0.00     0.041 A 
ATOM     17  C   UNL     1       5.653   0.127   2.501  1.00  0.00     0.048 A 
ATOM     18  Cl  UNL     1       9.445   1.570   1.873  1.00  0.00    -0.084 Cl
ATOM     19  C   UNL     1       7.012   0.526   2.584  1.00  0.00     0.024 A 
BRANCH  11  20
ATOM     20  C   UNL     1       2.463  -1.134  -2.130  1.00  0.00     0.430 C 
ATOM     21  F   UNL     1       2.627  -2.436  -1.893  1.00  0.00    -0.167 F 
ATOM     22  F   UNL     1       1.202  -0.978  -2.602  1.00  0.00    -0.167 F 
ATOM     23  F   UNL     1       3.274  -0.919  -3.214  1.00  0.00    -0.167 F 
ENDBRANCH  11  20
ENDBRANCH   7   9
ENDBRANCH   6   7
ENDBRANCH   5   6
ENDBRANCH   4   5
ENDBRANCH   3   4
ENDBRANCH   2   3
ENDBRANCH   1   2
BRANCH   1  24
ATOM     24  O   UNL     1       3.129  -2.792   2.926  1.00  0.00    -0.376 OA
BRANCH  24  25
ATOM     25  C   UNL     1       4.423  -3.280   2.594  1.00  0.00     0.202 C 
BRANCH  25  26
ATOM     26  C   UNL     1       4.535  -4.693   1.994  1.00  0.00     0.261 C 
BRANCH  26  27
ATOM     27  O   UNL     1       4.072  -4.800   0.629  1.00  0.00    -0.460 OA
BRANCH  27  28
ATOM     28  C   UNL     1       3.018  -5.621   0.384  1.00  0.00     0.338 C 
ATOM     29  O   UNL     1       2.389  -6.273   1.199  1.00  0.00    -0.246 OA
BRANCH  28  30
ATOM     30  C   UNL     1       2.632  -5.516  -1.040  1.00  0.00     0.060 A 
ATOM     31  C   UNL     1       1.363  -5.030  -1.394  1.00  0.00     0.016 A 
ATOM     32  C   UNL     1       3.519  -5.946  -2.026  1.00  0.00     0.016 A 
ATOM     33  C   UNL     1       0.996  -4.929  -2.741  1.00  0.00     0.010 A 
ATOM     34  C   UNL     1       3.131  -5.896  -3.367  1.00  0.00     0.010 A 
ATOM     35  C   UNL     1       1.867  -5.398  -3.732  1.00  0.00    -0.014 A 
BRANCH  35  36
ATOM     36  C   UNL     1       1.383  -5.625  -5.116  1.00  0.00     0.031 A 
ATOM     37  C   UNL     1       0.814  -6.980  -5.433  1.00  0.00     0.074 A 
ATOM     38  C   UNL     1       1.502  -4.696  -6.081  1.00  0.00     0.049 A 
ATOM     39  N   UNL     1       0.447  -7.481  -6.582  1.00  0.00    -0.248 NA
ATOM     40  C   UNL     1       0.658  -7.901  -4.294  1.00  0.00     0.031 C 
ATOM     41  C   UNL     1       2.004  -3.337  -5.891  1.00  0.00     0.029 A 
ATOM     42  N   UNL     1       1.231  -4.771  -7.427  1.00  0.00    -0.354 N 
ATOM     43  C   UNL     1       0.040  -8.781  -6.309  1.00  0.00     0.074 A 
ATOM     44  C   UNL     1       0.224  -8.998  -4.892  1.00  0.00     0.031 C 
ATOM     45  C   UNL     1       2.030  -2.713  -7.082  1.00  0.00     0.029 A 
ATOM     46  C   UNL     1       1.589  -3.641  -8.125  1.00  0.00     0.049 A 
ATOM     47  H   UNL     1       0.819  -5.558  -7.850  1.00  0.00     0.167 HD
ATOM     48  C   UNL     1      -0.435  -9.716  -7.164  1.00  0.00     0.031 A 
ATOM     49  C   UNL     1       1.598  -3.399  -9.454  1.00  0.00     0.031 A 
ATOM     50  C   UNL     1      -0.571  -9.505  -8.580  1.00  0.00     0.049 A 
ATOM     51  C   UNL     1       1.133  -4.478 -10.403  1.00  0.00     0.074 A 
ATOM     52  C   UNL     1      -1.061 -10.378  -9.534  1.00  0.00     0.029 A 
ATOM     53  N   UNL     1      -0.189  -8.351  -9.248  1.00  0.00    -0.354 N 
ATOM     54  N   UNL     1       0.703  -5.688 -10.129  1.00  0.00    -0.248 NA
ATOM     55  C   UNL     1       1.149  -4.160 -11.839  1.00  0.00     0.031 C 
ATOM     56  C   UNL     1      -0.896  -9.784 -10.788  1.00  0.00     0.029 A 
ATOM     57  C   UNL     1      -0.395  -8.504 -10.608  1.00  0.00     0.049 A 
ATOM     58  H   UNL     1       0.174  -7.543  -8.819  1.00  0.00     0.167 HD
ATOM     59  C   UNL     1       0.369  -6.263 -11.353  1.00  0.00     0.074 A 
ATOM     60  C   UNL     1       0.639  -5.266 -12.368  1.00  0.00     0.031 C 
ATOM     61  C   UNL     1      -0.124  -7.500 -11.610  1.00  0.00     0.031 A 
BRANCH  48  62
ATOM     62  C   UNL     1      -0.771 -11.070  -6.593  1.00  0.00    -0.014 A 
ATOM     63  C   UNL     1      -1.829 -11.245  -5.682  1.00  0.00     0.010 A 
ATOM     64  C   UNL     1      -0.011 -12.189  -6.979  1.00  0.00     0.010 A 
ATOM     65  C   UNL     1      -2.083 -12.502  -5.126  1.00  0.00     0.020 A 
ATOM     66  C   UNL     1      -0.287 -13.454  -6.457  1.00  0.00     0.020 A 
ATOM     67  C   UNL     1      -1.308 -13.598  -5.516  1.00  0.00     0.054 A 
BRANCH  67  68
ATOM     68  S   UNL     1      -1.665 -15.217  -4.783  1.00  0.00     0.124 S 
ATOM     69  O   UNL     1      -1.238 -15.023  -3.399  1.00  0.00    -0.237 OA
ATOM     70  O   UNL     1      -3.106 -15.347  -4.983  1.00  0.00    -0.237 OA
ATOM     71  O   UNL     1      -0.844 -16.142  -5.562  1.00  0.00    -0.744 OA
ENDBRANCH  67  68
ENDBRANCH  48  62
BRANCH  49  72
ATOM     72  C   UNL     1       2.104  -2.093  -9.967  1.00  0.00    -0.014 A 
ATOM     73  C   UNL     1       1.244  -1.170 -10.588  1.00  0.00     0.010 A 
ATOM     74  C   UNL     1       3.463  -1.756  -9.817  1.00  0.00     0.010 A 
ATOM     75  C   UNL     1       1.730   0.061 -11.045  1.00  0.00     0.020 A 
ATOM     76  C   UNL     1       3.947  -0.515 -10.242  1.00  0.00     0.020 A 
ATOM     77  C   UNL     1       3.077   0.385 -10.858  1.00  0.00     0.054 A 
BRANCH  77  78
ATOM     78  S   UNL     1       3.668   2.020 -11.382  1.00  0.00     0.124 S 
ATOM     79  O   UNL     1       3.591   1.922 -12.836  1.00  0.00    -0.237 OA
ATOM     80  O   UNL     1       2.701   2.918 -10.757  1.00  0.00    -0.237 OA
ATOM     81  O   UNL     1       5.020   2.090 -10.831  1.00  0.00    -0.744 OA
ENDBRANCH  77  78
ENDBRANCH  49  72
BRANCH  61  82
ATOM     82  C   UNL     1      -0.461  -7.851 -13.038  1.00  0.00    -0.014 A 
ATOM     83  C   UNL     1       0.538  -8.077 -14.000  1.00  0.00     0.010 A 
ATOM     84  C   UNL     1      -1.808  -8.068 -13.388  1.00  0.00     0.010 A 
ATOM     85  C   UNL     1       0.195  -8.503 -15.288  1.00  0.00     0.020 A 
ATOM     86  C   UNL     1      -2.152  -8.527 -14.662  1.00  0.00     0.020 A 
ATOM     87  C   UNL     1      -1.147  -8.736 -15.606  1.00  0.00     0.054 A 
BRANCH  87  88
ATOM     88  S   UNL     1      -1.556  -9.370 -17.256  1.00  0.00     0.124 S 
ATOM     89  O   UNL     1      -1.243  -8.227 -18.109  1.00  0.00    -0.237 OA
ATOM     90  O   UNL     1      -0.659 -10.516 -17.387  1.00  0.00    -0.237 OA
ATOM     91  O   UNL     1      -2.975  -9.704 -17.160  1.00  0.00    -0.744 OA
ENDBRANCH  87  88
ENDBRANCH  61  82
ENDBRANCH  35  36
ENDBRANCH  28  30
ENDBRANCH  27  28
ENDBRANCH  26  27
ENDBRANCH  25  26
ENDBRANCH  24  25
ENDBRANCH   1  24
TORSDOF 21
