REMARK SMILES NC(=O)c1cccc(NC2(CC(=O)OCCOCCOCCOC(=O)c3ccc(-c4c5nc(c(-c6ccc(S(=O)(=O)[O-])cc6)c6ccc([nH]6)c(-c6ccc(S(=O)(=O)[O-])cc6)c6nc(c(-c7ccc(S(=O)(=O)[O-])cc7)c7ccc4[nH]7)C=C6)C=C5)cc3)CCC2)n1
REMARK SMILES IDX 18 1 17 2 16 3 15 4 14 5 12 6 13 7 11 8 10 9 86 10 88 11
REMARK SMILES IDX 87 12 9 13 8 15 4 16 5 17 89 18 6 19 7 20 2 21 1 22 3 25
REMARK SMILES IDX 19 26 20 27 21 28 22 29 23 30 24 31 25 32 26 33 27 34 85 35
REMARK SMILES IDX 28 36 84 37 29 38 30 39 31 40 78 41 32 42 83 43 77 44 79 45
REMARK SMILES IDX 33 46 82 47 76 48 75 49 34 51 64 52 45 53 63 54 46 55 49 56
REMARK SMILES IDX 62 57 80 58 47 59 48 60 61 62 81 63 50 64 35 65 36 66 44 67
REMARK SMILES IDX 37 68 43 69 38 70 39 71 40 72 41 73 42 74 65 75 66 76 74 77
REMARK SMILES IDX 67 78 73 79 68 80 69 81 70 82 71 83 72 84 51 85 52 86 60 87
REMARK SMILES IDX 53 88 59 89 54 90 55 91 56 92 57 93 58 94
REMARK H PARENT 9 14 1 23 1 24 79 50 49 61
REMARK Flexibility Score: inf
ROOT
ATOM      1  C   UNL     1       2.708  -3.380   7.744  1.00  0.00     0.188 C 
ENDROOT
BRANCH   1   2
ATOM      2  O   UNL     1       2.971  -4.542   8.527  1.00  0.00    -0.376 OA
BRANCH   2   3
ATOM      3  C   UNL     1       2.687  -5.820   7.987  1.00  0.00     0.202 C 
BRANCH   3   4
ATOM      4  C   UNL     1       1.217  -6.134   7.697  1.00  0.00     0.261 C 
BRANCH   4   5
ATOM      5  O   UNL     1       0.520  -5.139   6.912  1.00  0.00    -0.463 OA
BRANCH   5   6
ATOM      6  C   UNL     1      -0.445  -4.446   7.556  1.00  0.00     0.308 C 
ATOM      7  O   UNL     1      -0.752  -4.649   8.729  1.00  0.00    -0.252 OA
BRANCH   6   8
ATOM      8  C   UNL     1      -1.216  -3.428   6.750  1.00  0.00     0.151 C 
BRANCH   8   9
ATOM      9  C   UNL     1      -0.842  -2.917   5.337  1.00  0.00     0.049 C 
ATOM     10  C   UNL     1      -2.161  -2.664   4.525  1.00  0.00     0.029 C 
ATOM     11  C   UNL     1      -0.444  -3.931   4.224  1.00  0.00     0.029 C 
ATOM     12  C   UNL     1      -1.922  -4.002   3.806  1.00  0.00     0.005 C 
BRANCH   9  13
ATOM     13  N   UNL     1      -0.038  -1.696   5.375  1.00  0.00    -0.364 N 
ATOM     14  H   UNL     1       0.230  -1.394   6.273  1.00  0.00     0.162 HD
BRANCH  13  15
ATOM     15  C   UNL     1       0.412  -0.879   4.293  1.00  0.00     0.127 A 
ATOM     16  C   UNL     1       0.590  -0.319   2.043  1.00  0.00     0.130 A 
ATOM     17  C   UNL     1       1.522   0.684   2.276  1.00  0.00     0.034 A 
ATOM     18  N   UNL     1       0.074  -1.123   3.017  1.00  0.00    -0.226 NA
ATOM     19  C   UNL     1       1.875   0.931   3.587  1.00  0.00     0.006 A 
ATOM     20  C   UNL     1       1.272   0.177   4.592  1.00  0.00     0.047 A 
BRANCH  16  21
ATOM     21  C   UNL     1       0.025  -0.496   0.666  1.00  0.00     0.267 C 
ATOM     22  N   UNL     1       0.861  -0.258  -0.398  1.00  0.00    -0.364 N 
ATOM     23  H   UNL     1       0.528  -0.363  -1.318  1.00  0.00     0.160 HD
ATOM     24  H   UNL     1       1.792   0.019  -0.239  1.00  0.00     0.160 HD
ATOM     25  O   UNL     1      -1.141  -0.821   0.463  1.00  0.00    -0.268 OA
ENDBRANCH  16  21
ENDBRANCH  13  15
ENDBRANCH   9  13
ENDBRANCH   8   9
ENDBRANCH   6   8
ENDBRANCH   5   6
ENDBRANCH   4   5
ENDBRANCH   3   4
ENDBRANCH   2   3
ENDBRANCH   1   2
BRANCH   1  26
ATOM     26  C   UNL     1       2.810  -3.454   6.206  1.00  0.00     0.188 C 
BRANCH  26  27
ATOM     27  O   UNL     1       3.750  -4.433   5.802  1.00  0.00    -0.376 OA
BRANCH  27  28
ATOM     28  C   UNL     1       4.802  -3.991   4.975  1.00  0.00     0.202 C 
BRANCH  28  29
ATOM     29  C   UNL     1       5.818  -3.055   5.642  1.00  0.00     0.261 C 
BRANCH  29  30
ATOM     30  O   UNL     1       5.265  -2.087   6.554  1.00  0.00    -0.460 OA
BRANCH  30  31
ATOM     31  C   UNL     1       5.107  -0.832   6.083  1.00  0.00     0.338 C 
ATOM     32  O   UNL     1       5.329  -0.444   4.950  1.00  0.00    -0.246 OA
BRANCH  31  33
ATOM     33  C   UNL     1       4.571   0.058   7.136  1.00  0.00     0.060 A 
ATOM     34  C   UNL     1       3.201   0.078   7.391  1.00  0.00     0.016 A 
ATOM     35  C   UNL     1       5.388   1.032   7.703  1.00  0.00     0.016 A 
ATOM     36  C   UNL     1       2.621   1.152   8.068  1.00  0.00     0.010 A 
ATOM     37  C   UNL     1       4.814   2.064   8.462  1.00  0.00     0.010 A 
ATOM     38  C   UNL     1       3.417   2.178   8.590  1.00  0.00    -0.014 A 
BRANCH  38  39
ATOM     39  C   UNL     1       2.794   3.405   9.171  1.00  0.00     0.031 A 
ATOM     40  C   UNL     1       3.088   4.758   8.560  1.00  0.00     0.074 A 
ATOM     41  C   UNL     1       1.948   3.327  10.218  1.00  0.00     0.049 A 
ATOM     42  N   UNL     1       2.798   5.952   9.011  1.00  0.00    -0.248 NA
ATOM     43  C   UNL     1       3.809   4.768   7.275  1.00  0.00     0.031 C 
ATOM     44  C   UNL     1       1.510   2.090  10.870  1.00  0.00     0.029 A 
ATOM     45  N   UNL     1       1.305   4.315  10.925  1.00  0.00    -0.354 N 
ATOM     46  C   UNL     1       3.355   6.851   8.106  1.00  0.00     0.074 A 
ATOM     47  C   UNL     1       3.994   6.066   7.073  1.00  0.00     0.031 C 
ATOM     48  C   UNL     1       0.670   2.393  11.872  1.00  0.00     0.029 A 
ATOM     49  C   UNL     1       0.575   3.843  11.992  1.00  0.00     0.049 A 
ATOM     50  H   UNL     1       1.362   5.270  10.691  1.00  0.00     0.167 HD
ATOM     51  C   UNL     1       3.344   8.206   8.138  1.00  0.00     0.031 A 
ATOM     52  C   UNL     1      -0.052   4.495  12.991  1.00  0.00     0.031 A 
ATOM     53  C   UNL     1       2.668   8.987   9.143  1.00  0.00     0.049 A 
ATOM     54  C   UNL     1      -0.015   5.999  13.026  1.00  0.00     0.074 A 
ATOM     55  C   UNL     1       2.580  10.366   9.243  1.00  0.00     0.029 A 
ATOM     56  N   UNL     1       1.958   8.464  10.211  1.00  0.00    -0.354 N 
ATOM     57  N   UNL     1       0.550   6.830  12.182  1.00  0.00    -0.248 NA
ATOM     58  C   UNL     1      -0.698   6.652  14.151  1.00  0.00     0.031 C 
ATOM     59  C   UNL     1       1.865  10.676  10.403  1.00  0.00     0.029 A 
ATOM     60  C   UNL     1       1.450   9.492  10.989  1.00  0.00     0.049 A 
ATOM     61  H   UNL     1       1.833   7.504  10.391  1.00  0.00     0.167 HD
ATOM     62  C   UNL     1       0.270   8.104  12.665  1.00  0.00     0.074 A 
ATOM     63  C   UNL     1      -0.537   7.933  13.856  1.00  0.00     0.031 C 
ATOM     64  C   UNL     1       0.649   9.309  12.172  1.00  0.00     0.031 A 
BRANCH  51  65
ATOM     65  C   UNL     1       4.125   8.950   7.086  1.00  0.00    -0.014 A 
ATOM     66  C   UNL     1       3.676   9.048   5.758  1.00  0.00     0.010 A 
ATOM     67  C   UNL     1       5.292   9.643   7.465  1.00  0.00     0.010 A 
ATOM     68  C   UNL     1       4.388   9.812   4.826  1.00  0.00     0.020 A 
ATOM     69  C   UNL     1       5.991  10.428   6.545  1.00  0.00     0.020 A 
ATOM     70  C   UNL     1       5.538  10.500   5.227  1.00  0.00     0.054 A 
BRANCH  70  71
ATOM     71  S   UNL     1       6.406  11.532   4.012  1.00  0.00     0.124 S 
ATOM     72  O   UNL     1       7.016  10.527   3.145  1.00  0.00    -0.237 OA
ATOM     73  O   UNL     1       5.319  12.302   3.413  1.00  0.00    -0.237 OA
ATOM     74  O   UNL     1       7.343  12.307   4.821  1.00  0.00    -0.744 OA
ENDBRANCH  70  71
ENDBRANCH  51  65
BRANCH  52  75
ATOM     75  C   UNL     1      -0.704   3.729  14.091  1.00  0.00    -0.014 A 
ATOM     76  C   UNL     1      -2.096   3.774  14.281  1.00  0.00     0.010 A 
ATOM     77  C   UNL     1       0.081   2.968  14.979  1.00  0.00     0.010 A 
ATOM     78  C   UNL     1      -2.686   3.100  15.355  1.00  0.00     0.020 A 
ATOM     79  C   UNL     1      -0.509   2.263  16.030  1.00  0.00     0.020 A 
ATOM     80  C   UNL     1      -1.887   2.351  16.224  1.00  0.00     0.054 A 
BRANCH  80  81
ATOM     81  S   UNL     1      -2.674   1.467  17.599  1.00  0.00     0.124 S 
ATOM     82  O   UNL     1      -2.970   2.554  18.527  1.00  0.00    -0.237 OA
ATOM     83  O   UNL     1      -3.831   0.848  16.957  1.00  0.00    -0.237 OA
ATOM     84  O   UNL     1      -1.640   0.532  18.038  1.00  0.00    -0.744 OA
ENDBRANCH  80  81
ENDBRANCH  52  75
BRANCH  64  85
ATOM     85  C   UNL     1       0.153  10.535  12.893  1.00  0.00    -0.014 A 
ATOM     86  C   UNL     1       0.630  10.879  14.170  1.00  0.00     0.010 A 
ATOM     87  C   UNL     1      -0.807  11.358  12.276  1.00  0.00     0.010 A 
ATOM     88  C   UNL     1       0.111  11.989  14.842  1.00  0.00     0.020 A 
ATOM     89  C   UNL     1      -1.303  12.488  12.930  1.00  0.00     0.020 A 
ATOM     90  C   UNL     1      -0.859  12.782  14.220  1.00  0.00     0.054 A 
BRANCH  90  91
ATOM     91  S   UNL     1      -1.522  14.214  15.113  1.00  0.00     0.124 S 
ATOM     92  O   UNL     1      -2.403  13.580  16.090  1.00  0.00    -0.237 OA
ATOM     93  O   UNL     1      -0.320  14.838  15.660  1.00  0.00    -0.237 OA
ATOM     94  O   UNL     1      -2.199  14.986  14.073  1.00  0.00    -0.744 OA
ENDBRANCH  90  91
ENDBRANCH  64  85
ENDBRANCH  38  39
ENDBRANCH  31  33
ENDBRANCH  30  31
ENDBRANCH  29  30
ENDBRANCH  28  29
ENDBRANCH  27  28
ENDBRANCH  26  27
ENDBRANCH   1  26
TORSDOF 24
