REMARK SMILES Cc1nccn1CCC[NH+]1CCC2(CC1)[C@@H](C(=O)OCCOCCOCCOC(=O)c1ccc(-c3c4nc(c(-c5ccc(S(=O)(=O)[O-])cc5)c5ccc([nH]5)c(-c5ccc(S(=O)(=O)[O-])cc5)c5nc(c(-c6ccc(S(=O)(=O)[O-])cc6)c6ccc3[nH]6)C=C5)C=C4)cc1)CC(=O)N2C
REMARK SMILES IDX 23 1 22 2 21 3 20 4 19 5 17 6 18 7 16 8 10 9 11 10 15 11
REMARK SMILES IDX 12 13 14 14 13 15 94 16 91 17 92 18 95 19 93 20 9 21 8 22
REMARK SMILES IDX 7 23 6 24 1 25 2 26 3 27 4 28 5 29 24 30 25 31 26 32 27 33
REMARK SMILES IDX 28 34 29 35 30 36 31 37 32 38 90 39 33 40 89 41 34 42 35 43
REMARK SMILES IDX 36 44 83 45 37 46 88 47 82 48 84 49 38 50 87 51 81 52 80 53
REMARK SMILES IDX 39 55 69 56 50 57 68 58 51 59 54 60 67 61 85 62 52 63 53 64
REMARK SMILES IDX 66 66 86 67 55 68 40 69 41 70 49 71 42 72 48 73 43 74 44 75
REMARK SMILES IDX 45 76 46 77 47 78 70 79 71 80 79 81 72 82 78 83 73 84 74 85
REMARK SMILES IDX 75 86 76 87 77 88 56 89 57 90 65 91 58 92 64 93 59 94 60 95
REMARK SMILES IDX 61 96 62 97 63 98
REMARK H PARENT 10 12 84 54 54 65
REMARK Flexibility Score: inf
ROOT
ATOM      1  C   UNL     1      -3.207   3.572  -0.633  1.00  0.00     0.188 C 
ENDROOT
BRANCH   1   2
ATOM      2  O   UNL     1      -2.096   4.356  -1.038  1.00  0.00    -0.376 OA
BRANCH   2   3
ATOM      3  C   UNL     1      -1.111   3.762  -1.872  1.00  0.00     0.202 C 
BRANCH   3   4
ATOM      4  C   UNL     1      -0.505   2.409  -1.452  1.00  0.00     0.261 C 
BRANCH   4   5
ATOM      5  O   UNL     1      -1.422   1.289  -1.315  1.00  0.00    -0.463 OA
BRANCH   5   6
ATOM      6  C   UNL     1      -1.610   0.764  -0.083  1.00  0.00     0.311 C 
ATOM      7  O   UNL     1      -1.021   1.193   0.907  1.00  0.00    -0.252 OA
BRANCH   6   8
ATOM      8  C   UNL     1      -2.596  -0.414   0.056  1.00  0.00     0.134 C 
ATOM      9  N   UNL     1      -2.887  -2.631  -3.584  1.00  0.00    -0.335 N 
ATOM     10  C   UNL     1      -3.163  -3.409  -2.397  1.00  0.00     0.264 C 
ATOM     11  C   UNL     1      -3.691  -1.438  -3.677  1.00  0.00     0.264 C 
ATOM     12  H   UNL     1      -3.244  -3.214  -4.341  1.00  0.00     0.348 HD
ATOM     13  C   UNL     1      -2.934  -2.639  -1.107  1.00  0.00     0.091 C 
ATOM     14  C   UNL     1      -3.532  -0.522  -2.467  1.00  0.00     0.091 C 
ATOM     15  C   UNL     1      -3.460  -1.169  -1.058  1.00  0.00     0.067 C 
ATOM     16  N   UNL     1      -4.812  -1.174  -0.441  1.00  0.00    -0.339 N 
ATOM     17  C   UNL     1      -3.568  -0.034   1.182  1.00  0.00     0.118 C 
ATOM     18  C   UNL     1      -4.884  -0.629   0.824  1.00  0.00     0.223 C 
ATOM     19  C   UNL     1      -6.012  -1.739  -1.030  1.00  0.00     0.147 C 
ATOM     20  O   UNL     1      -5.868  -0.603   1.546  1.00  0.00    -0.275 OA
BRANCH   9  21
ATOM     21  C   UNL     1      -1.570  -2.675  -4.193  1.00  0.00     0.264 C 
BRANCH  21  22
ATOM     22  C   UNL     1      -0.505  -1.589  -3.959  1.00  0.00     0.083 C 
BRANCH  22  23
ATOM     23  C   UNL     1      -0.033  -1.239  -2.548  1.00  0.00     0.129 C 
BRANCH  23  24
ATOM     24  N   UNL     1       0.669  -2.169  -1.691  1.00  0.00    -0.335 N 
ATOM     25  C   UNL     1       1.632  -0.443  -0.052  1.00  0.00     0.087 C 
ATOM     26  C   UNL     1       1.328  -1.824  -0.517  1.00  0.00     0.105 A 
ATOM     27  N   UNL     1       1.628  -2.902   0.179  1.00  0.00    -0.242 NA
ATOM     28  C   UNL     1       1.171  -3.960  -0.546  1.00  0.00     0.131 A 
ATOM     29  C   UNL     1       0.608  -3.533  -1.722  1.00  0.00     0.107 A 
ENDBRANCH  23  24
ENDBRANCH  22  23
ENDBRANCH  21  22
ENDBRANCH   9  21
ENDBRANCH   6   8
ENDBRANCH   5   6
ENDBRANCH   4   5
ENDBRANCH   3   4
ENDBRANCH   2   3
ENDBRANCH   1   2
BRANCH   1  30
ATOM     30  C   UNL     1      -3.846   2.609  -1.646  1.00  0.00     0.188 C 
BRANCH  30  31
ATOM     31  O   UNL     1      -3.264   2.621  -2.942  1.00  0.00    -0.376 OA
BRANCH  31  32
ATOM     32  C   UNL     1      -4.093   2.660  -4.097  1.00  0.00     0.202 C 
BRANCH  32  33
ATOM     33  C   UNL     1      -4.708   4.028  -4.377  1.00  0.00     0.261 C 
BRANCH  33  34
ATOM     34  O   UNL     1      -5.366   4.551  -3.240  1.00  0.00    -0.460 OA
BRANCH  34  35
ATOM     35  C   UNL     1      -6.373   3.808  -2.739  1.00  0.00     0.338 C 
ATOM     36  O   UNL     1      -6.868   2.804  -3.225  1.00  0.00    -0.246 OA
BRANCH  35  37
ATOM     37  C   UNL     1      -6.718   4.390  -1.435  1.00  0.00     0.060 A 
ATOM     38  C   UNL     1      -7.849   3.874  -0.811  1.00  0.00     0.016 A 
ATOM     39  C   UNL     1      -6.171   5.639  -1.111  1.00  0.00     0.016 A 
ATOM     40  C   UNL     1      -8.688   4.786  -0.231  1.00  0.00     0.010 A 
ATOM     41  C   UNL     1      -7.021   6.555  -0.582  1.00  0.00     0.010 A 
ATOM     42  C   UNL     1      -8.313   6.128  -0.304  1.00  0.00    -0.014 A 
BRANCH  42  43
ATOM     43  C   UNL     1      -9.349   7.121  -0.258  1.00  0.00     0.031 A 
ATOM     44  C   UNL     1      -9.514   7.709   1.073  1.00  0.00     0.074 A 
ATOM     45  C   UNL     1      -9.951   7.545  -1.383  1.00  0.00     0.049 A 
ATOM     46  N   UNL     1     -10.387   7.386   1.965  1.00  0.00    -0.248 NA
ATOM     47  C   UNL     1      -8.415   8.557   1.561  1.00  0.00     0.031 C 
ATOM     48  C   UNL     1      -9.577   7.301  -2.782  1.00  0.00     0.029 A 
ATOM     49  N   UNL     1     -10.986   8.406  -1.490  1.00  0.00    -0.354 N 
ATOM     50  C   UNL     1     -10.062   8.173   3.057  1.00  0.00     0.074 A 
ATOM     51  C   UNL     1      -8.699   8.590   2.861  1.00  0.00     0.031 C 
ATOM     52  C   UNL     1     -10.228   8.191  -3.570  1.00  0.00     0.029 A 
ATOM     53  C   UNL     1     -11.148   8.962  -2.748  1.00  0.00     0.049 A 
ATOM     54  H   UNL     1     -11.578   8.623  -0.734  1.00  0.00     0.167 HD
ATOM     55  C   UNL     1     -11.017   8.717   3.858  1.00  0.00     0.031 A 
ATOM     56  C   UNL     1     -11.906  10.052  -3.027  1.00  0.00     0.031 A 
ATOM     57  C   UNL     1     -12.312   8.134   3.612  1.00  0.00     0.049 A 
ATOM     58  C   UNL     1     -12.825  10.252  -1.869  1.00  0.00     0.074 A 
ATOM     59  C   UNL     1     -12.831   6.858   3.708  1.00  0.00     0.029 A 
ATOM     60  N   UNL     1     -13.163   8.835   2.786  1.00  0.00    -0.354 N 
ATOM     61  N   UNL     1     -13.761   9.406  -1.532  1.00  0.00    -0.248 NA
ATOM     62  C   UNL     1     -12.394  11.146  -0.803  1.00  0.00     0.031 C 
ATOM     63  C   UNL     1     -13.719   6.731   2.600  1.00  0.00     0.029 A 
ATOM     64  C   UNL     1     -13.743   7.948   1.913  1.00  0.00     0.049 A 
ATOM     65  H   UNL     1     -13.326   9.806   2.817  1.00  0.00     0.167 HD
ATOM     66  C   UNL     1     -13.751   9.380  -0.141  1.00  0.00     0.074 A 
ATOM     67  C   UNL     1     -12.954  10.540   0.250  1.00  0.00     0.031 C 
ATOM     68  C   UNL     1     -14.145   8.269   0.553  1.00  0.00     0.031 A 
BRANCH  55  69
ATOM     69  C   UNL     1     -10.834  10.042   4.550  1.00  0.00    -0.014 A 
ATOM     70  C   UNL     1     -11.805  10.468   5.471  1.00  0.00     0.010 A 
ATOM     71  C   UNL     1      -9.857  10.990   4.168  1.00  0.00     0.010 A 
ATOM     72  C   UNL     1     -11.816  11.785   5.950  1.00  0.00     0.020 A 
ATOM     73  C   UNL     1      -9.825  12.284   4.679  1.00  0.00     0.020 A 
ATOM     74  C   UNL     1     -10.829  12.685   5.542  1.00  0.00     0.054 A 
BRANCH  74  75
ATOM     75  S   UNL     1     -10.904  14.406   6.084  1.00  0.00     0.124 S 
ATOM     76  O   UNL     1     -12.108  14.878   5.407  1.00  0.00    -0.237 OA
ATOM     77  O   UNL     1     -10.999  14.270   7.534  1.00  0.00    -0.237 OA
ATOM     78  O   UNL     1      -9.648  14.973   5.597  1.00  0.00    -0.744 OA
ENDBRANCH  74  75
ENDBRANCH  55  69
BRANCH  56  79
ATOM     79  C   UNL     1     -11.589  11.129  -4.000  1.00  0.00    -0.014 A 
ATOM     80  C   UNL     1     -12.562  12.065  -4.392  1.00  0.00     0.010 A 
ATOM     81  C   UNL     1     -10.246  11.400  -4.341  1.00  0.00     0.010 A 
ATOM     82  C   UNL     1     -12.199  13.252  -5.055  1.00  0.00     0.020 A 
ATOM     83  C   UNL     1      -9.878  12.575  -5.006  1.00  0.00     0.020 A 
ATOM     84  C   UNL     1     -10.855  13.507  -5.342  1.00  0.00     0.054 A 
BRANCH  84  85
ATOM     85  S   UNL     1     -10.376  15.111  -6.050  1.00  0.00     0.124 S 
ATOM     86  O   UNL     1     -10.914  15.026  -7.404  1.00  0.00    -0.237 OA
ATOM     87  O   UNL     1     -11.043  16.061  -5.163  1.00  0.00    -0.237 OA
ATOM     88  O   UNL     1      -8.917  15.105  -5.961  1.00  0.00    -0.744 OA
ENDBRANCH  84  85
ENDBRANCH  56  79
BRANCH  68  89
ATOM     89  C   UNL     1     -14.863   7.170  -0.205  1.00  0.00    -0.014 A 
ATOM     90  C   UNL     1     -14.272   6.419  -1.241  1.00  0.00     0.010 A 
ATOM     91  C   UNL     1     -16.128   6.777   0.265  1.00  0.00     0.010 A 
ATOM     92  C   UNL     1     -14.940   5.316  -1.800  1.00  0.00     0.020 A 
ATOM     93  C   UNL     1     -16.791   5.671  -0.276  1.00  0.00     0.020 A 
ATOM     94  C   UNL     1     -16.197   4.949  -1.311  1.00  0.00     0.054 A 
BRANCH  94  95
ATOM     95  S   UNL     1     -17.033   3.489  -1.996  1.00  0.00     0.124 S 
ATOM     96  O   UNL     1     -17.389   3.929  -3.342  1.00  0.00    -0.237 OA
ATOM     97  O   UNL     1     -15.999   2.458  -1.924  1.00  0.00    -0.237 OA
ATOM     98  O   UNL     1     -18.165   3.281  -1.094  1.00  0.00    -0.744 OA
ENDBRANCH  94  95
ENDBRANCH  68  89
ENDBRANCH  42  43
ENDBRANCH  35  37
ENDBRANCH  34  35
ENDBRANCH  33  34
ENDBRANCH  32  33
ENDBRANCH  31  32
ENDBRANCH  30  31
ENDBRANCH   1  30
TORSDOF 24
