REMARK SMILES COc1ccc(C2=NN(C(=O)CCC(=O)OCCOCCOCCOC(=O)c3ccc(-c4c5nc(c(-c6ccc(S(=O)(=O)[O-])cc6)c6ccc([nH]6)c(-c6ccc(S(=O)(=O)[O-])cc6)c6nc(c(-c7ccc(S(=O)(=O)[O-])cc7)c7ccc4[nH]7)C=C6)C=C5)cc3)[C@H](c3ccc(Cl)cc3Cl)C2)cc1
REMARK SMILES IDX 20 1 19 2 18 3 17 4 16 5 14 6 15 7 13 8 12 9 10 10 11 11
REMARK SMILES IDX 9 12 7 13 8 14 97 15 88 16 6 17 3 18 4 19 99 20 5 21 98 22
REMARK SMILES IDX 2 23 1 24 89 25 90 26 95 27 91 28 94 29 96 30 92 31 93 32
REMARK SMILES IDX 21 33 22 34 23 35 24 36 25 37 26 38 27 39 28 40 29 41 87 42
REMARK SMILES IDX 30 43 86 44 31 45 32 46 33 47 80 48 34 49 85 50 79 51 81 52
REMARK SMILES IDX 35 53 84 54 78 55 77 56 36 58 66 59 47 60 65 61 48 62 51 63
REMARK SMILES IDX 64 64 82 65 49 66 50 67 63 69 83 70 52 71 37 72 38 73 46 74
REMARK SMILES IDX 39 75 45 76 40 77 41 78 42 79 43 80 44 81 67 82 68 83 76 84
REMARK SMILES IDX 69 85 75 86 70 87 71 88 72 89 73 90 74 91 53 92 54 93 62 94
REMARK SMILES IDX 55 95 61 96 56 97 57 98 58 99 59 100 60 101
REMARK H PARENT 81 57 51 68
REMARK Flexibility Score: inf
ROOT
ATOM      1  C   UNL     1       3.426   1.282  10.721  1.00  0.00     0.188 C 
ENDROOT
BRANCH   1   2
ATOM      2  O   UNL     1       4.539   2.152  10.294  1.00  0.00    -0.376 OA
BRANCH   2   3
ATOM      3  C   UNL     1       5.562   2.027   9.252  1.00  0.00     0.202 C 
BRANCH   3   4
ATOM      4  C   UNL     1       5.748   0.815   8.331  1.00  0.00     0.261 C 
BRANCH   4   5
ATOM      5  O   UNL     1       4.836  -0.190   8.686  1.00  0.00    -0.463 OA
BRANCH   5   6
ATOM      6  C   UNL     1       5.323  -1.251   9.355  1.00  0.00     0.306 C 
ATOM      7  O   UNL     1       6.490  -1.571   9.430  1.00  0.00    -0.252 OA
BRANCH   6   8
ATOM      8  C   UNL     1       4.226  -1.865  10.168  1.00  0.00     0.132 C 
BRANCH   8   9
ATOM      9  C   UNL     1       2.784  -1.547   9.777  1.00  0.00     0.114 C 
BRANCH   9  10
ATOM     10  C   UNL     1       2.368  -0.786   8.479  1.00  0.00     0.243 C 
ATOM     11  O   UNL     1       1.963  -1.625   7.631  1.00  0.00    -0.273 OA
BRANCH  10  12
ATOM     12  N   UNL     1       2.297   0.619   8.160  1.00  0.00    -0.225 N 
ATOM     13  C   UNL     1       1.874   1.720   6.271  1.00  0.00     0.071 C 
ATOM     14  N   UNL     1       1.784   0.604   6.870  1.00  0.00    -0.174 NA
ATOM     15  C   UNL     1       2.461   2.858   7.027  1.00  0.00     0.091 C 
ATOM     16  C   UNL     1       2.530   2.385   8.605  1.00  0.00     0.149 C 
BRANCH  13  17
ATOM     17  C   UNL     1       1.516   1.743   4.837  1.00  0.00    -0.002 A 
ATOM     18  C   UNL     1       0.791   1.239   2.170  1.00  0.00     0.118 A 
ATOM     19  C   UNL     1      -0.167   1.647   3.105  1.00  0.00     0.047 A 
ATOM     20  C   UNL     1       2.115   1.071   2.578  1.00  0.00     0.047 A 
ATOM     21  C   UNL     1       0.184   1.875   4.444  1.00  0.00     0.014 A 
ATOM     22  C   UNL     1       2.475   1.315   3.912  1.00  0.00     0.014 A 
BRANCH  18  23
ATOM     23  O   UNL     1       0.327   1.066   0.894  1.00  0.00    -0.497 OA
ATOM     24  C   UNL     1       1.002   0.096   0.099  1.00  0.00     0.278 C 
ENDBRANCH  18  23
ENDBRANCH  13  17
BRANCH  16  25
ATOM     25  C   UNL     1       1.930   3.297  10.257  1.00  0.00    -0.004 A 
ATOM     26  C   UNL     1       2.671   4.300  10.731  1.00  0.00     0.009 A 
ATOM     27  C   UNL     1       0.564   3.255  11.197  1.00  0.00     0.047 A 
ATOM     28  C   UNL     1       2.069   5.310  11.615  1.00  0.00     0.021 A 
ATOM     29  C   UNL     1       0.190   4.142  12.227  1.00  0.00     0.041 A 
ATOM     30  Cl  UNL     1      -0.940   2.162  11.124  1.00  0.00    -0.084 Cl
ATOM     31  C   UNL     1       0.896   5.271  12.328  1.00  0.00     0.042 A 
ATOM     32  Cl  UNL     1       0.292   6.644  13.158  1.00  0.00    -0.084 Cl
ENDBRANCH  16  25
ENDBRANCH  10  12
ENDBRANCH   9  10
ENDBRANCH   8   9
ENDBRANCH   6   8
ENDBRANCH   5   6
ENDBRANCH   4   5
ENDBRANCH   3   4
ENDBRANCH   2   3
ENDBRANCH   1   2
BRANCH   1  33
ATOM     33  C   UNL     1       1.591   1.179  10.316  1.00  0.00     0.188 C 
BRANCH  33  34
ATOM     34  O   UNL     1       0.588   2.129   9.092  1.00  0.00    -0.376 OA
BRANCH  34  35
ATOM     35  C   UNL     1       0.490   3.886   8.659  1.00  0.00     0.202 C 
BRANCH  35  36
ATOM     36  C   UNL     1       1.778   5.253   8.347  1.00  0.00     0.261 C 
BRANCH  36  37
ATOM     37  O   UNL     1       2.496   6.298   9.359  1.00  0.00    -0.460 OA
BRANCH  37  38
ATOM     38  C   UNL     1       3.937   6.498   9.507  1.00  0.00     0.338 C 
ATOM     39  O   UNL     1       4.709   6.192   8.601  1.00  0.00    -0.246 OA
BRANCH  38  40
ATOM     40  C   UNL     1       4.542   6.656  11.045  1.00  0.00     0.060 A 
ATOM     41  C   UNL     1       5.017   5.489  11.700  1.00  0.00     0.016 A 
ATOM     42  C   UNL     1       4.336   7.731  11.932  1.00  0.00     0.016 A 
ATOM     43  C   UNL     1       4.939   5.307  13.120  1.00  0.00     0.010 A 
ATOM     44  C   UNL     1       4.494   7.589  13.383  1.00  0.00     0.010 A 
ATOM     45  C   UNL     1       4.766   6.360  14.027  1.00  0.00    -0.014 A 
BRANCH  45  46
ATOM     46  C   UNL     1       5.016   6.172  15.546  1.00  0.00     0.031 A 
ATOM     47  C   UNL     1       4.153   6.794  16.659  1.00  0.00     0.074 A 
ATOM     48  C   UNL     1       6.081   5.452  16.001  1.00  0.00     0.049 A 
ATOM     49  N   UNL     1       4.445   7.004  17.930  1.00  0.00    -0.248 NA
ATOM     50  C   UNL     1       2.781   7.186  16.314  1.00  0.00     0.031 C 
ATOM     51  C   UNL     1       6.985   4.636  15.187  1.00  0.00     0.029 A 
ATOM     52  N   UNL     1       6.615   5.312  17.277  1.00  0.00    -0.354 N 
ATOM     53  C   UNL     1       3.327   7.608  18.517  1.00  0.00     0.074 A 
ATOM     54  C   UNL     1       2.334   7.696  17.461  1.00  0.00     0.031 C 
ATOM     55  C   UNL     1       7.943   4.103  15.955  1.00  0.00     0.029 A 
ATOM     56  C   UNL     1       7.819   4.631  17.303  1.00  0.00     0.049 A 
ATOM     57  H   UNL     1       6.178   5.664  18.086  1.00  0.00     0.167 HD
ATOM     58  C   UNL     1       3.142   8.065  19.791  1.00  0.00     0.031 A 
ATOM     59  C   UNL     1       8.788   4.494  18.235  1.00  0.00     0.031 A 
ATOM     60  C   UNL     1       4.107   7.968  20.870  1.00  0.00     0.049 A 
ATOM     61  C   UNL     1       8.654   5.150  19.579  1.00  0.00     0.074 A 
ATOM     62  C   UNL     1       4.004   8.450  22.170  1.00  0.00     0.029 A 
ATOM     63  N   UNL     1       5.342   7.344  20.793  1.00  0.00    -0.354 N 
ATOM     64  N   UNL     1       7.650   5.835  20.063  1.00  0.00    -0.248 NA
ATOM     65  C   UNL     1       9.795   5.021  20.501  1.00  0.00     0.031 C 
ATOM     66  C   UNL     1       5.197   8.178  22.851  1.00  0.00     0.029 A 
ATOM     67  C   UNL     1       6.017   7.458  22.003  1.00  0.00     0.049 A 
ATOM     68  H   UNL     1       5.691   6.885  19.994  1.00  0.00     0.167 HD
ATOM     69  C   UNL     1       8.026   6.192  21.355  1.00  0.00     0.074 A 
ATOM     70  C   UNL     1       9.341   5.637  21.583  1.00  0.00     0.031 C 
ATOM     71  C   UNL     1       7.328   6.916  22.263  1.00  0.00     0.031 A 
BRANCH  58  72
ATOM     72  C   UNL     1       1.860   8.818  20.105  1.00  0.00    -0.014 A 
ATOM     73  C   UNL     1       0.620   8.171  20.249  1.00  0.00     0.010 A 
ATOM     74  C   UNL     1       1.923  10.208  20.347  1.00  0.00     0.010 A 
ATOM     75  C   UNL     1      -0.535   8.904  20.564  1.00  0.00     0.020 A 
ATOM     76  C   UNL     1       0.779  10.939  20.691  1.00  0.00     0.020 A 
ATOM     77  C   UNL     1      -0.450  10.285  20.770  1.00  0.00     0.054 A 
BRANCH  77  78
ATOM     78  S   UNL     1      -1.964  11.215  21.150  1.00  0.00     0.124 S 
ATOM     79  O   UNL     1      -2.659  11.193  19.865  1.00  0.00    -0.237 OA
ATOM     80  O   UNL     1      -2.577  10.417  22.208  1.00  0.00    -0.237 OA
ATOM     81  O   UNL     1      -1.474  12.527  21.567  1.00  0.00    -0.744 OA
ENDBRANCH  77  78
ENDBRANCH  58  72
BRANCH  59  82
ATOM     82  C   UNL     1      10.051   3.766  17.892  1.00  0.00    -0.014 A 
ATOM     83  C   UNL     1      10.380   2.554  18.523  1.00  0.00     0.010 A 
ATOM     84  C   UNL     1      10.938   4.295  16.933  1.00  0.00     0.010 A 
ATOM     85  C   UNL     1      11.570   1.889  18.206  1.00  0.00     0.020 A 
ATOM     86  C   UNL     1      12.109   3.614  16.585  1.00  0.00     0.020 A 
ATOM     87  C   UNL     1      12.422   2.419  17.233  1.00  0.00     0.054 A 
BRANCH  87  88
ATOM     88  S   UNL     1      13.925   1.503  16.790  1.00  0.00     0.124 S 
ATOM     89  O   UNL     1      14.771   1.722  17.959  1.00  0.00    -0.237 OA
ATOM     90  O   UNL     1      13.423   0.142  16.615  1.00  0.00    -0.237 OA
ATOM     91  O   UNL     1      14.373   2.156  15.561  1.00  0.00    -0.744 OA
ENDBRANCH  87  88
ENDBRANCH  59  82
BRANCH  71  92
ATOM     92  C   UNL     1       7.944   7.110  23.628  1.00  0.00    -0.014 A 
ATOM     93  C   UNL     1       9.066   7.937  23.823  1.00  0.00     0.010 A 
ATOM     94  C   UNL     1       7.378   6.465  24.744  1.00  0.00     0.010 A 
ATOM     95  C   UNL     1       9.630   8.085  25.096  1.00  0.00     0.020 A 
ATOM     96  C   UNL     1       7.921   6.632  26.023  1.00  0.00     0.020 A 
ATOM     97  C   UNL     1       9.054   7.430  26.189  1.00  0.00     0.054 A 
BRANCH  97  98
ATOM     98  S   UNL     1       9.783   7.663  27.835  1.00  0.00     0.124 S 
ATOM     99  O   UNL     1      11.016   6.886  27.736  1.00  0.00    -0.237 OA
ATOM    100  O   UNL     1       9.958   9.112  27.906  1.00  0.00    -0.237 OA
ATOM    101  O   UNL     1       8.775   7.119  28.742  1.00  0.00    -0.744 OA
ENDBRANCH  97  98
ENDBRANCH  71  92
ENDBRANCH  45  46
ENDBRANCH  38  40
ENDBRANCH  37  38
ENDBRANCH  36  37
ENDBRANCH  35  36
ENDBRANCH  34  35
ENDBRANCH  33  34
ENDBRANCH   1  33
TORSDOF 26
