REMARK SMILES CCCc1nc2cc(C(=O)OCCOCCOCCOC(=O)c3ccc(-c4c5nc(c(-c6ccc(S(=O)(=O)[O-])cc6)c6ccc([nH]6)c(-c6ccc(S(=O)(=O)[O-])cc6)c6nc(c(-c7ccc(S(=O)(=O)[O-])cc7)c7ccc4[nH]7)C=C6)C=C5)cc3)ccc2n1[C@H](CO)C(C)C
REMARK SMILES IDX 15 1 14 2 13 3 12 4 11 5 9 6 10 7 8 8 4 9 5 10 86 11 6 12
REMARK SMILES IDX 85 13 7 14 84 15 83 16 3 17 2 18 1 19 87 20 90 21 91 22
REMARK SMILES IDX 92 23 88 24 89 25 16 27 17 28 18 29 19 30 20 31 21 32 22 33
REMARK SMILES IDX 23 34 24 35 82 36 25 37 81 38 26 39 27 40 28 41 75 42 29 43
REMARK SMILES IDX 80 44 74 45 76 46 30 47 79 48 73 49 72 50 31 52 61 53 42 54
REMARK SMILES IDX 60 55 43 56 46 57 59 58 77 59 44 60 45 61 58 63 78 64 47 65
REMARK SMILES IDX 32 66 33 67 41 68 34 69 40 70 35 71 36 72 37 73 38 74 39 75
REMARK SMILES IDX 62 76 63 77 71 78 64 79 70 80 65 81 66 82 67 83 68 84 69 85
REMARK SMILES IDX 48 86 49 87 57 88 50 89 56 90 51 91 52 92 53 93 54 94 55 95
REMARK H PARENT 89 26 76 51 46 62
REMARK Flexibility Score: inf
ROOT
ATOM      1  C   UNL     1       5.117  -5.341   3.671  1.00  0.00     0.188 C 
ENDROOT
BRANCH   1   2
ATOM      2  O   UNL     1       5.080  -6.606   4.281  1.00  0.00    -0.376 OA
BRANCH   2   3
ATOM      3  C   UNL     1       3.974  -6.954   5.086  1.00  0.00     0.202 C 
BRANCH   3   4
ATOM      4  C   UNL     1       2.847  -5.963   5.423  1.00  0.00     0.261 C 
BRANCH   4   5
ATOM      5  O   UNL     1       2.501  -5.036   4.374  1.00  0.00    -0.460 OA
BRANCH   5   6
ATOM      6  C   UNL     1       2.384  -3.747   4.780  1.00  0.00     0.338 C 
ATOM      7  O   UNL     1       2.383  -3.357   5.945  1.00  0.00    -0.246 OA
BRANCH   6   8
ATOM      8  C   UNL     1       2.385  -2.782   3.657  1.00  0.00     0.062 A 
ATOM      9  C   UNL     1       3.927   1.160   2.067  1.00  0.00     0.110 A 
ATOM     10  N   UNL     1       4.518   0.074   2.516  1.00  0.00    -0.233 NA
ATOM     11  N   UNL     1       2.632   0.834   1.697  1.00  0.00    -0.322 N 
ATOM     12  C   UNL     1       3.537  -0.876   2.685  1.00  0.00     0.090 A 
ATOM     13  C   UNL     1       2.333  -0.430   2.182  1.00  0.00     0.069 A 
ATOM     14  C   UNL     1       3.575  -2.112   3.351  1.00  0.00     0.046 A 
ATOM     15  C   UNL     1       1.161  -1.204   2.286  1.00  0.00     0.029 A 
ATOM     16  C   UNL     1       1.196  -2.362   3.083  1.00  0.00     0.018 A 
BRANCH   9  17
ATOM     17  C   UNL     1       4.503   2.554   2.175  1.00  0.00     0.075 C 
BRANCH  17  18
ATOM     18  C   UNL     1       5.481   2.994   1.084  1.00  0.00     0.005 C 
ATOM     19  C   UNL     1       4.854   3.199  -0.281  1.00  0.00     0.004 C 
ENDBRANCH  17  18
ENDBRANCH   9  17
BRANCH  11  20
ATOM     20  C   UNL     1       1.691   1.711   1.014  1.00  0.00     0.117 C 
BRANCH  20  21
ATOM     21  C   UNL     1       1.234   1.104  -0.343  1.00  0.00     0.008 C 
ATOM     22  C   UNL     1       0.282   2.045  -1.080  1.00  0.00     0.009 C 
ATOM     23  C   UNL     1       2.399   0.753  -1.279  1.00  0.00     0.009 C 
ENDBRANCH  20  21
BRANCH  20  24
ATOM     24  C   UNL     1       0.525   2.048   1.958  1.00  0.00     0.181 C 
BRANCH  24  25
ATOM     25  O   UNL     1      -0.045   3.305   1.627  1.00  0.00    -0.394 OA
ATOM     26  H   UNL     1       0.627   3.998   1.714  1.00  0.00     0.210 HD
ENDBRANCH  24  25
ENDBRANCH  20  24
ENDBRANCH  11  20
ENDBRANCH   6   8
ENDBRANCH   5   6
ENDBRANCH   4   5
ENDBRANCH   3   4
ENDBRANCH   2   3
ENDBRANCH   1   2
BRANCH   1  27
ATOM     27  C   UNL     1       4.490  -5.210   2.263  1.00  0.00     0.188 C 
BRANCH  27  28
ATOM     28  O   UNL     1       4.044  -6.376   1.588  1.00  0.00    -0.376 OA
BRANCH  28  29
ATOM     29  C   UNL     1       4.962  -7.455   1.479  1.00  0.00     0.202 C 
BRANCH  29  30
ATOM     30  C   UNL     1       6.349  -7.147   0.887  1.00  0.00     0.261 C 
BRANCH  30  31
ATOM     31  O   UNL     1       7.117  -6.237   1.706  1.00  0.00    -0.460 OA
BRANCH  31  32
ATOM     32  C   UNL     1       7.780  -5.240   1.067  1.00  0.00     0.338 C 
ATOM     33  O   UNL     1       8.042  -5.205  -0.137  1.00  0.00    -0.246 OA
BRANCH  32  34
ATOM     34  C   UNL     1       7.806  -4.043   1.954  1.00  0.00     0.060 A 
ATOM     35  C   UNL     1       8.241  -4.058   3.288  1.00  0.00     0.016 A 
ATOM     36  C   UNL     1       7.138  -2.919   1.479  1.00  0.00     0.016 A 
ATOM     37  C   UNL     1       7.866  -3.016   4.177  1.00  0.00     0.010 A 
ATOM     38  C   UNL     1       6.792  -1.896   2.364  1.00  0.00     0.010 A 
ATOM     39  C   UNL     1       7.062  -1.950   3.747  1.00  0.00    -0.014 A 
BRANCH  39  40
ATOM     40  C   UNL     1       6.838  -0.717   4.575  1.00  0.00     0.031 A 
ATOM     41  C   UNL     1       8.030   0.133   4.463  1.00  0.00     0.074 A 
ATOM     42  C   UNL     1       5.827  -0.194   5.336  1.00  0.00     0.049 A 
ATOM     43  N   UNL     1       8.944   0.175   5.374  1.00  0.00    -0.248 NA
ATOM     44  C   UNL     1       8.381   0.792   3.202  1.00  0.00     0.031 C 
ATOM     45  C   UNL     1       4.553  -0.785   5.731  1.00  0.00     0.029 A 
ATOM     46  N   UNL     1       5.677   1.087   5.856  1.00  0.00    -0.354 N 
ATOM     47  C   UNL     1       9.853   1.095   4.909  1.00  0.00     0.074 A 
ATOM     48  C   UNL     1       9.613   1.213   3.492  1.00  0.00     0.031 C 
ATOM     49  C   UNL     1       3.650   0.171   6.064  1.00  0.00     0.029 A 
ATOM     50  C   UNL     1       4.352   1.440   6.162  1.00  0.00     0.049 A 
ATOM     51  H   UNL     1       6.436   1.697   5.998  1.00  0.00     0.167 HD
ATOM     52  C   UNL     1      10.475   1.925   5.784  1.00  0.00     0.031 A 
ATOM     53  C   UNL     1       3.862   2.558   6.767  1.00  0.00     0.031 A 
ATOM     54  C   UNL     1      10.254   1.521   7.155  1.00  0.00     0.049 A 
ATOM     55  C   UNL     1       4.889   3.002   7.717  1.00  0.00     0.074 A 
ATOM     56  C   UNL     1      10.619   0.451   7.944  1.00  0.00     0.029 A 
ATOM     57  N   UNL     1       9.184   2.127   7.766  1.00  0.00    -0.354 N 
ATOM     58  N   UNL     1       5.183   2.342   8.798  1.00  0.00    -0.248 NA
ATOM     59  C   UNL     1       5.809   4.067   7.348  1.00  0.00     0.031 C 
ATOM     60  C   UNL     1       9.627   0.339   8.960  1.00  0.00     0.029 A 
ATOM     61  C   UNL     1       8.697   1.362   8.798  1.00  0.00     0.049 A 
ATOM     62  H   UNL     1       8.812   2.999   7.498  1.00  0.00     0.167 HD
ATOM     63  C   UNL     1       6.536   2.554   8.932  1.00  0.00     0.074 A 
ATOM     64  C   UNL     1       6.814   3.764   8.171  1.00  0.00     0.031 C 
ATOM     65  C   UNL     1       7.354   1.538   9.321  1.00  0.00     0.031 A 
BRANCH  52  66
ATOM     66  C   UNL     1      10.896   3.323   5.424  1.00  0.00    -0.014 A 
ATOM     67  C   UNL     1      10.441   4.004   4.277  1.00  0.00     0.010 A 
ATOM     68  C   UNL     1      11.614   4.076   6.371  1.00  0.00     0.010 A 
ATOM     69  C   UNL     1      10.740   5.341   4.040  1.00  0.00     0.020 A 
ATOM     70  C   UNL     1      11.880   5.436   6.168  1.00  0.00     0.020 A 
ATOM     71  C   UNL     1      11.459   6.051   4.990  1.00  0.00     0.054 A 
BRANCH  71  72
ATOM     72  S   UNL     1      11.779   7.797   4.666  1.00  0.00     0.124 S 
ATOM     73  O   UNL     1      12.727   7.723   3.557  1.00  0.00    -0.237 OA
ATOM     74  O   UNL     1      10.451   8.300   4.325  1.00  0.00    -0.237 OA
ATOM     75  O   UNL     1      12.328   8.285   5.928  1.00  0.00    -0.744 OA
ENDBRANCH  71  72
ENDBRANCH  52  66
BRANCH  53  76
ATOM     76  C   UNL     1       2.670   3.416   6.507  1.00  0.00    -0.014 A 
ATOM     77  C   UNL     1       2.123   3.480   5.218  1.00  0.00     0.010 A 
ATOM     78  C   UNL     1       2.303   4.438   7.417  1.00  0.00     0.010 A 
ATOM     79  C   UNL     1       1.346   4.580   4.817  1.00  0.00     0.020 A 
ATOM     80  C   UNL     1       1.533   5.547   7.018  1.00  0.00     0.020 A 
ATOM     81  C   UNL     1       1.099   5.632   5.700  1.00  0.00     0.054 A 
BRANCH  81  82
ATOM     82  S   UNL     1       0.342   7.148   5.037  1.00  0.00     0.124 S 
ATOM     83  O   UNL     1       1.331   7.564   4.045  1.00  0.00    -0.237 OA
ATOM     84  O   UNL     1      -0.917   6.655   4.485  1.00  0.00    -0.237 OA
ATOM     85  O   UNL     1       0.217   8.019   6.201  1.00  0.00    -0.744 OA
ENDBRANCH  81  82
ENDBRANCH  53  76
BRANCH  65  86
ATOM     86  C   UNL     1       6.773   0.442  10.185  1.00  0.00    -0.014 A 
ATOM     87  C   UNL     1       7.398   0.218  11.424  1.00  0.00     0.010 A 
ATOM     88  C   UNL     1       5.725  -0.417   9.801  1.00  0.00     0.010 A 
ATOM     89  C   UNL     1       7.030  -0.856  12.235  1.00  0.00     0.020 A 
ATOM     90  C   UNL     1       5.329  -1.484  10.625  1.00  0.00     0.020 A 
ATOM     91  C   UNL     1       6.006  -1.711  11.825  1.00  0.00     0.054 A 
BRANCH  91  92
ATOM     92  S   UNL     1       5.605  -3.126  12.887  1.00  0.00     0.124 S 
ATOM     93  O   UNL     1       6.759  -4.000  12.685  1.00  0.00    -0.237 OA
ATOM     94  O   UNL     1       5.511  -2.519  14.214  1.00  0.00    -0.237 OA
ATOM     95  O   UNL     1       4.344  -3.630  12.350  1.00  0.00    -0.744 OA
ENDBRANCH  91  92
ENDBRANCH  65  86
ENDBRANCH  39  40
ENDBRANCH  32  34
ENDBRANCH  31  32
ENDBRANCH  30  31
ENDBRANCH  29  30
ENDBRANCH  28  29
ENDBRANCH  27  28
ENDBRANCH   1  27
TORSDOF 26
