REMARK SMILES C[C@@H](C(=O)OCCOCCOCCOC(=O)c1ccc(-c2c3nc(c(-c4ccc(S(=O)(=O)[O-])cc4)c4ccc([nH]4)c(-c4ccc(S(=O)(=O)[O-])cc4)c4nc(c(-c5ccc(S(=O)(=O)[O-])cc5)c5ccc2[nH]5)C=C4)C=C3)cc1)c1ccc(-c2cccc(OC(=O)Nc3ccccc3)c2)c(F)c1
REMARK SMILES IDX 9 1 8 2 7 3 6 4 5 5 3 6 4 7 2 8 1 9 77 10 78 11 99 12 79 13
REMARK SMILES IDX 97 14 80 15 98 16 81 17 82 18 96 19 83 20 85 21 84 22 86 23
REMARK SMILES IDX 87 24 88 25 89 26 90 28 91 29 95 30 92 31 94 32 93 33 10 34
REMARK SMILES IDX 11 35 12 36 13 37 14 38 15 39 16 40 17 41 18 42 76 43 19 44
REMARK SMILES IDX 75 45 20 46 21 47 22 48 69 49 23 50 74 51 68 52 70 53 24 54
REMARK SMILES IDX 73 55 67 56 66 57 25 59 55 60 36 61 54 62 37 63 40 64 53 65
REMARK SMILES IDX 71 66 38 67 39 68 52 70 72 71 41 72 26 73 27 74 35 75 28 76
REMARK SMILES IDX 34 77 29 78 30 79 31 80 32 81 33 82 56 83 57 84 65 85 58 86
REMARK SMILES IDX 64 87 59 88 60 89 61 90 62 91 63 92 42 93 43 94 51 95 44 96
REMARK SMILES IDX 50 97 45 98 46 99 47 100 48 101 49 102
REMARK H PARENT 89 27 70 58 40 69
REMARK Flexibility Score: inf
ROOT
ATOM      1  C   UNL     1       0.548   2.441   2.991  1.00  0.00     0.188 C 
ENDROOT
BRANCH   1   2
ATOM      2  O   UNL     1       1.306   2.678   4.171  1.00  0.00    -0.376 OA
BRANCH   2   3
ATOM      3  C   UNL     1       2.526   1.965   4.346  1.00  0.00     0.202 C 
BRANCH   3   4
ATOM      4  C   UNL     1       2.539   0.439   4.144  1.00  0.00     0.261 C 
BRANCH   4   5
ATOM      5  O   UNL     1       2.093  -0.021   2.847  1.00  0.00    -0.463 OA
BRANCH   5   6
ATOM      6  C   UNL     1       1.180  -1.032   2.848  1.00  0.00     0.313 C 
ATOM      7  O   UNL     1       0.773  -1.574   3.871  1.00  0.00    -0.252 OA
BRANCH   6   8
ATOM      8  C   UNL     1       0.702  -1.472   1.451  1.00  0.00     0.126 C 
ATOM      9  C   UNL     1       1.400  -0.898   0.215  1.00  0.00     0.025 C 
BRANCH   8  10
ATOM     10  C   UNL     1      -0.817  -1.388   1.325  1.00  0.00    -0.031 A 
ATOM     11  C   UNL     1      -1.500  -0.164   1.274  1.00  0.00     0.005 A 
ATOM     12  C   UNL     1      -1.580  -2.559   1.309  1.00  0.00     0.044 A 
ATOM     13  C   UNL     1      -2.899  -0.113   1.276  1.00  0.00     0.012 A 
ATOM     14  C   UNL     1      -2.975  -2.501   1.286  1.00  0.00     0.131 A 
ATOM     15  C   UNL     1      -3.669  -1.283   1.296  1.00  0.00     0.018 A 
ATOM     16  F   UNL     1      -3.646  -3.663   1.269  1.00  0.00    -0.206 F 
BRANCH  15  17
ATOM     17  C   UNL     1      -5.136  -1.219   1.406  1.00  0.00    -0.012 A 
ATOM     18  C   UNL     1      -5.916  -0.407   0.565  1.00  0.00     0.009 A 
ATOM     19  C   UNL     1      -5.790  -1.948   2.414  1.00  0.00     0.056 A 
ATOM     20  C   UNL     1      -7.304  -0.332   0.725  1.00  0.00     0.004 A 
ATOM     21  C   UNL     1      -7.168  -1.853   2.588  1.00  0.00     0.133 A 
ATOM     22  C   UNL     1      -7.932  -1.059   1.735  1.00  0.00     0.047 A 
BRANCH  21  23
ATOM     23  O   UNL     1      -7.880  -2.555   3.591  1.00  0.00    -0.410 OA
BRANCH  23  24
ATOM     24  C   UNL     1      -7.326  -3.012   4.792  1.00  0.00     0.417 C 
ATOM     25  O   UNL     1      -6.139  -2.905   5.093  1.00  0.00    -0.224 OA
ATOM     26  N   UNL     1      -8.219  -3.571   5.673  1.00  0.00    -0.291 N 
ATOM     27  H   UNL     1      -7.818  -3.862   6.524  1.00  0.00     0.173 HD
BRANCH  26  28
ATOM     28  C   UNL     1      -9.605  -3.802   5.579  1.00  0.00     0.044 A 
ATOM     29  C   UNL     1     -10.274  -4.040   6.789  1.00  0.00     0.026 A 
ATOM     30  C   UNL     1     -10.361  -3.683   4.411  1.00  0.00     0.026 A 
ATOM     31  C   UNL     1     -11.668  -4.015   6.853  1.00  0.00     0.002 A 
ATOM     32  C   UNL     1     -11.759  -3.673   4.473  1.00  0.00     0.002 A 
ATOM     33  C   UNL     1     -12.412  -3.810   5.696  1.00  0.00     0.000 A 
ENDBRANCH  26  28
ENDBRANCH  23  24
ENDBRANCH  21  23
ENDBRANCH  15  17
ENDBRANCH   8  10
ENDBRANCH   6   8
ENDBRANCH   5   6
ENDBRANCH   4   5
ENDBRANCH   3   4
ENDBRANCH   2   3
ENDBRANCH   1   2
BRANCH   1  34
ATOM     34  C   UNL     1       1.291   2.446   1.643  1.00  0.00     0.188 C 
BRANCH  34  35
ATOM     35  O   UNL     1       2.644   2.826   1.737  1.00  0.00    -0.376 OA
BRANCH  35  36
ATOM     36  C   UNL     1       3.031   4.087   1.230  1.00  0.00     0.202 C 
BRANCH  36  37
ATOM     37  C   UNL     1       2.229   5.348   1.591  1.00  0.00     0.261 C 
BRANCH  37  38
ATOM     38  O   UNL     1       0.796   5.251   1.561  1.00  0.00    -0.460 OA
BRANCH  38  39
ATOM     39  C   UNL     1       0.196   5.221   0.349  1.00  0.00     0.338 C 
ATOM     40  O   UNL     1       0.749   5.240  -0.738  1.00  0.00    -0.246 OA
BRANCH  39  41
ATOM     41  C   UNL     1      -1.243   4.932   0.566  1.00  0.00     0.060 A 
ATOM     42  C   UNL     1      -1.823   3.835  -0.084  1.00  0.00     0.016 A 
ATOM     43  C   UNL     1      -2.014   5.727   1.421  1.00  0.00     0.016 A 
ATOM     44  C   UNL     1      -3.179   3.545   0.103  1.00  0.00     0.010 A 
ATOM     45  C   UNL     1      -3.374   5.443   1.594  1.00  0.00     0.010 A 
ATOM     46  C   UNL     1      -3.970   4.362   0.923  1.00  0.00    -0.014 A 
BRANCH  46  47
ATOM     47  C   UNL     1      -5.446   4.193   0.949  1.00  0.00     0.031 A 
ATOM     48  C   UNL     1      -6.275   4.957  -0.043  1.00  0.00     0.074 A 
ATOM     49  C   UNL     1      -6.054   3.405   1.855  1.00  0.00     0.049 A 
ATOM     50  N   UNL     1      -7.574   4.985  -0.191  1.00  0.00    -0.248 NA
ATOM     51  C   UNL     1      -5.538   5.806  -0.992  1.00  0.00     0.031 C 
ATOM     52  C   UNL     1      -5.369   2.603   2.863  1.00  0.00     0.029 A 
ATOM     53  N   UNL     1      -7.390   3.167   2.081  1.00  0.00    -0.354 N 
ATOM     54  C   UNL     1      -7.813   5.861  -1.242  1.00  0.00     0.074 A 
ATOM     55  C   UNL     1      -6.525   6.353  -1.684  1.00  0.00     0.031 C 
ATOM     56  C   UNL     1      -6.289   1.977   3.615  1.00  0.00     0.029 A 
ATOM     57  C   UNL     1      -7.630   2.377   3.183  1.00  0.00     0.049 A 
ATOM     58  H   UNL     1      -8.106   3.526   1.509  1.00  0.00     0.167 HD
ATOM     59  C   UNL     1      -8.995   6.232  -1.787  1.00  0.00     0.031 A 
ATOM     60  C   UNL     1      -8.791   2.040   3.791  1.00  0.00     0.031 A 
ATOM     61  C   UNL     1     -10.281   5.785  -1.326  1.00  0.00     0.049 A 
ATOM     62  C   UNL     1     -10.104   2.460   3.155  1.00  0.00     0.074 A 
ATOM     63  C   UNL     1     -11.532   6.120  -1.815  1.00  0.00     0.029 A 
ATOM     64  N   UNL     1     -10.485   4.925  -0.260  1.00  0.00    -0.354 N 
ATOM     65  N   UNL     1     -10.305   3.172   2.068  1.00  0.00    -0.248 NA
ATOM     66  C   UNL     1     -11.350   2.003   3.792  1.00  0.00     0.031 C 
ATOM     67  C   UNL     1     -12.495   5.508  -1.006  1.00  0.00     0.029 A 
ATOM     68  C   UNL     1     -11.842   4.738  -0.058  1.00  0.00     0.049 A 
ATOM     69  H   UNL     1      -9.772   4.508   0.276  1.00  0.00     0.167 HD
ATOM     70  C   UNL     1     -11.687   3.223   1.890  1.00  0.00     0.074 A 
ATOM     71  C   UNL     1     -12.273   2.419   2.937  1.00  0.00     0.031 C 
ATOM     72  C   UNL     1     -12.414   3.901   0.966  1.00  0.00     0.031 A 
BRANCH  59  73
ATOM     73  C   UNL     1      -8.946   7.219  -2.920  1.00  0.00    -0.014 A 
ATOM     74  C   UNL     1      -8.464   6.847  -4.188  1.00  0.00     0.010 A 
ATOM     75  C   UNL     1      -9.409   8.532  -2.718  1.00  0.00     0.010 A 
ATOM     76  C   UNL     1      -8.406   7.783  -5.222  1.00  0.00     0.020 A 
ATOM     77  C   UNL     1      -9.381   9.462  -3.758  1.00  0.00     0.020 A 
ATOM     78  C   UNL     1      -8.863   9.086  -4.999  1.00  0.00     0.054 A 
BRANCH  78  79
ATOM     79  S   UNL     1      -8.789  10.276  -6.365  1.00  0.00     0.124 S 
ATOM     80  O   UNL     1      -7.352  10.522  -6.470  1.00  0.00    -0.237 OA
ATOM     81  O   UNL     1      -9.380   9.528  -7.471  1.00  0.00    -0.237 OA
ATOM     82  O   UNL     1      -9.580  11.406  -5.885  1.00  0.00    -0.744 OA
ENDBRANCH  78  79
ENDBRANCH  59  73
BRANCH  60  83
ATOM     83  C   UNL     1      -8.758   1.269   5.075  1.00  0.00    -0.014 A 
ATOM     84  C   UNL     1      -9.473   0.076   5.225  1.00  0.00     0.010 A 
ATOM     85  C   UNL     1      -8.011   1.729   6.182  1.00  0.00     0.010 A 
ATOM     86  C   UNL     1      -9.474  -0.601   6.443  1.00  0.00     0.020 A 
ATOM     87  C   UNL     1      -7.900   0.972   7.357  1.00  0.00     0.020 A 
ATOM     88  C   UNL     1      -8.627  -0.206   7.473  1.00  0.00     0.054 A 
BRANCH  88  89
ATOM     89  S   UNL     1      -8.455  -1.294   8.911  1.00  0.00     0.124 S 
ATOM     90  O   UNL     1      -9.840  -1.518   9.316  1.00  0.00    -0.237 OA
ATOM     91  O   UNL     1      -7.782  -2.461   8.337  1.00  0.00    -0.237 OA
ATOM     92  O   UNL     1      -7.654  -0.508   9.845  1.00  0.00    -0.744 OA
ENDBRANCH  88  89
ENDBRANCH  60  83
BRANCH  72  93
ATOM     93  C   UNL     1     -13.920   3.783   1.018  1.00  0.00    -0.014 A 
ATOM     94  C   UNL     1     -14.661   4.342   2.076  1.00  0.00     0.010 A 
ATOM     95  C   UNL     1     -14.610   3.167  -0.043  1.00  0.00     0.010 A 
ATOM     96  C   UNL     1     -16.057   4.253   2.091  1.00  0.00     0.020 A 
ATOM     97  C   UNL     1     -16.008   3.106  -0.048  1.00  0.00     0.020 A 
ATOM     98  C   UNL     1     -16.722   3.637   1.028  1.00  0.00     0.054 A 
BRANCH  98  99
ATOM     99  S   UNL     1     -18.535   3.577   1.050  1.00  0.00     0.124 S 
ATOM    100  O   UNL     1     -18.795   2.586   2.090  1.00  0.00    -0.237 OA
ATOM    101  O   UNL     1     -18.897   4.952   1.387  1.00  0.00    -0.237 OA
ATOM    102  O   UNL     1     -18.886   3.162  -0.307  1.00  0.00    -0.744 OA
ENDBRANCH  98  99
ENDBRANCH  72  93
ENDBRANCH  46  47
ENDBRANCH  39  41
ENDBRANCH  38  39
ENDBRANCH  37  38
ENDBRANCH  36  37
ENDBRANCH  35  36
ENDBRANCH  34  35
ENDBRANCH   1  34
TORSDOF 25
