REMARK SMILES CCOc1ccc(OCC(=O)N2CCC[C@H](C(=O)OCCOCCOCCOC(=O)c3ccc(-c4c5nc(c(-c6ccc(S(=O)(=O)[O-])cc6)c6ccc([nH]6)c(-c6ccc(S(=O)(=O)[O-])cc6)c6nc(c(-c7ccc(S(=O)(=O)[O-])cc7)c7ccc4[nH]7)C=C6)C=C5)cc3)C2)cc1
REMARK SMILES IDX 22 1 21 2 20 3 19 4 17 5 18 6 16 7 12 8 13 9 91 10 14 11
REMARK SMILES IDX 15 12 10 13 11 14 9 15 8 16 7 17 4 18 5 19 93 20 6 21 92 22
REMARK SMILES IDX 3 23 2 24 1 25 23 26 24 27 25 28 26 29 27 30 28 31 29 32
REMARK SMILES IDX 30 33 31 34 32 35 90 36 33 37 89 38 34 39 35 40 36 41 83 42
REMARK SMILES IDX 37 43 88 44 82 45 84 46 38 47 87 48 81 49 80 50 39 52 69 53
REMARK SMILES IDX 50 54 68 55 51 56 54 57 67 58 85 59 52 60 53 61 66 63 86 64
REMARK SMILES IDX 55 65 40 66 41 67 49 68 42 69 48 70 43 71 44 72 45 73 46 74
REMARK SMILES IDX 47 75 70 76 71 77 79 78 72 79 78 80 73 81 74 82 75 83 76 84
REMARK SMILES IDX 77 85 56 86 57 87 65 88 58 89 64 90 59 91 60 92 61 93 62 94
REMARK SMILES IDX 63 95
REMARK H PARENT 84 51 54 62
REMARK Flexibility Score: inf
ROOT
ATOM      1  O   UNL     1       2.517   3.373   1.822  1.00  0.00    -0.376 OA
ENDROOT
BRANCH   1   2
ATOM      2  C   UNL     1       3.247   2.159   1.968  1.00  0.00     0.202 C 
BRANCH   2   3
ATOM      3  C   UNL     1       4.130   1.684   0.804  1.00  0.00     0.261 C 
BRANCH   3   4
ATOM      4  O   UNL     1       5.361   2.406   0.577  1.00  0.00    -0.463 OA
BRANCH   4   5
ATOM      5  C   UNL     1       5.450   3.129  -0.572  1.00  0.00     0.310 C 
ATOM      6  O   UNL     1       4.517   3.309  -1.345  1.00  0.00    -0.252 OA
BRANCH   5   7
ATOM      7  C   UNL     1       6.829   3.726  -0.853  1.00  0.00     0.119 C 
ATOM      8  N   UNL     1       8.076   1.622  -0.993  1.00  0.00    -0.339 N 
ATOM      9  C   UNL     1       8.925   1.940   0.157  1.00  0.00     0.119 C 
ATOM     10  C   UNL     1       7.606   2.775  -1.760  1.00  0.00     0.134 C 
ATOM     11  C   UNL     1       8.300   2.971   1.092  1.00  0.00     0.022 C 
ATOM     12  C   UNL     1       7.721   4.152   0.321  1.00  0.00     0.019 C 
BRANCH   8  13
ATOM     13  C   UNL     1       7.683   0.309  -1.217  1.00  0.00     0.260 C 
ATOM     14  O   UNL     1       7.786  -0.556  -0.340  1.00  0.00    -0.271 OA
BRANCH  13  15
ATOM     15  C   UNL     1       7.295  -0.115  -2.655  1.00  0.00     0.329 C 
BRANCH  15  16
ATOM     16  O   UNL     1       6.316   0.558  -3.412  1.00  0.00    -0.484 OA
BRANCH  16  17
ATOM     17  C   UNL     1       5.005   0.430  -3.059  1.00  0.00     0.120 A 
ATOM     18  C   UNL     1       2.275   0.441  -2.466  1.00  0.00     0.119 A 
ATOM     19  C   UNL     1       2.770   1.317  -3.424  1.00  0.00     0.050 A 
ATOM     20  C   UNL     1       3.124  -0.481  -1.854  1.00  0.00     0.050 A 
ATOM     21  C   UNL     1       4.135   1.304  -3.723  1.00  0.00     0.050 A 
ATOM     22  C   UNL     1       4.494  -0.472  -2.131  1.00  0.00     0.050 A 
BRANCH  18  23
ATOM     23  O   UNL     1       0.935   0.430  -2.204  1.00  0.00    -0.494 OA
BRANCH  23  24
ATOM     24  C   UNL     1       0.607   1.060  -0.957  1.00  0.00     0.226 C 
ATOM     25  C   UNL     1       0.516   0.026   0.155  1.00  0.00     0.049 C 
ENDBRANCH  23  24
ENDBRANCH  18  23
ENDBRANCH  16  17
ENDBRANCH  15  16
ENDBRANCH  13  15
ENDBRANCH   8  13
ENDBRANCH   5   7
ENDBRANCH   4   5
ENDBRANCH   3   4
ENDBRANCH   2   3
ENDBRANCH   1   2
BRANCH   1  26
ATOM     26  C   UNL     1       3.207   4.571   1.491  1.00  0.00     0.188 C 
BRANCH  26  27
ATOM     27  C   UNL     1       4.589   4.800   2.107  1.00  0.00     0.188 C 
BRANCH  27  28
ATOM     28  O   UNL     1       4.895   3.970   3.202  1.00  0.00    -0.376 OA
BRANCH  28  29
ATOM     29  C   UNL     1       4.899   4.524   4.503  1.00  0.00     0.202 C 
BRANCH  29  30
ATOM     30  C   UNL     1       3.749   5.440   4.948  1.00  0.00     0.261 C 
BRANCH  30  31
ATOM     31  O   UNL     1       3.376   6.502   4.055  1.00  0.00    -0.460 OA
BRANCH  31  32
ATOM     32  C   UNL     1       4.261   7.505   3.839  1.00  0.00     0.338 C 
ATOM     33  O   UNL     1       5.356   7.638   4.357  1.00  0.00    -0.246 OA
BRANCH  32  34
ATOM     34  C   UNL     1       3.767   8.250   2.653  1.00  0.00     0.060 A 
ATOM     35  C   UNL     1       4.576   8.333   1.509  1.00  0.00     0.016 A 
ATOM     36  C   UNL     1       2.471   8.769   2.635  1.00  0.00     0.016 A 
ATOM     37  C   UNL     1       4.082   8.920   0.339  1.00  0.00     0.010 A 
ATOM     38  C   UNL     1       1.992   9.384   1.476  1.00  0.00     0.010 A 
ATOM     39  C   UNL     1       2.795   9.469   0.325  1.00  0.00    -0.014 A 
BRANCH  39  40
ATOM     40  C   UNL     1       2.316  10.265  -0.831  1.00  0.00     0.031 A 
ATOM     41  C   UNL     1       2.439  11.760  -0.769  1.00  0.00     0.074 A 
ATOM     42  C   UNL     1       1.724   9.682  -1.889  1.00  0.00     0.049 A 
ATOM     43  N   UNL     1       1.960  12.667  -1.580  1.00  0.00    -0.248 NA
ATOM     44  C   UNL     1       3.200  12.303   0.368  1.00  0.00     0.031 C 
ATOM     45  C   UNL     1       1.578   8.242  -2.091  1.00  0.00     0.029 A 
ATOM     46  N   UNL     1       1.103  10.242  -2.979  1.00  0.00    -0.354 N 
ATOM     47  C   UNL     1       2.339  13.889  -1.040  1.00  0.00     0.074 A 
ATOM     48  C   UNL     1       3.079  13.607   0.172  1.00  0.00     0.031 C 
ATOM     49  C   UNL     1       0.875   8.032  -3.218  1.00  0.00     0.029 A 
ATOM     50  C   UNL     1       0.483   9.321  -3.789  1.00  0.00     0.049 A 
ATOM     51  H   UNL     1       1.101  11.210  -3.161  1.00  0.00     0.167 HD
ATOM     52  C   UNL     1       2.085  15.135  -1.505  1.00  0.00     0.031 A 
ATOM     53  C   UNL     1      -0.345   9.494  -4.840  1.00  0.00     0.031 A 
ATOM     54  C   UNL     1       1.322  15.413  -2.692  1.00  0.00     0.049 A 
ATOM     55  C   UNL     1      -0.692  10.889  -5.293  1.00  0.00     0.074 A 
ATOM     56  C   UNL     1       1.040  16.641  -3.265  1.00  0.00     0.029 A 
ATOM     57  N   UNL     1       0.694  14.454  -3.473  1.00  0.00    -0.354 N 
ATOM     58  N   UNL     1      -0.286  12.039  -4.806  1.00  0.00    -0.248 NA
ATOM     59  C   UNL     1      -1.613  11.012  -6.433  1.00  0.00     0.031 C 
ATOM     60  C   UNL     1       0.182  16.429  -4.348  1.00  0.00     0.029 A 
ATOM     61  C   UNL     1      -0.016  15.064  -4.492  1.00  0.00     0.049 A 
ATOM     62  H   UNL     1       0.746  13.482  -3.324  1.00  0.00     0.167 HD
ATOM     63  C   UNL     1      -0.895  13.019  -5.585  1.00  0.00     0.074 A 
ATOM     64  C   UNL     1      -1.680  12.329  -6.588  1.00  0.00     0.031 C 
ATOM     65  C   UNL     1      -0.811  14.369  -5.476  1.00  0.00     0.031 A 
BRANCH  52  66
ATOM     66  C   UNL     1       2.582  16.291  -0.679  1.00  0.00    -0.014 A 
ATOM     67  C   UNL     1       3.954  16.582  -0.570  1.00  0.00     0.010 A 
ATOM     68  C   UNL     1       1.655  17.099   0.004  1.00  0.00     0.010 A 
ATOM     69  C   UNL     1       4.391  17.624   0.252  1.00  0.00     0.020 A 
ATOM     70  C   UNL     1       2.086  18.161   0.803  1.00  0.00     0.020 A 
ATOM     71  C   UNL     1       3.454  18.401   0.941  1.00  0.00     0.054 A 
BRANCH  71  72
ATOM     72  S   UNL     1       4.050  19.736   2.013  1.00  0.00     0.124 S 
ATOM     73  O   UNL     1       4.608  18.990   3.139  1.00  0.00    -0.237 OA
ATOM     74  O   UNL     1       5.027  20.416   1.166  1.00  0.00    -0.237 OA
ATOM     75  O   UNL     1       2.845  20.506   2.312  1.00  0.00    -0.744 OA
ENDBRANCH  71  72
ENDBRANCH  52  66
BRANCH  53  76
ATOM     76  C   UNL     1      -0.952   8.303  -5.497  1.00  0.00    -0.014 A 
ATOM     77  C   UNL     1      -0.555   7.908  -6.785  1.00  0.00     0.010 A 
ATOM     78  C   UNL     1      -1.910   7.533  -4.810  1.00  0.00     0.010 A 
ATOM     79  C   UNL     1      -1.099   6.760  -7.371  1.00  0.00     0.020 A 
ATOM     80  C   UNL     1      -2.435   6.371  -5.381  1.00  0.00     0.020 A 
ATOM     81  C   UNL     1      -2.027   5.993  -6.661  1.00  0.00     0.054 A 
BRANCH  81  82
ATOM     82  S   UNL     1      -2.646   4.458  -7.406  1.00  0.00     0.124 S 
ATOM     83  O   UNL     1      -3.522   4.962  -8.459  1.00  0.00    -0.237 OA
ATOM     84  O   UNL     1      -1.416   3.813  -7.861  1.00  0.00    -0.237 OA
ATOM     85  O   UNL     1      -3.321   3.787  -6.297  1.00  0.00    -0.744 OA
ENDBRANCH  81  82
ENDBRANCH  53  76
BRANCH  65  86
ATOM     86  C   UNL     1      -1.585  15.205  -6.463  1.00  0.00    -0.014 A 
ATOM     87  C   UNL     1      -2.984  15.319  -6.377  1.00  0.00     0.010 A 
ATOM     88  C   UNL     1      -0.897  15.957  -7.434  1.00  0.00     0.010 A 
ATOM     89  C   UNL     1      -3.682  16.159  -7.251  1.00  0.00     0.020 A 
ATOM     90  C   UNL     1      -1.588  16.818  -8.291  1.00  0.00     0.020 A 
ATOM     91  C   UNL     1      -2.978  16.908  -8.199  1.00  0.00     0.054 A 
BRANCH  91  92
ATOM     92  S   UNL     1      -3.900  18.044  -9.273  1.00  0.00     0.124 S 
ATOM     93  O   UNL     1      -4.595  17.122 -10.167  1.00  0.00    -0.237 OA
ATOM     94  O   UNL     1      -4.749  18.762  -8.325  1.00  0.00    -0.237 OA
ATOM     95  O   UNL     1      -2.857  18.852  -9.902  1.00  0.00    -0.744 OA
ENDBRANCH  91  92
ENDBRANCH  65  86
ENDBRANCH  39  40
ENDBRANCH  32  34
ENDBRANCH  31  32
ENDBRANCH  30  31
ENDBRANCH  29  30
ENDBRANCH  28  29
ENDBRANCH  27  28
ENDBRANCH  26  27
ENDBRANCH   1  26
TORSDOF 26
