REMARK SMILES CC(=O)c1c[nH]c(C(=O)N[C@H]2C=C[C@H](C(=O)OCCOCCOCCOC(=O)c3ccc(-c4c5nc(c(-c6ccc(S(=O)(=O)[O-])cc6)c6ccc([nH]6)c(-c6ccc(S(=O)(=O)[O-])cc6)c6nc(c(-c7ccc(S(=O)(=O)[O-])cc7)c7ccc4[nH]7)C=C6)C=C5)cc3)C2)c1
REMARK SMILES IDX 21 1 20 2 19 3 18 4 17 5 15 6 16 7 14 8 11 9 12 10 89 11
REMARK SMILES IDX 13 12 10 13 8 14 9 15 7 17 4 18 5 19 90 20 6 21 2 23 1 24
REMARK SMILES IDX 3 25 22 26 23 27 24 28 25 29 26 30 27 31 28 32 29 33 30 34
REMARK SMILES IDX 88 35 31 36 87 37 32 38 33 39 34 40 81 41 35 42 86 43 80 44
REMARK SMILES IDX 82 45 36 46 85 47 79 48 78 49 37 51 67 52 48 53 66 54 49 55
REMARK SMILES IDX 52 56 65 57 83 58 50 59 51 60 64 62 84 63 53 64 38 65 39 66
REMARK SMILES IDX 47 67 40 68 46 69 41 70 42 71 43 72 44 73 45 74 68 75 69 76
REMARK SMILES IDX 77 77 70 78 76 79 71 80 72 81 73 82 74 83 75 84 54 85 55 86
REMARK SMILES IDX 63 87 56 88 62 89 57 90 58 91 59 92 60 93 61 94
REMARK H PARENT 10 16 6 22 82 50 52 61
REMARK Flexibility Score: inf
ROOT
ATOM      1  C   UNL     1      -3.300  -0.140  -0.457  1.00  0.00     0.188 C 
ENDROOT
BRANCH   1   2
ATOM      2  O   UNL     1      -4.639   0.029  -0.001  1.00  0.00    -0.376 OA
BRANCH   2   3
ATOM      3  C   UNL     1      -5.726  -0.429  -0.788  1.00  0.00     0.202 C 
BRANCH   3   4
ATOM      4  C   UNL     1      -5.896   0.132  -2.209  1.00  0.00     0.261 C 
BRANCH   4   5
ATOM      5  O   UNL     1      -4.659   0.274  -2.921  1.00  0.00    -0.463 OA
BRANCH   5   6
ATOM      6  C   UNL     1      -4.291   1.528  -3.296  1.00  0.00     0.312 C 
ATOM      7  O   UNL     1      -5.016   2.516  -3.260  1.00  0.00    -0.252 OA
BRANCH   6   8
ATOM      8  C   UNL     1      -2.819   1.536  -3.701  1.00  0.00     0.124 C 
ATOM      9  C   UNL     1      -1.953   2.993  -5.453  1.00  0.00     0.106 C 
ATOM     10  C   UNL     1      -2.050   1.587  -5.925  1.00  0.00    -0.006 C 
ATOM     11  C   UNL     1      -2.264   2.946  -3.959  1.00  0.00     0.048 C 
ATOM     12  C   UNL     1      -2.563   0.794  -4.979  1.00  0.00    -0.014 C 
BRANCH   9  13
ATOM     13  N   UNL     1      -0.715   3.620  -5.860  1.00  0.00    -0.345 N 
ATOM     14  C   UNL     1       0.583   3.606  -5.432  1.00  0.00     0.268 C 
ATOM     15  O   UNL     1       1.330   4.445  -5.943  1.00  0.00    -0.268 OA
ATOM     16  H   UNL     1      -0.838   4.206  -6.642  1.00  0.00     0.164 HD
BRANCH  14  17
ATOM     17  C   UNL     1       1.063   2.737  -4.385  1.00  0.00     0.105 A 
ATOM     18  C   UNL     1       1.477   1.146  -2.792  1.00  0.00     0.035 A 
ATOM     19  C   UNL     1       2.325   2.215  -2.580  1.00  0.00     0.094 A 
ATOM     20  C   UNL     1       0.757   1.449  -3.987  1.00  0.00     0.045 A 
ATOM     21  N   UNL     1       2.106   3.135  -3.571  1.00  0.00    -0.356 N 
ATOM     22  H   UNL     1       2.622   3.966  -3.687  1.00  0.00     0.166 HD
BRANCH  18  23
ATOM     23  C   UNL     1       1.327  -0.049  -1.963  1.00  0.00     0.161 C 
ATOM     24  C   UNL     1       2.056  -0.110  -0.645  1.00  0.00     0.093 C 
ATOM     25  O   UNL     1       0.553  -0.948  -2.292  1.00  0.00    -0.294 OA
ENDBRANCH  18  23
ENDBRANCH  14  17
ENDBRANCH   9  13
ENDBRANCH   6   8
ENDBRANCH   5   6
ENDBRANCH   4   5
ENDBRANCH   3   4
ENDBRANCH   2   3
ENDBRANCH   1   2
BRANCH   1  26
ATOM     26  C   UNL     1      -2.864  -1.334  -1.342  1.00  0.00     0.188 C 
BRANCH  26  27
ATOM     27  O   UNL     1      -3.909  -2.198  -1.766  1.00  0.00    -0.376 OA
BRANCH  27  28
ATOM     28  C   UNL     1      -3.807  -3.549  -1.329  1.00  0.00     0.202 C 
BRANCH  28  29
ATOM     29  C   UNL     1      -4.190  -3.761   0.143  1.00  0.00     0.261 C 
BRANCH  29  30
ATOM     30  O   UNL     1      -3.439  -2.986   1.078  1.00  0.00    -0.460 OA
BRANCH  30  31
ATOM     31  C   UNL     1      -2.132  -3.299   1.069  1.00  0.00     0.338 C 
ATOM     32  O   UNL     1      -1.535  -4.015   0.281  1.00  0.00    -0.246 OA
BRANCH  31  33
ATOM     33  C   UNL     1      -1.451  -2.728   2.213  1.00  0.00     0.060 A 
ATOM     34  C   UNL     1      -0.200  -2.158   1.962  1.00  0.00     0.016 A 
ATOM     35  C   UNL     1      -1.823  -3.254   3.450  1.00  0.00     0.016 A 
ATOM     36  C   UNL     1       0.777  -2.286   2.923  1.00  0.00     0.010 A 
ATOM     37  C   UNL     1      -0.836  -3.413   4.396  1.00  0.00     0.010 A 
ATOM     38  C   UNL     1       0.466  -2.977   4.100  1.00  0.00    -0.014 A 
BRANCH  38  39
ATOM     39  C   UNL     1       1.494  -3.105   5.133  1.00  0.00     0.031 A 
ATOM     40  C   UNL     1       1.464  -1.899   6.069  1.00  0.00     0.074 A 
ATOM     41  C   UNL     1       2.258  -4.239   5.099  1.00  0.00     0.049 A 
ATOM     42  N   UNL     1       2.306  -1.561   6.988  1.00  0.00    -0.248 NA
ATOM     43  C   UNL     1       0.365  -0.893   5.952  1.00  0.00     0.031 C 
ATOM     44  C   UNL     1       2.163  -5.299   4.064  1.00  0.00     0.029 A 
ATOM     45  N   UNL     1       3.255  -4.740   5.908  1.00  0.00    -0.354 N 
ATOM     46  C   UNL     1       1.758  -0.461   7.674  1.00  0.00     0.074 A 
ATOM     47  C   UNL     1       0.611  -0.033   6.939  1.00  0.00     0.031 C 
ATOM     48  C   UNL     1       3.097  -6.257   4.265  1.00  0.00     0.029 A 
ATOM     49  C   UNL     1       3.844  -5.955   5.471  1.00  0.00     0.049 A 
ATOM     50  H   UNL     1       3.540  -4.285   6.734  1.00  0.00     0.167 HD
ATOM     51  C   UNL     1       2.218  -0.050   8.886  1.00  0.00     0.031 A 
ATOM     52  C   UNL     1       4.867  -6.666   6.036  1.00  0.00     0.031 A 
ATOM     53  C   UNL     1       3.368  -0.802   9.254  1.00  0.00     0.049 A 
ATOM     54  C   UNL     1       5.079  -6.080   7.369  1.00  0.00     0.074 A 
ATOM     55  C   UNL     1       4.649  -0.800   8.767  1.00  0.00     0.029 A 
ATOM     56  N   UNL     1       3.147  -1.959   9.963  1.00  0.00    -0.354 N 
ATOM     57  N   UNL     1       4.266  -6.212   8.372  1.00  0.00    -0.248 NA
ATOM     58  C   UNL     1       6.269  -5.255   7.606  1.00  0.00     0.031 C 
ATOM     59  C   UNL     1       5.013  -2.159   8.803  1.00  0.00     0.029 A 
ATOM     60  C   UNL     1       4.034  -2.892   9.486  1.00  0.00     0.049 A 
ATOM     61  H   UNL     1       2.481  -2.093  10.675  1.00  0.00     0.167 HD
ATOM     62  C   UNL     1       4.637  -5.172   9.185  1.00  0.00     0.074 A 
ATOM     63  C   UNL     1       6.013  -4.865   8.853  1.00  0.00     0.031 C 
ATOM     64  C   UNL     1       3.689  -4.290   9.598  1.00  0.00     0.031 A 
BRANCH  51  65
ATOM     65  C   UNL     1       1.605   0.845   9.915  1.00  0.00    -0.014 A 
ATOM     66  C   UNL     1       2.466   1.323  10.931  1.00  0.00     0.010 A 
ATOM     67  C   UNL     1       0.221   0.948  10.121  1.00  0.00     0.010 A 
ATOM     68  C   UNL     1       1.974   1.745  12.163  1.00  0.00     0.020 A 
ATOM     69  C   UNL     1      -0.282   1.412  11.347  1.00  0.00     0.020 A 
ATOM     70  C   UNL     1       0.600   1.750  12.376  1.00  0.00     0.054 A 
BRANCH  70  71
ATOM     71  S   UNL     1      -0.000   2.117  14.045  1.00  0.00     0.124 S 
ATOM     72  O   UNL     1       0.383   0.914  14.778  1.00  0.00    -0.237 OA
ATOM     73  O   UNL     1       0.747   3.325  14.390  1.00  0.00    -0.237 OA
ATOM     74  O   UNL     1      -1.435   2.313  13.858  1.00  0.00    -0.744 OA
ENDBRANCH  70  71
ENDBRANCH  51  65
BRANCH  52  75
ATOM     75  C   UNL     1       5.817  -7.783   5.666  1.00  0.00    -0.014 A 
ATOM     76  C   UNL     1       5.896  -8.423   4.424  1.00  0.00     0.010 A 
ATOM     77  C   UNL     1       6.858  -8.096   6.589  1.00  0.00     0.010 A 
ATOM     78  C   UNL     1       7.032  -9.195   4.076  1.00  0.00     0.020 A 
ATOM     79  C   UNL     1       8.010  -8.802   6.239  1.00  0.00     0.020 A 
ATOM     80  C   UNL     1       8.107  -9.325   4.964  1.00  0.00     0.054 A 
BRANCH  80  81
ATOM     81  S   UNL     1       9.694 -10.024   4.422  1.00  0.00     0.124 S 
ATOM     82  O   UNL     1       9.502 -11.453   4.649  1.00  0.00    -0.237 OA
ATOM     83  O   UNL     1       9.769  -9.611   3.022  1.00  0.00    -0.237 OA
ATOM     84  O   UNL     1      10.667  -9.376   5.300  1.00  0.00    -0.744 OA
ENDBRANCH  80  81
ENDBRANCH  52  75
BRANCH  64  85
ATOM     85  C   UNL     1       2.279  -4.854   9.712  1.00  0.00    -0.014 A 
ATOM     86  C   UNL     1       2.037  -5.945  10.569  1.00  0.00     0.010 A 
ATOM     87  C   UNL     1       1.195  -4.394   8.937  1.00  0.00     0.010 A 
ATOM     88  C   UNL     1       0.775  -6.553  10.651  1.00  0.00     0.020 A 
ATOM     89  C   UNL     1      -0.077  -4.995   9.012  1.00  0.00     0.020 A 
ATOM     90  C   UNL     1      -0.279  -6.073   9.874  1.00  0.00     0.054 A 
BRANCH  90  91
ATOM     91  S   UNL     1      -1.901  -6.885  10.007  1.00  0.00     0.124 S 
ATOM     92  O   UNL     1      -1.602  -8.269   9.646  1.00  0.00    -0.237 OA
ATOM     93  O   UNL     1      -2.248  -6.668  11.409  1.00  0.00    -0.237 OA
ATOM     94  O   UNL     1      -2.734  -6.166   9.044  1.00  0.00    -0.744 OA
ENDBRANCH  90  91
ENDBRANCH  64  85
ENDBRANCH  38  39
ENDBRANCH  31  33
ENDBRANCH  30  31
ENDBRANCH  29  30
ENDBRANCH  28  29
ENDBRANCH  27  28
ENDBRANCH  26  27
ENDBRANCH   1  26
TORSDOF 23
