REMARK SMILES Cc1c(NC(=S)NC(=O)CSc2ccc(Cl)cc2)cccc1C(=O)OCCOCCOCCOC(=O)c1ccc(-c2c3nc(c(-c4ccc(S(=O)(=O)[O-])cc4)c4ccc([nH]4)c(-c4ccc(S(=O)(=O)[O-])cc4)c4nc(c(-c5ccc(S(=O)(=O)[O-])cc5)c5ccc2[nH]5)C=C4)C=C3)cc1
REMARK SMILES IDX 28 1 27 2 26 3 25 4 23 5 24 6 22 7 1 8 2 9 3 10 19 11 21 12
REMARK SMILES IDX 20 13 4 14 5 16 6 17 7 18 8 19 9 21 10 22 11 23 12 24 13 25
REMARK SMILES IDX 18 26 14 27 17 28 15 29 16 30 29 31 30 32 31 33 32 34 33 35
REMARK SMILES IDX 34 36 35 37 36 38 37 39 38 40 96 41 39 42 95 43 40 44 41 45
REMARK SMILES IDX 42 46 89 47 43 48 94 49 88 50 90 51 44 52 93 53 87 54 86 55
REMARK SMILES IDX 45 57 75 58 56 59 74 60 57 61 60 62 73 63 91 64 58 65 59 66
REMARK SMILES IDX 72 68 92 69 61 70 46 71 47 72 55 73 48 74 54 75 49 76 50 77
REMARK SMILES IDX 51 78 52 79 53 80 76 81 77 82 85 83 78 84 84 85 79 86 80 87
REMARK SMILES IDX 81 88 82 89 83 90 62 91 63 92 71 93 64 94 70 95 65 96 66 97
REMARK SMILES IDX 67 98 68 99 69 100
REMARK H PARENT 4 15 7 20 90 56 60 67
REMARK Flexibility Score: inf
ROOT
ATOM      1  O   UNL     1       3.786   5.014  -1.053  1.00  0.00    -0.376 OA
ENDROOT
BRANCH   1   2
ATOM      2  C   UNL     1       4.734   3.946  -1.310  1.00  0.00     0.202 C 
BRANCH   2   3
ATOM      3  C   UNL     1       4.549   2.352  -0.726  1.00  0.00     0.261 C 
BRANCH   3   4
ATOM      4  O   UNL     1       3.508   1.143  -1.291  1.00  0.00    -0.460 OA
BRANCH   4   5
ATOM      5  C   UNL     1       2.277   0.556  -0.848  1.00  0.00     0.338 C 
ATOM      6  O   UNL     1       1.682   0.705   0.220  1.00  0.00    -0.246 OA
BRANCH   5   7
ATOM      7  C   UNL     1       1.384  -0.353  -1.601  1.00  0.00     0.065 A 
ATOM      8  C   UNL     1       3.067  -2.137  -1.240  1.00  0.00     0.047 C 
ATOM      9  C   UNL     1       1.656  -1.714  -1.533  1.00  0.00    -0.013 A 
ATOM     10  C   UNL     1       0.549  -2.610  -1.495  1.00  0.00     0.044 A 
ATOM     11  C   UNL     1      -0.736  -2.204  -1.864  1.00  0.00     0.026 A 
ATOM     12  C   UNL     1       0.010   0.017  -1.649  1.00  0.00     0.016 A 
ATOM     13  C   UNL     1      -1.026  -0.863  -1.911  1.00  0.00     0.003 A 
BRANCH  10  14
ATOM     14  N   UNL     1       0.770  -3.891  -0.979  1.00  0.00    -0.332 N 
ATOM     15  H   UNL     1       1.725  -4.122  -0.925  1.00  0.00     0.169 HD
BRANCH  14  16
ATOM     16  C   UNL     1      -0.027  -4.873  -0.541  1.00  0.00     0.177 C 
ATOM     17  S   UNL     1       0.650  -6.410  -0.496  1.00  0.00    -0.040 S 
BRANCH  16  18
ATOM     18  N   UNL     1      -1.335  -4.772  -0.154  1.00  0.00    -0.302 N 
ATOM     19  C   UNL     1      -2.346  -3.929   0.294  1.00  0.00     0.236 C 
ATOM     20  H   UNL     1      -1.724  -5.674  -0.221  1.00  0.00     0.172 HD
ATOM     21  O   UNL     1      -3.500  -4.319   0.049  1.00  0.00    -0.274 OA
BRANCH  19  22
ATOM     22  C   UNL     1      -2.157  -2.616   1.029  1.00  0.00     0.175 C 
BRANCH  22  23
ATOM     23  S   UNL     1      -0.731  -2.541   2.139  1.00  0.00    -0.116 SA
BRANCH  23  24
ATOM     24  C   UNL     1      -1.571  -1.967   3.612  1.00  0.00     0.008 A 
ATOM     25  C   UNL     1      -1.782  -0.606   3.866  1.00  0.00     0.016 A 
ATOM     26  C   UNL     1      -2.066  -2.920   4.510  1.00  0.00     0.016 A 
ATOM     27  C   UNL     1      -2.511  -0.208   4.996  1.00  0.00     0.021 A 
ATOM     28  C   UNL     1      -2.793  -2.523   5.634  1.00  0.00     0.021 A 
ATOM     29  C   UNL     1      -3.024  -1.169   5.866  1.00  0.00     0.041 A 
ATOM     30  Cl  UNL     1      -3.979  -0.692   7.213  1.00  0.00    -0.084 Cl
ENDBRANCH  23  24
ENDBRANCH  22  23
ENDBRANCH  19  22
ENDBRANCH  16  18
ENDBRANCH  14  16
ENDBRANCH  10  14
ENDBRANCH   5   7
ENDBRANCH   4   5
ENDBRANCH   3   4
ENDBRANCH   2   3
ENDBRANCH   1   2
BRANCH   1  31
ATOM     31  C   UNL     1       2.938   5.671  -2.027  1.00  0.00     0.188 C 
BRANCH  31  32
ATOM     32  C   UNL     1       3.123   5.624  -3.554  1.00  0.00     0.188 C 
BRANCH  32  33
ATOM     33  O   UNL     1       3.657   4.389  -3.993  1.00  0.00    -0.376 OA
BRANCH  33  34
ATOM     34  C   UNL     1       3.676   4.174  -5.398  1.00  0.00     0.202 C 
BRANCH  34  35
ATOM     35  C   UNL     1       2.297   3.991  -6.083  1.00  0.00     0.261 C 
BRANCH  35  36
ATOM     36  O   UNL     1       1.663   2.705  -5.840  1.00  0.00    -0.460 OA
BRANCH  36  37
ATOM     37  C   UNL     1       0.417   2.665  -5.231  1.00  0.00     0.338 C 
ATOM     38  O   UNL     1      -0.579   2.296  -5.837  1.00  0.00    -0.246 OA
BRANCH  37  39
ATOM     39  C   UNL     1       0.505   2.789  -3.740  1.00  0.00     0.060 A 
ATOM     40  C   UNL     1      -0.449   3.099  -2.760  1.00  0.00     0.016 A 
ATOM     41  C   UNL     1       1.731   2.564  -3.240  1.00  0.00     0.016 A 
ATOM     42  C   UNL     1      -0.107   3.259  -1.321  1.00  0.00     0.010 A 
ATOM     43  C   UNL     1       1.993   2.926  -1.922  1.00  0.00     0.010 A 
ATOM     44  C   UNL     1       1.188   3.131  -0.815  1.00  0.00    -0.014 A 
BRANCH  44  45
ATOM     45  C   UNL     1       1.812   3.353   0.655  1.00  0.00     0.031 A 
ATOM     46  C   UNL     1       2.590   2.377   1.799  1.00  0.00     0.074 A 
ATOM     47  C   UNL     1       1.688   4.635   1.063  1.00  0.00     0.049 A 
ATOM     48  N   UNL     1       2.542   2.581   3.108  1.00  0.00    -0.248 NA
ATOM     49  C   UNL     1       3.417   1.114   1.635  1.00  0.00     0.031 C 
ATOM     50  C   UNL     1       2.296   5.297   2.208  1.00  0.00     0.029 A 
ATOM     51  N   UNL     1       0.786   5.578   0.564  1.00  0.00    -0.354 N 
ATOM     52  C   UNL     1       3.376   1.632   3.733  1.00  0.00     0.074 A 
ATOM     53  C   UNL     1       3.517   0.572   2.832  1.00  0.00     0.031 C 
ATOM     54  C   UNL     1       1.558   6.381   2.506  1.00  0.00     0.029 A 
ATOM     55  C   UNL     1       0.382   6.354   1.649  1.00  0.00     0.049 A 
ATOM     56  H   UNL     1       0.493   5.675  -0.371  1.00  0.00     0.167 HD
ATOM     57  C   UNL     1       4.129   1.840   4.852  1.00  0.00     0.031 A 
ATOM     58  C   UNL     1      -0.920   6.313   2.049  1.00  0.00     0.031 A 
ATOM     59  C   UNL     1       3.594   2.974   5.551  1.00  0.00     0.049 A 
ATOM     60  C   UNL     1      -1.053   5.808   3.469  1.00  0.00     0.074 A 
ATOM     61  C   UNL     1       3.938   4.308   5.619  1.00  0.00     0.029 A 
ATOM     62  N   UNL     1       2.272   2.872   5.952  1.00  0.00    -0.354 N 
ATOM     63  N   UNL     1      -0.088   5.223   4.132  1.00  0.00    -0.248 NA
ATOM     64  C   UNL     1      -2.261   5.949   4.273  1.00  0.00     0.031 C 
ATOM     65  C   UNL     1       2.727   5.029   5.859  1.00  0.00     0.029 A 
ATOM     66  C   UNL     1       1.690   4.120   6.016  1.00  0.00     0.049 A 
ATOM     67  H   UNL     1       1.813   2.027   6.162  1.00  0.00     0.167 HD
ATOM     68  C   UNL     1      -0.517   4.883   5.383  1.00  0.00     0.074 A 
ATOM     69  C   UNL     1      -1.879   5.385   5.433  1.00  0.00     0.031 C 
ATOM     70  C   UNL     1       0.257   4.200   6.277  1.00  0.00     0.031 A 
BRANCH  57  71
ATOM     71  C   UNL     1       5.426   1.067   5.199  1.00  0.00    -0.014 A 
ATOM     72  C   UNL     1       6.149   1.355   6.374  1.00  0.00     0.010 A 
ATOM     73  C   UNL     1       6.054   0.111   4.355  1.00  0.00     0.010 A 
ATOM     74  C   UNL     1       7.388   0.728   6.679  1.00  0.00     0.020 A 
ATOM     75  C   UNL     1       7.252  -0.557   4.663  1.00  0.00     0.020 A 
ATOM     76  C   UNL     1       7.930  -0.231   5.821  1.00  0.00     0.054 A 
BRANCH  76  77
ATOM     77  S   UNL     1       9.532  -1.014   6.178  1.00  0.00     0.124 S 
ATOM     78  O   UNL     1      10.461   0.106   6.051  1.00  0.00    -0.237 OA
ATOM     79  O   UNL     1       9.346  -1.532   7.530  1.00  0.00    -0.237 OA
ATOM     80  O   UNL     1       9.661  -2.037   5.140  1.00  0.00    -0.744 OA
ENDBRANCH  76  77
ENDBRANCH  57  71
BRANCH  58  81
ATOM     81  C   UNL     1      -1.898   6.212   0.906  1.00  0.00    -0.014 A 
ATOM     82  C   UNL     1      -1.835   7.246  -0.064  1.00  0.00     0.010 A 
ATOM     83  C   UNL     1      -2.580   5.035   0.549  1.00  0.00     0.010 A 
ATOM     84  C   UNL     1      -2.272   7.055  -1.380  1.00  0.00     0.020 A 
ATOM     85  C   UNL     1      -3.058   4.851  -0.775  1.00  0.00     0.020 A 
ATOM     86  C   UNL     1      -2.839   5.839  -1.744  1.00  0.00     0.054 A 
BRANCH  86  87
ATOM     87  S   UNL     1      -3.093   5.534  -3.526  1.00  0.00     0.124 S 
ATOM     88  O   UNL     1      -4.030   6.588  -3.899  1.00  0.00    -0.237 OA
ATOM     89  O   UNL     1      -1.738   5.687  -4.059  1.00  0.00    -0.237 OA
ATOM     90  O   UNL     1      -3.630   4.176  -3.565  1.00  0.00    -0.744 OA
ENDBRANCH  86  87
ENDBRANCH  58  81
BRANCH  70  91
ATOM     91  C   UNL     1      -0.287   3.505   7.503  1.00  0.00    -0.014 A 
ATOM     92  C   UNL     1      -1.618   3.075   7.619  1.00  0.00     0.010 A 
ATOM     93  C   UNL     1       0.606   3.115   8.529  1.00  0.00     0.010 A 
ATOM     94  C   UNL     1      -2.063   2.383   8.751  1.00  0.00     0.020 A 
ATOM     95  C   UNL     1       0.189   2.364   9.629  1.00  0.00     0.020 A 
ATOM     96  C   UNL     1      -1.158   2.043   9.755  1.00  0.00     0.054 A 
BRANCH  96  97
ATOM     97  S   UNL     1      -1.722   1.169  11.233  1.00  0.00     0.124 S 
ATOM     98  O   UNL     1      -1.927   2.274  12.167  1.00  0.00    -0.237 OA
ATOM     99  O   UNL     1      -2.940   0.497  10.787  1.00  0.00    -0.237 OA
ATOM    100  O   UNL     1      -0.606   0.281  11.544  1.00  0.00    -0.744 OA
ENDBRANCH  96  97
ENDBRANCH  70  91
ENDBRANCH  44  45
ENDBRANCH  37  39
ENDBRANCH  36  37
ENDBRANCH  35  36
ENDBRANCH  34  35
ENDBRANCH  33  34
ENDBRANCH  32  33
ENDBRANCH  31  32
ENDBRANCH   1  31
TORSDOF 26
