REMARK SMILES COc1cc2ccccc2cc1C(=O)Nc1cc(C(=O)OCCOCCOCCOC(=O)c2ccc(-c3c4nc(c(-c5ccc(S(=O)(=O)[O-])cc5)c5ccc([nH]5)c(-c5ccc(S(=O)(=O)[O-])cc5)c5nc(c(-c6ccc(S(=O)(=O)[O-])cc6)c6ccc3[nH]6)C=C5)C=C4)cc2)ccc1C
REMARK SMILES IDX 25 1 24 2 23 3 22 4 21 5 19 6 20 7 18 8 16 9 17 10 95 11
REMARK SMILES IDX 94 12 96 13 93 14 15 15 13 16 14 17 12 19 3 20 4 21 5 22
REMARK SMILES IDX 11 23 6 24 10 25 7 26 9 27 8 28 2 29 1 30 26 31 27 32 28 33
REMARK SMILES IDX 29 34 30 35 31 36 32 37 33 38 34 39 92 40 35 41 91 42 36 43
REMARK SMILES IDX 37 44 38 45 85 46 39 47 90 48 84 49 86 50 40 51 89 52 83 53
REMARK SMILES IDX 82 54 41 56 71 57 52 58 70 59 53 60 56 61 69 62 87 63 54 64
REMARK SMILES IDX 55 65 68 67 88 68 57 69 42 70 43 71 51 72 44 73 50 74 45 75
REMARK SMILES IDX 46 76 47 77 48 78 49 79 72 80 73 81 81 82 74 83 80 84 75 85
REMARK SMILES IDX 76 86 77 87 78 88 79 89 58 90 59 91 67 92 60 93 66 94 61 95
REMARK SMILES IDX 62 96 63 97 64 98 65 99
REMARK H PARENT 15 18 86 55 56 66
REMARK Flexibility Score: inf
ROOT
ATOM      1  C   UNL     1      -2.297   1.426  -7.339  1.00  0.00     0.188 C 
ENDROOT
BRANCH   1   2
ATOM      2  O   UNL     1      -1.784   2.545  -6.578  1.00  0.00    -0.376 OA
BRANCH   2   3
ATOM      3  C   UNL     1      -0.433   3.040  -6.470  1.00  0.00     0.202 C 
BRANCH   3   4
ATOM      4  C   UNL     1       0.660   3.009  -5.088  1.00  0.00     0.261 C 
BRANCH   4   5
ATOM      5  O   UNL     1       1.236   1.855  -4.127  1.00  0.00    -0.460 OA
BRANCH   5   6
ATOM      6  C   UNL     1       0.748   1.090  -3.081  1.00  0.00     0.338 C 
ATOM      7  O   UNL     1      -0.352   1.093  -2.548  1.00  0.00    -0.246 OA
BRANCH   6   8
ATOM      8  C   UNL     1       1.489   0.013  -2.420  1.00  0.00     0.062 A 
ATOM      9  C   UNL     1       2.898  -0.360  -0.524  1.00  0.00     0.045 A 
ATOM     10  C   UNL     1       2.555   0.405  -1.647  1.00  0.00     0.042 A 
ATOM     11  C   UNL     1       2.303  -1.613  -0.247  1.00  0.00    -0.027 A 
ATOM     12  C   UNL     1       1.199  -1.988  -1.011  1.00  0.00     0.006 A 
ATOM     13  C   UNL     1       2.627  -2.446   0.962  1.00  0.00     0.046 C 
ATOM     14  C   UNL     1       0.780  -1.167  -2.058  1.00  0.00     0.016 A 
BRANCH   9  15
ATOM     15  N   UNL     1       3.778   0.207   0.400  1.00  0.00    -0.322 N 
ATOM     16  C   UNL     1       3.896   1.540   0.735  1.00  0.00     0.259 C 
ATOM     17  O   UNL     1       4.993   1.937   1.136  1.00  0.00    -0.269 OA
ATOM     18  H   UNL     1       4.383  -0.415   0.864  1.00  0.00     0.170 HD
BRANCH  16  19
ATOM     19  C   UNL     1       2.730   2.498   0.753  1.00  0.00     0.082 A 
ATOM     20  C   UNL     1       1.405   2.174   1.088  1.00  0.00     0.132 A 
ATOM     21  C   UNL     1       0.443   3.181   1.276  1.00  0.00     0.056 A 
ATOM     22  C   UNL     1       0.787   4.535   1.194  1.00  0.00    -0.015 A 
ATOM     23  C   UNL     1       3.054   3.860   0.608  1.00  0.00     0.026 A 
ATOM     24  C   UNL     1      -0.153   5.549   1.452  1.00  0.00     0.009 A 
ATOM     25  C   UNL     1       2.107   4.880   0.834  1.00  0.00    -0.017 A 
ATOM     26  C   UNL     1       0.209   6.891   1.353  1.00  0.00     0.001 A 
ATOM     27  C   UNL     1       2.449   6.237   0.727  1.00  0.00     0.009 A 
ATOM     28  C   UNL     1       1.508   7.234   0.992  1.00  0.00     0.001 A 
BRANCH  20  29
ATOM     29  O   UNL     1       0.969   0.881   1.173  1.00  0.00    -0.496 OA
ATOM     30  C   UNL     1       0.717   0.481   2.515  1.00  0.00     0.278 C 
ENDBRANCH  20  29
ENDBRANCH  16  19
ENDBRANCH   9  15
ENDBRANCH   6   8
ENDBRANCH   5   6
ENDBRANCH   4   5
ENDBRANCH   3   4
ENDBRANCH   2   3
ENDBRANCH   1   2
BRANCH   1  31
ATOM     31  C   UNL     1      -1.524   0.568  -8.356  1.00  0.00     0.188 C 
BRANCH  31  32
ATOM     32  O   UNL     1      -0.121   0.634  -8.189  1.00  0.00    -0.376 OA
BRANCH  32  33
ATOM     33  C   UNL     1       0.648  -0.180  -9.063  1.00  0.00     0.202 C 
BRANCH  33  34
ATOM     34  C   UNL     1       0.508  -1.712  -8.895  1.00  0.00     0.261 C 
BRANCH  34  35
ATOM     35  O   UNL     1       1.159  -2.240  -7.711  1.00  0.00    -0.460 OA
BRANCH  35  36
ATOM     36  C   UNL     1       0.377  -2.909  -6.773  1.00  0.00     0.338 C 
ATOM     37  O   UNL     1       0.374  -4.096  -6.669  1.00  0.00    -0.246 OA
BRANCH  36  38
ATOM     38  C   UNL     1      -0.253  -1.930  -5.815  1.00  0.00     0.060 A 
ATOM     39  C   UNL     1      -1.410  -2.060  -5.043  1.00  0.00     0.016 A 
ATOM     40  C   UNL     1       0.323  -0.715  -5.769  1.00  0.00     0.016 A 
ATOM     41  C   UNL     1      -2.061  -0.910  -4.397  1.00  0.00     0.010 A 
ATOM     42  C   UNL     1      -0.453   0.347  -5.307  1.00  0.00     0.010 A 
ATOM     43  C   UNL     1      -1.622   0.406  -4.541  1.00  0.00    -0.014 A 
BRANCH  43  44
ATOM     44  C   UNL     1      -2.318   1.817  -4.057  1.00  0.00     0.031 A 
ATOM     45  C   UNL     1      -1.703   3.194  -3.445  1.00  0.00     0.074 A 
ATOM     46  C   UNL     1      -3.632   1.980  -4.309  1.00  0.00     0.049 A 
ATOM     47  N   UNL     1      -1.827   4.415  -3.948  1.00  0.00    -0.248 NA
ATOM     48  C   UNL     1      -0.941   3.309  -2.170  1.00  0.00     0.031 C 
ATOM     49  C   UNL     1      -4.446   3.189  -4.170  1.00  0.00     0.029 A 
ATOM     50  N   UNL     1      -4.556   0.979  -4.562  1.00  0.00    -0.354 N 
ATOM     51  C   UNL     1      -1.097   5.328  -3.165  1.00  0.00     0.074 A 
ATOM     52  C   UNL     1      -0.356   4.503  -2.231  1.00  0.00     0.031 C 
ATOM     53  C   UNL     1      -5.732   2.829  -4.045  1.00  0.00     0.029 A 
ATOM     54  C   UNL     1      -5.762   1.379  -3.977  1.00  0.00     0.049 A 
ATOM     55  H   UNL     1      -4.394   0.144  -5.058  1.00  0.00     0.167 HD
ATOM     56  C   UNL     1      -1.568   6.466  -2.563  1.00  0.00     0.031 A 
ATOM     57  C   UNL     1      -6.201   0.668  -2.900  1.00  0.00     0.031 A 
ATOM     58  C   UNL     1      -2.881   6.294  -1.962  1.00  0.00     0.049 A 
ATOM     59  C   UNL     1      -6.077   1.468  -1.622  1.00  0.00     0.074 A 
ATOM     60  C   UNL     1      -4.140   6.760  -2.270  1.00  0.00     0.029 A 
ATOM     61  N   UNL     1      -3.051   5.364  -0.926  1.00  0.00    -0.354 N 
ATOM     62  N   UNL     1      -5.273   2.487  -1.439  1.00  0.00    -0.248 NA
ATOM     63  C   UNL     1      -6.937   1.212  -0.475  1.00  0.00     0.031 C 
ATOM     64  C   UNL     1      -5.076   5.995  -1.519  1.00  0.00     0.029 A 
ATOM     65  C   UNL     1      -4.390   5.104  -0.706  1.00  0.00     0.049 A 
ATOM     66  H   UNL     1      -2.313   4.950  -0.422  1.00  0.00     0.167 HD
ATOM     67  C   UNL     1      -5.503   3.026  -0.202  1.00  0.00     0.074 A 
ATOM     68  C   UNL     1      -6.559   2.195   0.357  1.00  0.00     0.031 C 
ATOM     69  C   UNL     1      -4.864   4.134   0.287  1.00  0.00     0.031 A 
BRANCH  56  70
ATOM     70  C   UNL     1      -0.581   7.610  -2.286  1.00  0.00    -0.014 A 
ATOM     71  C   UNL     1      -0.997   8.841  -1.737  1.00  0.00     0.010 A 
ATOM     72  C   UNL     1       0.797   7.521  -2.622  1.00  0.00     0.010 A 
ATOM     73  C   UNL     1      -0.090   9.908  -1.521  1.00  0.00     0.020 A 
ATOM     74  C   UNL     1       1.711   8.567  -2.391  1.00  0.00     0.020 A 
ATOM     75  C   UNL     1       1.260   9.764  -1.848  1.00  0.00     0.054 A 
BRANCH  75  76
ATOM     76  S   UNL     1       2.432  11.120  -1.520  1.00  0.00     0.124 S 
ATOM     77  O   UNL     1       2.089  12.089  -2.558  1.00  0.00    -0.237 OA
ATOM     78  O   UNL     1       2.096  11.512  -0.154  1.00  0.00    -0.237 OA
ATOM     79  O   UNL     1       3.743  10.490  -1.671  1.00  0.00    -0.744 OA
ENDBRANCH  75  76
ENDBRANCH  56  70
BRANCH  57  80
ATOM     80  C   UNL     1      -6.046  -0.814  -3.089  1.00  0.00    -0.014 A 
ATOM     81  C   UNL     1      -6.636  -1.343  -4.267  1.00  0.00     0.010 A 
ATOM     82  C   UNL     1      -5.082  -1.593  -2.429  1.00  0.00     0.010 A 
ATOM     83  C   UNL     1      -6.141  -2.496  -4.877  1.00  0.00     0.020 A 
ATOM     84  C   UNL     1      -4.615  -2.793  -3.018  1.00  0.00     0.020 A 
ATOM     85  C   UNL     1      -5.098  -3.189  -4.272  1.00  0.00     0.054 A 
BRANCH  85  86
ATOM     86  S   UNL     1      -4.280  -4.478  -5.266  1.00  0.00     0.124 S 
ATOM     87  O   UNL     1      -5.377  -5.392  -5.567  1.00  0.00    -0.237 OA
ATOM     88  O   UNL     1      -3.782  -3.709  -6.407  1.00  0.00    -0.237 OA
ATOM     89  O   UNL     1      -3.255  -4.999  -4.367  1.00  0.00    -0.744 OA
ENDBRANCH  85  86
ENDBRANCH  57  80
BRANCH  69  90
ATOM     90  C   UNL     1      -4.866   4.473   1.764  1.00  0.00    -0.014 A 
ATOM     91  C   UNL     1      -5.166   3.527   2.765  1.00  0.00     0.010 A 
ATOM     92  C   UNL     1      -4.484   5.757   2.209  1.00  0.00     0.010 A 
ATOM     93  C   UNL     1      -5.266   3.880   4.114  1.00  0.00     0.020 A 
ATOM     94  C   UNL     1      -4.518   6.107   3.568  1.00  0.00     0.020 A 
ATOM     95  C   UNL     1      -4.966   5.179   4.505  1.00  0.00     0.054 A 
BRANCH  95  96
ATOM     96  S   UNL     1      -5.126   5.628   6.252  1.00  0.00     0.124 S 
ATOM     97  O   UNL     1      -6.533   6.011   6.335  1.00  0.00    -0.237 OA
ATOM     98  O   UNL     1      -4.777   4.387   6.943  1.00  0.00    -0.237 OA
ATOM     99  O   UNL     1      -4.165   6.714   6.414  1.00  0.00    -0.744 OA
ENDBRANCH  95  96
ENDBRANCH  69  90
ENDBRANCH  43  44
ENDBRANCH  36  38
ENDBRANCH  35  36
ENDBRANCH  34  35
ENDBRANCH  33  34
ENDBRANCH  32  33
ENDBRANCH  31  32
ENDBRANCH   1  31
TORSDOF 23
