REMARK SMILES C[C@@H](c1cccc(O)c1)[N@H+]1[C@@H]2CC[C@H]1C[C@H](CC(=O)OCCOCCOCCOC(=O)c1ccc(-c3c4nc(c(-c5ccc(S(=O)(=O)[O-])cc5)c5ccc([nH]5)c(-c5ccc(S(=O)(=O)[O-])cc5)c5nc(c(-c6ccc(S(=O)(=O)[O-])cc6)c6ccc3[nH]6)C=C5)C=C4)cc1)C2
REMARK SMILES IDX 24 1 23 2 22 3 21 4 20 5 18 6 19 7 17 8 16 9 10 10 11 11
REMARK SMILES IDX 14 12 12 14 92 15 13 16 15 17 2 18 1 19 3 20 4 21 9 22 5 23
REMARK SMILES IDX 7 24 6 25 8 26 25 28 26 29 27 30 28 31 29 32 30 33 31 34
REMARK SMILES IDX 32 35 33 36 91 37 34 38 90 39 35 40 36 41 37 42 84 43 38 44
REMARK SMILES IDX 89 45 83 46 85 47 39 48 88 49 82 50 81 51 40 53 70 54 51 55
REMARK SMILES IDX 69 56 52 57 55 58 68 59 86 60 53 61 54 62 67 64 87 65 56 66
REMARK SMILES IDX 41 67 42 68 50 69 43 70 49 71 44 72 45 73 46 74 47 75 48 76
REMARK SMILES IDX 71 77 72 78 80 79 73 80 79 81 74 82 75 83 76 84 77 85 78 86
REMARK SMILES IDX 57 87 58 88 66 89 59 90 65 91 60 92 61 93 62 94 63 95 64 96
REMARK H PARENT 10 13 8 27 85 52 55 63
REMARK Flexibility Score: inf
ROOT
ATOM      1  C   UNL     1      -1.459   0.581  -7.501  1.00  0.00     0.188 C 
ENDROOT
BRANCH   1   2
ATOM      2  O   UNL     1      -0.843  -0.558  -8.090  1.00  0.00    -0.376 OA
BRANCH   2   3
ATOM      3  C   UNL     1      -0.393  -1.582  -7.199  1.00  0.00     0.202 C 
BRANCH   3   4
ATOM      4  C   UNL     1       0.567  -1.157  -6.077  1.00  0.00     0.261 C 
BRANCH   4   5
ATOM      5  O   UNL     1      -0.048  -0.243  -5.145  1.00  0.00    -0.463 OA
BRANCH   5   6
ATOM      6  C   UNL     1       0.657   0.887  -4.884  1.00  0.00     0.306 C 
ATOM      7  O   UNL     1       1.812   1.077  -5.252  1.00  0.00    -0.252 OA
BRANCH   6   8
ATOM      8  C   UNL     1      -0.187   1.980  -4.255  1.00  0.00     0.126 C 
BRANCH   8   9
ATOM      9  C   UNL     1      -1.174   1.666  -3.110  1.00  0.00     0.012 C 
ATOM     10  N   UNL     1      -0.756   1.564  -0.189  1.00  0.00    -0.324 N 
ATOM     11  C   UNL     1      -1.517   2.696  -0.708  1.00  0.00     0.185 C 
ATOM     12  C   UNL     1      -1.319   0.407  -0.869  1.00  0.00     0.185 C 
ATOM     13  H   UNL     1      -0.865   1.477   0.822  1.00  0.00     0.349 HD
ATOM     14  C   UNL     1      -2.932   2.177  -0.447  1.00  0.00     0.071 C 
ATOM     15  C   UNL     1      -1.340   2.936  -2.221  1.00  0.00     0.069 C 
ATOM     16  C   UNL     1      -2.829   0.680  -0.735  1.00  0.00     0.071 C 
ATOM     17  C   UNL     1      -0.866   0.375  -2.329  1.00  0.00     0.069 C 
BRANCH  10  18
ATOM     18  C   UNL     1       0.676   1.670   0.130  1.00  0.00     0.212 C 
ATOM     19  C   UNL     1       1.218   0.328   0.664  1.00  0.00     0.081 C 
BRANCH  18  20
ATOM     20  C   UNL     1       1.597   2.300  -0.913  1.00  0.00     0.013 A 
ATOM     21  C   UNL     1       2.428   1.556  -1.766  1.00  0.00     0.010 A 
ATOM     22  C   UNL     1       1.625   3.701  -1.041  1.00  0.00     0.056 A 
ATOM     23  C   UNL     1       3.196   2.183  -2.755  1.00  0.00     0.004 A 
ATOM     24  C   UNL     1       2.338   4.310  -2.071  1.00  0.00     0.116 A 
ATOM     25  C   UNL     1       3.128   3.562  -2.931  1.00  0.00     0.046 A 
BRANCH  24  26
ATOM     26  O   UNL     1       2.177   5.652  -2.245  1.00  0.00    -0.508 OA
ATOM     27  H   UNL     1       2.641   6.095  -2.928  1.00  0.00     0.293 HD
ENDBRANCH  24  26
ENDBRANCH  18  20
ENDBRANCH  10  18
ENDBRANCH   8   9
ENDBRANCH   6   8
ENDBRANCH   5   6
ENDBRANCH   4   5
ENDBRANCH   3   4
ENDBRANCH   2   3
ENDBRANCH   1   2
BRANCH   1  28
ATOM     28  C   UNL     1      -2.748   0.336  -6.703  1.00  0.00     0.188 C 
BRANCH  28  29
ATOM     29  O   UNL     1      -2.725  -0.817  -5.869  1.00  0.00    -0.376 OA
BRANCH  29  30
ATOM     30  C   UNL     1      -3.831  -0.995  -4.981  1.00  0.00     0.202 C 
BRANCH  30  31
ATOM     31  C   UNL     1      -5.222  -0.915  -5.630  1.00  0.00     0.261 C 
BRANCH  31  32
ATOM     32  O   UNL     1      -5.544   0.394  -6.139  1.00  0.00    -0.460 OA
BRANCH  32  33
ATOM     33  C   UNL     1      -5.492   1.426  -5.264  1.00  0.00     0.338 C 
ATOM     34  O   UNL     1      -5.448   1.344  -4.048  1.00  0.00    -0.246 OA
BRANCH  33  35
ATOM     35  C   UNL     1      -5.232   2.671  -6.034  1.00  0.00     0.060 A 
ATOM     36  C   UNL     1      -4.419   3.654  -5.453  1.00  0.00     0.016 A 
ATOM     37  C   UNL     1      -5.703   2.840  -7.341  1.00  0.00     0.016 A 
ATOM     38  C   UNL     1      -4.113   4.821  -6.159  1.00  0.00     0.010 A 
ATOM     39  C   UNL     1      -5.397   4.007  -8.046  1.00  0.00     0.010 A 
ATOM     40  C   UNL     1      -4.628   5.018  -7.447  1.00  0.00    -0.014 A 
BRANCH  40  41
ATOM     41  C   UNL     1      -4.534   6.349  -8.097  1.00  0.00     0.031 A 
ATOM     42  C   UNL     1      -5.716   7.276  -7.994  1.00  0.00     0.074 A 
ATOM     43  C   UNL     1      -3.432   6.741  -8.764  1.00  0.00     0.049 A 
ATOM     44  N   UNL     1      -5.885   8.465  -8.510  1.00  0.00    -0.248 NA
ATOM     45  C   UNL     1      -6.861   6.791  -7.204  1.00  0.00     0.031 C 
ATOM     46  C   UNL     1      -2.204   5.964  -8.910  1.00  0.00     0.029 A 
ATOM     47  N   UNL     1      -3.180   7.904  -9.452  1.00  0.00    -0.354 N 
ATOM     48  C   UNL     1      -7.153   8.871  -8.110  1.00  0.00     0.074 A 
ATOM     49  C   UNL     1      -7.721   7.788  -7.336  1.00  0.00     0.031 C 
ATOM     50  C   UNL     1      -1.328   6.670  -9.648  1.00  0.00     0.029 A 
ATOM     51  C   UNL     1      -1.944   7.933 -10.055  1.00  0.00     0.049 A 
ATOM     52  H   UNL     1      -3.823   8.646  -9.509  1.00  0.00     0.167 HD
ATOM     53  C   UNL     1      -7.789  10.040  -8.355  1.00  0.00     0.031 A 
ATOM     54  C   UNL     1      -1.384   8.861 -10.858  1.00  0.00     0.031 A 
ATOM     55  C   UNL     1      -7.242  11.111  -9.143  1.00  0.00     0.049 A 
ATOM     56  C   UNL     1      -2.149  10.118 -11.196  1.00  0.00     0.074 A 
ATOM     57  C   UNL     1      -7.812  12.338  -9.436  1.00  0.00     0.029 A 
ATOM     58  N   UNL     1      -6.008  11.082  -9.773  1.00  0.00    -0.354 N 
ATOM     59  N   UNL     1      -3.334  10.500 -10.783  1.00  0.00    -0.248 NA
ATOM     60  C   UNL     1      -1.496  11.070 -12.108  1.00  0.00     0.031 C 
ATOM     61  C   UNL     1      -6.947  13.027 -10.293  1.00  0.00     0.029 A 
ATOM     62  C   UNL     1      -5.812  12.255 -10.482  1.00  0.00     0.049 A 
ATOM     63  H   UNL     1      -5.367  10.337  -9.723  1.00  0.00     0.167 HD
ATOM     64  C   UNL     1      -3.556  11.746 -11.365  1.00  0.00     0.074 A 
ATOM     65  C   UNL     1      -2.377  12.060 -12.145  1.00  0.00     0.031 C 
ATOM     66  C   UNL     1      -4.638  12.558 -11.260  1.00  0.00     0.031 A 
BRANCH  53  67
ATOM     67  C   UNL     1      -9.174  10.201  -7.792  1.00  0.00    -0.014 A 
ATOM     68  C   UNL     1      -9.381  10.379  -6.412  1.00  0.00     0.010 A 
ATOM     69  C   UNL     1     -10.281  10.195  -8.658  1.00  0.00     0.010 A 
ATOM     70  C   UNL     1     -10.676  10.509  -5.905  1.00  0.00     0.020 A 
ATOM     71  C   UNL     1     -11.576  10.352  -8.158  1.00  0.00     0.020 A 
ATOM     72  C   UNL     1     -11.766  10.490  -6.781  1.00  0.00     0.054 A 
BRANCH  72  73
ATOM     73  S   UNL     1     -13.435  10.673  -6.097  1.00  0.00     0.124 S 
ATOM     74  O   UNL     1     -13.640   9.376  -5.457  1.00  0.00    -0.237 OA
ATOM     75  O   UNL     1     -13.286  11.806  -5.187  1.00  0.00    -0.237 OA
ATOM     76  O   UNL     1     -14.266  10.925  -7.272  1.00  0.00    -0.744 OA
ENDBRANCH  72  73
ENDBRANCH  53  67
BRANCH  54  77
ATOM     77  C   UNL     1      -0.028   8.633 -11.431  1.00  0.00    -0.014 A 
ATOM     78  C   UNL     1       1.065   9.418 -11.022  1.00  0.00     0.010 A 
ATOM     79  C   UNL     1       0.172   7.640 -12.407  1.00  0.00     0.010 A 
ATOM     80  C   UNL     1       2.328   9.225 -11.592  1.00  0.00     0.020 A 
ATOM     81  C   UNL     1       1.438   7.426 -12.959  1.00  0.00     0.020 A 
ATOM     82  C   UNL     1       2.507   8.228 -12.555  1.00  0.00     0.054 A 
BRANCH  82  83
ATOM     83  S   UNL     1       4.165   7.962 -13.243  1.00  0.00     0.124 S 
ATOM     84  O   UNL     1       4.321   9.120 -14.116  1.00  0.00    -0.237 OA
ATOM     85  O   UNL     1       5.004   7.953 -12.047  1.00  0.00    -0.237 OA
ATOM     86  O   UNL     1       4.050   6.674 -13.923  1.00  0.00    -0.744 OA
ENDBRANCH  82  83
ENDBRANCH  54  77
BRANCH  66  87
ATOM     87  C   UNL     1      -4.597  13.882 -11.980  1.00  0.00    -0.014 A 
ATOM     88  C   UNL     1      -4.706  13.955 -13.380  1.00  0.00     0.010 A 
ATOM     89  C   UNL     1      -4.514  15.075 -11.238  1.00  0.00     0.010 A 
ATOM     90  C   UNL     1      -4.705  15.196 -14.026  1.00  0.00     0.020 A 
ATOM     91  C   UNL     1      -4.540  16.318 -11.878  1.00  0.00     0.020 A 
ATOM     92  C   UNL     1      -4.622  16.369 -13.271  1.00  0.00     0.054 A 
BRANCH  92  93
ATOM     93  S   UNL     1      -4.670  17.968 -14.129  1.00  0.00     0.124 S 
ATOM     94  O   UNL     1      -3.343  18.027 -14.736  1.00  0.00    -0.237 OA
ATOM     95  O   UNL     1      -5.781  17.798 -15.062  1.00  0.00    -0.237 OA
ATOM     96  O   UNL     1      -4.907  18.931 -13.056  1.00  0.00    -0.744 OA
ENDBRANCH  92  93
ENDBRANCH  66  87
ENDBRANCH  40  41
ENDBRANCH  33  35
ENDBRANCH  32  33
ENDBRANCH  31  32
ENDBRANCH  30  31
ENDBRANCH  29  30
ENDBRANCH  28  29
ENDBRANCH   1  28
TORSDOF 24
