REMARK SMILES C=CCOc1ccccc1-c1cc(C(=O)OCCOCCOCCOC(=O)c2ccc(-c3c4nc(c(-c5ccc(S(=O)(=O)[O-])cc5)c5ccc([nH]5)c(-c5ccc(S(=O)(=O)[O-])cc5)c5nc(c(-c6ccc(S(=O)(=O)[O-])cc6)c6ccc3[nH]6)C=C5)C=C4)cc2)nc(N)n1
REMARK SMILES IDX 20 1 19 2 18 3 17 4 16 5 14 6 15 7 13 8 11 9 12 10 91 11
REMARK SMILES IDX 89 12 88 13 10 14 5 15 6 16 7 17 9 18 8 19 4 20 3 21 2 22
REMARK SMILES IDX 1 23 90 24 21 27 22 28 23 29 24 30 25 31 26 32 27 33 28 34
REMARK SMILES IDX 29 35 87 36 30 37 86 38 31 39 32 40 33 41 80 42 34 43 85 44
REMARK SMILES IDX 79 45 81 46 35 47 84 48 78 49 77 50 36 52 66 53 47 54 65 55
REMARK SMILES IDX 48 56 51 57 64 58 82 59 49 60 50 61 63 63 83 64 52 65 37 66
REMARK SMILES IDX 38 67 46 68 39 69 45 70 40 71 41 72 42 73 43 74 44 75 67 76
REMARK SMILES IDX 68 77 76 78 69 79 75 80 70 81 71 82 72 83 73 84 74 85 53 86
REMARK SMILES IDX 54 87 62 88 55 89 61 90 56 91 57 92 58 93 59 94 60 95
REMARK H PARENT 90 25 90 26 81 51 51 62
REMARK Flexibility Score: inf
ROOT
ATOM      1  C   UNL     1       1.057   4.267   1.678  1.00  0.00     0.188 C 
ENDROOT
BRANCH   1   2
ATOM      2  O   UNL     1       1.992   4.994   2.469  1.00  0.00    -0.376 OA
BRANCH   2   3
ATOM      3  C   UNL     1       3.189   5.477   1.890  1.00  0.00     0.202 C 
BRANCH   3   4
ATOM      4  C   UNL     1       4.323   4.458   1.756  1.00  0.00     0.261 C 
BRANCH   4   5
ATOM      5  O   UNL     1       3.895   3.150   1.357  1.00  0.00    -0.459 OA
BRANCH   5   6
ATOM      6  C   UNL     1       3.669   2.283   2.383  1.00  0.00     0.357 C 
ATOM      7  O   UNL     1       3.816   2.506   3.569  1.00  0.00    -0.244 OA
BRANCH   6   8
ATOM      8  C   UNL     1       3.112   1.009   1.856  1.00  0.00     0.154 A 
ATOM      9  C   UNL     1       1.658  -0.789   2.050  1.00  0.00     0.080 A 
ATOM     10  C   UNL     1       2.141   0.377   2.596  1.00  0.00     0.065 A 
ATOM     11  N   UNL     1       2.143  -1.304   0.900  1.00  0.00    -0.213 NA
ATOM     12  C   UNL     1       3.076  -0.600   0.256  1.00  0.00     0.221 A 
ATOM     13  N   UNL     1       3.581   0.558   0.671  1.00  0.00    -0.206 NA
BRANCH   9  14
ATOM     14  C   UNL     1       0.539  -1.516   2.653  1.00  0.00     0.042 A 
ATOM     15  C   UNL     1      -0.779  -1.029   2.582  1.00  0.00     0.129 A 
ATOM     16  C   UNL     1      -1.834  -1.678   3.229  1.00  0.00     0.047 A 
ATOM     17  C   UNL     1      -1.591  -2.865   3.915  1.00  0.00     0.004 A 
ATOM     18  C   UNL     1       0.756  -2.724   3.332  1.00  0.00     0.014 A 
ATOM     19  C   UNL     1      -0.300  -3.394   3.957  1.00  0.00     0.001 A 
BRANCH  15  20
ATOM     20  O   UNL     1      -1.052   0.134   1.908  1.00  0.00    -0.489 OA
BRANCH  20  21
ATOM     21  C   UNL     1      -1.423  -0.137   0.546  1.00  0.00     0.257 C 
BRANCH  21  22
ATOM     22  C   UNL     1      -0.452   0.588  -0.337  1.00  0.00     0.006 C 
ATOM     23  C   UNL     1       0.000   0.147  -1.516  1.00  0.00     0.007 C 
ENDBRANCH  21  22
ENDBRANCH  20  21
ENDBRANCH  15  20
ENDBRANCH   9  14
BRANCH  12  24
ATOM     24  N   UNL     1       3.514  -1.092  -0.938  1.00  0.00    -0.368 N 
ATOM     25  H   UNL     1       4.202  -0.606  -1.449  1.00  0.00     0.159 HD
ATOM     26  H   UNL     1       3.143  -1.934  -1.290  1.00  0.00     0.159 HD
ENDBRANCH  12  24
ENDBRANCH   6   8
ENDBRANCH   5   6
ENDBRANCH   4   5
ENDBRANCH   3   4
ENDBRANCH   2   3
ENDBRANCH   1   2
BRANCH   1  27
ATOM     27  C   UNL     1       1.185   4.157   0.148  1.00  0.00     0.188 C 
BRANCH  27  28
ATOM     28  O   UNL     1       1.508   5.380  -0.503  1.00  0.00    -0.376 OA
BRANCH  28  29
ATOM     29  C   UNL     1       0.491   5.904  -1.350  1.00  0.00     0.202 C 
BRANCH  29  30
ATOM     30  C   UNL     1      -0.460   6.836  -0.593  1.00  0.00     0.261 C 
BRANCH  30  31
ATOM     31  O   UNL     1      -1.225   6.201   0.445  1.00  0.00    -0.460 OA
BRANCH  31  32
ATOM     32  C   UNL     1      -2.158   5.313   0.038  1.00  0.00     0.338 C 
ATOM     33  O   UNL     1      -2.393   4.973  -1.108  1.00  0.00    -0.246 OA
BRANCH  32  34
ATOM     34  C   UNL     1      -2.778   4.697   1.226  1.00  0.00     0.060 A 
ATOM     35  C   UNL     1      -2.606   3.327   1.426  1.00  0.00     0.016 A 
ATOM     36  C   UNL     1      -3.568   5.443   2.102  1.00  0.00     0.016 A 
ATOM     37  C   UNL     1      -3.256   2.685   2.481  1.00  0.00     0.010 A 
ATOM     38  C   UNL     1      -4.227   4.795   3.156  1.00  0.00     0.010 A 
ATOM     39  C   UNL     1      -4.102   3.405   3.333  1.00  0.00    -0.014 A 
BRANCH  39  40
ATOM     40  C   UNL     1      -4.980   2.671   4.282  1.00  0.00     0.031 A 
ATOM     41  C   UNL     1      -6.431   2.478   3.925  1.00  0.00     0.074 A 
ATOM     42  C   UNL     1      -4.495   2.118   5.410  1.00  0.00     0.049 A 
ATOM     43  N   UNL     1      -7.388   1.911   4.614  1.00  0.00    -0.248 NA
ATOM     44  C   UNL     1      -6.856   2.985   2.609  1.00  0.00     0.031 C 
ATOM     45  C   UNL     1      -3.098   2.150   5.840  1.00  0.00     0.029 A 
ATOM     46  N   UNL     1      -5.134   1.412   6.402  1.00  0.00    -0.354 N 
ATOM     47  C   UNL     1      -8.531   2.010   3.828  1.00  0.00     0.074 A 
ATOM     48  C   UNL     1      -8.151   2.705   2.617  1.00  0.00     0.031 C 
ATOM     49  C   UNL     1      -2.985   1.492   7.008  1.00  0.00     0.029 A 
ATOM     50  C   UNL     1      -4.306   1.030   7.431  1.00  0.00     0.049 A 
ATOM     51  H   UNL     1      -6.095   1.199   6.378  1.00  0.00     0.167 HD
ATOM     52  C   UNL     1      -9.783   1.563   4.085  1.00  0.00     0.031 A 
ATOM     53  C   UNL     1      -4.583   0.402   8.593  1.00  0.00     0.031 A 
ATOM     54  C   UNL     1     -10.170   0.875   5.287  1.00  0.00     0.049 A 
ATOM     55  C   UNL     1      -6.002  -0.009   8.897  1.00  0.00     0.074 A 
ATOM     56  C   UNL     1     -11.421   0.404   5.644  1.00  0.00     0.029 A 
ATOM     57  N   UNL     1      -9.312   0.559   6.328  1.00  0.00    -0.354 N 
ATOM     58  N   UNL     1      -7.076   0.117   8.154  1.00  0.00    -0.248 NA
ATOM     59  C   UNL     1      -6.244  -0.652  10.197  1.00  0.00     0.031 C 
ATOM     60  C   UNL     1     -11.329  -0.158   6.922  1.00  0.00     0.029 A 
ATOM     61  C   UNL     1     -10.008  -0.089   7.335  1.00  0.00     0.049 A 
ATOM     62  H   UNL     1      -8.349   0.764   6.349  1.00  0.00     0.167 HD
ATOM     63  C   UNL     1      -8.113  -0.457   8.885  1.00  0.00     0.074 A 
ATOM     64  C   UNL     1      -7.536  -0.942  10.121  1.00  0.00     0.031 C 
ATOM     65  C   UNL     1      -9.424  -0.575   8.559  1.00  0.00     0.031 A 
BRANCH  52  66
ATOM     66  C   UNL     1     -10.843   1.853   3.055  1.00  0.00    -0.014 A 
ATOM     67  C   UNL     1     -10.880   1.163   1.830  1.00  0.00     0.010 A 
ATOM     68  C   UNL     1     -11.829   2.817   3.331  1.00  0.00     0.010 A 
ATOM     69  C   UNL     1     -11.862   1.463   0.882  1.00  0.00     0.020 A 
ATOM     70  C   UNL     1     -12.828   3.100   2.396  1.00  0.00     0.020 A 
ATOM     71  C   UNL     1     -12.827   2.434   1.169  1.00  0.00     0.054 A 
BRANCH  71  72
ATOM     72  S   UNL     1     -14.097   2.797  -0.074  1.00  0.00     0.124 S 
ATOM     73  O   UNL     1     -13.337   3.553  -1.066  1.00  0.00    -0.237 OA
ATOM     74  O   UNL     1     -14.525   1.465  -0.493  1.00  0.00    -0.237 OA
ATOM     75  O   UNL     1     -15.095   3.566   0.665  1.00  0.00    -0.744 OA
ENDBRANCH  71  72
ENDBRANCH  52  66
BRANCH  53  76
ATOM     76  C   UNL     1      -3.499   0.148   9.584  1.00  0.00    -0.014 A 
ATOM     77  C   UNL     1      -3.073  -1.162   9.868  1.00  0.00     0.010 A 
ATOM     78  C   UNL     1      -2.903   1.222  10.271  1.00  0.00     0.010 A 
ATOM     79  C   UNL     1      -2.087  -1.393  10.833  1.00  0.00     0.020 A 
ATOM     80  C   UNL     1      -1.898   0.997  11.216  1.00  0.00     0.020 A 
ATOM     81  C   UNL     1      -1.506  -0.312  11.501  1.00  0.00     0.054 A 
BRANCH  81  82
ATOM     82  S   UNL     1      -0.201  -0.631  12.721  1.00  0.00     0.124 S 
ATOM     83  O   UNL     1      -0.964  -1.148  13.853  1.00  0.00    -0.237 OA
ATOM     84  O   UNL     1       0.645  -1.603  12.032  1.00  0.00    -0.237 OA
ATOM     85  O   UNL     1       0.407   0.682  12.923  1.00  0.00    -0.744 OA
ENDBRANCH  81  82
ENDBRANCH  53  76
BRANCH  65  86
ATOM     86  C   UNL     1     -10.323  -1.300   9.527  1.00  0.00    -0.014 A 
ATOM     87  C   UNL     1     -10.710  -0.719  10.747  1.00  0.00     0.010 A 
ATOM     88  C   UNL     1     -10.830  -2.567   9.181  1.00  0.00     0.010 A 
ATOM     89  C   UNL     1     -11.558  -1.408  11.621  1.00  0.00     0.020 A 
ATOM     90  C   UNL     1     -11.698  -3.247  10.039  1.00  0.00     0.020 A 
ATOM     91  C   UNL     1     -12.044  -2.670  11.262  1.00  0.00     0.054 A 
BRANCH  91  92
ATOM     92  S   UNL     1     -13.169  -3.532  12.396  1.00  0.00     0.124 S 
ATOM     93  O   UNL     1     -12.255  -3.996  13.435  1.00  0.00    -0.237 OA
ATOM     94  O   UNL     1     -14.094  -2.475  12.798  1.00  0.00    -0.237 OA
ATOM     95  O   UNL     1     -13.756  -4.582  11.568  1.00  0.00    -0.744 OA
ENDBRANCH  91  92
ENDBRANCH  65  86
ENDBRANCH  39  40
ENDBRANCH  32  34
ENDBRANCH  31  32
ENDBRANCH  30  31
ENDBRANCH  29  30
ENDBRANCH  28  29
ENDBRANCH  27  28
ENDBRANCH   1  27
TORSDOF 25
