REMARK SMILES CCOC(=O)NC(=O)COc1csc(C(=O)OCCOCCOCCOC(=O)c2ccc(-c3c4nc(c(-c5ccc(S(=O)(=O)[O-])cc5)c5ccc([nH]5)c(-c5ccc(S(=O)(=O)[O-])cc5)c5nc(c(-c6ccc(S(=O)(=O)[O-])cc6)c6ccc3[nH]6)C=C5)C=C4)cc2)c1
REMARK SMILES IDX 21 1 20 2 19 3 18 4 17 5 15 6 16 7 14 8 11 9 12 10 89 11
REMARK SMILES IDX 13 12 10 13 9 14 7 15 4 16 5 17 6 18 8 20 3 21 2 22 1 23
REMARK SMILES IDX 22 24 23 25 24 26 25 27 26 28 27 29 28 30 29 31 30 32 88 33
REMARK SMILES IDX 31 34 87 35 32 36 33 37 34 38 81 39 35 40 86 41 80 42 82 43
REMARK SMILES IDX 36 44 85 45 79 46 78 47 37 49 67 50 48 51 66 52 49 53 52 54
REMARK SMILES IDX 65 55 83 56 50 57 51 58 64 60 84 61 53 62 38 63 39 64 47 65
REMARK SMILES IDX 40 66 46 67 41 68 42 69 43 70 44 71 45 72 68 73 69 74 77 75
REMARK SMILES IDX 70 76 76 77 71 78 72 79 73 80 74 81 75 82 54 83 55 84 63 85
REMARK SMILES IDX 56 86 62 87 57 88 58 89 59 90 60 91 61 92
REMARK H PARENT 6 19 82 48 52 59
REMARK Flexibility Score: inf
ROOT
ATOM      1  C   UNL     1      -1.399   8.022   3.005  1.00  0.00     0.188 C 
ENDROOT
BRANCH   1   2
ATOM      2  O   UNL     1      -2.009   8.894   2.058  1.00  0.00    -0.376 OA
BRANCH   2   3
ATOM      3  C   UNL     1      -2.890   8.366   1.076  1.00  0.00     0.202 C 
BRANCH   3   4
ATOM      4  C   UNL     1      -2.365   7.276   0.133  1.00  0.00     0.261 C 
BRANCH   4   5
ATOM      5  O   UNL     1      -1.852   6.118   0.813  1.00  0.00    -0.459 OA
BRANCH   5   6
ATOM      6  C   UNL     1      -0.537   5.828   0.574  1.00  0.00     0.348 C 
ATOM      7  O   UNL     1       0.154   6.383  -0.274  1.00  0.00    -0.245 OA
BRANCH   6   8
ATOM      8  C   UNL     1      -0.066   4.855   1.536  1.00  0.00     0.116 A 
ATOM      9  C   UNL     1       0.129   3.041   3.001  1.00  0.00     0.131 A 
ATOM     10  C   UNL     1       1.280   3.741   3.281  1.00  0.00     0.112 A 
ATOM     11  C   UNL     1      -0.670   3.712   2.025  1.00  0.00     0.074 A 
ATOM     12  S   UNL     1       1.461   5.110   2.269  1.00  0.00    -0.133 S 
BRANCH   9  13
ATOM     13  O   UNL     1      -0.256   1.842   3.503  1.00  0.00    -0.483 OA
BRANCH  13  14
ATOM     14  C   UNL     1       0.370   1.378   4.679  1.00  0.00     0.329 C 
BRANCH  14  15
ATOM     15  C   UNL     1       1.883   1.140   4.806  1.00  0.00     0.267 C 
ATOM     16  C   UNL     1       2.260  -0.265   2.726  1.00  0.00     0.413 C 
ATOM     17  O   UNL     1       3.121  -0.827   2.061  1.00  0.00    -0.224 OA
ATOM     18  N   UNL     1       2.589   0.433   3.864  1.00  0.00    -0.258 N 
ATOM     19  H   UNL     1       3.557   0.423   4.047  1.00  0.00     0.176 HD
ATOM     20  O   UNL     1       2.496   1.555   5.796  1.00  0.00    -0.271 OA
BRANCH  16  21
ATOM     21  O   UNL     1       0.939  -0.276   2.443  1.00  0.00    -0.450 OA
BRANCH  21  22
ATOM     22  C   UNL     1       0.563  -0.914   1.215  1.00  0.00     0.231 C 
ATOM     23  C   UNL     1       0.845  -0.015   0.023  1.00  0.00     0.049 C 
ENDBRANCH  21  22
ENDBRANCH  16  21
ENDBRANCH  14  15
ENDBRANCH  13  14
ENDBRANCH   9  13
ENDBRANCH   6   8
ENDBRANCH   5   6
ENDBRANCH   4   5
ENDBRANCH   3   4
ENDBRANCH   2   3
ENDBRANCH   1   2
BRANCH   1  24
ATOM     24  C   UNL     1      -2.251   6.943   3.705  1.00  0.00     0.188 C 
BRANCH  24  25
ATOM     25  O   UNL     1      -3.631   7.023   3.400  1.00  0.00    -0.376 OA
BRANCH  25  26
ATOM     26  C   UNL     1      -4.499   7.432   4.444  1.00  0.00     0.202 C 
BRANCH  26  27
ATOM     27  C   UNL     1      -4.311   8.841   5.028  1.00  0.00     0.261 C 
BRANCH  27  28
ATOM     28  O   UNL     1      -2.972   9.213   5.387  1.00  0.00    -0.460 OA
BRANCH  28  29
ATOM     29  C   UNL     1      -2.470   8.692   6.529  1.00  0.00     0.338 C 
ATOM     30  O   UNL     1      -3.011   7.889   7.266  1.00  0.00    -0.246 OA
BRANCH  29  31
ATOM     31  C   UNL     1      -1.066   9.146   6.650  1.00  0.00     0.060 A 
ATOM     32  C   UNL     1      -0.040   8.193   6.665  1.00  0.00     0.016 A 
ATOM     33  C   UNL     1      -0.767  10.508   6.750  1.00  0.00     0.016 A 
ATOM     34  C   UNL     1       1.289   8.602   6.811  1.00  0.00     0.010 A 
ATOM     35  C   UNL     1       0.562  10.913   6.911  1.00  0.00     0.010 A 
ATOM     36  C   UNL     1       1.595   9.961   6.970  1.00  0.00    -0.014 A 
BRANCH  36  37
ATOM     37  C   UNL     1       2.965  10.378   7.362  1.00  0.00     0.031 A 
ATOM     38  C   UNL     1       3.255  10.617   8.820  1.00  0.00     0.074 A 
ATOM     39  C   UNL     1       3.938  10.541   6.447  1.00  0.00     0.049 A 
ATOM     40  N   UNL     1       4.361  11.018   9.392  1.00  0.00    -0.248 NA
ATOM     41  C   UNL     1       2.147  10.371   9.758  1.00  0.00     0.031 C 
ATOM     42  C   UNL     1       3.799  10.310   5.011  1.00  0.00     0.029 A 
ATOM     43  N   UNL     1       5.241  10.950   6.598  1.00  0.00    -0.354 N 
ATOM     44  C   UNL     1       4.083  11.076  10.752  1.00  0.00     0.074 A 
ATOM     45  C   UNL     1       2.697  10.695  10.918  1.00  0.00     0.031 C 
ATOM     46  C   UNL     1       4.970  10.589   4.409  1.00  0.00     0.029 A 
ATOM     47  C   UNL     1       5.930  11.047   5.412  1.00  0.00     0.049 A 
ATOM     48  H   UNL     1       5.644  11.154   7.473  1.00  0.00     0.167 HD
ATOM     49  C   UNL     1       4.907  11.410  11.774  1.00  0.00     0.031 A 
ATOM     50  C   UNL     1       7.185  11.473   5.163  1.00  0.00     0.031 A 
ATOM     51  C   UNL     1       6.278  11.810  11.610  1.00  0.00     0.049 A 
ATOM     52  C   UNL     1       8.062  11.912   6.309  1.00  0.00     0.074 A 
ATOM     53  C   UNL     1       7.195  12.161  12.586  1.00  0.00     0.029 A 
ATOM     54  N   UNL     1       6.928  11.924  10.391  1.00  0.00    -0.354 N 
ATOM     55  N   UNL     1       7.792  11.934   7.593  1.00  0.00    -0.248 NA
ATOM     56  C   UNL     1       9.415  12.377   5.971  1.00  0.00     0.031 C 
ATOM     57  C   UNL     1       8.385  12.536  11.953  1.00  0.00     0.029 A 
ATOM     58  C   UNL     1       8.227  12.363  10.587  1.00  0.00     0.049 A 
ATOM     59  H   UNL     1       6.526  11.723   9.515  1.00  0.00     0.167 HD
ATOM     60  C   UNL     1       8.952  12.386   8.217  1.00  0.00     0.074 A 
ATOM     61  C   UNL     1       9.927  12.616   7.171  1.00  0.00     0.031 C 
ATOM     62  C   UNL     1       9.189  12.586   9.537  1.00  0.00     0.031 A 
BRANCH  49  63
ATOM     63  C   UNL     1       4.327  11.390  13.163  1.00  0.00    -0.014 A 
ATOM     64  C   UNL     1       4.031  10.176  13.810  1.00  0.00     0.010 A 
ATOM     65  C   UNL     1       4.097  12.601  13.840  1.00  0.00     0.010 A 
ATOM     66  C   UNL     1       3.479  10.176  15.094  1.00  0.00     0.020 A 
ATOM     67  C   UNL     1       3.569  12.604  15.134  1.00  0.00     0.020 A 
ATOM     68  C   UNL     1       3.246  11.391  15.745  1.00  0.00     0.054 A 
BRANCH  68  69
ATOM     69  S   UNL     1       2.541  11.362  17.416  1.00  0.00     0.124 S 
ATOM     70  O   UNL     1       1.149  11.005  17.148  1.00  0.00    -0.237 OA
ATOM     71  O   UNL     1       3.335  10.334  18.083  1.00  0.00    -0.237 OA
ATOM     72  O   UNL     1       2.751  12.723  17.905  1.00  0.00    -0.744 OA
ENDBRANCH  68  69
ENDBRANCH  49  63
BRANCH  50  73
ATOM     73  C   UNL     1       7.691  11.525   3.763  1.00  0.00    -0.014 A 
ATOM     74  C   UNL     1       8.688  10.635   3.326  1.00  0.00     0.010 A 
ATOM     75  C   UNL     1       7.181  12.476   2.860  1.00  0.00     0.010 A 
ATOM     76  C   UNL     1       9.177  10.706   2.018  1.00  0.00     0.020 A 
ATOM     77  C   UNL     1       7.650  12.533   1.544  1.00  0.00     0.020 A 
ATOM     78  C   UNL     1       8.654  11.654   1.134  1.00  0.00     0.054 A 
BRANCH  78  79
ATOM     79  S   UNL     1       9.271  11.699  -0.572  1.00  0.00     0.124 S 
ATOM     80  O   UNL     1      10.585  12.312  -0.404  1.00  0.00    -0.237 OA
ATOM     81  O   UNL     1       9.275  10.286  -0.944  1.00  0.00    -0.237 OA
ATOM     82  O   UNL     1       8.283  12.517  -1.272  1.00  0.00    -0.744 OA
ENDBRANCH  78  79
ENDBRANCH  50  73
BRANCH  62  83
ATOM     83  C   UNL     1      10.568  13.040   9.939  1.00  0.00    -0.014 A 
ATOM     84  C   UNL     1      11.004  14.355   9.700  1.00  0.00     0.010 A 
ATOM     85  C   UNL     1      11.417  12.151  10.623  1.00  0.00     0.010 A 
ATOM     86  C   UNL     1      12.277  14.763  10.112  1.00  0.00     0.020 A 
ATOM     87  C   UNL     1      12.679  12.563  11.060  1.00  0.00     0.020 A 
ATOM     88  C   UNL     1      13.107  13.864  10.789  1.00  0.00     0.054 A 
BRANCH  88  89
ATOM     89  S   UNL     1      14.735  14.429  11.354  1.00  0.00     0.124 S 
ATOM     90  O   UNL     1      15.496  14.460  10.108  1.00  0.00    -0.237 OA
ATOM     91  O   UNL     1      14.438  15.734  11.941  1.00  0.00    -0.237 OA
ATOM     92  O   UNL     1      15.146  13.403  12.310  1.00  0.00    -0.744 OA
ENDBRANCH  88  89
ENDBRANCH  62  83
ENDBRANCH  36  37
ENDBRANCH  29  31
ENDBRANCH  28  29
ENDBRANCH  27  28
ENDBRANCH  26  27
ENDBRANCH  25  26
ENDBRANCH  24  25
ENDBRANCH   1  24
TORSDOF 25
