REMARK SMILES Cn1c(SCC(=O)Nc2cccc(C(=O)OCCOCCOCCOC(=O)c3ccc(-c4c5nc(c(-c6ccc(S(=O)(=O)[O-])cc6)c6ccc([nH]6)c(-c6ccc(S(=O)(=O)[O-])cc6)c6nc(c(-c7ccc(S(=O)(=O)[O-])cc7)c7ccc4[nH]7)C=C6)C=C5)cc3)c2)nnc1[C@@H]1CCCN1C(=O)c1ccccc1Cl
REMARK SMILES IDX 18 1 17 2 16 3 14 4 15 5 13 6 9 7 10 8 88 9 11 10 12 11 8 12
REMARK SMILES IDX 6 13 7 14 5 16 4 17 3 18 1 19 2 20 91 21 89 22 90 23 92 24
REMARK SMILES IDX 93 25 96 26 94 27 95 28 97 29 98 30 99 31 100 32 104 33
REMARK SMILES IDX 101 34 103 35 105 36 102 37 19 38 20 39 21 40 22 41 23 42
REMARK SMILES IDX 24 43 25 44 26 45 27 46 28 47 29 48 87 49 30 50 86 51 31 52
REMARK SMILES IDX 32 53 33 54 80 55 34 56 85 57 79 58 81 59 35 60 84 61 78 62
REMARK SMILES IDX 77 63 36 65 66 66 47 67 65 68 48 69 51 70 64 71 82 72 49 73
REMARK SMILES IDX 50 74 63 76 83 77 52 78 37 79 38 80 46 81 39 82 45 83 40 84
REMARK SMILES IDX 41 85 42 86 43 87 44 88 67 89 68 90 76 91 69 92 75 93 70 94
REMARK SMILES IDX 71 95 72 96 73 97 74 98 53 99 54 100 62 101 55 102 61 103
REMARK SMILES IDX 56 104 57 105 58 106 59 107 60 108
REMARK H PARENT 8 15 81 64 51 75
REMARK Flexibility Score: inf
ROOT
ATOM      1  C   UNL     1      -4.193   4.522   0.058  1.00  0.00     0.202 C 
ENDROOT
BRANCH   1   2
ATOM      2  C   UNL     1      -2.780   4.766  -0.498  1.00  0.00     0.261 C 
BRANCH   2   3
ATOM      3  O   UNL     1      -1.713   4.714   0.452  1.00  0.00    -0.460 OA
BRANCH   3   4
ATOM      4  C   UNL     1      -1.114   5.891   0.759  1.00  0.00     0.338 C 
ATOM      5  O   UNL     1      -1.365   6.982   0.277  1.00  0.00    -0.246 OA
BRANCH   4   6
ATOM      6  C   UNL     1      -0.134   5.695   1.859  1.00  0.00     0.062 A 
ATOM      7  C   UNL     1       1.592   4.348   2.891  1.00  0.00     0.042 A 
ATOM      8  C   UNL     1       1.823   5.351   3.827  1.00  0.00     0.026 A 
ATOM      9  C   UNL     1       0.533   4.482   2.007  1.00  0.00     0.041 A 
ATOM     10  C   UNL     1       1.092   6.541   3.759  1.00  0.00     0.003 A 
ATOM     11  C   UNL     1       0.148   6.733   2.744  1.00  0.00     0.016 A 
BRANCH   7  12
ATOM     12  N   UNL     1       2.457   3.250   2.851  1.00  0.00    -0.325 N 
ATOM     13  C   UNL     1       2.941   2.574   1.764  1.00  0.00     0.234 C 
ATOM     14  O   UNL     1       3.750   1.664   1.987  1.00  0.00    -0.274 OA
ATOM     15  H   UNL     1       2.761   2.918   3.726  1.00  0.00     0.169 HD
BRANCH  13  16
ATOM     16  C   UNL     1       2.704   3.035   0.340  1.00  0.00     0.178 C 
BRANCH  16  17
ATOM     17  S   UNL     1       1.232   2.534  -0.530  1.00  0.00    -0.076 SA
BRANCH  17  18
ATOM     18  C   UNL     1       0.559   1.079   0.106  1.00  0.00     0.191 A 
ATOM     19  C   UNL     1       2.572  -0.405   0.417  1.00  0.00     0.154 C 
ATOM     20  N   UNL     1       1.182  -0.136   0.188  1.00  0.00    -0.307 N 
ATOM     21  C   UNL     1       0.181  -1.071   0.037  1.00  0.00     0.156 A 
ATOM     22  N   UNL     1      -0.741   0.892   0.174  1.00  0.00    -0.123 NA
ATOM     23  N   UNL     1      -0.980  -0.457   0.148  1.00  0.00    -0.132 NA
BRANCH  21  24
ATOM     24  C   UNL     1       0.340  -2.515  -0.270  1.00  0.00     0.154 C 
ATOM     25  C   UNL     1       0.997  -3.306   0.868  1.00  0.00     0.035 C 
ATOM     26  N   UNL     1       1.152  -2.824  -1.457  1.00  0.00    -0.328 N 
ATOM     27  C   UNL     1       1.614  -4.507   0.167  1.00  0.00     0.024 C 
ATOM     28  C   UNL     1       1.964  -4.006  -1.225  1.00  0.00     0.120 C 
BRANCH  26  29
ATOM     29  C   UNL     1       1.028  -2.375  -2.768  1.00  0.00     0.255 C 
ATOM     30  O   UNL     1       1.445  -3.018  -3.731  1.00  0.00    -0.269 OA
BRANCH  29  31
ATOM     31  C   UNL     1       0.496  -1.035  -3.066  1.00  0.00     0.058 A 
ATOM     32  C   UNL     1      -0.862  -0.865  -3.350  1.00  0.00     0.015 A 
ATOM     33  C   UNL     1       1.382   0.041  -3.223  1.00  0.00     0.053 A 
ATOM     34  C   UNL     1      -1.344   0.401  -3.703  1.00  0.00     0.001 A 
ATOM     35  C   UNL     1       0.893   1.300  -3.582  1.00  0.00     0.021 A 
ATOM     36  Cl  UNL     1       3.087  -0.113  -2.976  1.00  0.00    -0.083 Cl
ATOM     37  C   UNL     1      -0.472   1.486  -3.796  1.00  0.00     0.002 A 
ENDBRANCH  29  31
ENDBRANCH  26  29
ENDBRANCH  21  24
ENDBRANCH  17  18
ENDBRANCH  16  17
ENDBRANCH  13  16
ENDBRANCH   7  12
ENDBRANCH   4   6
ENDBRANCH   3   4
ENDBRANCH   2   3
ENDBRANCH   1   2
BRANCH   1  38
ATOM     38  O   UNL     1      -4.612   4.973   1.335  1.00  0.00    -0.376 OA
BRANCH  38  39
ATOM     39  C   UNL     1      -3.719   4.959   2.432  1.00  0.00     0.188 C 
BRANCH  39  40
ATOM     40  C   UNL     1      -2.987   3.658   2.816  1.00  0.00     0.188 C 
BRANCH  40  41
ATOM     41  O   UNL     1      -3.216   2.514   2.040  1.00  0.00    -0.376 OA
BRANCH  41  42
ATOM     42  C   UNL     1      -4.416   1.779   2.173  1.00  0.00     0.202 C 
BRANCH  42  43
ATOM     43  C   UNL     1      -5.492   1.991   3.261  1.00  0.00     0.261 C 
BRANCH  43  44
ATOM     44  O   UNL     1      -5.456   3.190   4.041  1.00  0.00    -0.460 OA
BRANCH  44  45
ATOM     45  C   UNL     1      -4.951   3.065   5.298  1.00  0.00     0.338 C 
ATOM     46  O   UNL     1      -4.532   2.057   5.825  1.00  0.00    -0.246 OA
BRANCH  45  47
ATOM     47  C   UNL     1      -4.785   4.421   5.870  1.00  0.00     0.060 A 
ATOM     48  C   UNL     1      -3.487   4.897   6.110  1.00  0.00     0.016 A 
ATOM     49  C   UNL     1      -5.893   5.212   6.169  1.00  0.00     0.016 A 
ATOM     50  C   UNL     1      -3.294   6.161   6.667  1.00  0.00     0.010 A 
ATOM     51  C   UNL     1      -5.699   6.468   6.755  1.00  0.00     0.010 A 
ATOM     52  C   UNL     1      -4.401   6.936   7.032  1.00  0.00    -0.014 A 
BRANCH  52  53
ATOM     53  C   UNL     1      -4.210   8.143   7.873  1.00  0.00     0.031 A 
ATOM     54  C   UNL     1      -4.428   8.025   9.357  1.00  0.00     0.074 A 
ATOM     55  C   UNL     1      -3.843   9.322   7.340  1.00  0.00     0.049 A 
ATOM     56  N   UNL     1      -4.369   8.947  10.282  1.00  0.00    -0.248 NA
ATOM     57  C   UNL     1      -4.764   6.684   9.860  1.00  0.00     0.031 C 
ATOM     58  C   UNL     1      -3.564   9.560   5.925  1.00  0.00     0.029 A 
ATOM     59  N   UNL     1      -3.660  10.546   7.934  1.00  0.00    -0.354 N 
ATOM     60  C   UNL     1      -4.676   8.303  11.475  1.00  0.00     0.074 A 
ATOM     61  C   UNL     1      -4.951   6.920  11.149  1.00  0.00     0.031 C 
ATOM     62  C   UNL     1      -3.266  10.861   5.757  1.00  0.00     0.029 A 
ATOM     63  C   UNL     1      -3.368  11.550   7.043  1.00  0.00     0.049 A 
ATOM     64  H   UNL     1      -3.731  10.690   8.905  1.00  0.00     0.167 HD
ATOM     65  C   UNL     1      -4.723   8.812  12.730  1.00  0.00     0.031 A 
ATOM     66  C   UNL     1      -3.230  12.878   7.236  1.00  0.00     0.031 A 
ATOM     67  C   UNL     1      -4.484  10.196  13.046  1.00  0.00     0.049 A 
ATOM     68  C   UNL     1      -3.359  13.444   8.626  1.00  0.00     0.074 A 
ATOM     69  C   UNL     1      -4.492  10.810  14.286  1.00  0.00     0.029 A 
ATOM     70  N   UNL     1      -4.217  11.188  12.112  1.00  0.00    -0.354 N 
ATOM     71  N   UNL     1      -3.610  12.818   9.752  1.00  0.00    -0.248 NA
ATOM     72  C   UNL     1      -3.176  14.895   8.772  1.00  0.00     0.031 C 
ATOM     73  C   UNL     1      -4.300  12.183  14.095  1.00  0.00     0.029 A 
ATOM     74  C   UNL     1      -4.095  12.415  12.743  1.00  0.00     0.049 A 
ATOM     75  H   UNL     1      -4.128  11.040  11.143  1.00  0.00     0.167 HD
ATOM     76  C   UNL     1      -3.597  13.796  10.743  1.00  0.00     0.074 A 
ATOM     77  C   UNL     1      -3.293  15.050  10.085  1.00  0.00     0.031 C 
ATOM     78  C   UNL     1      -3.813  13.664  12.077  1.00  0.00     0.031 A 
BRANCH  65  79
ATOM     79  C   UNL     1      -5.107   7.865  13.839  1.00  0.00    -0.014 A 
ATOM     80  C   UNL     1      -4.269   6.799  14.219  1.00  0.00     0.010 A 
ATOM     81  C   UNL     1      -6.337   8.033  14.500  1.00  0.00     0.010 A 
ATOM     82  C   UNL     1      -4.687   5.880  15.185  1.00  0.00     0.020 A 
ATOM     83  C   UNL     1      -6.742   7.137  15.493  1.00  0.00     0.020 A 
ATOM     84  C   UNL     1      -5.926   6.050  15.809  1.00  0.00     0.054 A 
BRANCH  84  85
ATOM     85  S   UNL     1      -6.456   4.827  17.039  1.00  0.00     0.124 S 
ATOM     86  O   UNL     1      -6.755   3.668  16.201  1.00  0.00    -0.237 OA
ATOM     87  O   UNL     1      -5.276   4.697  17.890  1.00  0.00    -0.237 OA
ATOM     88  O   UNL     1      -7.613   5.451  17.674  1.00  0.00    -0.744 OA
ENDBRANCH  84  85
ENDBRANCH  65  79
BRANCH  66  89
ATOM     89  C   UNL     1      -2.973  13.761   6.064  1.00  0.00    -0.014 A 
ATOM     90  C   UNL     1      -1.719  14.365   5.877  1.00  0.00     0.010 A 
ATOM     91  C   UNL     1      -3.978  13.958   5.098  1.00  0.00     0.010 A 
ATOM     92  C   UNL     1      -1.469  15.139   4.739  1.00  0.00     0.020 A 
ATOM     93  C   UNL     1      -3.724  14.706   3.946  1.00  0.00     0.020 A 
ATOM     94  C   UNL     1      -2.469  15.292   3.773  1.00  0.00     0.054 A 
BRANCH  94  95
ATOM     95  S   UNL     1      -2.082  16.208   2.255  1.00  0.00     0.124 S 
ATOM     96  O   UNL     1      -1.984  17.580   2.742  1.00  0.00    -0.237 OA
ATOM     97  O   UNL     1      -0.825  15.595   1.833  1.00  0.00    -0.237 OA
ATOM     98  O   UNL     1      -3.224  15.931   1.387  1.00  0.00    -0.744 OA
ENDBRANCH  94  95
ENDBRANCH  66  89
BRANCH  78  99
ATOM     99  C   UNL     1      -3.710  14.908  12.927  1.00  0.00    -0.014 A 
ATOM    100  C   UNL     1      -4.671  15.931  12.850  1.00  0.00     0.010 A 
ATOM    101  C   UNL     1      -2.658  15.030  13.855  1.00  0.00     0.010 A 
ATOM    102  C   UNL     1      -4.561  17.069  13.657  1.00  0.00     0.020 A 
ATOM    103  C   UNL     1      -2.563  16.149  14.686  1.00  0.00     0.020 A 
ATOM    104  C   UNL     1      -3.507  17.170  14.570  1.00  0.00     0.054 A 
BRANCH 104 105
ATOM    105  S   UNL     1      -3.405  18.642  15.627  1.00  0.00     0.124 S 
ATOM    106  O   UNL     1      -3.007  19.674  14.673  1.00  0.00    -0.237 OA
ATOM    107  O   UNL     1      -4.765  18.757  16.147  1.00  0.00    -0.237 OA
ATOM    108  O   UNL     1      -2.392  18.287  16.618  1.00  0.00    -0.744 OA
ENDBRANCH 104 105
ENDBRANCH  78  99
ENDBRANCH  52  53
ENDBRANCH  45  47
ENDBRANCH  44  45
ENDBRANCH  43  44
ENDBRANCH  42  43
ENDBRANCH  41  42
ENDBRANCH  40  41
ENDBRANCH  39  40
ENDBRANCH  38  39
ENDBRANCH   1  38
TORSDOF 27
