REMARK SMILES NS(=O)(=O)c1ccc(N2N=C(C(=O)OCCOCCOCCOC(=O)c3ccc(-c4c5nc(c(-c6ccc(S(=O)(=O)[O-])cc6)c6ccc([nH]6)c(-c6ccc(S(=O)(=O)[O-])cc6)c6nc(c(-c7ccc(S(=O)(=O)[O-])cc7)c7ccc4[nH]7)C=C6)C=C5)cc3)C[C@H]2c2ccco2)cc1
REMARK SMILES IDX 18 1 17 2 16 3 15 4 14 5 12 6 13 7 11 8 9 9 10 10 87 11
REMARK SMILES IDX 86 12 8 13 5 14 6 15 94 16 7 17 93 18 2 19 3 20 4 21 1 22
REMARK SMILES IDX 88 25 89 26 92 27 90 28 91 29 19 30 20 31 21 32 22 33 23 34
REMARK SMILES IDX 24 35 25 36 26 37 27 38 85 39 28 40 84 41 29 42 30 43 31 44
REMARK SMILES IDX 78 45 32 46 83 47 77 48 79 49 33 50 82 51 76 52 75 53 34 55
REMARK SMILES IDX 64 56 45 57 63 58 46 59 49 60 62 61 80 62 47 63 48 64 61 66
REMARK SMILES IDX 81 67 50 68 35 69 36 70 44 71 37 72 43 73 38 74 39 75 40 76
REMARK SMILES IDX 41 77 42 78 65 79 66 80 74 81 67 82 73 83 68 84 69 85 70 86
REMARK SMILES IDX 71 87 72 88 51 89 52 90 60 91 53 92 59 93 54 94 55 95 56 96
REMARK SMILES IDX 57 97 58 98
REMARK H PARENT 1 23 1 24 79 54 49 65
REMARK Flexibility Score: inf
ROOT
ATOM      1  C   UNL     1       3.584   6.868  -8.173  1.00  0.00     0.188 C 
ENDROOT
BRANCH   1   2
ATOM      2  O   UNL     1       3.411   7.751  -9.268  1.00  0.00    -0.376 OA
BRANCH   2   3
ATOM      3  C   UNL     1       3.009   9.095  -9.048  1.00  0.00     0.202 C 
BRANCH   3   4
ATOM      4  C   UNL     1       2.035   9.494  -7.925  1.00  0.00     0.261 C 
BRANCH   4   5
ATOM      5  O   UNL     1       2.252   8.834  -6.672  1.00  0.00    -0.459 OA
BRANCH   5   6
ATOM      6  C   UNL     1       1.186   8.185  -6.158  1.00  0.00     0.354 C 
ATOM      7  O   UNL     1       0.033   8.224  -6.540  1.00  0.00    -0.245 OA
BRANCH   6   8
ATOM      8  C   UNL     1       1.648   7.271  -5.050  1.00  0.00     0.148 C 
ATOM      9  N   UNL     1       1.972   5.516  -3.897  1.00  0.00    -0.254 N 
ATOM     10  N   UNL     1       1.425   5.991  -5.058  1.00  0.00    -0.169 NA
ATOM     11  C   UNL     1       2.289   6.612  -2.954  1.00  0.00     0.180 C 
ATOM     12  C   UNL     1       2.479   7.791  -3.921  1.00  0.00     0.101 C 
BRANCH   9  13
ATOM     13  C   UNL     1       1.619   4.237  -3.473  1.00  0.00     0.060 A 
ATOM     14  C   UNL     1       0.977   1.668  -2.516  1.00  0.00     0.082 A 
ATOM     15  C   UNL     1       2.197   1.885  -3.160  1.00  0.00     0.024 A 
ATOM     16  C   UNL     1       0.050   2.703  -2.400  1.00  0.00     0.024 A 
ATOM     17  C   UNL     1       2.515   3.169  -3.625  1.00  0.00     0.029 A 
ATOM     18  C   UNL     1       0.368   3.970  -2.898  1.00  0.00     0.029 A 
BRANCH  14  19
ATOM     19  S   UNL     1       0.572   0.060  -1.901  1.00  0.00     0.238 S 
ATOM     20  O   UNL     1       1.323  -0.941  -2.623  1.00  0.00    -0.207 OA
ATOM     21  O   UNL     1      -0.851  -0.033  -1.680  1.00  0.00    -0.207 OA
BRANCH  19  22
ATOM     22  N   UNL     1       1.251   0.095  -0.358  1.00  0.00    -0.225 NA
ATOM     23  H   UNL     1       1.081  -0.795   0.109  1.00  0.00     0.137 HD
ATOM     24  H   UNL     1       0.827   0.849   0.183  1.00  0.00     0.137 HD
ENDBRANCH  19  22
ENDBRANCH  14  19
ENDBRANCH   9  13
BRANCH  11  25
ATOM     25  C   UNL     1       1.268   6.934  -1.895  1.00  0.00     0.128 A 
ATOM     26  C   UNL     1       0.930   6.331  -0.698  1.00  0.00     0.048 A 
ATOM     27  O   UNL     1       0.465   8.023  -2.095  1.00  0.00    -0.467 OA
ATOM     28  C   UNL     1      -0.155   7.067  -0.166  1.00  0.00     0.042 A 
ATOM     29  C   UNL     1      -0.389   8.095  -1.046  1.00  0.00     0.195 A 
ENDBRANCH  11  25
ENDBRANCH   6   8
ENDBRANCH   5   6
ENDBRANCH   4   5
ENDBRANCH   3   4
ENDBRANCH   2   3
ENDBRANCH   1   2
BRANCH   1  30
ATOM     30  C   UNL     1       4.602   7.231  -7.074  1.00  0.00     0.188 C 
BRANCH  30  31
ATOM     31  O   UNL     1       5.104   8.546  -7.087  1.00  0.00    -0.376 OA
BRANCH  31  32
ATOM     32  C   UNL     1       6.242   8.859  -7.876  1.00  0.00     0.202 C 
BRANCH  32  33
ATOM     33  C   UNL     1       6.952   7.924  -8.881  1.00  0.00     0.261 C 
BRANCH  33  34
ATOM     34  O   UNL     1       6.435   6.610  -9.092  1.00  0.00    -0.460 OA
BRANCH  34  35
ATOM     35  C   UNL     1       7.043   5.614  -8.401  1.00  0.00     0.338 C 
ATOM     36  O   UNL     1       7.944   5.728  -7.588  1.00  0.00    -0.246 OA
BRANCH  35  37
ATOM     37  C   UNL     1       6.297   4.364  -8.642  1.00  0.00     0.060 A 
ATOM     38  C   UNL     1       5.557   3.798  -7.593  1.00  0.00     0.016 A 
ATOM     39  C   UNL     1       6.347   3.746  -9.891  1.00  0.00     0.016 A 
ATOM     40  C   UNL     1       4.876   2.597  -7.787  1.00  0.00     0.010 A 
ATOM     41  C   UNL     1       5.686   2.530 -10.075  1.00  0.00     0.010 A 
ATOM     42  C   UNL     1       4.974   1.935  -9.017  1.00  0.00    -0.014 A 
BRANCH  42  43
ATOM     43  C   UNL     1       4.502   0.536  -9.147  1.00  0.00     0.031 A 
ATOM     44  C   UNL     1       5.519  -0.569  -9.058  1.00  0.00     0.074 A 
ATOM     45  C   UNL     1       3.203   0.249  -9.342  1.00  0.00     0.049 A 
ATOM     46  N   UNL     1       5.367  -1.855  -9.236  1.00  0.00    -0.248 NA
ATOM     47  C   UNL     1       6.898  -0.165  -8.730  1.00  0.00     0.031 C 
ATOM     48  C   UNL     1       2.115   1.225  -9.386  1.00  0.00     0.029 A 
ATOM     49  N   UNL     1       2.583  -0.958  -9.554  1.00  0.00    -0.354 N 
ATOM     50  C   UNL     1       6.628  -2.411  -9.059  1.00  0.00     0.074 A 
ATOM     51  C   UNL     1       7.540  -1.322  -8.787  1.00  0.00     0.031 C 
ATOM     52  C   UNL     1       0.961   0.578  -9.626  1.00  0.00     0.029 A 
ATOM     53  C   UNL     1       1.234  -0.848  -9.795  1.00  0.00     0.049 A 
ATOM     54  H   UNL     1       3.059  -1.819  -9.535  1.00  0.00     0.167 HD
ATOM     55  C   UNL     1       6.994  -3.714  -9.116  1.00  0.00     0.031 A 
ATOM     56  C   UNL     1       0.331  -1.788 -10.141  1.00  0.00     0.031 A 
ATOM     57  C   UNL     1       6.084  -4.791  -9.403  1.00  0.00     0.049 A 
ATOM     58  C   UNL     1       0.778  -3.222 -10.285  1.00  0.00     0.074 A 
ATOM     59  C   UNL     1       6.353  -6.146  -9.476  1.00  0.00     0.029 A 
ATOM     60  N   UNL     1       4.733  -4.636  -9.673  1.00  0.00    -0.354 N 
ATOM     61  N   UNL     1       1.971  -3.739 -10.106  1.00  0.00    -0.248 NA
ATOM     62  C   UNL     1      -0.247  -4.203 -10.672  1.00  0.00     0.031 C 
ATOM     63  C   UNL     1       5.179  -6.803  -9.855  1.00  0.00     0.029 A 
ATOM     64  C   UNL     1       4.161  -5.867  -9.942  1.00  0.00     0.049 A 
ATOM     65  H   UNL     1       4.251  -3.777  -9.673  1.00  0.00     0.167 HD
ATOM     66  C   UNL     1       1.830  -5.107 -10.318  1.00  0.00     0.074 A 
ATOM     67  C   UNL     1       0.436  -5.339 -10.633  1.00  0.00     0.031 C 
ATOM     68  C   UNL     1       2.768  -6.085 -10.249  1.00  0.00     0.031 A 
BRANCH  55  69
ATOM     69  C   UNL     1       8.450  -4.038  -8.907  1.00  0.00    -0.014 A 
ATOM     70  C   UNL     1       9.062  -3.890  -7.649  1.00  0.00     0.010 A 
ATOM     71  C   UNL     1       9.211  -4.534  -9.982  1.00  0.00     0.010 A 
ATOM     72  C   UNL     1      10.416  -4.193  -7.481  1.00  0.00     0.020 A 
ATOM     73  C   UNL     1      10.557  -4.869  -9.810  1.00  0.00     0.020 A 
ATOM     74  C   UNL     1      11.155  -4.681  -8.563  1.00  0.00     0.054 A 
BRANCH  74  75
ATOM     75  S   UNL     1      12.904  -5.088  -8.308  1.00  0.00     0.124 S 
ATOM     76  O   UNL     1      13.501  -3.765  -8.145  1.00  0.00    -0.237 OA
ATOM     77  O   UNL     1      12.867  -5.913  -7.104  1.00  0.00    -0.237 OA
ATOM     78  O   UNL     1      13.279  -5.793  -9.532  1.00  0.00    -0.744 OA
ENDBRANCH  74  75
ENDBRANCH  55  69
BRANCH  56  79
ATOM     79  C   UNL     1      -1.086  -1.403 -10.400  1.00  0.00    -0.014 A 
ATOM     80  C   UNL     1      -2.117  -1.833  -9.546  1.00  0.00     0.010 A 
ATOM     81  C   UNL     1      -1.413  -0.609 -11.515  1.00  0.00     0.010 A 
ATOM     82  C   UNL     1      -3.448  -1.493  -9.812  1.00  0.00     0.020 A 
ATOM     83  C   UNL     1      -2.738  -0.240 -11.767  1.00  0.00     0.020 A 
ATOM     84  C   UNL     1      -3.750  -0.696 -10.920  1.00  0.00     0.054 A 
BRANCH  84  85
ATOM     85  S   UNL     1      -5.479  -0.236 -11.223  1.00  0.00     0.124 S 
ATOM     86  O   UNL     1      -6.062  -1.504 -11.649  1.00  0.00    -0.237 OA
ATOM     87  O   UNL     1      -5.910   0.251  -9.915  1.00  0.00    -0.237 OA
ATOM     88  O   UNL     1      -5.385   0.788 -12.261  1.00  0.00    -0.744 OA
ENDBRANCH  84  85
ENDBRANCH  56  79
BRANCH  68  89
ATOM     89  C   UNL     1       2.318  -7.509 -10.464  1.00  0.00    -0.014 A 
ATOM     90  C   UNL     1       1.931  -7.978 -11.731  1.00  0.00     0.010 A 
ATOM     91  C   UNL     1       2.354  -8.411  -9.384  1.00  0.00     0.010 A 
ATOM     92  C   UNL     1       1.561  -9.315 -11.907  1.00  0.00     0.020 A 
ATOM     93  C   UNL     1       2.018  -9.755  -9.562  1.00  0.00     0.020 A 
ATOM     94  C   UNL     1       1.610 -10.196 -10.822  1.00  0.00     0.054 A 
BRANCH  94  95
ATOM     95  S   UNL     1       1.177 -11.938 -11.090  1.00  0.00     0.124 S 
ATOM     96  O   UNL     1      -0.268 -11.866 -11.288  1.00  0.00    -0.237 OA
ATOM     97  O   UNL     1       1.958 -12.282 -12.275  1.00  0.00    -0.237 OA
ATOM     98  O   UNL     1       1.604 -12.596  -9.857  1.00  0.00    -0.744 OA
ENDBRANCH  94  95
ENDBRANCH  68  89
ENDBRANCH  42  43
ENDBRANCH  35  37
ENDBRANCH  34  35
ENDBRANCH  33  34
ENDBRANCH  32  33
ENDBRANCH  31  32
ENDBRANCH  30  31
ENDBRANCH   1  30
TORSDOF 24
