REMARK SMILES Cc1ccc(OCCC[N@H+]2CCCC[C@@H]2C(=O)OCCOCCOCCOC(=O)c2ccc(-c3c4nc(c(-c5ccc(S(=O)(=O)[O-])cc5)c5ccc([nH]5)c(-c5ccc(S(=O)(=O)[O-])cc5)c5nc(c(-c6ccc(S(=O)(=O)[O-])cc6)c6ccc3[nH]6)C=C5)C=C4)cc2)cc1C
REMARK SMILES IDX 22 1 21 2 20 3 19 4 18 5 16 6 17 7 15 8 10 9 11 10 12 12
REMARK SMILES IDX 14 13 13 14 9 15 8 16 7 17 6 18 5 19 1 20 2 21 3 22 91 23
REMARK SMILES IDX 4 24 90 25 92 26 23 27 24 28 25 29 26 30 27 31 28 32 29 33
REMARK SMILES IDX 30 34 31 35 89 36 32 37 88 38 33 39 34 40 35 41 82 42 36 43
REMARK SMILES IDX 87 44 81 45 83 46 37 47 86 48 80 49 79 50 38 52 68 53 49 54
REMARK SMILES IDX 67 55 50 56 53 57 66 58 84 59 51 60 52 61 65 63 85 64 54 65
REMARK SMILES IDX 39 66 40 67 48 68 41 69 47 70 42 71 43 72 44 73 45 74 46 75
REMARK SMILES IDX 69 76 70 77 78 78 71 79 77 80 72 81 73 82 74 83 75 84 76 85
REMARK SMILES IDX 55 86 56 87 64 88 57 89 63 90 58 91 59 92 60 93 61 94 62 95
REMARK H PARENT 10 11 83 51 53 62
REMARK Flexibility Score: inf
ROOT
ATOM      1  C   UNL     1       1.448   1.515  -1.890  1.00  0.00     0.188 C 
ENDROOT
BRANCH   1   2
ATOM      2  O   UNL     1       1.149   0.225  -2.418  1.00  0.00    -0.376 OA
BRANCH   2   3
ATOM      3  C   UNL     1       0.042  -0.424  -1.804  1.00  0.00     0.202 C 
BRANCH   3   4
ATOM      4  C   UNL     1      -1.315  -0.049  -2.395  1.00  0.00     0.261 C 
BRANCH   4   5
ATOM      5  O   UNL     1      -2.101   1.040  -1.844  1.00  0.00    -0.459 OA
BRANCH   5   6
ATOM      6  C   UNL     1      -1.839   1.705  -0.688  1.00  0.00     0.364 C 
ATOM      7  O   UNL     1      -0.880   1.539   0.036  1.00  0.00    -0.245 OA
BRANCH   6   8
ATOM      8  C   UNL     1      -2.901   2.763  -0.388  1.00  0.00     0.295 C 
ATOM      9  N   UNL     1      -4.225   2.138  -0.062  1.00  0.00    -0.323 N 
ATOM     10  C   UNL     1      -5.246   3.207   0.064  1.00  0.00     0.262 C 
ATOM     11  H   UNL     1      -4.473   1.486  -0.806  1.00  0.00     0.348 HD
ATOM     12  C   UNL     1      -5.325   4.133  -1.152  1.00  0.00     0.062 C 
ATOM     13  C   UNL     1      -2.924   3.731  -1.583  1.00  0.00     0.078 C 
ATOM     14  C   UNL     1      -3.985   4.799  -1.418  1.00  0.00     0.013 C 
BRANCH   9  15
ATOM     15  C   UNL     1      -4.152   1.399   1.234  1.00  0.00     0.266 C 
BRANCH  15  16
ATOM     16  C   UNL     1      -4.592  -0.080   1.188  1.00  0.00     0.103 C 
BRANCH  16  17
ATOM     17  C   UNL     1      -3.644  -1.058   0.483  1.00  0.00     0.235 C 
BRANCH  17  18
ATOM     18  O   UNL     1      -2.949  -1.940   1.394  1.00  0.00    -0.493 OA
BRANCH  18  19
ATOM     19  C   UNL     1      -1.672  -1.520   1.658  1.00  0.00     0.119 A 
ATOM     20  C   UNL     1       2.257   0.180   2.084  1.00  0.00     0.044 C 
ATOM     21  C   UNL     1       0.926  -0.519   2.011  1.00  0.00    -0.048 A 
ATOM     22  C   UNL     1      -0.171   0.084   2.643  1.00  0.00     0.007 A 
ATOM     23  C   UNL     1       0.735  -1.737   1.326  1.00  0.00    -0.045 A 
ATOM     24  C   UNL     1      -1.455  -0.433   2.491  1.00  0.00     0.047 A 
ATOM     25  C   UNL     1      -0.580  -2.222   1.144  1.00  0.00     0.050 A 
ATOM     26  C   UNL     1       1.900  -2.508   0.767  1.00  0.00     0.045 C 
ENDBRANCH  18  19
ENDBRANCH  17  18
ENDBRANCH  16  17
ENDBRANCH  15  16
ENDBRANCH   9  15
ENDBRANCH   6   8
ENDBRANCH   5   6
ENDBRANCH   4   5
ENDBRANCH   3   4
ENDBRANCH   2   3
ENDBRANCH   1   2
BRANCH   1  27
ATOM     27  C   UNL     1       0.762   2.622  -2.697  1.00  0.00     0.188 C 
BRANCH  27  28
ATOM     28  O   UNL     1       1.031   2.705  -4.098  1.00  0.00    -0.376 OA
BRANCH  28  29
ATOM     29  C   UNL     1       2.242   2.139  -4.579  1.00  0.00     0.202 C 
BRANCH  29  30
ATOM     30  C   UNL     1       3.516   2.961  -4.343  1.00  0.00     0.261 C 
BRANCH  30  31
ATOM     31  O   UNL     1       3.709   3.382  -2.980  1.00  0.00    -0.460 OA
BRANCH  31  32
ATOM     32  C   UNL     1       3.259   4.632  -2.713  1.00  0.00     0.338 C 
ATOM     33  O   UNL     1       2.756   5.409  -3.509  1.00  0.00    -0.246 OA
BRANCH  32  34
ATOM     34  C   UNL     1       3.327   4.933  -1.265  1.00  0.00     0.060 A 
ATOM     35  C   UNL     1       2.223   5.576  -0.690  1.00  0.00     0.016 A 
ATOM     36  C   UNL     1       4.495   4.745  -0.521  1.00  0.00     0.016 A 
ATOM     37  C   UNL     1       2.313   6.125   0.588  1.00  0.00     0.010 A 
ATOM     38  C   UNL     1       4.591   5.312   0.759  1.00  0.00     0.010 A 
ATOM     39  C   UNL     1       3.525   6.067   1.286  1.00  0.00    -0.014 A 
BRANCH  39  40
ATOM     40  C   UNL     1       3.747   7.036   2.392  1.00  0.00     0.031 A 
ATOM     41  C   UNL     1       4.452   8.333   2.067  1.00  0.00     0.074 A 
ATOM     42  C   UNL     1       3.272   6.829   3.634  1.00  0.00     0.049 A 
ATOM     43  N   UNL     1       4.731   9.345   2.849  1.00  0.00    -0.248 NA
ATOM     44  C   UNL     1       4.899   8.512   0.675  1.00  0.00     0.031 C 
ATOM     45  C   UNL     1       2.535   5.648   4.080  1.00  0.00     0.029 A 
ATOM     46  N   UNL     1       3.344   7.623   4.754  1.00  0.00    -0.354 N 
ATOM     47  C   UNL     1       5.396  10.269   2.049  1.00  0.00     0.074 A 
ATOM     48  C   UNL     1       5.501   9.691   0.728  1.00  0.00     0.031 C 
ATOM     49  C   UNL     1       2.234   5.790   5.384  1.00  0.00     0.029 A 
ATOM     50  C   UNL     1       2.770   7.061   5.869  1.00  0.00     0.049 A 
ATOM     51  H   UNL     1       3.766   8.512   4.756  1.00  0.00     0.167 HD
ATOM     52  C   UNL     1       5.873  11.493   2.375  1.00  0.00     0.031 A 
ATOM     53  C   UNL     1       2.698   7.515   7.138  1.00  0.00     0.031 A 
ATOM     54  C   UNL     1       5.762  12.088   3.679  1.00  0.00     0.049 A 
ATOM     55  C   UNL     1       3.272   8.868   7.484  1.00  0.00     0.074 A 
ATOM     56  C   UNL     1       6.186  13.341   4.089  1.00  0.00     0.029 A 
ATOM     57  N   UNL     1       5.190  11.478   4.782  1.00  0.00    -0.354 N 
ATOM     58  N   UNL     1       3.860   9.743   6.704  1.00  0.00    -0.248 NA
ATOM     59  C   UNL     1       3.153   9.300   8.886  1.00  0.00     0.031 C 
ATOM     60  C   UNL     1       5.917  13.467   5.455  1.00  0.00     0.029 A 
ATOM     61  C   UNL     1       5.273  12.317   5.880  1.00  0.00     0.049 A 
ATOM     62  H   UNL     1       4.785  10.580   4.785  1.00  0.00     0.167 HD
ATOM     63  C   UNL     1       4.152  10.838   7.514  1.00  0.00     0.074 A 
ATOM     64  C   UNL     1       3.658  10.524   8.838  1.00  0.00     0.031 C 
ATOM     65  C   UNL     1       4.773  12.000   7.192  1.00  0.00     0.031 A 
BRANCH  52  66
ATOM     66  C   UNL     1       6.592  12.271   1.307  1.00  0.00    -0.014 A 
ATOM     67  C   UNL     1       5.891  12.891   0.258  1.00  0.00     0.010 A 
ATOM     68  C   UNL     1       7.985  12.443   1.399  1.00  0.00     0.010 A 
ATOM     69  C   UNL     1       6.574  13.656  -0.691  1.00  0.00     0.020 A 
ATOM     70  C   UNL     1       8.668  13.226   0.466  1.00  0.00     0.020 A 
ATOM     71  C   UNL     1       7.958  13.821  -0.578  1.00  0.00     0.054 A 
BRANCH  71  72
ATOM     72  S   UNL     1       8.812  14.870  -1.787  1.00  0.00     0.124 S 
ATOM     73  O   UNL     1       8.800  14.027  -2.979  1.00  0.00    -0.237 OA
ATOM     74  O   UNL     1       7.956  16.053  -1.846  1.00  0.00    -0.237 OA
ATOM     75  O   UNL     1      10.127  15.087  -1.190  1.00  0.00    -0.744 OA
ENDBRANCH  71  72
ENDBRANCH  52  66
BRANCH  53  76
ATOM     76  C   UNL     1       2.086   6.673   8.204  1.00  0.00    -0.014 A 
ATOM     77  C   UNL     1       0.884   7.052   8.827  1.00  0.00     0.010 A 
ATOM     78  C   UNL     1       2.746   5.511   8.644  1.00  0.00     0.010 A 
ATOM     79  C   UNL     1       0.375   6.309   9.897  1.00  0.00     0.020 A 
ATOM     80  C   UNL     1       2.225   4.749   9.693  1.00  0.00     0.020 A 
ATOM     81  C   UNL     1       1.053   5.164  10.326  1.00  0.00     0.054 A 
BRANCH  81  82
ATOM     82  S   UNL     1       0.372   4.205  11.708  1.00  0.00     0.124 S 
ATOM     83  O   UNL     1       0.730   5.031  12.856  1.00  0.00    -0.237 OA
ATOM     84  O   UNL     1      -1.051   4.150  11.385  1.00  0.00    -0.237 OA
ATOM     85  O   UNL     1       1.074   2.926  11.612  1.00  0.00    -0.744 OA
ENDBRANCH  81  82
ENDBRANCH  53  76
BRANCH  65  86
ATOM     86  C   UNL     1       4.914  13.040   8.273  1.00  0.00    -0.014 A 
ATOM     87  C   UNL     1       5.800  12.863   9.351  1.00  0.00     0.010 A 
ATOM     88  C   UNL     1       4.167  14.230   8.192  1.00  0.00     0.010 A 
ATOM     89  C   UNL     1       5.897  13.832  10.354  1.00  0.00     0.020 A 
ATOM     90  C   UNL     1       4.282  15.214   9.177  1.00  0.00     0.020 A 
ATOM     91  C   UNL     1       5.130  14.998  10.265  1.00  0.00     0.054 A 
BRANCH  91  92
ATOM     92  S   UNL     1       5.274  16.246  11.574  1.00  0.00     0.124 S 
ATOM     93  O   UNL     1       4.497  15.643  12.653  1.00  0.00    -0.237 OA
ATOM     94  O   UNL     1       6.716  16.313  11.800  1.00  0.00    -0.237 OA
ATOM     95  O   UNL     1       4.688  17.443  10.977  1.00  0.00    -0.744 OA
ENDBRANCH  91  92
ENDBRANCH  65  86
ENDBRANCH  39  40
ENDBRANCH  32  34
ENDBRANCH  31  32
ENDBRANCH  30  31
ENDBRANCH  29  30
ENDBRANCH  28  29
ENDBRANCH  27  28
ENDBRANCH   1  27
TORSDOF 25
