REMARK SMILES CC(C)Cc1cc2c(cc1Cl)C=C(C(=O)OCCOCCOCCOC(=O)c1ccc(-c3c4nc(c(-c5ccc(S(=O)(=O)[O-])cc5)c5ccc([nH]5)c(-c5ccc(S(=O)(=O)[O-])cc5)c5nc(c(-c6ccc(S(=O)(=O)[O-])cc6)c6ccc3[nH]6)C=C5)C=C4)cc1)[C@H](C(F)(F)F)O2
REMARK SMILES IDX 21 1 20 2 19 3 18 4 17 5 16 6 14 7 15 8 13 9 5 10 6 11 10 12
REMARK SMILES IDX 7 13 9 14 11 15 8 16 93 17 12 18 88 19 4 20 2 21 1 22 3 23
REMARK SMILES IDX 89 24 90 25 91 26 92 27 22 28 23 29 24 30 25 31 26 32 27 33
REMARK SMILES IDX 28 34 29 35 87 36 30 37 86 38 31 39 32 40 33 41 80 42 34 43
REMARK SMILES IDX 85 44 79 45 81 46 35 47 84 48 78 49 77 50 36 52 66 53 47 54
REMARK SMILES IDX 65 55 48 56 51 57 64 58 82 59 49 60 50 61 63 63 83 64 52 65
REMARK SMILES IDX 37 66 38 67 46 68 39 69 45 70 40 71 41 72 42 73 43 74 44 75
REMARK SMILES IDX 67 76 68 77 76 78 69 79 75 80 70 81 71 82 72 83 73 84 74 85
REMARK SMILES IDX 53 86 54 87 62 88 55 89 61 90 56 91 57 92 58 93 59 94 60 95
REMARK H PARENT 81 51 51 62
REMARK Flexibility Score: inf
ROOT
ATOM      1  C   UNL     1      -1.557   5.611   5.262  1.00  0.00     0.188 C 
ENDROOT
BRANCH   1   2
ATOM      2  C   UNL     1      -2.013   7.016   4.820  1.00  0.00     0.188 C 
BRANCH   2   3
ATOM      3  O   UNL     1      -2.644   7.758   5.837  1.00  0.00    -0.376 OA
BRANCH   3   4
ATOM      4  C   UNL     1      -4.056   7.789   5.933  1.00  0.00     0.202 C 
BRANCH   4   5
ATOM      5  C   UNL     1      -4.998   6.679   5.428  1.00  0.00     0.261 C 
BRANCH   5   6
ATOM      6  O   UNL     1      -4.396   5.582   4.737  1.00  0.00    -0.460 OA
BRANCH   6   7
ATOM      7  C   UNL     1      -4.807   5.369   3.470  1.00  0.00     0.338 C 
ATOM      8  O   UNL     1      -5.642   6.011   2.857  1.00  0.00    -0.246 OA
BRANCH   7   9
ATOM      9  C   UNL     1      -4.021   4.285   2.857  1.00  0.00     0.087 C 
ATOM     10  C   UNL     1      -1.532   1.497  -0.516  1.00  0.00    -0.025 A 
ATOM     11  C   UNL     1      -2.363   1.217   0.585  1.00  0.00     0.052 A 
ATOM     12  C   UNL     1      -1.280   2.843  -0.830  1.00  0.00     0.045 A 
ATOM     13  C   UNL     1      -2.923   2.245   1.347  1.00  0.00     0.128 A 
ATOM     14  C   UNL     1      -1.813   3.871  -0.044  1.00  0.00     0.032 A 
ATOM     15  Cl  UNL     1      -0.374   3.310  -2.224  1.00  0.00    -0.084 Cl
ATOM     16  C   UNL     1      -2.638   3.575   1.044  1.00  0.00     0.019 A 
ATOM     17  O   UNL     1      -3.804   1.865   2.322  1.00  0.00    -0.475 OA
ATOM     18  C   UNL     1      -3.283   4.638   1.796  1.00  0.00     0.027 C 
ATOM     19  C   UNL     1      -4.220   2.861   3.304  1.00  0.00     0.316 C 
BRANCH  10  20
ATOM     20  C   UNL     1      -1.002   0.340  -1.338  1.00  0.00     0.040 C 
BRANCH  20  21
ATOM     21  C   UNL     1       0.523   0.119  -1.282  1.00  0.00    -0.013 C 
ATOM     22  C   UNL     1       1.023  -0.167   0.135  1.00  0.00     0.008 C 
ATOM     23  C   UNL     1       0.908  -1.035  -2.213  1.00  0.00     0.008 C 
ENDBRANCH  20  21
ENDBRANCH  10  20
BRANCH  19  24
ATOM     24  C   UNL     1      -3.591   2.475   4.654  1.00  0.00     0.430 C 
ATOM     25  F   UNL     1      -4.098   3.191   5.680  1.00  0.00    -0.167 F 
ATOM     26  F   UNL     1      -3.854   1.173   4.943  1.00  0.00    -0.167 F 
ATOM     27  F   UNL     1      -2.247   2.613   4.654  1.00  0.00    -0.167 F 
ENDBRANCH  19  24
ENDBRANCH   7   9
ENDBRANCH   6   7
ENDBRANCH   5   6
ENDBRANCH   4   5
ENDBRANCH   3   4
ENDBRANCH   2   3
ENDBRANCH   1   2
BRANCH   1  28
ATOM     28  O   UNL     1      -1.842   5.153   6.578  1.00  0.00    -0.376 OA
BRANCH  28  29
ATOM     29  C   UNL     1      -1.454   5.959   7.685  1.00  0.00     0.202 C 
BRANCH  29  30
ATOM     30  C   UNL     1       0.018   6.369   7.830  1.00  0.00     0.261 C 
BRANCH  30  31
ATOM     31  O   UNL     1       0.552   7.049   6.684  1.00  0.00    -0.460 OA
BRANCH  31  32
ATOM     32  C   UNL     1       1.558   6.405   6.039  1.00  0.00     0.338 C 
ATOM     33  O   UNL     1       2.080   5.347   6.348  1.00  0.00    -0.246 OA
BRANCH  32  34
ATOM     34  C   UNL     1       1.800   7.084   4.752  1.00  0.00     0.060 A 
ATOM     35  C   UNL     1       2.177   8.427   4.709  1.00  0.00     0.016 A 
ATOM     36  C   UNL     1       1.635   6.351   3.569  1.00  0.00     0.016 A 
ATOM     37  C   UNL     1       2.400   9.035   3.472  1.00  0.00     0.010 A 
ATOM     38  C   UNL     1       1.833   6.967   2.334  1.00  0.00     0.010 A 
ATOM     39  C   UNL     1       2.231   8.310   2.279  1.00  0.00    -0.014 A 
BRANCH  39  40
ATOM     40  C   UNL     1       2.603   8.913   0.979  1.00  0.00     0.031 A 
ATOM     41  C   UNL     1       1.573   9.520   0.077  1.00  0.00     0.074 A 
ATOM     42  C   UNL     1       3.899   8.888   0.617  1.00  0.00     0.049 A 
ATOM     43  N   UNL     1       1.751  10.133  -1.064  1.00  0.00    -0.248 NA
ATOM     44  C   UNL     1       0.169   9.433   0.505  1.00  0.00     0.031 C 
ATOM     45  C   UNL     1       4.979   8.317   1.424  1.00  0.00     0.029 A 
ATOM     46  N   UNL     1       4.530   9.354  -0.508  1.00  0.00    -0.354 N 
ATOM     47  C   UNL     1       0.488  10.532  -1.482  1.00  0.00     0.074 A 
ATOM     48  C   UNL     1      -0.454  10.050  -0.494  1.00  0.00     0.031 C 
ATOM     49  C   UNL     1       6.141   8.482   0.776  1.00  0.00     0.029 A 
ATOM     50  C   UNL     1       5.889   9.144  -0.502  1.00  0.00     0.049 A 
ATOM     51  H   UNL     1       4.056   9.797  -1.248  1.00  0.00     0.167 HD
ATOM     52  C   UNL     1       0.159  11.252  -2.580  1.00  0.00     0.031 A 
ATOM     53  C   UNL     1       6.830   9.448  -1.418  1.00  0.00     0.031 A 
ATOM     54  C   UNL     1       1.111  11.703  -3.565  1.00  0.00     0.049 A 
ATOM     55  C   UNL     1       6.427  10.180  -2.667  1.00  0.00     0.074 A 
ATOM     56  C   UNL     1       0.873  12.471  -4.691  1.00  0.00     0.029 A 
ATOM     57  N   UNL     1       2.469  11.421  -3.554  1.00  0.00    -0.354 N 
ATOM     58  N   UNL     1       5.239  10.617  -3.010  1.00  0.00    -0.248 NA
ATOM     59  C   UNL     1       7.482  10.470  -3.647  1.00  0.00     0.031 C 
ATOM     60  C   UNL     1       2.069  12.589  -5.400  1.00  0.00     0.029 A 
ATOM     61  C   UNL     1       3.072  11.964  -4.676  1.00  0.00     0.049 A 
ATOM     62  H   UNL     1       2.935  10.911  -2.852  1.00  0.00     0.167 HD
ATOM     63  C   UNL     1       5.407  11.251  -4.235  1.00  0.00     0.074 A 
ATOM     64  C   UNL     1       6.812  11.150  -4.571  1.00  0.00     0.031 C 
ATOM     65  C   UNL     1       4.474  11.861  -5.006  1.00  0.00     0.031 A 
BRANCH  52  66
ATOM     66  C   UNL     1      -1.285  11.629  -2.790  1.00  0.00    -0.014 A 
ATOM     67  C   UNL     1      -1.995  11.113  -3.891  1.00  0.00     0.010 A 
ATOM     68  C   UNL     1      -1.890  12.613  -1.988  1.00  0.00     0.010 A 
ATOM     69  C   UNL     1      -3.267  11.599  -4.206  1.00  0.00     0.020 A 
ATOM     70  C   UNL     1      -3.173  13.082  -2.285  1.00  0.00     0.020 A 
ATOM     71  C   UNL     1      -3.843  12.590  -3.407  1.00  0.00     0.054 A 
BRANCH  71  72
ATOM     72  S   UNL     1      -5.479  13.236  -3.853  1.00  0.00     0.124 S 
ATOM     73  O   UNL     1      -5.176  14.077  -5.006  1.00  0.00    -0.237 OA
ATOM     74  O   UNL     1      -6.235  12.019  -4.139  1.00  0.00    -0.237 OA
ATOM     75  O   UNL     1      -5.903  13.951  -2.651  1.00  0.00    -0.744 OA
ENDBRANCH  71  72
ENDBRANCH  52  66
BRANCH  53  76
ATOM     76  C   UNL     1       8.247   9.091  -1.138  1.00  0.00    -0.014 A 
ATOM     77  C   UNL     1       8.643   7.740  -1.086  1.00  0.00     0.010 A 
ATOM     78  C   UNL     1       9.180  10.090  -0.813  1.00  0.00     0.010 A 
ATOM     79  C   UNL     1       9.925   7.393  -0.655  1.00  0.00     0.020 A 
ATOM     80  C   UNL     1      10.475   9.747  -0.409  1.00  0.00     0.020 A 
ATOM     81  C   UNL     1      10.828   8.400  -0.303  1.00  0.00     0.054 A 
BRANCH  81  82
ATOM     82  S   UNL     1      12.464   7.923   0.320  1.00  0.00     0.124 S 
ATOM     83  O   UNL     1      12.149   7.471   1.672  1.00  0.00    -0.237 OA
ATOM     84  O   UNL     1      12.869   6.878  -0.616  1.00  0.00    -0.237 OA
ATOM     85  O   UNL     1      13.235   9.161   0.238  1.00  0.00    -0.744 OA
ENDBRANCH  81  82
ENDBRANCH  53  76
BRANCH  65  86
ATOM     86  C   UNL     1       4.907  12.477  -6.312  1.00  0.00    -0.014 A 
ATOM     87  C   UNL     1       4.847  13.874  -6.476  1.00  0.00     0.010 A 
ATOM     88  C   UNL     1       5.186  11.667  -7.426  1.00  0.00     0.010 A 
ATOM     89  C   UNL     1       4.992  14.446  -7.742  1.00  0.00     0.020 A 
ATOM     90  C   UNL     1       5.359  12.238  -8.691  1.00  0.00     0.020 A 
ATOM     91  C   UNL     1       5.225  13.620  -8.845  1.00  0.00     0.054 A 
BRANCH  91  92
ATOM     92  S   UNL     1       5.309  14.372 -10.495  1.00  0.00     0.124 S 
ATOM     93  O   UNL     1       3.910  14.696 -10.756  1.00  0.00    -0.237 OA
ATOM     94  O   UNL     1       6.191  15.517 -10.281  1.00  0.00    -0.237 OA
ATOM     95  O   UNL     1       5.870  13.310 -11.328  1.00  0.00    -0.744 OA
ENDBRANCH  91  92
ENDBRANCH  65  86
ENDBRANCH  39  40
ENDBRANCH  32  34
ENDBRANCH  31  32
ENDBRANCH  30  31
ENDBRANCH  29  30
ENDBRANCH  28  29
ENDBRANCH   1  28
TORSDOF 23
