REMARK SMILES O=C(OCCOCCOCCOC(=O)c1cc(NC(=S)NC(=O)c2ccccc2F)ccc1Cl)c1ccc(-c2c3nc(c(-c4ccc(S(=O)(=O)[O-])cc4)c4ccc([nH]4)c(-c4ccc(S(=O)(=O)[O-])cc4)c4nc(c(-c5ccc(S(=O)(=O)[O-])cc5)c5ccc2[nH]5)C=C4)C=C3)cc1
REMARK SMILES IDX 8 1 7 2 6 3 5 4 4 5 3 6 2 7 1 8 35 9 36 10 94 11 37 12 93 13
REMARK SMILES IDX 38 14 39 15 40 16 87 17 41 18 92 19 86 20 88 21 42 22 91 23
REMARK SMILES IDX 85 24 84 25 43 27 73 28 54 29 72 30 55 31 58 32 71 33 89 34
REMARK SMILES IDX 56 35 57 36 70 38 90 39 59 40 44 41 45 42 53 43 46 44 52 45
REMARK SMILES IDX 47 46 48 47 49 48 50 49 51 50 74 51 75 52 83 53 76 54 82 55
REMARK SMILES IDX 77 56 78 57 79 58 80 59 81 60 60 61 61 62 69 63 62 64 68 65
REMARK SMILES IDX 63 66 64 67 65 68 66 69 67 70 9 71 10 72 11 73 12 74 13 75
REMARK SMILES IDX 14 76 15 77 16 78 33 79 17 80 32 81 34 82 31 83 18 84 19 86
REMARK SMILES IDX 20 87 21 88 22 89 23 91 24 92 25 93 29 94 26 95 28 96 30 97
REMARK SMILES IDX 27 98
REMARK H PARENT 88 26 58 37 18 85 21 90
REMARK Flexibility Score: inf
ROOT
ATOM      1  C   UNL     1       2.354   0.648  -3.223  1.00  0.00     0.188 C 
ENDROOT
BRANCH   1   2
ATOM      2  C   UNL     1       2.917   0.047  -1.930  1.00  0.00     0.188 C 
BRANCH   2   3
ATOM      3  O   UNL     1       4.293   0.331  -1.698  1.00  0.00    -0.376 OA
BRANCH   3   4
ATOM      4  C   UNL     1       5.155  -0.707  -1.234  1.00  0.00     0.202 C 
BRANCH   4   5
ATOM      5  C   UNL     1       4.650  -1.683  -0.158  1.00  0.00     0.261 C 
BRANCH   5   6
ATOM      6  O   UNL     1       3.278  -1.560   0.272  1.00  0.00    -0.460 OA
BRANCH   6   7
ATOM      7  C   UNL     1       2.664  -0.739   1.155  1.00  0.00     0.338 C 
ATOM      8  O   UNL     1       1.478  -0.928   1.412  1.00  0.00    -0.246 OA
BRANCH   7   9
ATOM      9  C   UNL     1       3.349   0.412   1.800  1.00  0.00     0.060 A 
ATOM     10  C   UNL     1       4.438   1.064   1.237  1.00  0.00     0.016 A 
ATOM     11  C   UNL     1       2.741   1.025   2.905  1.00  0.00     0.016 A 
ATOM     12  C   UNL     1       5.046   2.159   1.800  1.00  0.00     0.010 A 
ATOM     13  C   UNL     1       3.255   2.228   3.410  1.00  0.00     0.010 A 
ATOM     14  C   UNL     1       4.462   2.746   2.898  1.00  0.00    -0.014 A 
BRANCH  14  15
ATOM     15  C   UNL     1       5.298   3.696   3.644  1.00  0.00     0.031 A 
ATOM     16  C   UNL     1       5.807   3.185   4.952  1.00  0.00     0.074 A 
ATOM     17  C   UNL     1       5.743   4.851   3.108  1.00  0.00     0.049 A 
ATOM     18  N   UNL     1       6.570   3.778   5.819  1.00  0.00    -0.248 NA
ATOM     19  C   UNL     1       5.448   1.796   5.311  1.00  0.00     0.031 C 
ATOM     20  C   UNL     1       5.547   5.293   1.727  1.00  0.00     0.029 A 
ATOM     21  N   UNL     1       6.469   5.871   3.654  1.00  0.00    -0.354 N 
ATOM     22  C   UNL     1       6.764   2.841   6.822  1.00  0.00     0.074 A 
ATOM     23  C   UNL     1       5.990   1.671   6.505  1.00  0.00     0.031 C 
ATOM     24  C   UNL     1       6.001   6.543   1.569  1.00  0.00     0.029 A 
ATOM     25  C   UNL     1       6.606   6.958   2.819  1.00  0.00     0.049 A 
ATOM     26  H   UNL     1       6.857   5.833   4.558  1.00  0.00     0.167 HD
ATOM     27  C   UNL     1       7.559   2.946   7.902  1.00  0.00     0.031 A 
ATOM     28  C   UNL     1       7.186   8.150   3.037  1.00  0.00     0.031 A 
ATOM     29  C   UNL     1       8.313   4.128   8.183  1.00  0.00     0.049 A 
ATOM     30  C   UNL     1       7.913   8.311   4.336  1.00  0.00     0.074 A 
ATOM     31  C   UNL     1       9.118   4.390   9.270  1.00  0.00     0.029 A 
ATOM     32  N   UNL     1       8.335   5.253   7.369  1.00  0.00    -0.354 N 
ATOM     33  N   UNL     1       8.058   7.434   5.303  1.00  0.00    -0.248 NA
ATOM     34  C   UNL     1       8.600   9.584   4.554  1.00  0.00     0.031 C 
ATOM     35  C   UNL     1       9.545   5.715   9.165  1.00  0.00     0.029 A 
ATOM     36  C   UNL     1       9.102   6.237   7.956  1.00  0.00     0.049 A 
ATOM     37  H   UNL     1       7.874   5.335   6.503  1.00  0.00     0.167 HD
ATOM     38  C   UNL     1       8.907   8.027   6.223  1.00  0.00     0.074 A 
ATOM     39  C   UNL     1       9.240   9.336   5.688  1.00  0.00     0.031 C 
ATOM     40  C   UNL     1       9.387   7.533   7.391  1.00  0.00     0.031 A 
BRANCH  27  41
ATOM     41  C   UNL     1       7.536   1.802   8.869  1.00  0.00    -0.014 A 
ATOM     42  C   UNL     1       8.041   0.529   8.543  1.00  0.00     0.010 A 
ATOM     43  C   UNL     1       6.936   2.006  10.122  1.00  0.00     0.010 A 
ATOM     44  C   UNL     1       7.918  -0.527   9.447  1.00  0.00     0.020 A 
ATOM     45  C   UNL     1       6.851   0.966  11.044  1.00  0.00     0.020 A 
ATOM     46  C   UNL     1       7.335  -0.297  10.697  1.00  0.00     0.054 A 
BRANCH  46  47
ATOM     47  S   UNL     1       7.253  -1.664  11.880  1.00  0.00     0.124 S 
ATOM     48  O   UNL     1       6.291  -2.560  11.243  1.00  0.00    -0.237 OA
ATOM     49  O   UNL     1       8.634  -2.139  11.905  1.00  0.00    -0.237 OA
ATOM     50  O   UNL     1       6.791  -1.029  13.112  1.00  0.00    -0.744 OA
ENDBRANCH  46  47
ENDBRANCH  27  41
BRANCH  28  51
ATOM     51  C   UNL     1       7.138   9.226   2.009  1.00  0.00    -0.014 A 
ATOM     52  C   UNL     1       8.302   9.663   1.355  1.00  0.00     0.010 A 
ATOM     53  C   UNL     1       5.908   9.830   1.682  1.00  0.00     0.010 A 
ATOM     54  C   UNL     1       8.247  10.710   0.428  1.00  0.00     0.020 A 
ATOM     55  C   UNL     1       5.843  10.856   0.735  1.00  0.00     0.020 A 
ATOM     56  C   UNL     1       7.016  11.300   0.125  1.00  0.00     0.054 A 
BRANCH  56  57
ATOM     57  S   UNL     1       6.968  12.645  -1.093  1.00  0.00     0.124 S 
ATOM     58  O   UNL     1       7.694  13.707  -0.405  1.00  0.00    -0.237 OA
ATOM     59  O   UNL     1       7.647  12.050  -2.240  1.00  0.00    -0.237 OA
ATOM     60  O   UNL     1       5.537  12.884  -1.279  1.00  0.00    -0.744 OA
ENDBRANCH  56  57
ENDBRANCH  28  51
BRANCH  40  61
ATOM     61  C   UNL     1      10.362   8.396   8.136  1.00  0.00    -0.014 A 
ATOM     62  C   UNL     1       9.976   9.616   8.714  1.00  0.00     0.010 A 
ATOM     63  C   UNL     1      11.683   7.938   8.295  1.00  0.00     0.010 A 
ATOM     64  C   UNL     1      10.913  10.392   9.392  1.00  0.00     0.020 A 
ATOM     65  C   UNL     1      12.607   8.684   9.019  1.00  0.00     0.020 A 
ATOM     66  C   UNL     1      12.220   9.918   9.544  1.00  0.00     0.054 A 
BRANCH  66  67
ATOM     67  S   UNL     1      13.406  10.931  10.460  1.00  0.00     0.124 S 
ATOM     68  O   UNL     1      13.594  12.065   9.558  1.00  0.00    -0.237 OA
ATOM     69  O   UNL     1      12.684  11.221  11.696  1.00  0.00    -0.237 OA
ATOM     70  O   UNL     1      14.567  10.056  10.610  1.00  0.00    -0.744 OA
ENDBRANCH  66  67
ENDBRANCH  40  61
ENDBRANCH  14  15
ENDBRANCH   7   9
ENDBRANCH   6   7
ENDBRANCH   5   6
ENDBRANCH   4   5
ENDBRANCH   3   4
ENDBRANCH   2   3
ENDBRANCH   1   2
BRANCH   1  71
ATOM     71  O   UNL     1       3.122   0.425  -4.392  1.00  0.00    -0.376 OA
BRANCH  71  72
ATOM     72  C   UNL     1       4.466   0.887  -4.300  1.00  0.00     0.202 C 
BRANCH  72  73
ATOM     73  C   UNL     1       4.784   2.337  -3.797  1.00  0.00     0.261 C 
BRANCH  73  74
ATOM     74  O   UNL     1       4.120   2.917  -2.609  1.00  0.00    -0.460 OA
BRANCH  74  75
ATOM     75  C   UNL     1       3.300   3.980  -2.876  1.00  0.00     0.339 C 
ATOM     76  O   UNL     1       3.036   4.319  -4.029  1.00  0.00    -0.246 OA
BRANCH  75  77
ATOM     77  C   UNL     1       2.706   4.871  -1.701  1.00  0.00     0.080 A 
ATOM     78  C   UNL     1       1.021   4.847  -0.592  1.00  0.00     0.043 A 
ATOM     79  C   UNL     1       3.233   6.543  -2.197  1.00  0.00     0.055 A 
ATOM     80  C   UNL     1       0.070   6.197  -0.247  1.00  0.00     0.041 A 
ATOM     81  C   UNL     1       2.212   7.934  -1.710  1.00  0.00     0.023 A 
ATOM     82  Cl  UNL     1       4.732   6.834  -2.989  1.00  0.00    -0.083 Cl
ATOM     83  C   UNL     1       0.676   7.745  -0.779  1.00  0.00     0.028 A 
BRANCH  80  84
ATOM     84  N   UNL     1      -1.145   5.753   0.306  1.00  0.00    -0.332 N 
ATOM     85  H   UNL     1      -1.740   6.462   0.641  1.00  0.00     0.169 HD
BRANCH  84  86
ATOM     86  C   UNL     1      -1.628   4.452   0.447  1.00  0.00     0.177 C 
ATOM     87  S   UNL     1      -2.945   4.243   1.474  1.00  0.00    -0.040 S 
BRANCH  86  88
ATOM     88  N   UNL     1      -1.147   3.243  -0.191  1.00  0.00    -0.299 N 
ATOM     89  C   UNL     1      -0.207   2.445  -1.043  1.00  0.00     0.260 C 
ATOM     90  H   UNL     1      -1.806   2.570   0.095  1.00  0.00     0.172 HD
ATOM     91  O   UNL     1      -0.448   1.265  -1.289  1.00  0.00    -0.269 OA
BRANCH  89  92
ATOM     92  C   UNL     1       1.097   3.021  -1.569  1.00  0.00     0.075 A 
ATOM     93  C   UNL     1       0.669   4.376  -2.590  1.00  0.00     0.017 A 
ATOM     94  C   UNL     1       2.236   3.137  -0.189  1.00  0.00     0.135 A 
ATOM     95  C   UNL     1       1.198   5.995  -2.065  1.00  0.00     0.001 A 
ATOM     96  C   UNL     1       2.808   4.687   0.467  1.00  0.00     0.040 A 
ATOM     97  F   UNL     1       1.920   2.268   0.781  1.00  0.00    -0.206 F 
ATOM     98  C   UNL     1       2.286   6.188  -0.371  1.00  0.00     0.003 A 
ENDBRANCH  89  92
ENDBRANCH  86  88
ENDBRANCH  84  86
ENDBRANCH  80  84
ENDBRANCH  75  77
ENDBRANCH  74  75
ENDBRANCH  73  74
ENDBRANCH  72  73
ENDBRANCH  71  72
ENDBRANCH   1  71
TORSDOF 24
