REMARK SMILES O=C(Cc1cccn(C(F)F)c1=O)OCCOCCOCCOC(=O)c1ccc(-c2c3nc(c(-c4ccc(S(=O)(=O)[O-])cc4)c4ccc([nH]4)c(-c4ccc(S(=O)(=O)[O-])cc4)c4nc(c(-c5ccc(S(=O)(=O)[O-])cc5)c5ccc2[nH]5)C=C4)C=C3)cc1
REMARK SMILES IDX 19 1 18 2 17 3 16 4 15 5 14 6 2 7 1 8 3 9 4 10 5 11 12 12
REMARK SMILES IDX 6 13 8 14 13 15 7 16 9 17 10 18 11 19 20 20 21 21 22 22
REMARK SMILES IDX 23 23 24 24 25 25 26 26 27 27 85 28 28 29 84 30 29 31 30 32
REMARK SMILES IDX 31 33 78 34 32 35 83 36 77 37 79 38 33 39 82 40 76 41 75 42
REMARK SMILES IDX 34 44 64 45 45 46 63 47 46 48 49 49 62 50 80 51 47 52 48 53
REMARK SMILES IDX 61 55 81 56 50 57 35 58 36 59 44 60 37 61 43 62 38 63 39 64
REMARK SMILES IDX 40 65 41 66 42 67 65 68 66 69 74 70 67 71 73 72 68 73 69 74
REMARK SMILES IDX 70 75 71 76 72 77 51 78 52 79 60 80 53 81 59 82 54 83 55 84
REMARK SMILES IDX 56 85 57 86 58 87
REMARK H PARENT 79 43 49 54
REMARK Flexibility Score: inf
ROOT
ATOM      1  C   UNL     1       2.376   0.570  -2.614  1.00  0.00     0.188 C 
ENDROOT
BRANCH   1   2
ATOM      2  C   UNL     1       3.236   1.205  -1.510  1.00  0.00     0.188 C 
BRANCH   2   3
ATOM      3  O   UNL     1       4.547   0.680  -1.427  1.00  0.00    -0.376 OA
BRANCH   3   4
ATOM      4  C   UNL     1       4.941   0.179  -0.167  1.00  0.00     0.202 C 
BRANCH   4   5
ATOM      5  C   UNL     1       4.282  -1.156   0.152  1.00  0.00     0.261 C 
BRANCH   5   6
ATOM      6  O   UNL     1       2.836  -1.162   0.216  1.00  0.00    -0.463 OA
BRANCH   6   7
ATOM      7  C   UNL     1       1.959  -0.531   1.023  1.00  0.00     0.310 C 
ATOM      8  O   UNL     1       0.754  -0.700   0.823  1.00  0.00    -0.252 OA
BRANCH   7   9
ATOM      9  C   UNL     1       2.405   0.523   2.030  1.00  0.00     0.164 C 
BRANCH   9  10
ATOM     10  C   UNL     1       3.528   0.222   2.963  1.00  0.00     0.029 A 
ATOM     11  C   UNL     1       4.387   1.163   3.397  1.00  0.00     0.011 A 
ATOM     12  C   UNL     1       3.729  -1.194   3.393  1.00  0.00     0.258 A 
ATOM     13  C   UNL     1       5.502   0.817   4.239  1.00  0.00     0.019 A 
ATOM     14  N   UNL     1       4.927  -1.464   4.023  1.00  0.00    -0.258 N 
ATOM     15  O   UNL     1       2.909  -2.056   3.093  1.00  0.00    -0.269 OA
ATOM     16  C   UNL     1       5.761  -0.470   4.495  1.00  0.00     0.095 A 
BRANCH  14  17
ATOM     17  C   UNL     1       5.236  -2.850   4.239  1.00  0.00     0.451 C 
ATOM     18  F   UNL     1       6.575  -3.054   4.099  1.00  0.00    -0.185 F 
ATOM     19  F   UNL     1       4.921  -3.208   5.508  1.00  0.00    -0.185 F 
ENDBRANCH  14  17
ENDBRANCH   9  10
ENDBRANCH   7   9
ENDBRANCH   6   7
ENDBRANCH   5   6
ENDBRANCH   4   5
ENDBRANCH   3   4
ENDBRANCH   2   3
ENDBRANCH   1   2
BRANCH   1  20
ATOM     20  O   UNL     1       2.986  -0.121  -3.697  1.00  0.00    -0.376 OA
BRANCH  20  21
ATOM     21  C   UNL     1       4.264   0.283  -4.163  1.00  0.00     0.202 C 
BRANCH  21  22
ATOM     22  C   UNL     1       4.418   1.706  -4.721  1.00  0.00     0.261 C 
BRANCH  22  23
ATOM     23  O   UNL     1       4.082   2.773  -3.812  1.00  0.00    -0.460 OA
BRANCH  23  24
ATOM     24  C   UNL     1       2.925   3.438  -4.067  1.00  0.00     0.338 C 
ATOM     25  O   UNL     1       2.156   3.232  -4.993  1.00  0.00    -0.246 OA
BRANCH  24  26
ATOM     26  C   UNL     1       2.604   4.361  -2.947  1.00  0.00     0.060 A 
ATOM     27  C   UNL     1       3.506   5.338  -2.524  1.00  0.00     0.016 A 
ATOM     28  C   UNL     1       1.350   4.255  -2.325  1.00  0.00     0.016 A 
ATOM     29  C   UNL     1       3.127   6.239  -1.518  1.00  0.00     0.010 A 
ATOM     30  C   UNL     1       0.977   5.149  -1.312  1.00  0.00     0.010 A 
ATOM     31  C   UNL     1       1.849   6.175  -0.923  1.00  0.00    -0.014 A 
BRANCH  31  32
ATOM     32  C   UNL     1       1.364   7.321  -0.101  1.00  0.00     0.031 A 
ATOM     33  C   UNL     1       1.241   7.276   1.393  1.00  0.00     0.074 A 
ATOM     34  C   UNL     1       1.026   8.452  -0.753  1.00  0.00     0.049 A 
ATOM     35  N   UNL     1       1.025   8.267   2.223  1.00  0.00    -0.248 NA
ATOM     36  C   UNL     1       1.363   5.965   2.042  1.00  0.00     0.031 C 
ATOM     37  C   UNL     1       1.030   8.602  -2.209  1.00  0.00     0.029 A 
ATOM     38  N   UNL     1       0.644   9.687  -0.289  1.00  0.00    -0.354 N 
ATOM     39  C   UNL     1       1.024   7.713   3.497  1.00  0.00     0.074 A 
ATOM     40  C   UNL     1       1.196   6.283   3.322  1.00  0.00     0.031 C 
ATOM     41  C   UNL     1       0.726   9.869  -2.518  1.00  0.00     0.029 A 
ATOM     42  C   UNL     1       0.479  10.618  -1.288  1.00  0.00     0.049 A 
ATOM     43  H   UNL     1       0.503   9.886   0.664  1.00  0.00     0.167 HD
ATOM     44  C   UNL     1       0.914   8.342   4.694  1.00  0.00     0.031 A 
ATOM     45  C   UNL     1       0.190  11.934  -1.236  1.00  0.00     0.031 A 
ATOM     46  C   UNL     1       0.691   9.762   4.853  1.00  0.00     0.049 A 
ATOM     47  C   UNL     1       0.058  12.610   0.097  1.00  0.00     0.074 A 
ATOM     48  C   UNL     1       0.617  10.492   6.029  1.00  0.00     0.029 A 
ATOM     49  N   UNL     1       0.485  10.665   3.819  1.00  0.00    -0.354 N 
ATOM     50  N   UNL     1       0.190  12.094   1.295  1.00  0.00    -0.248 NA
ATOM     51  C   UNL     1      -0.236  14.049   0.089  1.00  0.00     0.031 C 
ATOM     52  C   UNL     1       0.288  11.813   5.710  1.00  0.00     0.029 A 
ATOM     53  C   UNL     1       0.242  11.933   4.331  1.00  0.00     0.049 A 
ATOM     54  H   UNL     1       0.508  10.440   2.861  1.00  0.00     0.167 HD
ATOM     55  C   UNL     1      -0.005  13.144   2.185  1.00  0.00     0.074 A 
ATOM     56  C   UNL     1      -0.223  14.333   1.385  1.00  0.00     0.031 C 
ATOM     57  C   UNL     1      -0.012  13.116   3.542  1.00  0.00     0.031 A 
BRANCH  44  58
ATOM     58  C   UNL     1       1.072   7.517   5.952  1.00  0.00    -0.014 A 
ATOM     59  C   UNL     1       0.019   7.415   6.881  1.00  0.00     0.010 A 
ATOM     60  C   UNL     1       2.321   6.955   6.280  1.00  0.00     0.010 A 
ATOM     61  C   UNL     1       0.216   6.792   8.119  1.00  0.00     0.020 A 
ATOM     62  C   UNL     1       2.513   6.304   7.503  1.00  0.00     0.020 A 
ATOM     63  C   UNL     1       1.466   6.245   8.424  1.00  0.00     0.054 A 
BRANCH  63  64
ATOM     64  S   UNL     1       1.713   5.455  10.039  1.00  0.00     0.124 S 
ATOM     65  O   UNL     1       1.765   6.602  10.940  1.00  0.00    -0.237 OA
ATOM     66  O   UNL     1       0.532   4.605  10.161  1.00  0.00    -0.237 OA
ATOM     67  O   UNL     1       2.974   4.733   9.874  1.00  0.00    -0.744 OA
ENDBRANCH  63  64
ENDBRANCH  44  58
BRANCH  45  68
ATOM     68  C   UNL     1       0.091  12.689  -2.517  1.00  0.00    -0.014 A 
ATOM     69  C   UNL     1      -0.944  12.404  -3.428  1.00  0.00     0.010 A 
ATOM     70  C   UNL     1       1.104  13.588  -2.892  1.00  0.00     0.010 A 
ATOM     71  C   UNL     1      -0.918  12.937  -4.719  1.00  0.00     0.020 A 
ATOM     72  C   UNL     1       1.113  14.152  -4.172  1.00  0.00     0.020 A 
ATOM     73  C   UNL     1       0.123  13.790  -5.089  1.00  0.00     0.054 A 
BRANCH  73  74
ATOM     74  S   UNL     1       0.195  14.379  -6.803  1.00  0.00     0.124 S 
ATOM     75  O   UNL     1       0.606  13.172  -7.515  1.00  0.00    -0.237 OA
ATOM     76  O   UNL     1      -1.177  14.818  -7.045  1.00  0.00    -0.237 OA
ATOM     77  O   UNL     1       1.191  15.447  -6.757  1.00  0.00    -0.744 OA
ENDBRANCH  73  74
ENDBRANCH  45  68
BRANCH  57  78
ATOM     78  C   UNL     1      -0.310  14.405   4.274  1.00  0.00    -0.014 A 
ATOM     79  C   UNL     1       0.662  14.990   5.108  1.00  0.00     0.010 A 
ATOM     80  C   UNL     1      -1.589  14.989   4.214  1.00  0.00     0.010 A 
ATOM     81  C   UNL     1       0.353  16.110   5.888  1.00  0.00     0.020 A 
ATOM     82  C   UNL     1      -1.891  16.131   4.963  1.00  0.00     0.020 A 
ATOM     83  C   UNL     1      -0.925  16.670   5.815  1.00  0.00     0.054 A 
BRANCH  83  84
ATOM     84  S   UNL     1      -1.310  18.112   6.846  1.00  0.00     0.124 S 
ATOM     85  O   UNL     1      -1.431  17.518   8.174  1.00  0.00    -0.237 OA
ATOM     86  O   UNL     1      -0.146  18.971   6.644  1.00  0.00    -0.237 OA
ATOM     87  O   UNL     1      -2.556  18.620   6.274  1.00  0.00    -0.744 OA
ENDBRANCH  83  84
ENDBRANCH  57  78
ENDBRANCH  31  32
ENDBRANCH  24  26
ENDBRANCH  23  24
ENDBRANCH  22  23
ENDBRANCH  21  22
ENDBRANCH  20  21
ENDBRANCH   1  20
TORSDOF 22
