REMARK SMILES CN1C(=O)C[C@@H](C(=O)OCCOCCOCCOC(=O)c2ccc(-c3c4nc(c(-c5ccc(S(=O)(=O)[O-])cc5)c5ccc([nH]5)c(-c5ccc(S(=O)(=O)[O-])cc5)c5nc(c(-c6ccc(S(=O)(=O)[O-])cc6)c6ccc3[nH]6)C=C5)C=C4)cc2)C12CCN(c1ccc(Cl)cn1)CC2
REMARK SMILES IDX 14 1 13 2 12 3 11 4 10 5 9 6 7 7 8 8 6 9 1 10 2 11 3 12
REMARK SMILES IDX 81 13 4 14 5 15 82 16 93 17 83 18 92 19 84 20 85 21 86 22
REMARK SMILES IDX 91 23 87 24 90 25 88 26 89 27 15 28 16 29 17 30 18 31 19 32
REMARK SMILES IDX 20 33 21 34 22 35 80 36 23 37 79 38 24 39 25 40 26 41 73 42
REMARK SMILES IDX 27 43 78 44 72 45 74 46 28 47 77 48 71 49 70 50 29 52 59 53
REMARK SMILES IDX 40 54 58 55 41 56 44 57 57 58 75 59 42 60 43 61 56 63 76 64
REMARK SMILES IDX 45 65 30 66 31 67 39 68 32 69 38 70 33 71 34 72 35 73 36 74
REMARK SMILES IDX 37 75 60 76 61 77 69 78 62 79 68 80 63 81 64 82 65 83 66 84
REMARK SMILES IDX 67 85 46 86 47 87 55 88 48 89 54 90 49 91 50 92 51 93 52 94
REMARK SMILES IDX 53 95
REMARK H PARENT 74 51 44 62
REMARK Flexibility Score: inf
ROOT
ATOM      1  C   UNL     1      -0.563   1.604   5.421  1.00  0.00     0.188 C 
ENDROOT
BRANCH   1   2
ATOM      2  C   UNL     1      -1.471   2.749   5.846  1.00  0.00     0.188 C 
BRANCH   2   3
ATOM      3  O   UNL     1      -2.874   2.544   5.841  1.00  0.00    -0.376 OA
BRANCH   3   4
ATOM      4  C   UNL     1      -3.425   1.508   5.044  1.00  0.00     0.202 C 
BRANCH   4   5
ATOM      5  C   UNL     1      -3.395   1.689   3.514  1.00  0.00     0.261 C 
BRANCH   5   6
ATOM      6  O   UNL     1      -2.099   1.677   2.842  1.00  0.00    -0.463 OA
BRANCH   6   7
ATOM      7  C   UNL     1      -1.623   2.899   2.502  1.00  0.00     0.311 C 
ATOM      8  O   UNL     1      -2.188   3.943   2.826  1.00  0.00    -0.252 OA
BRANCH   7   9
ATOM      9  C   UNL     1      -0.400   2.984   1.582  1.00  0.00     0.134 C 
ATOM     10  C   UNL     1       0.767  -0.009  -0.369  1.00  0.00     0.147 C 
ATOM     11  N   UNL     1       0.223   1.246   0.121  1.00  0.00    -0.339 N 
ATOM     12  C   UNL     1      -0.804   1.914  -0.524  1.00  0.00     0.223 C 
ATOM     13  C   UNL     1       0.758   1.973   1.285  1.00  0.00     0.060 C 
ATOM     14  O   UNL     1      -1.407   1.542  -1.507  1.00  0.00    -0.275 OA
ATOM     15  C   UNL     1      -1.013   3.225   0.184  1.00  0.00     0.118 C 
ATOM     16  C   UNL     1       1.205   0.968   2.358  1.00  0.00     0.051 C 
ATOM     17  C   UNL     1       2.030   2.800   0.829  1.00  0.00     0.051 C 
ATOM     18  C   UNL     1       2.049   1.596   3.443  1.00  0.00     0.120 C 
ATOM     19  C   UNL     1       2.916   3.334   1.975  1.00  0.00     0.120 C 
ATOM     20  N   UNL     1       3.228   2.225   2.870  1.00  0.00    -0.356 N 
BRANCH  20  21
ATOM     21  C   UNL     1       4.308   2.370   3.749  1.00  0.00     0.128 A 
ATOM     22  C   UNL     1       4.848   1.235   4.367  1.00  0.00     0.048 A 
ATOM     23  N   UNL     1       4.789   3.598   4.037  1.00  0.00    -0.238 NA
ATOM     24  C   UNL     1       5.838   1.355   5.344  1.00  0.00     0.026 A 
ATOM     25  C   UNL     1       5.766   3.695   4.987  1.00  0.00     0.134 A 
ATOM     26  C   UNL     1       6.299   2.616   5.671  1.00  0.00     0.059 A 
ATOM     27  Cl  UNL     1       7.489   2.809   6.889  1.00  0.00    -0.083 Cl
ENDBRANCH  20  21
ENDBRANCH   7   9
ENDBRANCH   6   7
ENDBRANCH   5   6
ENDBRANCH   4   5
ENDBRANCH   3   4
ENDBRANCH   2   3
ENDBRANCH   1   2
BRANCH   1  28
ATOM     28  O   UNL     1      -0.961   0.326   5.879  1.00  0.00    -0.376 OA
BRANCH  28  29
ATOM     29  C   UNL     1       0.108  -0.472   6.365  1.00  0.00     0.202 C 
BRANCH  29  30
ATOM     30  C   UNL     1       0.408  -0.095   7.820  1.00  0.00     0.261 C 
BRANCH  30  31
ATOM     31  O   UNL     1       0.867   1.264   8.005  1.00  0.00    -0.460 OA
BRANCH  31  32
ATOM     32  C   UNL     1       2.094   1.546   7.506  1.00  0.00     0.338 C 
ATOM     33  O   UNL     1       2.832   0.763   6.933  1.00  0.00    -0.246 OA
BRANCH  32  34
ATOM     34  C   UNL     1       2.337   3.003   7.586  1.00  0.00     0.060 A 
ATOM     35  C   UNL     1       2.349   3.757   6.411  1.00  0.00     0.016 A 
ATOM     36  C   UNL     1       2.664   3.612   8.791  1.00  0.00     0.016 A 
ATOM     37  C   UNL     1       2.755   5.088   6.405  1.00  0.00     0.010 A 
ATOM     38  C   UNL     1       3.048   4.962   8.794  1.00  0.00     0.010 A 
ATOM     39  C   UNL     1       3.142   5.698   7.595  1.00  0.00    -0.014 A 
BRANCH  39  40
ATOM     40  C   UNL     1       3.792   7.036   7.560  1.00  0.00     0.031 A 
ATOM     41  C   UNL     1       5.248   7.152   7.937  1.00  0.00     0.074 A 
ATOM     42  C   UNL     1       3.127   8.130   7.139  1.00  0.00     0.049 A 
ATOM     43  N   UNL     1       5.991   8.219   8.072  1.00  0.00    -0.248 NA
ATOM     44  C   UNL     1       5.965   5.890   8.179  1.00  0.00     0.031 C 
ATOM     45  C   UNL     1       1.756   8.151   6.626  1.00  0.00     0.029 A 
ATOM     46  N   UNL     1       3.522   9.445   7.085  1.00  0.00    -0.354 N 
ATOM     47  C   UNL     1       7.253   7.758   8.432  1.00  0.00     0.074 A 
ATOM     48  C   UNL     1       7.175   6.317   8.506  1.00  0.00     0.031 C 
ATOM     49  C   UNL     1       1.422   9.416   6.321  1.00  0.00     0.029 A 
ATOM     50  C   UNL     1       2.523  10.302   6.686  1.00  0.00     0.049 A 
ATOM     51  H   UNL     1       4.432   9.744   7.309  1.00  0.00     0.167 HD
ATOM     52  C   UNL     1       8.376   8.469   8.693  1.00  0.00     0.031 A 
ATOM     53  C   UNL     1       2.479  11.650   6.669  1.00  0.00     0.031 A 
ATOM     54  C   UNL     1       8.438   9.905   8.673  1.00  0.00     0.049 A 
ATOM     55  C   UNL     1       3.684  12.428   7.130  1.00  0.00     0.074 A 
ATOM     56  C   UNL     1       9.510  10.725   8.977  1.00  0.00     0.029 A 
ATOM     57  N   UNL     1       7.376  10.736   8.349  1.00  0.00    -0.354 N 
ATOM     58  N   UNL     1       4.859  11.983   7.506  1.00  0.00    -0.248 NA
ATOM     59  C   UNL     1       3.551  13.891   7.174  1.00  0.00     0.031 C 
ATOM     60  C   UNL     1       9.073  12.052   8.912  1.00  0.00     0.029 A 
ATOM     61  C   UNL     1       7.754  12.060   8.486  1.00  0.00     0.049 A 
ATOM     62  H   UNL     1       6.486  10.429   8.063  1.00  0.00     0.167 HD
ATOM     63  C   UNL     1       5.617  13.113   7.799  1.00  0.00     0.074 A 
ATOM     64  C   UNL     1       4.769  14.260   7.548  1.00  0.00     0.031 C 
ATOM     65  C   UNL     1       6.900  13.193   8.232  1.00  0.00     0.031 A 
BRANCH  52  66
ATOM     66  C   UNL     1       9.602   7.698   9.107  1.00  0.00    -0.014 A 
ATOM     67  C   UNL     1      10.327   6.918   8.188  1.00  0.00     0.010 A 
ATOM     68  C   UNL     1      10.042   7.768  10.441  1.00  0.00     0.010 A 
ATOM     69  C   UNL     1      11.448   6.193   8.606  1.00  0.00     0.020 A 
ATOM     70  C   UNL     1      11.177   7.068  10.857  1.00  0.00     0.020 A 
ATOM     71  C   UNL     1      11.864   6.271   9.939  1.00  0.00     0.054 A 
BRANCH  71  72
ATOM     72  S   UNL     1      13.328   5.331  10.453  1.00  0.00     0.124 S 
ATOM     73  O   UNL     1      12.839   3.956  10.397  1.00  0.00    -0.237 OA
ATOM     74  O   UNL     1      14.311   5.690   9.434  1.00  0.00    -0.237 OA
ATOM     75  O   UNL     1      13.613   5.835  11.794  1.00  0.00    -0.744 OA
ENDBRANCH  71  72
ENDBRANCH  52  66
BRANCH  53  76
ATOM     76  C   UNL     1       1.227  12.351   6.266  1.00  0.00    -0.014 A 
ATOM     77  C   UNL     1       1.183  13.141   5.104  1.00  0.00     0.010 A 
ATOM     78  C   UNL     1       0.066  12.237   7.055  1.00  0.00     0.010 A 
ATOM     79  C   UNL     1       0.009  13.811   4.745  1.00  0.00     0.020 A 
ATOM     80  C   UNL     1      -1.119  12.878   6.683  1.00  0.00     0.020 A 
ATOM     81  C   UNL     1      -1.137  13.671   5.535  1.00  0.00     0.054 A 
BRANCH  81  82
ATOM     82  S   UNL     1      -2.662  14.508   5.022  1.00  0.00     0.124 S 
ATOM     83  O   UNL     1      -2.349  15.907   5.297  1.00  0.00    -0.237 OA
ATOM     84  O   UNL     1      -2.759  14.147   3.610  1.00  0.00    -0.237 OA
ATOM     85  O   UNL     1      -3.685  13.915   5.881  1.00  0.00    -0.744 OA
ENDBRANCH  81  82
ENDBRANCH  53  76
BRANCH  65  86
ATOM     86  C   UNL     1       7.490  14.567   8.416  1.00  0.00    -0.014 A 
ATOM     87  C   UNL     1       7.089  15.406   9.470  1.00  0.00     0.010 A 
ATOM     88  C   UNL     1       8.512  14.997   7.549  1.00  0.00     0.010 A 
ATOM     89  C   UNL     1       7.676  16.664   9.632  1.00  0.00     0.020 A 
ATOM     90  C   UNL     1       9.124  16.239   7.728  1.00  0.00     0.020 A 
ATOM     91  C   UNL     1       8.692  17.072   8.761  1.00  0.00     0.054 A 
BRANCH  91  92
ATOM     92  S   UNL     1       9.469  18.689   9.021  1.00  0.00     0.124 S 
ATOM     93  O   UNL     1       8.418  19.605   8.589  1.00  0.00    -0.237 OA
ATOM     94  O   UNL     1       9.748  18.683  10.455  1.00  0.00    -0.237 OA
ATOM     95  O   UNL     1      10.651  18.648   8.163  1.00  0.00    -0.744 OA
ENDBRANCH  91  92
ENDBRANCH  65  86
ENDBRANCH  39  40
ENDBRANCH  32  34
ENDBRANCH  31  32
ENDBRANCH  30  31
ENDBRANCH  29  30
ENDBRANCH  28  29
ENDBRANCH   1  28
TORSDOF 21
