REMARK SMILES CC(C)[C@@H](NS(=O)(=O)c1ccc(Cl)c([N+](=O)[O-])c1)C(=O)OCCOCCOCCOC(=O)c1ccc(-c2c3nc(c(-c4ccc(S(=O)(=O)[O-])cc4)c4ccc([nH]4)c(-c4ccc(S(=O)(=O)[O-])cc4)c4nc(c(-c5ccc(S(=O)(=O)[O-])cc5)c5ccc2[nH]5)C=C4)C=C3)cc1
REMARK SMILES IDX 25 1 24 2 23 3 22 4 21 5 19 6 20 7 4 8 2 9 1 10 3 11 5 12
REMARK SMILES IDX 6 14 7 15 8 16 9 17 10 18 18 19 11 20 14 21 12 22 13 23
REMARK SMILES IDX 15 24 16 25 17 26 26 27 27 28 28 29 29 30 30 31 31 32 32 33
REMARK SMILES IDX 33 34 34 35 92 36 35 37 91 38 36 39 37 40 38 41 85 42 39 43
REMARK SMILES IDX 90 44 84 45 86 46 40 47 89 48 83 49 82 50 41 52 71 53 52 54
REMARK SMILES IDX 70 55 53 56 56 57 69 58 87 59 54 60 55 61 68 63 88 64 57 65
REMARK SMILES IDX 42 66 43 67 51 68 44 69 50 70 45 71 46 72 47 73 48 74 49 75
REMARK SMILES IDX 72 76 73 77 81 78 74 79 80 80 75 81 76 82 77 83 78 84 79 85
REMARK SMILES IDX 58 86 59 87 67 88 60 89 66 90 61 91 62 92 63 93 64 94 65 95
REMARK H PARENT 5 13 86 51 56 62
REMARK Flexibility Score: inf
ROOT
ATOM      1  C   UNL     1      -1.270   1.143   5.421  1.00  0.00     0.188 C 
ENDROOT
BRANCH   1   2
ATOM      2  O   UNL     1      -1.317   0.036   6.311  1.00  0.00    -0.376 OA
BRANCH   2   3
ATOM      3  C   UNL     1      -2.097  -1.051   5.843  1.00  0.00     0.202 C 
BRANCH   3   4
ATOM      4  C   UNL     1      -1.603  -2.008   4.723  1.00  0.00     0.261 C 
BRANCH   4   5
ATOM      5  O   UNL     1      -1.038  -1.638   3.441  1.00  0.00    -0.462 OA
BRANCH   5   6
ATOM      6  C   UNL     1      -1.663  -0.759   2.631  1.00  0.00     0.324 C 
ATOM      7  O   UNL     1      -2.592  -0.051   2.999  1.00  0.00    -0.250 OA
BRANCH   6   8
ATOM      8  C   UNL     1      -1.194  -0.797   1.160  1.00  0.00     0.182 C 
BRANCH   8   9
ATOM      9  C   UNL     1       0.327  -0.986   0.857  1.00  0.00     0.012 C 
ATOM     10  C   UNL     1       0.621  -0.833  -0.649  1.00  0.00     0.009 C 
ATOM     11  C   UNL     1       1.240   0.029   1.557  1.00  0.00     0.009 C 
ENDBRANCH   8   9
BRANCH   8  12
ATOM     12  N   UNL     1      -1.990  -1.902   0.532  1.00  0.00    -0.197 NA
ATOM     13  H   UNL     1      -1.921  -2.709   1.152  1.00  0.00     0.142 HD
BRANCH  12  14
ATOM     14  S   UNL     1      -3.638  -1.650   0.223  1.00  0.00     0.241 S 
ATOM     15  O   UNL     1      -3.792  -0.265  -0.166  1.00  0.00    -0.207 OA
ATOM     16  O   UNL     1      -4.030  -2.734  -0.644  1.00  0.00    -0.207 OA
BRANCH  14  17
ATOM     17  C   UNL     1      -4.457  -1.925   1.780  1.00  0.00     0.089 A 
ATOM     18  C   UNL     1      -5.136  -0.877   2.406  1.00  0.00     0.024 A 
ATOM     19  C   UNL     1      -4.365  -3.173   2.402  1.00  0.00     0.109 A 
ATOM     20  C   UNL     1      -5.640  -1.048   3.699  1.00  0.00     0.029 A 
ATOM     21  C   UNL     1      -4.904  -3.351   3.698  1.00  0.00     0.289 A 
ATOM     22  C   UNL     1      -5.525  -2.279   4.360  1.00  0.00     0.118 A 
ATOM     23  Cl  UNL     1      -6.150  -2.315   5.971  1.00  0.00    -0.077 Cl
BRANCH  21  24
ATOM     24  N   UNL     1      -4.695  -4.662   4.330  1.00  0.00     0.064 N 
ATOM     25  O   UNL     1      -4.419  -5.611   3.582  1.00  0.00    -0.258 OA
ATOM     26  O   UNL     1      -4.734  -4.753   5.562  1.00  0.00    -0.258 OA
ENDBRANCH  21  24
ENDBRANCH  14  17
ENDBRANCH  12  14
ENDBRANCH   8  12
ENDBRANCH   6   8
ENDBRANCH   5   6
ENDBRANCH   4   5
ENDBRANCH   3   4
ENDBRANCH   2   3
ENDBRANCH   1   2
BRANCH   1  27
ATOM     27  C   UNL     1      -0.076   0.993   4.503  1.00  0.00     0.188 C 
BRANCH  27  28
ATOM     28  O   UNL     1       0.784  -0.075   4.842  1.00  0.00    -0.376 OA
BRANCH  28  29
ATOM     29  C   UNL     1       1.723   0.110   5.893  1.00  0.00     0.202 C 
BRANCH  29  30
ATOM     30  C   UNL     1       1.657   1.297   6.880  1.00  0.00     0.261 C 
BRANCH  30  31
ATOM     31  O   UNL     1       1.314   2.605   6.375  1.00  0.00    -0.460 OA
BRANCH  31  32
ATOM     32  C   UNL     1       2.061   3.153   5.382  1.00  0.00     0.338 C 
ATOM     33  O   UNL     1       3.102   2.711   4.934  1.00  0.00    -0.246 OA
BRANCH  32  34
ATOM     34  C   UNL     1       1.208   4.191   4.719  1.00  0.00     0.060 A 
ATOM     35  C   UNL     1       0.939   4.069   3.342  1.00  0.00     0.016 A 
ATOM     36  C   UNL     1       0.573   5.191   5.456  1.00  0.00     0.016 A 
ATOM     37  C   UNL     1       0.041   4.936   2.708  1.00  0.00     0.010 A 
ATOM     38  C   UNL     1      -0.289   6.089   4.810  1.00  0.00     0.010 A 
ATOM     39  C   UNL     1      -0.550   5.978   3.430  1.00  0.00    -0.014 A 
BRANCH  39  40
ATOM     40  C   UNL     1      -1.291   7.060   2.727  1.00  0.00     0.031 A 
ATOM     41  C   UNL     1      -0.562   8.345   2.437  1.00  0.00     0.074 A 
ATOM     42  C   UNL     1      -2.577   6.924   2.351  1.00  0.00     0.049 A 
ATOM     43  N   UNL     1      -1.018   9.470   1.952  1.00  0.00    -0.248 NA
ATOM     44  C   UNL     1       0.880   8.358   2.738  1.00  0.00     0.031 C 
ATOM     45  C   UNL     1      -3.382   5.712   2.496  1.00  0.00     0.029 A 
ATOM     46  N   UNL     1      -3.437   7.831   1.777  1.00  0.00    -0.354 N 
ATOM     47  C   UNL     1       0.072  10.332   1.909  1.00  0.00     0.074 A 
ATOM     48  C   UNL     1       1.208   9.604   2.433  1.00  0.00     0.031 C 
ATOM     49  C   UNL     1      -4.625   5.958   2.041  1.00  0.00     0.029 A 
ATOM     50  C   UNL     1      -4.718   7.356   1.619  1.00  0.00     0.049 A 
ATOM     51  H   UNL     1      -3.161   8.736   1.505  1.00  0.00     0.167 HD
ATOM     52  C   UNL     1       0.125  11.614   1.476  1.00  0.00     0.031 A 
ATOM     53  C   UNL     1      -5.845   7.983   1.218  1.00  0.00     0.031 A 
ATOM     54  C   UNL     1      -1.009  12.343   0.971  1.00  0.00     0.049 A 
ATOM     55  C   UNL     1      -5.787   9.444   0.845  1.00  0.00     0.074 A 
ATOM     56  C   UNL     1      -1.054  13.644   0.503  1.00  0.00     0.029 A 
ATOM     57  N   UNL     1      -2.297  11.840   0.878  1.00  0.00    -0.354 N 
ATOM     58  N   UNL     1      -4.749  10.246   0.803  1.00  0.00    -0.248 NA
ATOM     59  C   UNL     1      -7.056  10.086   0.466  1.00  0.00     0.031 C 
ATOM     60  C   UNL     1      -2.382  13.952   0.194  1.00  0.00     0.029 A 
ATOM     61  C   UNL     1      -3.153  12.819   0.399  1.00  0.00     0.049 A 
ATOM     62  H   UNL     1      -2.565  10.924   1.118  1.00  0.00     0.167 HD
ATOM     63  C   UNL     1      -5.237  11.478   0.374  1.00  0.00     0.074 A 
ATOM     64  C   UNL     1      -6.657  11.310   0.148  1.00  0.00     0.031 C 
ATOM     65  C   UNL     1      -4.568  12.644   0.185  1.00  0.00     0.031 A 
BRANCH  52  66
ATOM     66  C   UNL     1       1.446  12.331   1.580  1.00  0.00    -0.014 A 
ATOM     67  C   UNL     1       2.532  11.994   0.751  1.00  0.00     0.010 A 
ATOM     68  C   UNL     1       1.590  13.387   2.499  1.00  0.00     0.010 A 
ATOM     69  C   UNL     1       3.747  12.675   0.866  1.00  0.00     0.020 A 
ATOM     70  C   UNL     1       2.793  14.091   2.595  1.00  0.00     0.020 A 
ATOM     71  C   UNL     1       3.870  13.720   1.788  1.00  0.00     0.054 A 
BRANCH  71  72
ATOM     72  S   UNL     1       5.451  14.601   1.897  1.00  0.00     0.124 S 
ATOM     73  O   UNL     1       6.316  13.593   2.506  1.00  0.00    -0.237 OA
ATOM     74  O   UNL     1       5.739  14.914   0.500  1.00  0.00    -0.237 OA
ATOM     75  O   UNL     1       5.149  15.754   2.743  1.00  0.00    -0.744 OA
ENDBRANCH  71  72
ENDBRANCH  52  66
BRANCH  53  76
ATOM     76  C   UNL     1      -7.143   7.249   1.194  1.00  0.00    -0.014 A 
ATOM     77  C   UNL     1      -7.803   6.987  -0.020  1.00  0.00     0.010 A 
ATOM     78  C   UNL     1      -7.737   6.819   2.396  1.00  0.00     0.010 A 
ATOM     79  C   UNL     1      -9.032   6.318  -0.031  1.00  0.00     0.020 A 
ATOM     80  C   UNL     1      -8.949   6.123   2.387  1.00  0.00     0.020 A 
ATOM     81  C   UNL     1      -9.594   5.884   1.173  1.00  0.00     0.054 A 
BRANCH  81  82
ATOM     82  S   UNL     1     -11.157   4.962   1.129  1.00  0.00     0.124 S 
ATOM     83  O   UNL     1     -12.115   6.004   0.774  1.00  0.00    -0.237 OA
ATOM     84  O   UNL     1     -10.899   3.958   0.099  1.00  0.00    -0.237 OA
ATOM     85  O   UNL     1     -11.279   4.433   2.486  1.00  0.00    -0.744 OA
ENDBRANCH  81  82
ENDBRANCH  53  76
BRANCH  65  86
ATOM     86  C   UNL     1      -5.356  13.832  -0.310  1.00  0.00    -0.014 A 
ATOM     87  C   UNL     1      -6.282  14.490   0.518  1.00  0.00     0.010 A 
ATOM     88  C   UNL     1      -5.119  14.334  -1.604  1.00  0.00     0.010 A 
ATOM     89  C   UNL     1      -6.979  15.609   0.051  1.00  0.00     0.020 A 
ATOM     90  C   UNL     1      -5.790  15.471  -2.063  1.00  0.00     0.020 A 
ATOM     91  C   UNL     1      -6.726  16.094  -1.236  1.00  0.00     0.054 A 
BRANCH  91  92
ATOM     92  S   UNL     1      -7.609  17.576  -1.798  1.00  0.00     0.124 S 
ATOM     93  O   UNL     1      -8.968  17.071  -1.978  1.00  0.00    -0.237 OA
ATOM     94  O   UNL     1      -7.425  18.500  -0.682  1.00  0.00    -0.237 OA
ATOM     95  O   UNL     1      -6.915  17.948  -3.029  1.00  0.00    -0.744 OA
ENDBRANCH  91  92
ENDBRANCH  65  86
ENDBRANCH  39  40
ENDBRANCH  32  34
ENDBRANCH  31  32
ENDBRANCH  30  31
ENDBRANCH  29  30
ENDBRANCH  28  29
ENDBRANCH  27  28
ENDBRANCH   1  27
TORSDOF 25
