REMARK SMILES Cc1c(C(=O)OCCOCCOCCOC(=O)c2ccc(-c3c4nc(c(-c5ccc(S(=O)(=O)[O-])cc5)c5ccc([nH]5)c(-c5ccc(S(=O)(=O)[O-])cc5)c5nc(c(-c6ccc(S(=O)(=O)[O-])cc6)c6ccc3[nH]6)C=C5)C=C4)cc2)sc2ncn(N3CCCCCC3)c(=O)c12
REMARK SMILES IDX 10 1 9 2 8 3 7 4 6 5 4 6 5 7 3 8 1 9 2 10 92 11 78 12 79 13
REMARK SMILES IDX 90 14 80 15 82 16 91 17 81 18 83 19 84 20 85 21 86 22 89 24
REMARK SMILES IDX 88 25 87 26 11 28 12 29 13 30 14 31 15 32 16 33 17 34 18 35
REMARK SMILES IDX 19 36 77 37 20 38 76 39 21 40 22 41 23 42 70 43 24 44 75 45
REMARK SMILES IDX 69 46 71 47 25 48 74 49 68 50 67 51 26 53 56 54 37 55 55 56
REMARK SMILES IDX 38 57 41 58 54 59 72 60 39 61 40 62 53 64 73 65 42 66 27 67
REMARK SMILES IDX 28 68 36 69 29 70 35 71 30 72 31 73 32 74 33 75 34 76 57 77
REMARK SMILES IDX 58 78 66 79 59 80 65 81 60 82 61 83 62 84 63 85 64 86 43 87
REMARK SMILES IDX 44 88 52 89 45 90 51 91 46 92 47 93 48 94 49 95 50 96
REMARK H PARENT 71 52 41 63
REMARK Flexibility Score: 90.00
ROOT
ATOM      1  C   UNL     1      -0.274   3.376   0.366  1.00  0.00     0.188 C 
ENDROOT
BRANCH   1   2
ATOM      2  O   UNL     1       0.346   4.603   0.721  1.00  0.00    -0.376 OA
BRANCH   2   3
ATOM      3  C   UNL     1       0.918   5.432  -0.282  1.00  0.00     0.202 C 
BRANCH   3   4
ATOM      4  C   UNL     1       1.763   4.867  -1.446  1.00  0.00     0.261 C 
BRANCH   4   5
ATOM      5  O   UNL     1       1.285   3.667  -2.068  1.00  0.00    -0.459 OA
BRANCH   5   6
ATOM      6  C   UNL     1       2.009   2.532  -1.844  1.00  0.00     0.348 C 
ATOM      7  O   UNL     1       3.071   2.499  -1.238  1.00  0.00    -0.245 OA
BRANCH   6   8
ATOM      8  C   UNL     1       1.272   1.353  -2.278  1.00  0.00     0.118 A 
ATOM      9  C   UNL     1       1.635  -0.079  -0.188  1.00  0.00     0.047 C 
ATOM     10  C   UNL     1       1.124   0.159  -1.578  1.00  0.00    -0.010 A 
ATOM     11  C   UNL     1       0.439  -0.818  -2.382  1.00  0.00     0.082 A 
ATOM     12  S   UNL     1       0.461   1.320  -3.786  1.00  0.00    -0.108 S 
ATOM     13  C   UNL     1      -0.036  -0.296  -3.567  1.00  0.00     0.131 A 
ATOM     14  C   UNL     1       0.235  -2.240  -2.131  1.00  0.00     0.281 A 
ATOM     15  N   UNL     1      -0.761  -0.948  -4.515  1.00  0.00    -0.225 NA
ATOM     16  N   UNL     1      -0.380  -2.903  -3.203  1.00  0.00    -0.210 N 
ATOM     17  O   UNL     1       0.632  -2.791  -1.106  1.00  0.00    -0.267 OA
ATOM     18  C   UNL     1      -0.895  -2.219  -4.294  1.00  0.00     0.226 A 
BRANCH  16  19
ATOM     19  N   UNL     1      -0.300  -4.310  -3.225  1.00  0.00    -0.309 N 
BRANCH  19  20
ATOM     20  C   UNL     1      -1.447  -5.055  -2.750  1.00  0.00     0.137 C 
BRANCH  20  21
ATOM     21  C   UNL     1      -1.035  -5.985  -1.602  1.00  0.00     0.023 C 
BRANCH  21  22
ATOM     22  C   UNL     1      -0.161  -7.180  -1.987  1.00  0.00     0.002 CG0
ATOM     23  G   UNL     1       1.118  -6.850  -2.757  1.00  0.00     0.000 G0
ENDBRANCH  21  22
ENDBRANCH  20  21
ENDBRANCH  19  20
BRANCH  19  24
ATOM     24  C   UNL     1       0.557  -4.857  -4.260  1.00  0.00     0.137 C 
BRANCH  24  25
ATOM     25  C   UNL     1       0.829  -6.357  -4.172  1.00  0.00     0.023 C 
BRANCH  25  26
ATOM     26  C   UNL     1       1.118  -6.850  -2.757  1.00  0.00     0.002 CG0
ATOM     27  G   UNL     1      -0.161  -7.180  -1.987  1.00  0.00     0.000 G0
ENDBRANCH  25  26
ENDBRANCH  24  25
ENDBRANCH  19  24
ENDBRANCH  16  19
ENDBRANCH   6   8
ENDBRANCH   5   6
ENDBRANCH   4   5
ENDBRANCH   3   4
ENDBRANCH   2   3
ENDBRANCH   1   2
BRANCH   1  28
ATOM     28  C   UNL     1      -1.283   3.328  -0.799  1.00  0.00     0.188 C 
BRANCH  28  29
ATOM     29  O   UNL     1      -1.306   4.508  -1.575  1.00  0.00    -0.376 OA
BRANCH  29  30
ATOM     30  C   UNL     1      -2.382   5.420  -1.430  1.00  0.00     0.202 C 
BRANCH  30  31
ATOM     31  C   UNL     1      -2.893   5.857  -0.055  1.00  0.00     0.261 C 
BRANCH  31  32
ATOM     32  O   UNL     1      -2.787   4.911   0.993  1.00  0.00    -0.460 OA
BRANCH  32  33
ATOM     33  C   UNL     1      -3.725   3.944   0.964  1.00  0.00     0.338 C 
ATOM     34  O   UNL     1      -4.484   3.681   0.050  1.00  0.00    -0.246 OA
BRANCH  33  35
ATOM     35  C   UNL     1      -3.723   3.267   2.259  1.00  0.00     0.060 A 
ATOM     36  C   UNL     1      -4.225   1.967   2.307  1.00  0.00     0.016 A 
ATOM     37  C   UNL     1      -3.544   4.055   3.404  1.00  0.00     0.016 A 
ATOM     38  C   UNL     1      -4.777   1.538   3.492  1.00  0.00     0.010 A 
ATOM     39  C   UNL     1      -4.123   3.638   4.576  1.00  0.00     0.010 A 
ATOM     40  C   UNL     1      -4.814   2.429   4.570  1.00  0.00    -0.014 A 
BRANCH  40  41
ATOM     41  C   UNL     1      -5.641   2.077   5.699  1.00  0.00     0.031 A 
ATOM     42  C   UNL     1      -4.977   1.205   6.673  1.00  0.00     0.074 A 
ATOM     43  C   UNL     1      -6.881   2.572   5.859  1.00  0.00     0.049 A 
ATOM     44  N   UNL     1      -5.167  -0.059   6.846  1.00  0.00    -0.248 NA
ATOM     45  C   UNL     1      -3.859   1.774   7.440  1.00  0.00     0.031 C 
ATOM     46  C   UNL     1      -7.496   3.683   5.125  1.00  0.00     0.029 A 
ATOM     47  N   UNL     1      -7.817   2.253   6.793  1.00  0.00    -0.354 N 
ATOM     48  C   UNL     1      -4.355  -0.391   7.918  1.00  0.00     0.074 A 
ATOM     49  C   UNL     1      -3.423   0.696   8.091  1.00  0.00     0.031 C 
ATOM     50  C   UNL     1      -8.603   4.088   5.787  1.00  0.00     0.029 A 
ATOM     51  C   UNL     1      -8.850   3.174   6.890  1.00  0.00     0.049 A 
ATOM     52  H   UNL     1      -7.766   1.443   7.350  1.00  0.00     0.167 HD
ATOM     53  C   UNL     1      -4.717  -1.358   8.801  1.00  0.00     0.031 A 
ATOM     54  C   UNL     1      -9.796   3.210   7.859  1.00  0.00     0.031 A 
ATOM     55  C   UNL     1      -5.830  -2.141   8.338  1.00  0.00     0.049 A 
ATOM     56  C   UNL     1      -9.915   1.840   8.418  1.00  0.00     0.074 A 
ATOM     57  C   UNL     1      -6.032  -3.177   7.455  1.00  0.00     0.029 A 
ATOM     58  N   UNL     1      -7.054  -1.577   8.595  1.00  0.00    -0.354 N 
ATOM     59  N   UNL     1     -10.316   0.813   7.719  1.00  0.00    -0.248 NA
ATOM     60  C   UNL     1      -9.287   1.514   9.695  1.00  0.00     0.031 C 
ATOM     61  C   UNL     1      -7.405  -3.114   7.067  1.00  0.00     0.029 A 
ATOM     62  C   UNL     1      -8.010  -2.051   7.731  1.00  0.00     0.049 A 
ATOM     63  H   UNL     1      -7.225  -0.919   9.307  1.00  0.00     0.167 HD
ATOM     64  C   UNL     1      -9.635  -0.260   8.259  1.00  0.00     0.074 A 
ATOM     65  C   UNL     1      -9.165   0.191   9.560  1.00  0.00     0.031 C 
ATOM     66  C   UNL     1      -9.230  -1.306   7.485  1.00  0.00     0.031 A 
BRANCH  53  67
ATOM     67  C   UNL     1      -4.385  -1.257  10.264  1.00  0.00    -0.014 A 
ATOM     68  C   UNL     1      -4.486  -2.393  11.081  1.00  0.00     0.010 A 
ATOM     69  C   UNL     1      -4.220  -0.007  10.904  1.00  0.00     0.010 A 
ATOM     70  C   UNL     1      -4.412  -2.282  12.477  1.00  0.00     0.020 A 
ATOM     71  C   UNL     1      -4.100   0.110  12.287  1.00  0.00     0.020 A 
ATOM     72  C   UNL     1      -4.214  -1.031  13.068  1.00  0.00     0.054 A 
BRANCH  72  73
ATOM     73  S   UNL     1      -4.181  -0.894  14.871  1.00  0.00     0.124 S 
ATOM     74  O   UNL     1      -5.500  -1.399  15.240  1.00  0.00    -0.237 OA
ATOM     75  O   UNL     1      -3.052  -1.751  15.222  1.00  0.00    -0.237 OA
ATOM     76  O   UNL     1      -3.970   0.533  15.104  1.00  0.00    -0.744 OA
ENDBRANCH  72  73
ENDBRANCH  53  67
BRANCH  54  77
ATOM     77  C   UNL     1     -10.316   4.412   8.559  1.00  0.00    -0.014 A 
ATOM     78  C   UNL     1     -11.342   4.281   9.514  1.00  0.00     0.010 A 
ATOM     79  C   UNL     1      -9.606   5.630   8.522  1.00  0.00     0.010 A 
ATOM     80  C   UNL     1     -11.567   5.280  10.472  1.00  0.00     0.020 A 
ATOM     81  C   UNL     1      -9.836   6.638   9.463  1.00  0.00     0.020 A 
ATOM     82  C   UNL     1     -10.785   6.437  10.462  1.00  0.00     0.054 A 
BRANCH  82  83
ATOM     83  S   UNL     1     -10.935   7.617  11.833  1.00  0.00     0.124 S 
ATOM     84  O   UNL     1     -12.338   8.012  11.755  1.00  0.00    -0.237 OA
ATOM     85  O   UNL     1     -10.571   6.797  12.984  1.00  0.00    -0.237 OA
ATOM     86  O   UNL     1      -9.976   8.667  11.491  1.00  0.00    -0.744 OA
ENDBRANCH  82  83
ENDBRANCH  54  77
BRANCH  66  87
ATOM     87  C   UNL     1      -9.997  -1.586   6.224  1.00  0.00    -0.014 A 
ATOM     88  C   UNL     1      -9.981  -0.755   5.089  1.00  0.00     0.010 A 
ATOM     89  C   UNL     1     -10.715  -2.793   6.169  1.00  0.00     0.010 A 
ATOM     90  C   UNL     1     -10.676  -1.127   3.927  1.00  0.00     0.020 A 
ATOM     91  C   UNL     1     -11.397  -3.174   5.013  1.00  0.00     0.020 A 
ATOM     92  C   UNL     1     -11.373  -2.340   3.895  1.00  0.00     0.054 A 
BRANCH  92  93
ATOM     93  S   UNL     1     -12.242  -2.832   2.379  1.00  0.00     0.124 S 
ATOM     94  O   UNL     1     -13.160  -1.718   2.154  1.00  0.00    -0.237 OA
ATOM     95  O   UNL     1     -11.152  -2.954   1.414  1.00  0.00    -0.237 OA
ATOM     96  O   UNL     1     -12.886  -4.095   2.739  1.00  0.00    -0.744 OA
ENDBRANCH  92  93
ENDBRANCH  66  87
ENDBRANCH  40  41
ENDBRANCH  33  35
ENDBRANCH  32  33
ENDBRANCH  31  32
ENDBRANCH  30  31
ENDBRANCH  29  30
ENDBRANCH  28  29
ENDBRANCH   1  28
TORSDOF 21
