REMARK SMILES CS(=O)(=O)c1ccc(C2=NN(c3ccc(C(=O)OCCOCCOCCOC(=O)c4ccc(-c5c6nc(c(-c7ccc(S(=O)(=O)[O-])cc7)c7ccc([nH]7)c(-c7ccc(S(=O)(=O)[O-])cc7)c7nc(c(-c8ccc(S(=O)(=O)[O-])cc8)c8ccc5[nH]8)C=C7)C=C6)cc4)cc3)[C@H](c3ccccc3)C2)cc1
REMARK SMILES IDX 22 1 21 2 20 3 19 4 18 5 16 6 17 7 15 8 12 9 13 10 91 11
REMARK SMILES IDX 14 12 90 13 11 14 9 15 10 16 99 17 92 18 8 19 5 20 6 21
REMARK SMILES IDX 101 22 7 23 100 24 2 25 1 26 3 27 4 28 93 29 94 30 98 31
REMARK SMILES IDX 95 32 97 33 96 34 23 35 24 36 25 37 26 38 27 39 28 40 29 41
REMARK SMILES IDX 30 42 31 43 89 44 32 45 88 46 33 47 34 48 35 49 82 50 36 51
REMARK SMILES IDX 87 52 81 53 83 54 37 55 86 56 80 57 79 58 38 60 68 61 49 62
REMARK SMILES IDX 67 63 50 64 53 65 66 66 84 67 51 68 52 69 65 71 85 72 54 73
REMARK SMILES IDX 39 74 40 75 48 76 41 77 47 78 42 79 43 80 44 81 45 82 46 83
REMARK SMILES IDX 69 84 70 85 78 86 71 87 77 88 72 89 73 90 74 91 75 92 76 93
REMARK SMILES IDX 55 94 56 95 64 96 57 97 63 98 58 99 59 100 60 101 61 102
REMARK SMILES IDX 62 103
REMARK H PARENT 83 59 53 70
REMARK Flexibility Score: inf
ROOT
ATOM      1  C   UNL     1      -1.141  -5.587 -13.788  1.00  0.00     0.188 C 
ENDROOT
BRANCH   1   2
ATOM      2  O   UNL     1      -1.191  -5.892 -15.172  1.00  0.00    -0.376 OA
BRANCH   2   3
ATOM      3  C   UNL     1      -0.023  -6.321 -15.856  1.00  0.00     0.202 C 
BRANCH   3   4
ATOM      4  C   UNL     1       1.358  -5.696 -15.600  1.00  0.00     0.261 C 
BRANCH   4   5
ATOM      5  O   UNL     1       1.697  -5.497 -14.222  1.00  0.00    -0.460 OA
BRANCH   5   6
ATOM      6  C   UNL     1       1.819  -4.204 -13.832  1.00  0.00     0.338 C 
ATOM      7  O   UNL     1       1.748  -3.219 -14.548  1.00  0.00    -0.246 OA
BRANCH   6   8
ATOM      8  C   UNL     1       1.930  -4.115 -12.355  1.00  0.00     0.060 A 
ATOM      9  C   UNL     1       2.297  -3.742  -9.597  1.00  0.00     0.060 A 
ATOM     10  C   UNL     1       1.543  -2.825 -10.337  1.00  0.00     0.029 A 
ATOM     11  C   UNL     1       2.741  -4.914 -10.229  1.00  0.00     0.029 A 
ATOM     12  C   UNL     1       1.367  -3.005 -11.712  1.00  0.00     0.018 A 
ATOM     13  C   UNL     1       2.580  -5.097 -11.604  1.00  0.00     0.018 A 
BRANCH   9  14
ATOM     14  N   UNL     1       2.794  -3.427  -8.326  1.00  0.00    -0.257 N 
ATOM     15  C   UNL     1       2.530  -2.490  -6.429  1.00  0.00     0.071 C 
ATOM     16  N   UNL     1       1.956  -3.302  -7.263  1.00  0.00    -0.176 NA
ATOM     17  C   UNL     1       3.800  -1.843  -6.912  1.00  0.00     0.091 C 
ATOM     18  C   UNL     1       3.990  -2.568  -8.250  1.00  0.00     0.144 C 
BRANCH  15  19
ATOM     19  C   UNL     1       2.011  -2.223  -5.074  1.00  0.00    -0.002 A 
ATOM     20  C   UNL     1       1.080  -1.814  -2.473  1.00  0.00     0.067 A 
ATOM     21  C   UNL     1       1.062  -3.099  -3.028  1.00  0.00     0.021 A 
ATOM     22  C   UNL     1       1.560  -0.730  -3.214  1.00  0.00     0.021 A 
ATOM     23  C   UNL     1       1.516  -3.300  -4.333  1.00  0.00     0.011 A 
ATOM     24  C   UNL     1       2.037  -0.939  -4.516  1.00  0.00     0.011 A 
BRANCH  20  25
ATOM     25  S   UNL     1       0.488  -1.642  -0.803  1.00  0.00     0.175 S 
ATOM     26  C   UNL     1       1.061  -0.085  -0.191  1.00  0.00     0.163 C 
ATOM     27  O   UNL     1       1.161  -2.667  -0.026  1.00  0.00    -0.224 OA
ATOM     28  O   UNL     1      -0.957  -1.584  -0.879  1.00  0.00    -0.224 OA
ENDBRANCH  20  25
ENDBRANCH  15  19
BRANCH  18  29
ATOM     29  C   UNL     1       5.253  -3.402  -8.448  1.00  0.00    -0.023 A 
ATOM     30  C   UNL     1       5.997  -3.958  -7.399  1.00  0.00     0.006 A 
ATOM     31  C   UNL     1       5.644  -3.718  -9.766  1.00  0.00     0.006 A 
ATOM     32  C   UNL     1       7.076  -4.811  -7.661  1.00  0.00     0.000 A 
ATOM     33  C   UNL     1       6.686  -4.609 -10.026  1.00  0.00     0.000 A 
ATOM     34  C   UNL     1       7.406  -5.153  -8.971  1.00  0.00     0.000 A 
ENDBRANCH  18  29
ENDBRANCH   9  14
ENDBRANCH   6   8
ENDBRANCH   5   6
ENDBRANCH   4   5
ENDBRANCH   3   4
ENDBRANCH   2   3
ENDBRANCH   1   2
BRANCH   1  35
ATOM     35  C   UNL     1      -0.604  -6.634 -12.791  1.00  0.00     0.188 C 
BRANCH  35  36
ATOM     36  O   UNL     1      -0.037  -7.794 -13.351  1.00  0.00    -0.376 OA
BRANCH  36  37
ATOM     37  C   UNL     1      -0.863  -8.895 -13.687  1.00  0.00     0.202 C 
BRANCH  37  38
ATOM     38  C   UNL     1      -2.407  -8.929 -13.654  1.00  0.00     0.261 C 
BRANCH  38  39
ATOM     39  O   UNL     1      -3.119  -7.748 -13.281  1.00  0.00    -0.460 OA
BRANCH  39  40
ATOM     40  C   UNL     1      -3.583  -7.710 -12.008  1.00  0.00     0.338 C 
ATOM     41  O   UNL     1      -3.426  -8.555 -11.142  1.00  0.00    -0.246 OA
BRANCH  40  42
ATOM     42  C   UNL     1      -4.173  -6.379 -11.764  1.00  0.00     0.060 A 
ATOM     43  C   UNL     1      -3.522  -5.501 -10.887  1.00  0.00     0.016 A 
ATOM     44  C   UNL     1      -5.369  -6.009 -12.381  1.00  0.00     0.016 A 
ATOM     45  C   UNL     1      -4.077  -4.251 -10.613  1.00  0.00     0.010 A 
ATOM     46  C   UNL     1      -5.933  -4.763 -12.088  1.00  0.00     0.010 A 
ATOM     47  C   UNL     1      -5.304  -3.888 -11.184  1.00  0.00    -0.014 A 
BRANCH  47  48
ATOM     48  C   UNL     1      -5.992  -2.654 -10.731  1.00  0.00     0.031 A 
ATOM     49  C   UNL     1      -7.106  -2.766  -9.726  1.00  0.00     0.074 A 
ATOM     50  C   UNL     1      -5.628  -1.447 -11.200  1.00  0.00     0.049 A 
ATOM     51  N   UNL     1      -7.852  -1.825  -9.207  1.00  0.00    -0.248 NA
ATOM     52  C   UNL     1      -7.423  -4.121  -9.249  1.00  0.00     0.031 C 
ATOM     53  C   UNL     1      -4.551  -1.202 -12.157  1.00  0.00     0.029 A 
ATOM     54  N   UNL     1      -6.138  -0.200 -10.938  1.00  0.00    -0.354 N 
ATOM     55  C   UNL     1      -8.737  -2.474  -8.354  1.00  0.00     0.074 A 
ATOM     56  C   UNL     1      -8.452  -3.890  -8.447  1.00  0.00     0.031 C 
ATOM     57  C   UNL     1      -4.489   0.116 -12.413  1.00  0.00     0.029 A 
ATOM     58  C   UNL     1      -5.542   0.802 -11.664  1.00  0.00     0.049 A 
ATOM     59  H   UNL     1      -6.863  -0.038 -10.291  1.00  0.00     0.167 HD
ATOM     60  C   UNL     1      -9.701  -1.940  -7.564  1.00  0.00     0.031 A 
ATOM     61  C   UNL     1      -5.825   2.119 -11.738  1.00  0.00     0.031 A 
ATOM     62  C   UNL     1      -9.996  -0.533  -7.490  1.00  0.00     0.049 A 
ATOM     63  C   UNL     1      -6.934   2.686 -10.892  1.00  0.00     0.074 A 
ATOM     64  C   UNL     1     -10.925   0.110  -6.691  1.00  0.00     0.029 A 
ATOM     65  N   UNL     1      -9.384   0.448  -8.258  1.00  0.00    -0.354 N 
ATOM     66  N   UNL     1      -7.726   2.070 -10.047  1.00  0.00    -0.248 NA
ATOM     67  C   UNL     1      -7.178   4.131 -11.001  1.00  0.00     0.031 C 
ATOM     68  C   UNL     1     -10.927   1.468  -7.028  1.00  0.00     0.029 A 
ATOM     69  C   UNL     1      -9.946   1.685  -7.983  1.00  0.00     0.049 A 
ATOM     70  H   UNL     1      -8.658   0.289  -8.903  1.00  0.00     0.167 HD
ATOM     71  C   UNL     1      -8.551   3.054  -9.510  1.00  0.00     0.074 A 
ATOM     72  C   UNL     1      -8.145   4.309 -10.110  1.00  0.00     0.031 C 
ATOM     73  C   UNL     1      -9.552   2.928  -8.601  1.00  0.00     0.031 A 
BRANCH  60  74
ATOM     74  C   UNL     1     -10.547  -2.897  -6.762  1.00  0.00    -0.014 A 
ATOM     75  C   UNL     1     -10.014  -3.634  -5.688  1.00  0.00     0.010 A 
ATOM     76  C   UNL     1     -11.908  -3.051  -7.085  1.00  0.00     0.010 A 
ATOM     77  C   UNL     1     -10.811  -4.548  -4.991  1.00  0.00     0.020 A 
ATOM     78  C   UNL     1     -12.716  -3.939  -6.369  1.00  0.00     0.020 A 
ATOM     79  C   UNL     1     -12.156  -4.698  -5.341  1.00  0.00     0.054 A 
BRANCH  79  80
ATOM     80  S   UNL     1     -13.167  -5.893  -4.424  1.00  0.00     0.124 S 
ATOM     81  O   UNL     1     -12.640  -7.167  -4.907  1.00  0.00    -0.237 OA
ATOM     82  O   UNL     1     -12.860  -5.573  -3.033  1.00  0.00    -0.237 OA
ATOM     83  O   UNL     1     -14.533  -5.587  -4.843  1.00  0.00    -0.744 OA
ENDBRANCH  79  80
ENDBRANCH  60  74
BRANCH  61  84
ATOM     84  C   UNL     1      -5.048   2.983 -12.669  1.00  0.00    -0.014 A 
ATOM     85  C   UNL     1      -4.136   3.934 -12.181  1.00  0.00     0.010 A 
ATOM     86  C   UNL     1      -5.193   2.827 -14.061  1.00  0.00     0.010 A 
ATOM     87  C   UNL     1      -3.380   4.710 -13.066  1.00  0.00     0.020 A 
ATOM     88  C   UNL     1      -4.419   3.579 -14.948  1.00  0.00     0.020 A 
ATOM     89  C   UNL     1      -3.519   4.519 -14.445  1.00  0.00     0.054 A 
BRANCH  89  90
ATOM     90  S   UNL     1      -2.460   5.471 -15.569  1.00  0.00     0.124 S 
ATOM     91  O   UNL     1      -3.021   6.814 -15.453  1.00  0.00    -0.237 OA
ATOM     92  O   UNL     1      -1.135   5.287 -14.982  1.00  0.00    -0.237 OA
ATOM     93  O   UNL     1      -2.657   4.820 -16.862  1.00  0.00    -0.744 OA
ENDBRANCH  89  90
ENDBRANCH  61  84
BRANCH  73  94
ATOM     94  C   UNL     1     -10.273   4.186  -8.184  1.00  0.00    -0.014 A 
ATOM     95  C   UNL     1     -11.123   4.873  -9.069  1.00  0.00     0.010 A 
ATOM     96  C   UNL     1     -10.127   4.668  -6.869  1.00  0.00     0.010 A 
ATOM     97  C   UNL     1     -11.777   6.041  -8.663  1.00  0.00     0.020 A 
ATOM     98  C   UNL     1     -10.804   5.816  -6.449  1.00  0.00     0.020 A 
ATOM     99  C   UNL     1     -11.610   6.507  -7.355  1.00  0.00     0.054 A 
BRANCH  99 100
ATOM    100  S   UNL     1     -12.484   8.013  -6.846  1.00  0.00     0.124 S 
ATOM    101  O   UNL     1     -11.743   9.050  -7.560  1.00  0.00    -0.237 OA
ATOM    102  O   UNL     1     -13.844   7.772  -7.322  1.00  0.00    -0.237 OA
ATOM    103  O   UNL     1     -12.332   8.029  -5.393  1.00  0.00    -0.744 OA
ENDBRANCH  99 100
ENDBRANCH  73  94
ENDBRANCH  47  48
ENDBRANCH  40  42
ENDBRANCH  39  40
ENDBRANCH  38  39
ENDBRANCH  37  38
ENDBRANCH  36  37
ENDBRANCH  35  36
ENDBRANCH   1  35
TORSDOF 24
