REMARK SMILES CC[C@@H](C)[C@@H](NC(=O)Cn1nc(-c2ccc3ccccc3c2)ccc1=O)C(=O)OCCOCCOCCOC(=O)c1ccc(-c2c3nc(c(-c4ccc(S(=O)(=O)[O-])cc4)c4ccc([nH]4)c(-c4ccc(S(=O)(=O)[O-])cc4)c4nc(c(-c5ccc(S(=O)(=O)[O-])cc5)c5ccc2[nH]5)C=C4)C=C3)cc1
REMARK SMILES IDX 33 1 32 2 31 3 30 4 29 5 27 6 28 7 5 8 3 9 4 10 2 11 1 12
REMARK SMILES IDX 6 13 7 14 8 16 9 17 10 18 11 19 25 20 12 21 24 22 26 23
REMARK SMILES IDX 23 24 13 25 14 26 22 27 15 28 21 29 16 30 20 31 17 32 19 33
REMARK SMILES IDX 18 34 34 35 35 36 36 37 37 38 38 39 39 40 40 41 41 42 42 43
REMARK SMILES IDX 100 44 43 45 99 46 44 47 45 48 46 49 93 50 47 51 98 52 92 53
REMARK SMILES IDX 94 54 48 55 97 56 91 57 90 58 49 60 79 61 60 62 78 63 61 64
REMARK SMILES IDX 64 65 77 66 95 67 62 68 63 69 76 71 96 72 65 73 50 74 51 75
REMARK SMILES IDX 59 76 52 77 58 78 53 79 54 80 55 81 56 82 57 83 80 84 81 85
REMARK SMILES IDX 89 86 82 87 88 88 83 89 84 90 85 91 86 92 87 93 66 94 67 95
REMARK SMILES IDX 75 96 68 97 74 98 69 99 70 100 71 101 72 102 73 103
REMARK H PARENT 6 15 94 59 64 70
REMARK Flexibility Score: inf
ROOT
ATOM      1  C   UNL     1      -0.611   4.713   4.307  1.00  0.00     0.188 C 
ENDROOT
BRANCH   1   2
ATOM      2  O   UNL     1      -0.183   5.302   5.521  1.00  0.00    -0.376 OA
BRANCH   2   3
ATOM      3  C   UNL     1       0.903   4.655   6.174  1.00  0.00     0.202 C 
BRANCH   3   4
ATOM      4  C   UNL     1       0.728   3.179   6.491  1.00  0.00     0.261 C 
BRANCH   4   5
ATOM      5  O   UNL     1       1.042   2.385   5.318  1.00  0.00    -0.462 OA
BRANCH   5   6
ATOM      6  C   UNL     1       0.160   1.418   4.984  1.00  0.00     0.328 C 
ATOM      7  O   UNL     1      -0.949   1.294   5.492  1.00  0.00    -0.250 OA
BRANCH   6   8
ATOM      8  C   UNL     1       0.758   0.359   4.047  1.00  0.00     0.195 C 
BRANCH   8   9
ATOM      9  C   UNL     1       1.196   0.581   2.571  1.00  0.00     0.019 C 
ATOM     10  C   UNL     1       0.693   1.881   1.976  1.00  0.00     0.010 C 
BRANCH   9  11
ATOM     11  C   UNL     1       0.718  -0.618   1.700  1.00  0.00     0.002 C 
ATOM     12  C   UNL     1       1.159  -0.591   0.240  1.00  0.00     0.004 C 
ENDBRANCH   9  11
ENDBRANCH   8   9
BRANCH   8  13
ATOM     13  N   UNL     1       1.651  -0.529   4.795  1.00  0.00    -0.341 N 
ATOM     14  C   UNL     1       2.800  -0.388   5.498  1.00  0.00     0.242 C 
ATOM     15  H   UNL     1       1.336  -1.461   4.786  1.00  0.00     0.164 HD
ATOM     16  O   UNL     1       3.181  -1.450   6.025  1.00  0.00    -0.273 OA
BRANCH  14  17
ATOM     17  C   UNL     1       3.518   0.929   5.915  1.00  0.00     0.248 C 
BRANCH  17  18
ATOM     18  N   UNL     1       3.865   2.014   4.991  1.00  0.00    -0.220 N 
ATOM     19  N   UNL     1       3.871   3.349   5.493  1.00  0.00    -0.169 NA
ATOM     20  C   UNL     1       4.522   1.656   3.826  1.00  0.00     0.267 A 
ATOM     21  C   UNL     1       4.355   4.291   4.727  1.00  0.00     0.091 A 
ATOM     22  C   UNL     1       4.999   2.762   2.979  1.00  0.00     0.075 A 
ATOM     23  O   UNL     1       4.713   0.502   3.450  1.00  0.00    -0.268 OA
ATOM     24  C   UNL     1       4.949   4.027   3.397  1.00  0.00     0.036 A 
BRANCH  21  25
ATOM     25  C   UNL     1       4.293   5.765   5.078  1.00  0.00     0.003 A 
ATOM     26  C   UNL     1       5.309   6.463   5.714  1.00  0.00     0.011 A 
ATOM     27  C   UNL     1       3.191   6.514   4.657  1.00  0.00     0.019 A 
ATOM     28  C   UNL     1       5.198   7.869   5.879  1.00  0.00     0.009 A 
ATOM     29  C   UNL     1       3.030   7.891   4.829  1.00  0.00    -0.018 A 
ATOM     30  C   UNL     1       4.069   8.606   5.425  1.00  0.00    -0.018 A 
ATOM     31  C   UNL     1       1.848   8.538   4.411  1.00  0.00     0.009 A 
ATOM     32  C   UNL     1       3.910  10.007   5.532  1.00  0.00     0.009 A 
ATOM     33  C   UNL     1       1.705   9.914   4.534  1.00  0.00     0.001 A 
ATOM     34  C   UNL     1       2.745  10.652   5.081  1.00  0.00     0.001 A 
ENDBRANCH  21  25
ENDBRANCH  17  18
ENDBRANCH  14  17
ENDBRANCH   8  13
ENDBRANCH   6   8
ENDBRANCH   5   6
ENDBRANCH   4   5
ENDBRANCH   3   4
ENDBRANCH   2   3
ENDBRANCH   1   2
BRANCH   1  35
ATOM     35  C   UNL     1       0.126   5.147   3.039  1.00  0.00     0.188 C 
BRANCH  35  36
ATOM     36  O   UNL     1       1.504   4.858   2.862  1.00  0.00    -0.376 OA
BRANCH  36  37
ATOM     37  C   UNL     1       2.044   5.163   1.558  1.00  0.00     0.202 C 
BRANCH  37  38
ATOM     38  C   UNL     1       1.713   6.527   0.917  1.00  0.00     0.261 C 
BRANCH  38  39
ATOM     39  O   UNL     1       0.311   6.778   0.720  1.00  0.00    -0.460 OA
BRANCH  39  40
ATOM     40  C   UNL     1      -0.412   5.840   0.061  1.00  0.00     0.338 C 
ATOM     41  O   UNL     1       0.037   4.976  -0.678  1.00  0.00    -0.246 OA
BRANCH  40  42
ATOM     42  C   UNL     1      -1.769   5.810   0.684  1.00  0.00     0.060 A 
ATOM     43  C   UNL     1      -2.283   6.924   1.364  1.00  0.00     0.016 A 
ATOM     44  C   UNL     1      -2.414   4.566   0.802  1.00  0.00     0.016 A 
ATOM     45  C   UNL     1      -3.445   6.802   2.126  1.00  0.00     0.010 A 
ATOM     46  C   UNL     1      -3.582   4.446   1.558  1.00  0.00     0.010 A 
ATOM     47  C   UNL     1      -4.128   5.574   2.185  1.00  0.00    -0.014 A 
BRANCH  47  48
ATOM     48  C   UNL     1      -5.554   5.556   2.589  1.00  0.00     0.031 A 
ATOM     49  C   UNL     1      -6.047   4.980   3.877  1.00  0.00     0.074 A 
ATOM     50  C   UNL     1      -6.417   6.046   1.678  1.00  0.00     0.049 A 
ATOM     51  N   UNL     1      -7.274   4.953   4.332  1.00  0.00    -0.248 NA
ATOM     52  C   UNL     1      -5.060   4.348   4.762  1.00  0.00     0.031 C 
ATOM     53  C   UNL     1      -6.023   6.588   0.373  1.00  0.00     0.029 A 
ATOM     54  N   UNL     1      -7.779   6.176   1.694  1.00  0.00    -0.354 N 
ATOM     55  C   UNL     1      -7.212   4.323   5.567  1.00  0.00     0.074 A 
ATOM     56  C   UNL     1      -5.829   3.935   5.765  1.00  0.00     0.031 C 
ATOM     57  C   UNL     1      -7.111   7.027  -0.267  1.00  0.00     0.029 A 
ATOM     58  C   UNL     1      -8.284   6.754   0.554  1.00  0.00     0.049 A 
ATOM     59  H   UNL     1      -8.342   5.885   2.448  1.00  0.00     0.167 HD
ATOM     60  C   UNL     1      -8.218   4.111   6.452  1.00  0.00     0.031 A 
ATOM     61  C   UNL     1      -9.548   7.042   0.196  1.00  0.00     0.031 A 
ATOM     62  C   UNL     1      -9.596   4.473   6.201  1.00  0.00     0.049 A 
ATOM     63  C   UNL     1     -10.648   6.764   1.172  1.00  0.00     0.074 A 
ATOM     64  C   UNL     1     -10.686   4.330   7.042  1.00  0.00     0.029 A 
ATOM     65  N   UNL     1     -10.077   5.033   5.023  1.00  0.00    -0.354 N 
ATOM     66  N   UNL     1     -10.560   6.247   2.374  1.00  0.00    -0.248 NA
ATOM     67  C   UNL     1     -12.009   7.123   0.761  1.00  0.00     0.031 C 
ATOM     68  C   UNL     1     -11.832   4.724   6.346  1.00  0.00     0.029 A 
ATOM     69  C   UNL     1     -11.452   5.205   5.103  1.00  0.00     0.049 A 
ATOM     70  H   UNL     1      -9.523   5.274   4.246  1.00  0.00     0.167 HD
ATOM     71  C   UNL     1     -11.855   6.230   2.874  1.00  0.00     0.074 A 
ATOM     72  C   UNL     1     -12.702   6.811   1.850  1.00  0.00     0.031 C 
ATOM     73  C   UNL     1     -12.294   5.772   4.072  1.00  0.00     0.031 A 
BRANCH  60  74
ATOM     74  C   UNL     1      -7.883   3.476   7.784  1.00  0.00    -0.014 A 
ATOM     75  C   UNL     1      -8.463   2.247   8.155  1.00  0.00     0.010 A 
ATOM     76  C   UNL     1      -7.087   4.156   8.724  1.00  0.00     0.010 A 
ATOM     77  C   UNL     1      -8.274   1.725   9.440  1.00  0.00     0.020 A 
ATOM     78  C   UNL     1      -6.866   3.622   9.998  1.00  0.00     0.020 A 
ATOM     79  C   UNL     1      -7.480   2.420  10.356  1.00  0.00     0.054 A 
BRANCH  79  80
ATOM     80  S   UNL     1      -7.258   1.736  12.023  1.00  0.00     0.124 S 
ATOM     81  O   UNL     1      -8.562   1.974  12.632  1.00  0.00    -0.237 OA
ATOM     82  O   UNL     1      -6.933   0.337  11.753  1.00  0.00    -0.237 OA
ATOM     83  O   UNL     1      -6.158   2.525  12.574  1.00  0.00    -0.744 OA
ENDBRANCH  79  80
ENDBRANCH  60  74
BRANCH  61  84
ATOM     84  C   UNL     1      -9.774   7.699  -1.120  1.00  0.00    -0.014 A 
ATOM     85  C   UNL     1      -9.485   7.013  -2.316  1.00  0.00     0.010 A 
ATOM     86  C   UNL     1     -10.092   9.066  -1.175  1.00  0.00     0.010 A 
ATOM     87  C   UNL     1      -9.421   7.701  -3.530  1.00  0.00     0.020 A 
ATOM     88  C   UNL     1     -10.065   9.751  -2.394  1.00  0.00     0.020 A 
ATOM     89  C   UNL     1      -9.689   9.072  -3.555  1.00  0.00     0.054 A 
BRANCH  89  90
ATOM     90  S   UNL     1      -9.474   9.967  -5.118  1.00  0.00     0.124 S 
ATOM     91  O   UNL     1      -8.021   9.962  -5.267  1.00  0.00    -0.237 OA
ATOM     92  O   UNL     1     -10.207   9.131  -6.065  1.00  0.00    -0.237 OA
ATOM     93  O   UNL     1     -10.069  11.273  -4.851  1.00  0.00    -0.744 OA
ENDBRANCH  89  90
ENDBRANCH  61  84
BRANCH  73  94
ATOM     94  C   UNL     1     -13.773   5.853   4.359  1.00  0.00    -0.014 A 
ATOM     95  C   UNL     1     -14.238   6.662   5.413  1.00  0.00     0.010 A 
ATOM     96  C   UNL     1     -14.686   5.025   3.681  1.00  0.00     0.010 A 
ATOM     97  C   UNL     1     -15.573   6.600   5.821  1.00  0.00     0.020 A 
ATOM     98  C   UNL     1     -16.031   4.988   4.061  1.00  0.00     0.020 A 
ATOM     99  C   UNL     1     -16.458   5.752   5.150  1.00  0.00     0.054 A 
BRANCH  99 100
ATOM    100  S   UNL     1     -18.170   5.636   5.739  1.00  0.00     0.124 S 
ATOM    101  O   UNL     1     -18.016   4.891   6.985  1.00  0.00    -0.237 OA
ATOM    102  O   UNL     1     -18.552   7.038   5.885  1.00  0.00    -0.237 OA
ATOM    103  O   UNL     1     -18.855   4.920   4.665  1.00  0.00    -0.744 OA
ENDBRANCH  99 100
ENDBRANCH  73  94
ENDBRANCH  47  48
ENDBRANCH  40  42
ENDBRANCH  39  40
ENDBRANCH  38  39
ENDBRANCH  37  38
ENDBRANCH  36  37
ENDBRANCH  35  36
ENDBRANCH   1  35
TORSDOF 26
