REMARK SMILES CCOC(=O)c1ccc(NC(=O)[C@@H]2[C@H]3c4ccccc4[C@H](c4ccccc43)[C@@H]2C(=O)OCCOCCOCCOC(=O)c2ccc(-c3c4nc(c(-c5ccc(S(=O)(=O)[O-])cc5)c5ccc([nH]5)c(-c5ccc(S(=O)(=O)[O-])cc5)c5nc(c(-c6ccc(S(=O)(=O)[O-])cc6)c6ccc3[nH]6)C=C5)C=C4)cc2)cc1
REMARK SMILES IDX 35 1 34 2 33 3 32 4 31 5 29 6 30 7 28 8 13 9 14 10 27 11
REMARK SMILES IDX 15 12 21 13 26 14 22 15 20 16 16 17 25 18 23 19 19 20 17 21
REMARK SMILES IDX 24 22 18 23 11 24 10 25 12 27 9 28 6 29 7 30 104 31 8 32
REMARK SMILES IDX 103 33 4 34 5 35 3 36 2 37 1 38 36 39 37 40 38 41 39 42
REMARK SMILES IDX 40 43 41 44 42 45 43 46 44 47 102 48 45 49 101 50 46 51
REMARK SMILES IDX 47 52 48 53 95 54 49 55 100 56 94 57 96 58 50 59 99 60 93 61
REMARK SMILES IDX 92 62 51 64 81 65 62 66 80 67 63 68 66 69 79 70 97 71 64 72
REMARK SMILES IDX 65 73 78 75 98 76 67 77 52 78 53 79 61 80 54 81 60 82 55 83
REMARK SMILES IDX 56 84 57 85 58 86 59 87 82 88 83 89 91 90 84 91 90 92 85 93
REMARK SMILES IDX 86 94 87 95 88 96 89 97 68 98 69 99 77 100 70 101 76 102
REMARK SMILES IDX 71 103 72 104 73 105 74 106 75 107
REMARK H PARENT 10 26 96 63 66 74
REMARK Flexibility Score: inf
ROOT
ATOM      1  C   UNL     1       2.920   4.869   5.715  1.00  0.00     0.188 C 
ENDROOT
BRANCH   1   2
ATOM      2  O   UNL     1       1.874   4.096   5.149  1.00  0.00    -0.376 OA
BRANCH   2   3
ATOM      3  C   UNL     1       1.564   4.336   3.789  1.00  0.00     0.202 C 
BRANCH   3   4
ATOM      4  C   UNL     1       2.727   4.085   2.842  1.00  0.00     0.261 C 
BRANCH   4   5
ATOM      5  O   UNL     1       3.871   4.957   2.971  1.00  0.00    -0.463 OA
BRANCH   5   6
ATOM      6  C   UNL     1       3.736   6.319   2.971  1.00  0.00     0.310 C 
ATOM      7  O   UNL     1       2.704   6.934   3.184  1.00  0.00    -0.252 OA
BRANCH   6   8
ATOM      8  C   UNL     1       4.977   6.921   2.372  1.00  0.00     0.124 C 
ATOM      9  C   UNL     1       6.335   6.243   2.194  1.00  0.00     0.106 C 
ATOM     10  C   UNL     1       6.884   6.925   0.850  1.00  0.00     0.063 C 
ATOM     11  C   UNL     1       7.420   8.259   1.340  1.00  0.00    -0.036 A 
ATOM     12  C   UNL     1       5.693   7.312  -0.142  1.00  0.00    -0.036 A 
ATOM     13  C   UNL     1       5.012   8.446   1.916  1.00  0.00     0.065 C 
ATOM     14  C   UNL     1       8.734   8.692   1.220  1.00  0.00     0.004 A 
ATOM     15  C   UNL     1       6.410   9.080   1.900  1.00  0.00    -0.036 A 
ATOM     16  C   UNL     1       4.741   8.236   0.435  1.00  0.00    -0.036 A 
ATOM     17  C   UNL     1       5.352   6.719  -1.342  1.00  0.00     0.004 A 
ATOM     18  C   UNL     1       9.038   9.995   1.604  1.00  0.00     0.000 A 
ATOM     19  C   UNL     1       6.709  10.404   2.178  1.00  0.00     0.004 A 
ATOM     20  C   UNL     1       3.547   8.609  -0.162  1.00  0.00     0.004 A 
ATOM     21  C   UNL     1       4.125   7.076  -1.944  1.00  0.00     0.000 A 
ATOM     22  C   UNL     1       8.028  10.852   2.055  1.00  0.00     0.000 A 
ATOM     23  C   UNL     1       3.243   8.016  -1.372  1.00  0.00     0.000 A 
BRANCH   9  24
ATOM     24  C   UNL     1       7.417   6.173   3.318  1.00  0.00     0.229 C 
ATOM     25  N   UNL     1       7.647   7.040   4.351  1.00  0.00    -0.326 N 
ATOM     26  H   UNL     1       8.518   6.900   4.786  1.00  0.00     0.169 HD
ATOM     27  O   UNL     1       8.289   5.294   3.185  1.00  0.00    -0.274 OA
BRANCH  25  28
ATOM     28  C   UNL     1       6.911   8.084   4.922  1.00  0.00     0.041 A 
ATOM     29  C   UNL     1       5.446  10.404   5.324  1.00  0.00     0.060 A 
ATOM     30  C   UNL     1       4.798   9.166   5.287  1.00  0.00     0.018 A 
ATOM     31  C   UNL     1       6.837  10.443   5.464  1.00  0.00     0.018 A 
ATOM     32  C   UNL     1       5.543   8.004   5.106  1.00  0.00     0.027 A 
ATOM     33  C   UNL     1       7.575   9.267   5.275  1.00  0.00     0.027 A 
BRANCH  29  34
ATOM     34  C   UNL     1       4.748  11.639   4.861  1.00  0.00     0.338 C 
ATOM     35  O   UNL     1       5.249  12.752   4.884  1.00  0.00    -0.246 OA
BRANCH  34  36
ATOM     36  O   UNL     1       3.659  11.238   4.148  1.00  0.00    -0.462 OA
BRANCH  36  37
ATOM     37  C   UNL     1       3.164  12.124   3.132  1.00  0.00     0.230 C 
ATOM     38  C   UNL     1       1.694  11.838   2.890  1.00  0.00     0.049 C 
ENDBRANCH  36  37
ENDBRANCH  34  36
ENDBRANCH  29  34
ENDBRANCH  25  28
ENDBRANCH   9  24
ENDBRANCH   6   8
ENDBRANCH   5   6
ENDBRANCH   4   5
ENDBRANCH   3   4
ENDBRANCH   2   3
ENDBRANCH   1   2
BRANCH   1  39
ATOM     39  C   UNL     1       4.261   4.117   5.851  1.00  0.00     0.188 C 
BRANCH  39  40
ATOM     40  O   UNL     1       4.262   2.721   6.135  1.00  0.00    -0.376 OA
BRANCH  40  41
ATOM     41  C   UNL     1       3.157   2.155   6.820  1.00  0.00     0.202 C 
BRANCH  41  42
ATOM     42  C   UNL     1       2.946   2.571   8.284  1.00  0.00     0.261 C 
BRANCH  42  43
ATOM     43  O   UNL     1       2.787   3.988   8.511  1.00  0.00    -0.460 OA
BRANCH  43  44
ATOM     44  C   UNL     1       3.861   4.638   9.032  1.00  0.00     0.338 C 
ATOM     45  O   UNL     1       4.902   4.116   9.394  1.00  0.00    -0.246 OA
BRANCH  44  46
ATOM     46  C   UNL     1       3.704   6.124   8.948  1.00  0.00     0.060 A 
ATOM     47  C   UNL     1       4.830   6.873   8.582  1.00  0.00     0.016 A 
ATOM     48  C   UNL     1       2.513   6.796   9.247  1.00  0.00     0.016 A 
ATOM     49  C   UNL     1       4.782   8.275   8.562  1.00  0.00     0.010 A 
ATOM     50  C   UNL     1       2.473   8.208   9.244  1.00  0.00     0.010 A 
ATOM     51  C   UNL     1       3.613   8.966   8.926  1.00  0.00    -0.014 A 
BRANCH  51  52
ATOM     52  C   UNL     1       3.685  10.446   9.162  1.00  0.00     0.031 A 
ATOM     53  C   UNL     1       4.420  10.940  10.384  1.00  0.00     0.074 A 
ATOM     54  C   UNL     1       3.117  11.368   8.358  1.00  0.00     0.049 A 
ATOM     55  N   UNL     1       4.719  12.164  10.740  1.00  0.00    -0.248 NA
ATOM     56  C   UNL     1       4.832   9.911  11.350  1.00  0.00     0.031 C 
ATOM     57  C   UNL     1       2.287  11.084   7.195  1.00  0.00     0.029 A 
ATOM     58  N   UNL     1       3.187  12.750   8.382  1.00  0.00    -0.354 N 
ATOM     59  C   UNL     1       5.296  12.060  12.000  1.00  0.00     0.074 A 
ATOM     60  C   UNL     1       5.351  10.647  12.319  1.00  0.00     0.031 C 
ATOM     61  C   UNL     1       2.008  12.243   6.570  1.00  0.00     0.029 A 
ATOM     62  C   UNL     1       2.654  13.352   7.260  1.00  0.00     0.049 A 
ATOM     63  H   UNL     1       3.579  13.256   9.130  1.00  0.00     0.167 HD
ATOM     64  C   UNL     1       5.689  13.041  12.849  1.00  0.00     0.031 A 
ATOM     65  C   UNL     1       2.732  14.629   6.817  1.00  0.00     0.031 A 
ATOM     66  C   UNL     1       5.582  14.452  12.594  1.00  0.00     0.049 A 
ATOM     67  C   UNL     1       3.322  15.689   7.706  1.00  0.00     0.074 A 
ATOM     68  C   UNL     1       5.910  15.507  13.430  1.00  0.00     0.029 A 
ATOM     69  N   UNL     1       5.094  15.010  11.425  1.00  0.00    -0.354 N 
ATOM     70  N   UNL     1       3.896  15.565   8.876  1.00  0.00    -0.248 NA
ATOM     71  C   UNL     1       3.224  17.079   7.224  1.00  0.00     0.031 C 
ATOM     72  C   UNL     1       5.578  16.704  12.784  1.00  0.00     0.029 A 
ATOM     73  C   UNL     1       5.095  16.393  11.525  1.00  0.00     0.049 A 
ATOM     74  H   UNL     1       4.791  14.501  10.639  1.00  0.00     0.167 HD
ATOM     75  C   UNL     1       4.185  16.861   9.285  1.00  0.00     0.074 A 
ATOM     76  C   UNL     1       3.806  17.748   8.208  1.00  0.00     0.031 C 
ATOM     77  C   UNL     1       4.675  17.281  10.476  1.00  0.00     0.031 A 
BRANCH  64  78
ATOM     78  C   UNL     1       6.160  12.592  14.204  1.00  0.00    -0.014 A 
ATOM     79  C   UNL     1       7.409  11.970  14.380  1.00  0.00     0.010 A 
ATOM     80  C   UNL     1       5.302  12.746  15.308  1.00  0.00     0.010 A 
ATOM     81  C   UNL     1       7.759  11.445  15.626  1.00  0.00     0.020 A 
ATOM     82  C   UNL     1       5.661  12.248  16.560  1.00  0.00     0.020 A 
ATOM     83  C   UNL     1       6.875  11.572  16.703  1.00  0.00     0.054 A 
BRANCH  83  84
ATOM     84  S   UNL     1       7.323  10.835  18.296  1.00  0.00     0.124 S 
ATOM     85  O   UNL     1       7.047   9.420  18.058  1.00  0.00    -0.237 OA
ATOM     86  O   UNL     1       8.734  11.185  18.430  1.00  0.00    -0.237 OA
ATOM     87  O   UNL     1       6.428  11.493  19.245  1.00  0.00    -0.744 OA
ENDBRANCH  83  84
ENDBRANCH  64  78
BRANCH  65  88
ATOM     88  C   UNL     1       2.351  15.023   5.425  1.00  0.00    -0.014 A 
ATOM     89  C   UNL     1       3.377  15.436   4.544  1.00  0.00     0.010 A 
ATOM     90  C   UNL     1       1.026  15.048   4.968  1.00  0.00     0.010 A 
ATOM     91  C   UNL     1       3.095  15.814   3.228  1.00  0.00     0.020 A 
ATOM     92  C   UNL     1       0.740  15.404   3.641  1.00  0.00     0.020 A 
ATOM     93  C   UNL     1       1.778  15.768   2.776  1.00  0.00     0.054 A 
BRANCH  93  94
ATOM     94  S   UNL     1       1.450  16.019   1.007  1.00  0.00     0.124 S 
ATOM     95  O   UNL     1       1.368  17.472   0.909  1.00  0.00    -0.237 OA
ATOM     96  O   UNL     1       2.615  15.403   0.374  1.00  0.00    -0.237 OA
ATOM     97  O   UNL     1       0.196  15.298   0.798  1.00  0.00    -0.744 OA
ENDBRANCH  93  94
ENDBRANCH  65  88
BRANCH  77  98
ATOM     98  C   UNL     1       4.753  18.766  10.695  1.00  0.00    -0.014 A 
ATOM     99  C   UNL     1       3.577  19.527  10.847  1.00  0.00     0.010 A 
ATOM    100  C   UNL     1       5.999  19.412  10.760  1.00  0.00     0.010 A 
ATOM    101  C   UNL     1       3.644  20.911  11.019  1.00  0.00     0.020 A 
ATOM    102  C   UNL     1       6.071  20.795  10.957  1.00  0.00     0.020 A 
ATOM    103  C   UNL     1       4.892  21.537  11.069  1.00  0.00     0.054 A 
BRANCH 103 104
ATOM    104  S   UNL     1       4.955  23.332  11.326  1.00  0.00     0.124 S 
ATOM    105  O   UNL     1       4.554  23.841  10.017  1.00  0.00    -0.237 OA
ATOM    106  O   UNL     1       3.989  23.537  12.403  1.00  0.00    -0.237 OA
ATOM    107  O   UNL     1       6.348  23.580  11.692  1.00  0.00    -0.744 OA
ENDBRANCH 103 104
ENDBRANCH  77  98
ENDBRANCH  51  52
ENDBRANCH  44  46
ENDBRANCH  43  44
ENDBRANCH  42  43
ENDBRANCH  41  42
ENDBRANCH  40  41
ENDBRANCH  39  40
ENDBRANCH   1  39
TORSDOF 25
