REMARK SMILES Cc1ccc2c(c1C)O[C@@H](C(=O)OCCOCCOCCOC(=O)c1ccc(-c3c4nc(c(-c5ccc(S(=O)(=O)[O-])cc5)c5ccc([nH]5)c(-c5ccc(S(=O)(=O)[O-])cc5)c5nc(c(-c6ccc(S(=O)(=O)[O-])cc6)c6ccc3[nH]6)C=C5)C=C4)cc1)CC2=O
REMARK SMILES IDX 19 1 18 2 17 3 16 4 15 5 14 6 13 7 11 8 12 9 10 10 1 11 2 12
REMARK SMILES IDX 3 13 7 14 4 15 6 16 8 17 5 18 9 19 86 20 85 21 87 22 20 23
REMARK SMILES IDX 21 24 22 25 23 26 24 27 25 28 26 29 84 30 27 31 83 32 28 33
REMARK SMILES IDX 29 34 30 35 77 36 31 37 82 38 76 39 78 40 32 41 81 42 75 43
REMARK SMILES IDX 74 44 33 46 63 47 44 48 62 49 45 50 48 51 61 52 79 53 46 54
REMARK SMILES IDX 47 55 60 57 80 58 49 59 34 60 35 61 43 62 36 63 42 64 37 65
REMARK SMILES IDX 38 66 39 67 40 68 41 69 64 70 65 71 73 72 66 73 72 74 67 75
REMARK SMILES IDX 68 76 69 77 70 78 71 79 50 80 51 81 59 82 52 83 58 84 53 85
REMARK SMILES IDX 54 86 55 87 56 88 57 89
REMARK H PARENT 78 45 48 56
REMARK Flexibility Score: inf
ROOT
ATOM      1  O   UNL     1      -3.283   7.087  -0.759  1.00  0.00    -0.376 OA
ENDROOT
BRANCH   1   2
ATOM      2  C   UNL     1      -2.033   7.735  -0.850  1.00  0.00     0.188 C 
BRANCH   2   3
ATOM      3  C   UNL     1      -1.481   7.886  -2.272  1.00  0.00     0.188 C 
BRANCH   3   4
ATOM      4  O   UNL     1      -2.174   7.251  -3.334  1.00  0.00    -0.376 OA
BRANCH   4   5
ATOM      5  C   UNL     1      -2.652   5.929  -3.124  1.00  0.00     0.202 C 
BRANCH   5   6
ATOM      6  C   UNL     1      -1.652   4.872  -2.628  1.00  0.00     0.261 C 
BRANCH   6   7
ATOM      7  O   UNL     1      -0.931   5.184  -1.407  1.00  0.00    -0.460 OA
BRANCH   7   8
ATOM      8  C   UNL     1       0.420   5.306  -1.529  1.00  0.00     0.347 C 
ATOM      9  O   UNL     1       1.015   5.204  -2.599  1.00  0.00    -0.248 OA
BRANCH   8  10
ATOM     10  C   UNL     1       1.196   5.489  -0.203  1.00  0.00     0.290 C 
ATOM     11  C   UNL     1       0.841  -0.507   0.034  1.00  0.00     0.045 C 
ATOM     12  C   UNL     1       0.557   0.911   0.438  1.00  0.00    -0.044 A 
ATOM     13  C   UNL     1      -0.591   1.177   1.212  1.00  0.00     0.005 A 
ATOM     14  C   UNL     1       1.384   1.975   0.029  1.00  0.00    -0.005 A 
ATOM     15  C   UNL     1      -0.911   2.475   1.605  1.00  0.00     0.016 A 
ATOM     16  C   UNL     1       1.062   3.271   0.451  1.00  0.00     0.134 A 
ATOM     17  C   UNL     1       2.561   1.807  -0.898  1.00  0.00     0.049 C 
ATOM     18  C   UNL     1      -0.075   3.518   1.226  1.00  0.00     0.060 A 
ATOM     19  O   UNL     1       1.913   4.276   0.051  1.00  0.00    -0.477 OA
ATOM     20  C   UNL     1      -0.384   4.909   1.606  1.00  0.00     0.170 C 
ATOM     21  C   UNL     1       0.573   5.949   1.103  1.00  0.00     0.138 C 
ATOM     22  O   UNL     1      -1.328   5.178   2.340  1.00  0.00    -0.294 OA
ENDBRANCH   8  10
ENDBRANCH   7   8
ENDBRANCH   6   7
ENDBRANCH   5   6
ENDBRANCH   4   5
ENDBRANCH   3   4
ENDBRANCH   2   3
ENDBRANCH   1   2
BRANCH   1  23
ATOM     23  C   UNL     1      -4.105   7.480   0.330  1.00  0.00     0.202 C 
BRANCH  23  24
ATOM     24  C   UNL     1      -4.844   8.796   0.036  1.00  0.00     0.261 C 
BRANCH  24  25
ATOM     25  O   UNL     1      -4.003   9.930  -0.271  1.00  0.00    -0.460 OA
BRANCH  25  26
ATOM     26  C   UNL     1      -3.185  10.382   0.711  1.00  0.00     0.338 C 
ATOM     27  O   UNL     1      -3.161   9.997   1.869  1.00  0.00    -0.246 OA
BRANCH  26  28
ATOM     28  C   UNL     1      -2.119  11.201   0.074  1.00  0.00     0.060 A 
ATOM     29  C   UNL     1      -0.775  10.829   0.259  1.00  0.00     0.016 A 
ATOM     30  C   UNL     1      -2.432  12.286  -0.746  1.00  0.00     0.016 A 
ATOM     31  C   UNL     1       0.252  11.545  -0.362  1.00  0.00     0.010 A 
ATOM     32  C   UNL     1      -1.400  13.032  -1.329  1.00  0.00     0.010 A 
ATOM     33  C   UNL     1      -0.053  12.683  -1.119  1.00  0.00    -0.014 A 
BRANCH  33  34
ATOM     34  C   UNL     1       1.019  13.654  -1.463  1.00  0.00     0.031 A 
ATOM     35  C   UNL     1       1.309  14.746  -0.465  1.00  0.00     0.074 A 
ATOM     36  C   UNL     1       1.721  13.590  -2.610  1.00  0.00     0.049 A 
ATOM     37  N   UNL     1       2.120  15.766  -0.568  1.00  0.00    -0.248 NA
ATOM     38  C   UNL     1       0.589  14.677   0.820  1.00  0.00     0.031 C 
ATOM     39  C   UNL     1       1.592  12.556  -3.634  1.00  0.00     0.029 A 
ATOM     40  N   UNL     1       2.687  14.436  -3.107  1.00  0.00    -0.354 N 
ATOM     41  C   UNL     1       2.004  16.458   0.631  1.00  0.00     0.074 A 
ATOM     42  C   UNL     1       1.038  15.755   1.444  1.00  0.00     0.031 C 
ATOM     43  C   UNL     1       2.431  12.839  -4.648  1.00  0.00     0.029 A 
ATOM     44  C   UNL     1       3.133  14.092  -4.363  1.00  0.00     0.049 A 
ATOM     45  H   UNL     1       3.027  15.214  -2.611  1.00  0.00     0.167 HD
ATOM     46  C   UNL     1       2.646  17.580   1.024  1.00  0.00     0.031 A 
ATOM     47  C   UNL     1       3.983  14.728  -5.198  1.00  0.00     0.031 A 
ATOM     48  C   UNL     1       3.600  18.291   0.223  1.00  0.00     0.049 A 
ATOM     49  C   UNL     1       4.620  16.030  -4.772  1.00  0.00     0.074 A 
ATOM     50  C   UNL     1       4.298  19.441   0.549  1.00  0.00     0.029 A 
ATOM     51  N   UNL     1       3.988  17.930  -1.055  1.00  0.00    -0.354 N 
ATOM     52  N   UNL     1       4.495  16.674  -3.636  1.00  0.00    -0.248 NA
ATOM     53  C   UNL     1       5.509  16.693  -5.740  1.00  0.00     0.031 C 
ATOM     54  C   UNL     1       5.073  19.805  -0.554  1.00  0.00     0.029 A 
ATOM     55  C   UNL     1       4.900  18.848  -1.541  1.00  0.00     0.049 A 
ATOM     56  H   UNL     1       3.664  17.140  -1.544  1.00  0.00     0.167 HD
ATOM     57  C   UNL     1       5.305  17.801  -3.745  1.00  0.00     0.074 A 
ATOM     58  C   UNL     1       5.922  17.752  -5.053  1.00  0.00     0.031 C 
ATOM     59  C   UNL     1       5.518  18.787  -2.840  1.00  0.00     0.031 A 
BRANCH  46  60
ATOM     60  C   UNL     1       2.339  18.133   2.386  1.00  0.00    -0.014 A 
ATOM     61  C   UNL     1       2.911  17.561   3.534  1.00  0.00     0.010 A 
ATOM     62  C   UNL     1       1.584  19.314   2.501  1.00  0.00     0.010 A 
ATOM     63  C   UNL     1       2.746  18.174   4.778  1.00  0.00     0.020 A 
ATOM     64  C   UNL     1       1.433  19.939   3.740  1.00  0.00     0.020 A 
ATOM     65  C   UNL     1       2.023  19.368   4.869  1.00  0.00     0.054 A 
BRANCH  65  66
ATOM     66  S   UNL     1       1.905  20.182   6.485  1.00  0.00     0.124 S 
ATOM     67  O   UNL     1       1.270  19.151   7.303  1.00  0.00    -0.237 OA
ATOM     68  O   UNL     1       3.304  20.459   6.798  1.00  0.00    -0.237 OA
ATOM     69  O   UNL     1       1.078  21.358   6.223  1.00  0.00    -0.744 OA
ENDBRANCH  65  66
ENDBRANCH  46  60
BRANCH  47  70
ATOM     70  C   UNL     1       4.259  14.167  -6.551  1.00  0.00    -0.014 A 
ATOM     71  C   UNL     1       5.518  13.626  -6.867  1.00  0.00     0.010 A 
ATOM     72  C   UNL     1       3.258  14.184  -7.541  1.00  0.00     0.010 A 
ATOM     73  C   UNL     1       5.772  13.119  -8.146  1.00  0.00     0.020 A 
ATOM     74  C   UNL     1       3.500  13.656  -8.813  1.00  0.00     0.020 A 
ATOM     75  C   UNL     1       4.758  13.129  -9.108  1.00  0.00     0.054 A 
BRANCH  75  76
ATOM     76  S   UNL     1       5.105  12.433 -10.748  1.00  0.00     0.124 S 
ATOM     77  O   UNL     1       6.212  13.266 -11.210  1.00  0.00    -0.237 OA
ATOM     78  O   UNL     1       5.446  11.049 -10.428  1.00  0.00    -0.237 OA
ATOM     79  O   UNL     1       3.848  12.610 -11.472  1.00  0.00    -0.744 OA
ENDBRANCH  75  76
ENDBRANCH  47  70
BRANCH  59  80
ATOM     80  C   UNL     1       6.477  19.893  -3.189  1.00  0.00    -0.014 A 
ATOM     81  C   UNL     1       6.101  20.928  -4.061  1.00  0.00     0.010 A 
ATOM     82  C   UNL     1       7.716  19.968  -2.525  1.00  0.00     0.010 A 
ATOM     83  C   UNL     1       6.951  22.019  -4.266  1.00  0.00     0.020 A 
ATOM     84  C   UNL     1       8.558  21.068  -2.710  1.00  0.00     0.020 A 
ATOM     85  C   UNL     1       8.169  22.088  -3.580  1.00  0.00     0.054 A 
BRANCH  85  86
ATOM     86  S   UNL     1       9.222  23.544  -3.825  1.00  0.00     0.124 S 
ATOM     87  O   UNL     1       9.482  23.500  -5.262  1.00  0.00    -0.237 OA
ATOM     88  O   UNL     1       8.359  24.634  -3.376  1.00  0.00    -0.237 OA
ATOM     89  O   UNL     1      10.383  23.283  -2.978  1.00  0.00    -0.744 OA
ENDBRANCH  85  86
ENDBRANCH  59  80
ENDBRANCH  33  34
ENDBRANCH  26  28
ENDBRANCH  25  26
ENDBRANCH  24  25
ENDBRANCH  23  24
ENDBRANCH   1  23
TORSDOF 20
