REMARK SMILES Cc1cc(C)cc(C(=O)N2CC[C@H](C(=O)OCCOCCOCCOC(=O)c3ccc(-c4c5nc(c(-c6ccc(S(=O)(=O)[O-])cc6)c6ccc([nH]6)c(-c6ccc(S(=O)(=O)[O-])cc6)c6nc(c(-c7ccc(S(=O)(=O)[O-])cc7)c7ccc4[nH]7)C=C6)C=C5)cc3)[C@@H]2C)c1
REMARK SMILES IDX 21 1 20 2 19 3 18 4 17 5 16 6 14 7 15 8 13 9 10 10 11 11
REMARK SMILES IDX 88 12 12 13 89 14 8 15 9 16 7 17 1 18 2 19 3 20 90 21 4 22
REMARK SMILES IDX 5 23 6 24 22 25 23 26 24 27 25 28 26 29 27 30 28 31 29 32
REMARK SMILES IDX 87 33 30 34 86 35 31 36 32 37 33 38 80 39 34 40 85 41 79 42
REMARK SMILES IDX 81 43 35 44 84 45 78 46 77 47 36 49 66 50 47 51 65 52 48 53
REMARK SMILES IDX 51 54 64 55 82 56 49 57 50 58 63 60 83 61 52 62 37 63 38 64
REMARK SMILES IDX 46 65 39 66 45 67 40 68 41 69 42 70 43 71 44 72 67 73 68 74
REMARK SMILES IDX 76 75 69 76 75 77 70 78 71 79 72 80 73 81 74 82 53 83 54 84
REMARK SMILES IDX 62 85 55 86 61 87 56 88 57 89 58 90 59 91 60 92
REMARK H PARENT 81 48 51 59
REMARK Flexibility Score: inf
ROOT
ATOM      1  C   UNL     1       2.862  -5.924   3.913  1.00  0.00     0.188 C 
ENDROOT
BRANCH   1   2
ATOM      2  C   UNL     1       2.334  -7.087   3.056  1.00  0.00     0.188 C 
BRANCH   2   3
ATOM      3  O   UNL     1       3.189  -8.201   2.816  1.00  0.00    -0.376 OA
BRANCH   3   4
ATOM      4  C   UNL     1       4.590  -8.008   2.883  1.00  0.00     0.202 C 
BRANCH   4   5
ATOM      5  C   UNL     1       5.263  -7.352   1.674  1.00  0.00     0.261 C 
BRANCH   5   6
ATOM      6  O   UNL     1       4.810  -6.027   1.329  1.00  0.00    -0.463 OA
BRANCH   6   7
ATOM      7  C   UNL     1       3.920  -5.995   0.295  1.00  0.00     0.311 C 
ATOM      8  O   UNL     1       3.304  -6.974  -0.101  1.00  0.00    -0.252 OA
BRANCH   7   9
ATOM      9  C   UNL     1       3.934  -4.645  -0.411  1.00  0.00     0.123 C 
ATOM     10  N   UNL     1       1.777  -3.689  -0.832  1.00  0.00    -0.335 N 
ATOM     11  C   UNL     1       1.981  -4.784  -1.766  1.00  0.00     0.121 C 
ATOM     12  C   UNL     1       2.954  -3.537   0.040  1.00  0.00     0.096 C 
ATOM     13  C   UNL     1       3.497  -4.869  -1.867  1.00  0.00     0.039 C 
ATOM     14  C   UNL     1       2.613  -3.510   1.515  1.00  0.00     0.032 C 
BRANCH  10  15
ATOM     15  C   UNL     1       0.592  -2.972  -0.944  1.00  0.00     0.254 C 
ATOM     16  O   UNL     1      -0.389  -3.471  -1.498  1.00  0.00    -0.269 OA
BRANCH  15  17
ATOM     17  C   UNL     1       0.453  -1.567  -0.467  1.00  0.00     0.040 A 
ATOM     18  C   UNL     1       2.492   1.621  -0.041  1.00  0.00     0.044 C 
ATOM     19  C   UNL     1       1.331   0.673  -0.074  1.00  0.00    -0.050 A 
ATOM     20  C   UNL     1       0.035   1.134   0.181  1.00  0.00     0.006 A 
ATOM     21  C   UNL     1       1.519  -0.664  -0.448  1.00  0.00     0.017 A 
ATOM     22  C   UNL     1      -1.061   0.267   0.098  1.00  0.00    -0.050 A 
ATOM     23  C   UNL     1      -2.456   0.807   0.235  1.00  0.00     0.044 C 
ATOM     24  C   UNL     1      -0.841  -1.083  -0.209  1.00  0.00     0.017 A 
ENDBRANCH  15  17
ENDBRANCH  10  15
ENDBRANCH   7   9
ENDBRANCH   6   7
ENDBRANCH   5   6
ENDBRANCH   4   5
ENDBRANCH   3   4
ENDBRANCH   2   3
ENDBRANCH   1   2
BRANCH   1  25
ATOM     25  O   UNL     1       3.353  -6.237   5.212  1.00  0.00    -0.376 OA
BRANCH  25  26
ATOM     26  C   UNL     1       2.501  -7.000   6.061  1.00  0.00     0.202 C 
BRANCH  26  27
ATOM     27  C   UNL     1       1.161  -6.345   6.417  1.00  0.00     0.261 C 
BRANCH  27  28
ATOM     28  O   UNL     1       0.181  -6.514   5.370  1.00  0.00    -0.460 OA
BRANCH  28  29
ATOM     29  C   UNL     1      -0.324  -5.370   4.847  1.00  0.00     0.338 C 
ATOM     30  O   UNL     1      -0.023  -4.232   5.167  1.00  0.00    -0.246 OA
BRANCH  29  31
ATOM     31  C   UNL     1      -1.221  -5.652   3.706  1.00  0.00     0.060 A 
ATOM     32  C   UNL     1      -1.034  -4.906   2.537  1.00  0.00     0.016 A 
ATOM     33  C   UNL     1      -2.309  -6.521   3.817  1.00  0.00     0.016 A 
ATOM     34  C   UNL     1      -1.967  -4.974   1.503  1.00  0.00     0.010 A 
ATOM     35  C   UNL     1      -3.252  -6.580   2.780  1.00  0.00     0.010 A 
ATOM     36  C   UNL     1      -3.110  -5.772   1.636  1.00  0.00    -0.014 A 
BRANCH  36  37
ATOM     37  C   UNL     1      -4.220  -5.617   0.657  1.00  0.00     0.031 A 
ATOM     38  C   UNL     1      -5.434  -4.810   1.044  1.00  0.00     0.074 A 
ATOM     39  C   UNL     1      -4.119  -6.101  -0.594  1.00  0.00     0.049 A 
ATOM     40  N   UNL     1      -6.516  -4.550   0.354  1.00  0.00    -0.248 NA
ATOM     41  C   UNL     1      -5.421  -4.210   2.388  1.00  0.00     0.031 C 
ATOM     42  C   UNL     1      -2.959  -6.806  -1.135  1.00  0.00     0.029 A 
ATOM     43  N   UNL     1      -5.001  -6.044  -1.647  1.00  0.00    -0.354 N 
ATOM     44  C   UNL     1      -7.318  -3.772   1.182  1.00  0.00     0.074 A 
ATOM     45  C   UNL     1      -6.607  -3.621   2.434  1.00  0.00     0.031 C 
ATOM     46  C   UNL     1      -3.188  -7.091  -2.429  1.00  0.00     0.029 A 
ATOM     47  C   UNL     1      -4.526  -6.631  -2.795  1.00  0.00     0.049 A 
ATOM     48  H   UNL     1      -5.889  -5.623  -1.584  1.00  0.00     0.167 HD
ATOM     49  C   UNL     1      -8.534  -3.230   0.928  1.00  0.00     0.031 A 
ATOM     50  C   UNL     1      -5.104  -6.788  -4.003  1.00  0.00     0.031 A 
ATOM     51  C   UNL     1      -9.248  -3.382  -0.312  1.00  0.00     0.049 A 
ATOM     52  C   UNL     1      -6.496  -6.262  -4.234  1.00  0.00     0.074 A 
ATOM     53  C   UNL     1     -10.500  -2.899  -0.651  1.00  0.00     0.029 A 
ATOM     54  N   UNL     1      -8.771  -4.069  -1.419  1.00  0.00    -0.354 N 
ATOM     55  N   UNL     1      -7.264  -5.574  -3.423  1.00  0.00    -0.248 NA
ATOM     56  C   UNL     1      -7.103  -6.543  -5.543  1.00  0.00     0.031 C 
ATOM     57  C   UNL     1     -10.800  -3.334  -1.948  1.00  0.00     0.029 A 
ATOM     58  C   UNL     1      -9.713  -4.042  -2.434  1.00  0.00     0.049 A 
ATOM     59  H   UNL     1      -7.893  -4.510  -1.474  1.00  0.00     0.167 HD
ATOM     60  C   UNL     1      -8.436  -5.323  -4.130  1.00  0.00     0.074 A 
ATOM     61  C   UNL     1      -8.272  -5.924  -5.438  1.00  0.00     0.031 C 
ATOM     62  C   UNL     1      -9.545  -4.652  -3.730  1.00  0.00     0.031 A 
BRANCH  49  63
ATOM     63  C   UNL     1      -9.190  -2.473   2.053  1.00  0.00    -0.014 A 
ATOM     64  C   UNL     1      -8.725  -1.207   2.455  1.00  0.00     0.010 A 
ATOM     65  C   UNL     1     -10.274  -3.053   2.735  1.00  0.00     0.010 A 
ATOM     66  C   UNL     1      -9.292  -0.566   3.561  1.00  0.00     0.020 A 
ATOM     67  C   UNL     1     -10.861  -2.403   3.825  1.00  0.00     0.020 A 
ATOM     68  C   UNL     1     -10.346  -1.176   4.248  1.00  0.00     0.054 A 
BRANCH  68  69
ATOM     69  S   UNL     1     -11.039  -0.347   5.706  1.00  0.00     0.124 S 
ATOM     70  O   UNL     1     -10.017  -0.615   6.716  1.00  0.00    -0.237 OA
ATOM     71  O   UNL     1     -11.140   1.043   5.271  1.00  0.00    -0.237 OA
ATOM     72  O   UNL     1     -12.315  -1.026   5.916  1.00  0.00    -0.744 OA
ENDBRANCH  68  69
ENDBRANCH  49  63
BRANCH  50  73
ATOM     73  C   UNL     1      -4.366  -7.493  -5.088  1.00  0.00    -0.014 A 
ATOM     74  C   UNL     1      -3.892  -6.789  -6.208  1.00  0.00     0.010 A 
ATOM     75  C   UNL     1      -4.116  -8.875  -4.994  1.00  0.00     0.010 A 
ATOM     76  C   UNL     1      -3.181  -7.453  -7.213  1.00  0.00     0.020 A 
ATOM     77  C   UNL     1      -3.385  -9.537  -5.984  1.00  0.00     0.020 A 
ATOM     78  C   UNL     1      -2.927  -8.822  -7.092  1.00  0.00     0.054 A 
BRANCH  78  79
ATOM     79  S   UNL     1      -1.939  -9.650  -8.370  1.00  0.00     0.124 S 
ATOM     80  O   UNL     1      -2.890  -9.752  -9.472  1.00  0.00    -0.237 OA
ATOM     81  O   UNL     1      -0.834  -8.716  -8.574  1.00  0.00    -0.237 OA
ATOM     82  O   UNL     1      -1.564 -10.917  -7.747  1.00  0.00    -0.744 OA
ENDBRANCH  78  79
ENDBRANCH  50  73
BRANCH  62  83
ATOM     83  C   UNL     1     -10.669  -4.512  -4.723  1.00  0.00    -0.014 A 
ATOM     84  C   UNL     1     -11.502  -5.599  -5.038  1.00  0.00     0.010 A 
ATOM     85  C   UNL     1     -10.931  -3.257  -5.304  1.00  0.00     0.010 A 
ATOM     86  C   UNL     1     -12.563  -5.441  -5.935  1.00  0.00     0.020 A 
ATOM     87  C   UNL     1     -12.004  -3.089  -6.184  1.00  0.00     0.020 A 
ATOM     88  C   UNL     1     -12.807  -4.186  -6.503  1.00  0.00     0.054 A 
BRANCH  88  89
ATOM     89  S   UNL     1     -14.219  -3.992  -7.626  1.00  0.00     0.124 S 
ATOM     90  O   UNL     1     -13.726  -4.621  -8.848  1.00  0.00    -0.237 OA
ATOM     91  O   UNL     1     -15.284  -4.714  -6.934  1.00  0.00    -0.237 OA
ATOM     92  O   UNL     1     -14.405  -2.545  -7.702  1.00  0.00    -0.744 OA
ENDBRANCH  88  89
ENDBRANCH  62  83
ENDBRANCH  36  37
ENDBRANCH  29  31
ENDBRANCH  28  29
ENDBRANCH  27  28
ENDBRANCH  26  27
ENDBRANCH  25  26
ENDBRANCH   1  25
TORSDOF 22
