REMARK SMILES C[C@@H](C(=O)OCCOCCOCCOC(=O)c1ccc(-c2c3nc(c(-c4ccc(S(=O)(=O)[O-])cc4)c4ccc([nH]4)c(-c4ccc(S(=O)(=O)[O-])cc4)c4nc(c(-c5ccc(S(=O)(=O)[O-])cc5)c5ccc2[nH]5)C=C4)C=C3)cc1)c1ccc(C[C@H]2CCC[C@H]2O)cc1
REMARK SMILES IDX 9 1 8 2 7 3 6 4 5 5 3 6 4 7 2 8 1 9 77 10 78 11 89 12 79 13
REMARK SMILES IDX 88 14 80 15 81 16 82 17 83 18 86 19 84 20 85 21 87 22 10 24
REMARK SMILES IDX 11 25 12 26 13 27 14 28 15 29 16 30 17 31 18 32 76 33 19 34
REMARK SMILES IDX 75 35 20 36 21 37 22 38 69 39 23 40 74 41 68 42 70 43 24 44
REMARK SMILES IDX 73 45 67 46 66 47 25 49 55 50 36 51 54 52 37 53 40 54 53 55
REMARK SMILES IDX 71 56 38 57 39 58 52 60 72 61 41 62 26 63 27 64 35 65 28 66
REMARK SMILES IDX 34 67 29 68 30 69 31 70 32 71 33 72 56 73 57 74 65 75 58 76
REMARK SMILES IDX 64 77 59 78 60 79 61 80 62 81 63 82 42 83 43 84 51 85 44 86
REMARK SMILES IDX 50 87 45 88 46 89 47 90 48 91 49 92
REMARK H PARENT 87 23 70 48 40 59
REMARK Flexibility Score: inf
ROOT
ATOM      1  C   UNL     1       0.383   2.889   2.427  1.00  0.00     0.188 C 
ENDROOT
BRANCH   1   2
ATOM      2  O   UNL     1       1.135   3.306   3.562  1.00  0.00    -0.376 OA
BRANCH   2   3
ATOM      3  C   UNL     1       2.379   2.671   3.834  1.00  0.00     0.202 C 
BRANCH   3   4
ATOM      4  C   UNL     1       2.439   1.135   3.884  1.00  0.00     0.261 C 
BRANCH   4   5
ATOM      5  O   UNL     1       2.073   0.452   2.662  1.00  0.00    -0.463 OA
BRANCH   5   6
ATOM      6  C   UNL     1       1.087  -0.484   2.764  1.00  0.00     0.313 C 
ATOM      7  O   UNL     1       0.536  -0.769   3.824  1.00  0.00    -0.252 OA
BRANCH   6   8
ATOM      8  C   UNL     1       0.743  -1.207   1.442  1.00  0.00     0.126 C 
ATOM      9  C   UNL     1       1.494  -0.815   0.168  1.00  0.00     0.025 C 
BRANCH   8  10
ATOM     10  C   UNL     1      -0.767  -1.231   1.227  1.00  0.00    -0.034 A 
ATOM     11  C   UNL     1      -1.470  -0.096   0.800  1.00  0.00     0.005 A 
ATOM     12  C   UNL     1      -1.500  -2.367   1.597  1.00  0.00     0.005 A 
ATOM     13  C   UNL     1      -2.861  -0.061   0.854  1.00  0.00     0.004 A 
ATOM     14  C   UNL     1      -2.893  -2.323   1.672  1.00  0.00     0.004 A 
ATOM     15  C   UNL     1      -3.573  -1.140   1.383  1.00  0.00    -0.048 A 
BRANCH  15  16
ATOM     16  C   UNL     1      -5.014  -0.963   1.781  1.00  0.00     0.041 C 
BRANCH  16  17
ATOM     17  C   UNL     1      -5.241  -0.364   3.182  1.00  0.00     0.022 C 
ATOM     18  C   UNL     1      -4.808  -1.201   4.393  1.00  0.00     0.007 C 
ATOM     19  C   UNL     1      -4.649   1.016   3.481  1.00  0.00     0.117 C 
ATOM     20  C   UNL     1      -4.595  -0.194   5.536  1.00  0.00     0.003 C 
ATOM     21  C   UNL     1      -4.955   1.172   4.962  1.00  0.00     0.032 C 
BRANCH  19  22
ATOM     22  O   UNL     1      -3.246   1.174   3.315  1.00  0.00    -0.393 OA
ATOM     23  H   UNL     1      -2.780   0.561   3.905  1.00  0.00     0.210 HD
ENDBRANCH  19  22
ENDBRANCH  16  17
ENDBRANCH  15  16
ENDBRANCH   8  10
ENDBRANCH   6   8
ENDBRANCH   5   6
ENDBRANCH   4   5
ENDBRANCH   3   4
ENDBRANCH   2   3
ENDBRANCH   1   2
BRANCH   1  24
ATOM     24  C   UNL     1       1.132   2.689   1.099  1.00  0.00     0.188 C 
BRANCH  24  25
ATOM     25  O   UNL     1       2.479   3.103   1.132  1.00  0.00    -0.376 OA
BRANCH  25  26
ATOM     26  C   UNL     1       2.856   4.240   0.384  1.00  0.00     0.202 C 
BRANCH  26  27
ATOM     27  C   UNL     1       2.066   5.548   0.544  1.00  0.00     0.261 C 
BRANCH  27  28
ATOM     28  O   UNL     1       0.632   5.460   0.560  1.00  0.00    -0.460 OA
BRANCH  28  29
ATOM     29  C   UNL     1       0.005   5.207  -0.611  1.00  0.00     0.338 C 
ATOM     30  O   UNL     1       0.538   5.000  -1.691  1.00  0.00    -0.246 OA
BRANCH  29  31
ATOM     31  C   UNL     1      -1.442   5.030  -0.329  1.00  0.00     0.060 A 
ATOM     32  C   UNL     1      -2.083   3.855  -0.739  1.00  0.00     0.016 A 
ATOM     33  C   UNL     1      -2.167   6.022   0.339  1.00  0.00     0.016 A 
ATOM     34  C   UNL     1      -3.452   3.685  -0.495  1.00  0.00     0.010 A 
ATOM     35  C   UNL     1      -3.542   5.860   0.558  1.00  0.00     0.010 A 
ATOM     36  C   UNL     1      -4.201   4.698   0.132  1.00  0.00    -0.014 A 
BRANCH  36  37
ATOM     37  C   UNL     1      -5.687   4.595   0.180  1.00  0.00     0.031 A 
ATOM     38  C   UNL     1      -6.475   4.949  -1.046  1.00  0.00     0.074 A 
ATOM     39  C   UNL     1      -6.361   4.268   1.300  1.00  0.00     0.049 A 
ATOM     40  N   UNL     1      -7.767   4.897  -1.235  1.00  0.00    -0.248 NA
ATOM     41  C   UNL     1      -5.715   5.515  -2.170  1.00  0.00     0.031 C 
ATOM     42  C   UNL     1      -5.761   4.112   2.615  1.00  0.00     0.029 A 
ATOM     43  N   UNL     1      -7.694   3.975   1.506  1.00  0.00    -0.354 N 
ATOM     44  C   UNL     1      -7.988   5.515  -2.457  1.00  0.00     0.074 A 
ATOM     45  C   UNL     1      -6.691   5.879  -2.988  1.00  0.00     0.031 C 
ATOM     46  C   UNL     1      -6.691   3.632   3.459  1.00  0.00     0.029 A 
ATOM     47  C   UNL     1      -7.946   3.428   2.749  1.00  0.00     0.049 A 
ATOM     48  H   UNL     1      -8.395   4.140   0.835  1.00  0.00     0.167 HD
ATOM     49  C   UNL     1      -9.170   5.816  -3.046  1.00  0.00     0.031 A 
ATOM     50  C   UNL     1      -9.040   2.792   3.227  1.00  0.00     0.031 A 
ATOM     51  C   UNL     1     -10.460   5.500  -2.491  1.00  0.00     0.049 A 
ATOM     52  C   UNL     1     -10.320   2.903   2.438  1.00  0.00     0.074 A 
ATOM     53  C   UNL     1     -11.711   5.786  -3.010  1.00  0.00     0.029 A 
ATOM     54  N   UNL     1     -10.670   4.835  -1.293  1.00  0.00    -0.354 N 
ATOM     55  N   UNL     1     -10.515   3.456   1.266  1.00  0.00    -0.248 NA
ATOM     56  C   UNL     1     -11.546   2.395   3.076  1.00  0.00     0.031 C 
ATOM     57  C   UNL     1     -12.677   5.333  -2.104  1.00  0.00     0.029 A 
ATOM     58  C   UNL     1     -12.029   4.700  -1.056  1.00  0.00     0.049 A 
ATOM     59  H   UNL     1      -9.958   4.506  -0.697  1.00  0.00     0.167 HD
ATOM     60  C   UNL     1     -11.889   3.432   1.063  1.00  0.00     0.074 A 
ATOM     61  C   UNL     1     -12.469   2.717   2.180  1.00  0.00     0.031 C 
ATOM     62  C   UNL     1     -12.607   4.010   0.069  1.00  0.00     0.031 A 
BRANCH  49  63
ATOM     63  C   UNL     1      -9.109   6.608  -4.322  1.00  0.00    -0.014 A 
ATOM     64  C   UNL     1      -8.624   6.042  -5.514  1.00  0.00     0.010 A 
ATOM     65  C   UNL     1      -9.548   7.945  -4.324  1.00  0.00     0.010 A 
ATOM     66  C   UNL     1      -8.542   6.813  -6.675  1.00  0.00     0.020 A 
ATOM     67  C   UNL     1      -9.499   8.709  -5.492  1.00  0.00     0.020 A 
ATOM     68  C   UNL     1      -8.979   8.141  -6.656  1.00  0.00     0.054 A 
BRANCH  68  69
ATOM     69  S   UNL     1      -8.882   9.107  -8.187  1.00  0.00     0.124 S 
ATOM     70  O   UNL     1      -7.443   9.325  -8.314  1.00  0.00    -0.237 OA
ATOM     71  O   UNL     1      -9.470   8.204  -9.172  1.00  0.00    -0.237 OA
ATOM     72  O   UNL     1      -9.668  10.303  -7.894  1.00  0.00    -0.744 OA
ENDBRANCH  68  69
ENDBRANCH  49  63
BRANCH  50  73
ATOM     73  C   UNL     1      -9.011   1.986   4.490  1.00  0.00    -0.014 A 
ATOM     74  C   UNL     1      -9.313   0.606   4.447  1.00  0.00     0.010 A 
ATOM     75  C   UNL     1      -8.711   2.558   5.737  1.00  0.00     0.010 A 
ATOM     76  C   UNL     1      -9.326  -0.171   5.613  1.00  0.00     0.020 A 
ATOM     77  C   UNL     1      -8.674   1.776   6.899  1.00  0.00     0.020 A 
ATOM     78  C   UNL     1      -8.998   0.419   6.833  1.00  0.00     0.054 A 
BRANCH  78  79
ATOM     79  S   UNL     1      -8.945  -0.607   8.331  1.00  0.00     0.124 S 
ATOM     80  O   UNL     1     -10.356  -0.683   8.696  1.00  0.00    -0.237 OA
ATOM     81  O   UNL     1      -8.349  -1.850   7.847  1.00  0.00    -0.237 OA
ATOM     82  O   UNL     1      -8.102   0.167   9.239  1.00  0.00    -0.744 OA
ENDBRANCH  78  79
ENDBRANCH  50  73
BRANCH  62  83
ATOM     83  C   UNL     1     -14.107   3.924   0.158  1.00  0.00    -0.014 A 
ATOM     84  C   UNL     1     -14.819   4.650   1.132  1.00  0.00     0.010 A 
ATOM     85  C   UNL     1     -14.820   3.154  -0.777  1.00  0.00     0.010 A 
ATOM     86  C   UNL     1     -16.213   4.579   1.191  1.00  0.00     0.020 A 
ATOM     87  C   UNL     1     -16.216   3.102  -0.739  1.00  0.00     0.020 A 
ATOM     88  C   UNL     1     -16.903   3.804   0.254  1.00  0.00     0.054 A 
BRANCH  88  89
ATOM     89  S   UNL     1     -18.715   3.756   0.327  1.00  0.00     0.124 S 
ATOM     90  O   UNL     1     -18.951   2.963   1.530  1.00  0.00    -0.237 OA
ATOM     91  O   UNL     1     -19.069   5.170   0.427  1.00  0.00    -0.237 OA
ATOM     92  O   UNL     1     -19.096   3.112  -0.928  1.00  0.00    -0.744 OA
ENDBRANCH  88  89
ENDBRANCH  62  83
ENDBRANCH  36  37
ENDBRANCH  29  31
ENDBRANCH  28  29
ENDBRANCH  27  28
ENDBRANCH  26  27
ENDBRANCH  25  26
ENDBRANCH  24  25
ENDBRANCH   1  24
TORSDOF 24
