REMARK SMILES O=C(Cc1ccccc1Nc1c(Cl)cccc1C(F)(F)F)OCCOCCOCCOC(=O)c1ccc(-c2c3nc(c(-c4ccc(S(=O)(=O)[O-])cc4)c4ccc([nH]4)c(-c4ccc(S(=O)(=O)[O-])cc4)c4nc(c(-c5ccc(S(=O)(=O)[O-])cc5)c5ccc2[nH]5)C=C4)C=C3)cc1
REMARK SMILES IDX 26 1 25 2 24 3 23 4 22 5 2 6 1 7 3 8 4 9 5 10 9 11 6 12 8 13
REMARK SMILES IDX 7 14 10 15 11 17 12 18 17 19 13 20 14 21 16 22 15 23 18 24
REMARK SMILES IDX 19 25 20 26 21 27 27 28 28 29 29 30 30 31 31 32 32 33 33 34
REMARK SMILES IDX 34 35 35 36 93 37 36 38 92 39 37 40 38 41 39 42 86 43 40 44
REMARK SMILES IDX 91 45 85 46 87 47 41 48 90 49 84 50 83 51 42 53 72 54 53 55
REMARK SMILES IDX 71 56 54 57 57 58 70 59 88 60 55 61 56 62 69 64 89 65 58 66
REMARK SMILES IDX 43 67 44 68 52 69 45 70 51 71 46 72 47 73 48 74 49 75 50 76
REMARK SMILES IDX 73 77 74 78 82 79 75 80 81 81 76 82 77 83 78 84 79 85 80 86
REMARK SMILES IDX 59 87 60 88 68 89 61 90 67 91 62 92 63 93 64 94 65 95 66 96
REMARK H PARENT 10 16 87 52 57 63
REMARK Flexibility Score: inf
ROOT
ATOM      1  C   UNL     1       2.668   1.977  -0.193  1.00  0.00     0.188 C 
ENDROOT
BRANCH   1   2
ATOM      2  O   UNL     1       4.008   1.557   0.029  1.00  0.00    -0.376 OA
BRANCH   2   3
ATOM      3  C   UNL     1       4.598   0.713  -0.952  1.00  0.00     0.202 C 
BRANCH   3   4
ATOM      4  C   UNL     1       4.165  -0.751  -1.004  1.00  0.00     0.261 C 
BRANCH   4   5
ATOM      5  O   UNL     1       2.757  -0.978  -0.879  1.00  0.00    -0.463 OA
BRANCH   5   6
ATOM      6  C   UNL     1       2.165  -1.318   0.293  1.00  0.00     0.310 C 
ATOM      7  O   UNL     1       1.002  -1.720   0.285  1.00  0.00    -0.252 OA
BRANCH   6   8
ATOM      8  C   UNL     1       2.913  -1.107   1.595  1.00  0.00     0.160 C 
BRANCH   8   9
ATOM      9  C   UNL     1       3.977  -2.133   1.914  1.00  0.00    -0.013 A 
ATOM     10  C   UNL     1       3.638  -3.492   1.750  1.00  0.00     0.006 A 
ATOM     11  C   UNL     1       5.266  -1.783   2.390  1.00  0.00     0.042 A 
ATOM     12  C   UNL     1       4.560  -4.496   2.020  1.00  0.00     0.000 A 
ATOM     13  C   UNL     1       6.161  -2.821   2.688  1.00  0.00     0.026 A 
ATOM     14  C   UNL     1       5.818  -4.161   2.497  1.00  0.00     0.002 A 
BRANCH  11  15
ATOM     15  N   UNL     1       5.664  -0.428   2.484  1.00  0.00    -0.354 N 
ATOM     16  H   UNL     1       4.930   0.217   2.369  1.00  0.00     0.167 HD
BRANCH  15  17
ATOM     17  C   UNL     1       6.931   0.167   2.715  1.00  0.00     0.070 A 
ATOM     18  C   UNL     1       7.036   1.118   3.764  1.00  0.00     0.065 A 
ATOM     19  C   UNL     1       8.108  -0.172   2.018  1.00  0.00     0.080 A 
ATOM     20  Cl  UNL     1       5.619   1.661   4.606  1.00  0.00    -0.082 Cl
ATOM     21  C   UNL     1       8.264   1.656   4.158  1.00  0.00     0.023 A 
ATOM     22  C   UNL     1       9.346   0.368   2.448  1.00  0.00     0.015 A 
ATOM     23  C   UNL     1       9.426   1.264   3.511  1.00  0.00     0.002 A 
BRANCH  19  24
ATOM     24  C   UNL     1       8.162  -1.039   0.783  1.00  0.00     0.418 C 
ATOM     25  F   UNL     1       8.987  -0.498  -0.169  1.00  0.00    -0.166 F 
ATOM     26  F   UNL     1       8.685  -2.273   1.032  1.00  0.00    -0.166 F 
ATOM     27  F   UNL     1       6.989  -1.240   0.128  1.00  0.00    -0.166 F 
ENDBRANCH  19  24
ENDBRANCH  15  17
ENDBRANCH  11  15
ENDBRANCH   8   9
ENDBRANCH   6   8
ENDBRANCH   5   6
ENDBRANCH   4   5
ENDBRANCH   3   4
ENDBRANCH   2   3
ENDBRANCH   1   2
BRANCH   1  28
ATOM     28  C   UNL     1       2.326   2.919  -1.359  1.00  0.00     0.188 C 
BRANCH  28  29
ATOM     29  O   UNL     1       3.305   3.206  -2.341  1.00  0.00    -0.376 OA
BRANCH  29  30
ATOM     30  C   UNL     1       4.486   3.899  -1.943  1.00  0.00     0.202 C 
BRANCH  30  31
ATOM     31  C   UNL     1       4.332   5.162  -1.095  1.00  0.00     0.261 C 
BRANCH  31  32
ATOM     32  O   UNL     1       3.974   4.856   0.268  1.00  0.00    -0.460 OA
BRANCH  32  33
ATOM     33  C   UNL     1       2.892   5.525   0.737  1.00  0.00     0.338 C 
ATOM     34  O   UNL     1       2.200   6.319   0.127  1.00  0.00    -0.246 OA
BRANCH  33  35
ATOM     35  C   UNL     1       2.555   5.074   2.098  1.00  0.00     0.060 A 
ATOM     36  C   UNL     1       1.288   4.518   2.313  1.00  0.00     0.016 A 
ATOM     37  C   UNL     1       3.408   5.338   3.171  1.00  0.00     0.016 A 
ATOM     38  C   UNL     1       0.848   4.266   3.612  1.00  0.00     0.010 A 
ATOM     39  C   UNL     1       2.956   5.103   4.475  1.00  0.00     0.010 A 
ATOM     40  C   UNL     1       1.660   4.606   4.702  1.00  0.00    -0.014 A 
BRANCH  40  41
ATOM     41  C   UNL     1       1.084   4.620   6.069  1.00  0.00     0.031 A 
ATOM     42  C   UNL     1       0.530   5.912   6.609  1.00  0.00     0.074 A 
ATOM     43  C   UNL     1       1.031   3.502   6.815  1.00  0.00     0.049 A 
ATOM     44  N   UNL     1       0.010   6.165   7.783  1.00  0.00    -0.248 NA
ATOM     45  C   UNL     1       0.568   7.073   5.704  1.00  0.00     0.031 C 
ATOM     46  C   UNL     1       1.487   2.179   6.393  1.00  0.00     0.029 A 
ATOM     47  N   UNL     1       0.570   3.310   8.093  1.00  0.00    -0.354 N 
ATOM     48  C   UNL     1      -0.340   7.510   7.759  1.00  0.00     0.074 A 
ATOM     49  C   UNL     1       0.050   8.027   6.465  1.00  0.00     0.031 C 
ATOM     50  C   UNL     1       1.292   1.311   7.401  1.00  0.00     0.029 A 
ATOM     51  C   UNL     1       0.727   2.023   8.547  1.00  0.00     0.049 A 
ATOM     52  H   UNL     1       0.164   4.026   8.633  1.00  0.00     0.167 HD
ATOM     53  C   UNL     1      -0.935   8.251   8.725  1.00  0.00     0.031 A 
ATOM     54  C   UNL     1       0.466   1.486   9.756  1.00  0.00     0.031 A 
ATOM     55  C   UNL     1      -1.303   7.748  10.021  1.00  0.00     0.049 A 
ATOM     56  C   UNL     1      -0.117   2.350  10.845  1.00  0.00     0.074 A 
ATOM     57  C   UNL     1      -1.910   8.424  11.066  1.00  0.00     0.029 A 
ATOM     58  N   UNL     1      -1.089   6.450  10.456  1.00  0.00    -0.354 N 
ATOM     59  N   UNL     1      -0.458   3.617  10.802  1.00  0.00    -0.248 NA
ATOM     60  C   UNL     1      -0.356   1.708  12.146  1.00  0.00     0.031 C 
ATOM     61  C   UNL     1      -2.018   7.547  12.150  1.00  0.00     0.029 A 
ATOM     62  C   UNL     1      -1.530   6.310  11.761  1.00  0.00     0.049 A 
ATOM     63  H   UNL     1      -0.684   5.733   9.916  1.00  0.00     0.167 HD
ATOM     64  C   UNL     1      -0.977   3.913  12.059  1.00  0.00     0.074 A 
ATOM     65  C   UNL     1      -0.915   2.693  12.837  1.00  0.00     0.031 C 
ATOM     66  C   UNL     1      -1.464   5.090  12.526  1.00  0.00     0.031 A 
BRANCH  53  67
ATOM     67  C   UNL     1      -1.193   9.702   8.421  1.00  0.00    -0.014 A 
ATOM     68  C   UNL     1      -2.206  10.089   7.526  1.00  0.00     0.010 A 
ATOM     69  C   UNL     1      -0.429  10.694   9.063  1.00  0.00     0.010 A 
ATOM     70  C   UNL     1      -2.425  11.441   7.248  1.00  0.00     0.020 A 
ATOM     71  C   UNL     1      -0.662  12.048   8.807  1.00  0.00     0.020 A 
ATOM     72  C   UNL     1      -1.647  12.412   7.887  1.00  0.00     0.054 A 
BRANCH  72  73
ATOM     73  S   UNL     1      -1.960  14.161   7.519  1.00  0.00     0.124 S 
ATOM     74  O   UNL     1      -1.387  14.294   6.182  1.00  0.00    -0.237 OA
ATOM     75  O   UNL     1      -3.417  14.248   7.589  1.00  0.00    -0.237 OA
ATOM     76  O   UNL     1      -1.245  14.871   8.577  1.00  0.00    -0.744 OA
ENDBRANCH  72  73
ENDBRANCH  53  67
BRANCH  54  77
ATOM     77  C   UNL     1       0.777   0.054  10.016  1.00  0.00    -0.014 A 
ATOM     78  C   UNL     1      -0.254  -0.885  10.194  1.00  0.00     0.010 A 
ATOM     79  C   UNL     1       2.115  -0.374  10.102  1.00  0.00     0.010 A 
ATOM     80  C   UNL     1       0.046  -2.222  10.472  1.00  0.00     0.020 A 
ATOM     81  C   UNL     1       2.419  -1.715  10.354  1.00  0.00     0.020 A 
ATOM     82  C   UNL     1       1.381  -2.628  10.550  1.00  0.00     0.054 A 
BRANCH  82  83
ATOM     83  S   UNL     1       1.750  -4.376  10.871  1.00  0.00     0.124 S 
ATOM     84  O   UNL     1       1.453  -4.492  12.295  1.00  0.00    -0.237 OA
ATOM     85  O   UNL     1       0.826  -5.064   9.973  1.00  0.00    -0.237 OA
ATOM     86  O   UNL     1       3.162  -4.498  10.513  1.00  0.00    -0.744 OA
ENDBRANCH  82  83
ENDBRANCH  54  77
BRANCH  66  87
ATOM     87  C   UNL     1      -2.007   5.113  13.931  1.00  0.00    -0.014 A 
ATOM     88  C   UNL     1      -1.152   5.066  15.047  1.00  0.00     0.010 A 
ATOM     89  C   UNL     1      -3.393   5.242  14.137  1.00  0.00     0.010 A 
ATOM     90  C   UNL     1      -1.676   5.117  16.342  1.00  0.00     0.020 A 
ATOM     91  C   UNL     1      -3.919   5.319  15.430  1.00  0.00     0.020 A 
ATOM     92  C   UNL     1      -3.057   5.241  16.525  1.00  0.00     0.054 A 
BRANCH  92  93
ATOM     93  S   UNL     1      -3.711   5.348  18.215  1.00  0.00     0.124 S 
ATOM     94  O   UNL     1      -3.605   3.965  18.670  1.00  0.00    -0.237 OA
ATOM     95  O   UNL     1      -2.797   6.292  18.855  1.00  0.00    -0.237 OA
ATOM     96  O   UNL     1      -5.074   5.841  18.028  1.00  0.00    -0.744 OA
ENDBRANCH  92  93
ENDBRANCH  66  87
ENDBRANCH  40  41
ENDBRANCH  33  35
ENDBRANCH  32  33
ENDBRANCH  31  32
ENDBRANCH  30  31
ENDBRANCH  29  30
ENDBRANCH  28  29
ENDBRANCH   1  28
TORSDOF 24
