REMARK SMILES COc1cc(C(=O)N[C@H]2CCCC[C@H]2C(=O)OCCOCCOCCOC(=O)c2ccc(-c3c4nc(c(-c5ccc(S(=O)(=O)[O-])cc5)c5ccc([nH]5)c(-c5ccc(S(=O)(=O)[O-])cc5)c5nc(c(-c6ccc(S(=O)(=O)[O-])cc6)c6ccc3[nH]6)C=C5)C=C4)cc2)cc(Cl)c1OC
REMARK SMILES IDX 21 1 20 2 19 3 18 4 17 5 15 6 16 7 14 8 9 9 10 10 11 11
REMARK SMILES IDX 13 12 12 13 8 14 6 15 7 16 5 18 3 19 4 20 92 21 90 22 89 23
REMARK SMILES IDX 91 24 2 25 1 26 93 27 94 28 22 29 23 30 24 31 25 32 26 33
REMARK SMILES IDX 27 34 28 35 29 36 30 37 88 38 31 39 87 40 32 41 33 42 34 43
REMARK SMILES IDX 81 44 35 45 86 46 80 47 82 48 36 49 85 50 79 51 78 52 37 54
REMARK SMILES IDX 67 55 48 56 66 57 49 58 52 59 65 60 83 61 50 62 51 63 64 65
REMARK SMILES IDX 84 66 53 67 38 68 39 69 47 70 40 71 46 72 41 73 42 74 43 75
REMARK SMILES IDX 44 76 45 77 68 78 69 79 77 80 70 81 76 82 71 83 72 84 73 85
REMARK SMILES IDX 74 86 75 87 54 88 55 89 63 90 56 91 62 92 57 93 58 94 59 95
REMARK SMILES IDX 60 96 61 97
REMARK H PARENT 8 17 82 53 52 64
REMARK Flexibility Score: inf
ROOT
ATOM      1  C   UNL     1       2.090   2.952  -1.154  1.00  0.00     0.188 C 
ENDROOT
BRANCH   1   2
ATOM      2  O   UNL     1       1.178   2.028  -1.737  1.00  0.00    -0.376 OA
BRANCH   2   3
ATOM      3  C   UNL     1       0.881   2.193  -3.120  1.00  0.00     0.202 C 
BRANCH   3   4
ATOM      4  C   UNL     1       0.216   3.513  -3.550  1.00  0.00     0.261 C 
BRANCH   4   5
ATOM      5  O   UNL     1       0.828   4.721  -3.035  1.00  0.00    -0.463 OA
BRANCH   5   6
ATOM      6  C   UNL     1       0.052   5.399  -2.153  1.00  0.00     0.311 C 
ATOM      7  O   UNL     1      -1.096   5.070  -1.863  1.00  0.00    -0.252 OA
BRANCH   6   8
ATOM      8  C   UNL     1       0.719   6.564  -1.436  1.00  0.00     0.121 C 
ATOM      9  C   UNL     1       2.178   7.028  -1.714  1.00  0.00     0.096 C 
ATOM     10  C   UNL     1       2.520   8.059  -0.622  1.00  0.00     0.026 C 
ATOM     11  C   UNL     1       1.561   9.249  -0.597  1.00  0.00     0.002 C 
ATOM     12  C   UNL     1      -0.264   7.746  -1.426  1.00  0.00     0.017 C 
ATOM     13  C   UNL     1       0.128   8.793  -0.391  1.00  0.00     0.001 C 
BRANCH   9  14
ATOM     14  N   UNL     1       2.469   7.392  -3.120  1.00  0.00    -0.348 N 
ATOM     15  C   UNL     1       3.141   8.377  -3.812  1.00  0.00     0.251 C 
ATOM     16  O   UNL     1       3.357   8.217  -5.014  1.00  0.00    -0.269 OA
ATOM     17  H   UNL     1       2.065   6.743  -3.740  1.00  0.00     0.164 HD
BRANCH  15  18
ATOM     18  C   UNL     1       3.511   9.687  -3.241  1.00  0.00     0.045 A 
ATOM     19  C   UNL     1       3.022  12.069  -3.130  1.00  0.00     0.163 A 
ATOM     20  C   UNL     1       2.824  10.815  -3.719  1.00  0.00     0.064 A 
ATOM     21  C   UNL     1       3.893  12.178  -2.032  1.00  0.00     0.179 A 
ATOM     22  C   UNL     1       4.680  11.078  -1.658  1.00  0.00     0.087 A 
ATOM     23  C   UNL     1       4.520   9.842  -2.295  1.00  0.00     0.038 A 
ATOM     24  Cl  UNL     1       5.850  11.179  -0.391  1.00  0.00    -0.080 Cl
BRANCH  19  25
ATOM     25  O   UNL     1       2.379  13.216  -3.520  1.00  0.00    -0.493 OA
ATOM     26  C   UNL     1       1.730  13.195  -4.787  1.00  0.00     0.278 C 
ENDBRANCH  19  25
BRANCH  21  27
ATOM     27  O   UNL     1       3.994  13.399  -1.405  1.00  0.00    -0.491 OA
ATOM     28  C   UNL     1       3.428  13.380  -0.090  1.00  0.00     0.278 C 
ENDBRANCH  21  27
ENDBRANCH  15  18
ENDBRANCH   9  14
ENDBRANCH   6   8
ENDBRANCH   5   6
ENDBRANCH   4   5
ENDBRANCH   3   4
ENDBRANCH   2   3
ENDBRANCH   1   2
BRANCH   1  29
ATOM     29  C   UNL     1       3.447   3.099  -1.841  1.00  0.00     0.188 C 
BRANCH  29  30
ATOM     30  O   UNL     1       3.410   3.275  -3.252  1.00  0.00    -0.376 OA
BRANCH  30  31
ATOM     31  C   UNL     1       4.682   3.237  -3.913  1.00  0.00     0.202 C 
BRANCH  31  32
ATOM     32  C   UNL     1       5.523   1.959  -3.689  1.00  0.00     0.261 C 
BRANCH  32  33
ATOM     33  O   UNL     1       5.973   1.736  -2.333  1.00  0.00    -0.460 OA
BRANCH  33  34
ATOM     34  C   UNL     1       6.582   2.764  -1.696  1.00  0.00     0.338 C 
ATOM     35  O   UNL     1       7.041   3.766  -2.221  1.00  0.00    -0.246 OA
BRANCH  34  36
ATOM     36  C   UNL     1       6.357   2.625  -0.231  1.00  0.00     0.060 A 
ATOM     37  C   UNL     1       6.060   3.785   0.501  1.00  0.00     0.016 A 
ATOM     38  C   UNL     1       6.374   1.386   0.415  1.00  0.00     0.016 A 
ATOM     39  C   UNL     1       5.839   3.717   1.880  1.00  0.00     0.010 A 
ATOM     40  C   UNL     1       6.164   1.320   1.800  1.00  0.00     0.010 A 
ATOM     41  C   UNL     1       5.937   2.490   2.548  1.00  0.00    -0.014 A 
BRANCH  41  42
ATOM     42  C   UNL     1       6.031   2.460   4.033  1.00  0.00     0.031 A 
ATOM     43  C   UNL     1       7.405   2.393   4.654  1.00  0.00     0.074 A 
ATOM     44  C   UNL     1       4.948   2.519   4.830  1.00  0.00     0.049 A 
ATOM     45  N   UNL     1       7.745   2.334   5.916  1.00  0.00    -0.248 NA
ATOM     46  C   UNL     1       8.545   2.392   3.722  1.00  0.00     0.031 C 
ATOM     47  C   UNL     1       3.563   2.634   4.379  1.00  0.00     0.029 A 
ATOM     48  N   UNL     1       4.852   2.486   6.202  1.00  0.00    -0.354 N 
ATOM     49  C   UNL     1       9.134   2.282   5.929  1.00  0.00     0.074 A 
ATOM     50  C   UNL     1       9.572   2.285   4.551  1.00  0.00     0.031 C 
ATOM     51  C   UNL     1       2.755   2.655   5.456  1.00  0.00     0.029 A 
ATOM     52  C   UNL     1       3.560   2.524   6.671  1.00  0.00     0.049 A 
ATOM     53  H   UNL     1       5.638   2.440   6.795  1.00  0.00     0.167 HD
ATOM     54  C   UNL     1       9.977   2.242   6.989  1.00  0.00     0.031 A 
ATOM     55  C   UNL     1       3.079   2.444   7.930  1.00  0.00     0.031 A 
ATOM     56  C   UNL     1       9.556   2.221   8.363  1.00  0.00     0.049 A 
ATOM     57  C   UNL     1       4.034   2.314   9.093  1.00  0.00     0.074 A 
ATOM     58  C   UNL     1      10.344   2.191   9.501  1.00  0.00     0.029 A 
ATOM     59  N   UNL     1       8.238   2.218   8.790  1.00  0.00    -0.354 N 
ATOM     60  N   UNL     1       5.345   2.293   9.089  1.00  0.00    -0.248 NA
ATOM     61  C   UNL     1       3.438   2.204  10.435  1.00  0.00     0.031 C 
ATOM     62  C   UNL     1       9.502   2.111  10.614  1.00  0.00     0.029 A 
ATOM     63  C   UNL     1       8.190   2.157  10.172  1.00  0.00     0.049 A 
ATOM     64  H   UNL     1       7.453   2.253   8.198  1.00  0.00     0.167 HD
ATOM     65  C   UNL     1       5.729   2.199  10.425  1.00  0.00     0.074 A 
ATOM     66  C   UNL     1       4.514   2.179  11.210  1.00  0.00     0.031 C 
ATOM     67  C   UNL     1       6.978   2.140  10.952  1.00  0.00     0.031 A 
BRANCH  54  68
ATOM     68  C   UNL     1      11.451   2.179   6.694  1.00  0.00    -0.014 A 
ATOM     69  C   UNL     1      12.141   3.295   6.186  1.00  0.00     0.010 A 
ATOM     70  C   UNL     1      12.162   0.994   6.956  1.00  0.00     0.010 A 
ATOM     71  C   UNL     1      13.508   3.213   5.908  1.00  0.00     0.020 A 
ATOM     72  C   UNL     1      13.534   0.917   6.707  1.00  0.00     0.020 A 
ATOM     73  C   UNL     1      14.194   2.023   6.167  1.00  0.00     0.054 A 
BRANCH  73  74
ATOM     74  S   UNL     1      15.971   1.949   5.811  1.00  0.00     0.124 S 
ATOM     75  O   UNL     1      15.983   1.906   4.351  1.00  0.00    -0.237 OA
ATOM     76  O   UNL     1      16.468   3.187   6.407  1.00  0.00    -0.237 OA
ATOM     77  O   UNL     1      16.407   0.723   6.474  1.00  0.00    -0.744 OA
ENDBRANCH  73  74
ENDBRANCH  54  68
BRANCH  55  78
ATOM     78  C   UNL     1       1.608   2.462   8.171  1.00  0.00    -0.014 A 
ATOM     79  C   UNL     1       0.998   3.552   8.817  1.00  0.00     0.010 A 
ATOM     80  C   UNL     1       0.812   1.370   7.779  1.00  0.00     0.010 A 
ATOM     81  C   UNL     1      -0.377   3.544   9.079  1.00  0.00     0.020 A 
ATOM     82  C   UNL     1      -0.566   1.370   8.013  1.00  0.00     0.020 A 
ATOM     83  C   UNL     1      -1.151   2.453   8.672  1.00  0.00     0.054 A 
BRANCH  83  84
ATOM     84  S   UNL     1      -2.940   2.487   8.975  1.00  0.00     0.124 S 
ATOM     85  O   UNL     1      -3.008   2.265  10.416  1.00  0.00    -0.237 OA
ATOM     86  O   UNL     1      -3.310   3.825   8.522  1.00  0.00    -0.237 OA
ATOM     87  O   UNL     1      -3.447   1.395   8.148  1.00  0.00    -0.744 OA
ENDBRANCH  83  84
ENDBRANCH  55  78
BRANCH  67  88
ATOM     88  C   UNL     1       7.110   2.092  12.454  1.00  0.00    -0.014 A 
ATOM     89  C   UNL     1       6.770   0.940  13.185  1.00  0.00     0.010 A 
ATOM     90  C   UNL     1       7.646   3.199  13.138  1.00  0.00     0.010 A 
ATOM     91  C   UNL     1       6.934   0.908  14.574  1.00  0.00     0.020 A 
ATOM     92  C   UNL     1       7.838   3.161  14.522  1.00  0.00     0.020 A 
ATOM     93  C   UNL     1       7.466   2.020  15.234  1.00  0.00     0.054 A 
BRANCH  93  94
ATOM     94  S   UNL     1       7.708   1.939  17.031  1.00  0.00     0.124 S 
ATOM     95  O   UNL     1       6.339   2.046  17.527  1.00  0.00    -0.237 OA
ATOM     96  O   UNL     1       8.343   0.635  17.211  1.00  0.00    -0.237 OA
ATOM     97  O   UNL     1       8.566   3.087  17.318  1.00  0.00    -0.744 OA
ENDBRANCH  93  94
ENDBRANCH  67  88
ENDBRANCH  41  42
ENDBRANCH  34  36
ENDBRANCH  33  34
ENDBRANCH  32  33
ENDBRANCH  31  32
ENDBRANCH  30  31
ENDBRANCH  29  30
ENDBRANCH   1  29
TORSDOF 24
