REMARK SMILES C[C@@H]1CCC[C@H]1NC(=O)c1csc(/C=C/C(=O)OCCOCCOCCOC(=O)c2ccc(-c3c4nc(c(-c5ccc(S(=O)(=O)[O-])cc5)c5ccc([nH]5)c(-c5ccc(S(=O)(=O)[O-])cc5)c5nc(c(-c6ccc(S(=O)(=O)[O-])cc6)c6ccc3[nH]6)C=C5)C=C4)cc2)c1
REMARK SMILES IDX 22 1 21 2 20 3 19 4 18 5 16 6 17 7 15 8 14 9 13 10 10 11
REMARK SMILES IDX 11 12 90 13 12 14 8 15 7 16 9 18 6 19 1 20 2 21 3 22 4 23
REMARK SMILES IDX 5 24 23 25 24 26 25 27 26 28 27 29 28 30 29 31 30 32 31 33
REMARK SMILES IDX 89 34 32 35 88 36 33 37 34 38 35 39 82 40 36 41 87 42 81 43
REMARK SMILES IDX 83 44 37 45 86 46 80 47 79 48 38 50 68 51 49 52 67 53 50 54
REMARK SMILES IDX 53 55 66 56 84 57 51 58 52 59 65 61 85 62 54 63 39 64 40 65
REMARK SMILES IDX 48 66 41 67 47 68 42 69 43 70 44 71 45 72 46 73 69 74 70 75
REMARK SMILES IDX 78 76 71 77 77 78 72 79 73 80 74 81 75 82 76 83 55 84 56 85
REMARK SMILES IDX 64 86 57 87 63 88 58 89 59 90 60 91 61 92 62 93
REMARK H PARENT 7 17 83 49 53 60
REMARK Flexibility Score: inf
ROOT
ATOM      1  C   UNL     1       5.731   9.046   1.058  1.00  0.00     0.188 C 
ENDROOT
BRANCH   1   2
ATOM      2  O   UNL     1       6.463  10.053   1.722  1.00  0.00    -0.376 OA
BRANCH   2   3
ATOM      3  C   UNL     1       6.161  10.412   3.058  1.00  0.00     0.202 C 
BRANCH   3   4
ATOM      4  C   UNL     1       4.787  10.231   3.728  1.00  0.00     0.261 C 
BRANCH   4   5
ATOM      5  O   UNL     1       4.003   9.108   3.314  1.00  0.00    -0.460 OA
BRANCH   5   6
ATOM      6  C   UNL     1       2.855   9.422   2.664  1.00  0.00     0.330 C 
ATOM      7  O   UNL     1       2.445  10.547   2.426  1.00  0.00    -0.247 OA
BRANCH   6   8
ATOM      8  C   UNL     1       2.163   8.231   2.136  1.00  0.00     0.095 C 
ATOM      9  C   UNL     1       2.276   6.989   2.630  1.00  0.00     0.026 C 
BRANCH   9  10
ATOM     10  C   UNL     1       1.535   5.884   2.105  1.00  0.00     0.028 A 
ATOM     11  C   UNL     1       0.342   3.829   2.002  1.00  0.00     0.051 A 
ATOM     12  C   UNL     1       0.112   4.365   0.752  1.00  0.00     0.079 A 
ATOM     13  C   UNL     1       1.173   4.723   2.769  1.00  0.00     0.033 A 
ATOM     14  S   UNL     1       0.964   5.818   0.481  1.00  0.00    -0.144 S 
BRANCH  11  15
ATOM     15  C   UNL     1      -0.259   2.616   2.550  1.00  0.00     0.252 C 
ATOM     16  N   UNL     1      -0.495   1.515   1.768  1.00  0.00    -0.349 N 
ATOM     17  H   UNL     1      -1.070   0.836   2.189  1.00  0.00     0.164 HD
ATOM     18  O   UNL     1      -0.565   2.544   3.740  1.00  0.00    -0.269 OA
BRANCH  16  19
ATOM     19  C   UNL     1      -0.044   1.171   0.422  1.00  0.00     0.085 C 
ATOM     20  C   UNL     1       1.794  -0.106  -0.769  1.00  0.00     0.010 C 
ATOM     21  C   UNL     1       0.878  -0.058   0.454  1.00  0.00     0.008 C 
ATOM     22  C   UNL     1      -0.101  -1.232   0.475  1.00  0.00     0.005 C 
ATOM     23  C   UNL     1      -1.278  -0.791  -0.388  1.00  0.00     0.002 C 
ATOM     24  C   UNL     1      -1.235   0.738  -0.439  1.00  0.00     0.025 C 
ENDBRANCH  16  19
ENDBRANCH  11  15
ENDBRANCH   9  10
ENDBRANCH   6   8
ENDBRANCH   5   6
ENDBRANCH   4   5
ENDBRANCH   3   4
ENDBRANCH   2   3
ENDBRANCH   1   2
BRANCH   1  25
ATOM     25  C   UNL     1       5.837   7.591   1.552  1.00  0.00     0.188 C 
BRANCH  25  26
ATOM     26  O   UNL     1       6.438   7.337   2.801  1.00  0.00    -0.376 OA
BRANCH  26  27
ATOM     27  C   UNL     1       7.842   7.452   2.962  1.00  0.00     0.202 C 
BRANCH  27  28
ATOM     28  C   UNL     1       8.889   7.522   1.831  1.00  0.00     0.261 C 
BRANCH  28  29
ATOM     29  O   UNL     1       8.454   7.902   0.526  1.00  0.00    -0.460 OA
BRANCH  29  30
ATOM     30  C   UNL     1       8.387   6.895  -0.381  1.00  0.00     0.338 C 
ATOM     31  O   UNL     1       8.607   5.715  -0.193  1.00  0.00    -0.246 OA
BRANCH  30  32
ATOM     32  C   UNL     1       7.832   7.437  -1.635  1.00  0.00     0.060 A 
ATOM     33  C   UNL     1       6.538   7.064  -2.022  1.00  0.00     0.016 A 
ATOM     34  C   UNL     1       8.597   8.287  -2.432  1.00  0.00     0.016 A 
ATOM     35  C   UNL     1       6.002   7.545  -3.216  1.00  0.00     0.010 A 
ATOM     36  C   UNL     1       8.068   8.748  -3.640  1.00  0.00     0.010 A 
ATOM     37  C   UNL     1       6.776   8.366  -4.046  1.00  0.00    -0.014 A 
BRANCH  37  38
ATOM     38  C   UNL     1       6.306   8.713  -5.408  1.00  0.00     0.031 A 
ATOM     39  C   UNL     1       6.835   7.926  -6.575  1.00  0.00     0.074 A 
ATOM     40  C   UNL     1       5.434   9.718  -5.607  1.00  0.00     0.049 A 
ATOM     41  N   UNL     1       6.655   8.120  -7.855  1.00  0.00    -0.248 NA
ATOM     42  C   UNL     1       7.684   6.766  -6.252  1.00  0.00     0.031 C 
ATOM     43  C   UNL     1       4.802  10.514  -4.555  1.00  0.00     0.029 A 
ATOM     44  N   UNL     1       4.940  10.249  -6.773  1.00  0.00    -0.354 N 
ATOM     45  C   UNL     1       7.371   7.114  -8.492  1.00  0.00     0.074 A 
ATOM     46  C   UNL     1       8.012   6.329  -7.459  1.00  0.00     0.031 C 
ATOM     47  C   UNL     1       4.013  11.442  -5.126  1.00  0.00     0.029 A 
ATOM     48  C   UNL     1       4.121  11.337  -6.580  1.00  0.00     0.049 A 
ATOM     49  H   UNL     1       5.152   9.885  -7.663  1.00  0.00     0.167 HD
ATOM     50  C   UNL     1       7.482   6.863  -9.818  1.00  0.00     0.031 A 
ATOM     51  C   UNL     1       3.553  12.170  -7.475  1.00  0.00     0.031 A 
ATOM     52  C   UNL     1       6.862   7.662 -10.842  1.00  0.00     0.049 A 
ATOM     53  C   UNL     1       3.788  11.942  -8.948  1.00  0.00     0.074 A 
ATOM     54  C   UNL     1       6.918   7.493 -12.214  1.00  0.00     0.029 A 
ATOM     55  N   UNL     1       6.081   8.783 -10.607  1.00  0.00    -0.354 N 
ATOM     56  N   UNL     1       4.457  10.979  -9.539  1.00  0.00    -0.248 NA
ATOM     57  C   UNL     1       3.192  12.915  -9.877  1.00  0.00     0.031 C 
ATOM     58  C   UNL     1       6.221   8.548 -12.811  1.00  0.00     0.029 A 
ATOM     59  C   UNL     1       5.673   9.334 -11.810  1.00  0.00     0.049 A 
ATOM     60  H   UNL     1       5.851   9.135  -9.717  1.00  0.00     0.167 HD
ATOM     61  C   UNL     1       4.333  11.213 -10.906  1.00  0.00     0.074 A 
ATOM     62  C   UNL     1       3.516  12.399 -11.055  1.00  0.00     0.031 C 
ATOM     63  C   UNL     1       4.849  10.510 -11.944  1.00  0.00     0.031 A 
BRANCH  50  64
ATOM     64  C   UNL     1       8.330   5.692 -10.238  1.00  0.00    -0.014 A 
ATOM     65  C   UNL     1       7.909   4.370 -10.007  1.00  0.00     0.010 A 
ATOM     66  C   UNL     1       9.544   5.916 -10.912  1.00  0.00     0.010 A 
ATOM     67  C   UNL     1       8.703   3.294 -10.412  1.00  0.00     0.020 A 
ATOM     68  C   UNL     1      10.327   4.842 -11.346  1.00  0.00     0.020 A 
ATOM     69  C   UNL     1       9.907   3.537 -11.080  1.00  0.00     0.054 A 
BRANCH  69  70
ATOM     70  S   UNL     1      10.900   2.119 -11.620  1.00  0.00     0.124 S 
ATOM     71  O   UNL     1      11.394   1.596 -10.348  1.00  0.00    -0.237 OA
ATOM     72  O   UNL     1       9.916   1.282 -12.302  1.00  0.00    -0.237 OA
ATOM     73  O   UNL     1      11.916   2.714 -12.485  1.00  0.00    -0.744 OA
ENDBRANCH  69  70
ENDBRANCH  50  64
BRANCH  51  74
ATOM     74  C   UNL     1       2.728  13.323  -7.014  1.00  0.00    -0.014 A 
ATOM     75  C   UNL     1       1.350  13.373  -7.289  1.00  0.00     0.010 A 
ATOM     76  C   UNL     1       3.323  14.396  -6.324  1.00  0.00     0.010 A 
ATOM     77  C   UNL     1       0.589  14.482  -6.908  1.00  0.00     0.020 A 
ATOM     78  C   UNL     1       2.560  15.492  -5.912  1.00  0.00     0.020 A 
ATOM     79  C   UNL     1       1.200  15.536  -6.221  1.00  0.00     0.054 A 
BRANCH  79  80
ATOM     80  S   UNL     1       0.186  16.953  -5.716  1.00  0.00     0.124 S 
ATOM     81  O   UNL     1      -0.077  17.609  -6.993  1.00  0.00    -0.237 OA
ATOM     82  O   UNL     1      -0.964  16.308  -5.087  1.00  0.00    -0.237 OA
ATOM     83  O   UNL     1       1.057  17.688  -4.801  1.00  0.00    -0.744 OA
ENDBRANCH  79  80
ENDBRANCH  51  74
BRANCH  63  84
ATOM     84  C   UNL     1       4.516  10.969 -13.340  1.00  0.00    -0.014 A 
ATOM     85  C   UNL     1       5.083  12.135 -13.882  1.00  0.00     0.010 A 
ATOM     86  C   UNL     1       3.685  10.172 -14.151  1.00  0.00     0.010 A 
ATOM     87  C   UNL     1       4.812  12.505 -15.203  1.00  0.00     0.020 A 
ATOM     88  C   UNL     1       3.437  10.522 -15.481  1.00  0.00     0.020 A 
ATOM     89  C   UNL     1       3.996  11.693 -15.996  1.00  0.00     0.054 A 
BRANCH  89  90
ATOM     90  S   UNL     1       3.720  12.159 -17.727  1.00  0.00     0.124 S 
ATOM     91  O   UNL     1       2.854  13.327 -17.595  1.00  0.00    -0.237 OA
ATOM     92  O   UNL     1       5.074  12.430 -18.204  1.00  0.00    -0.237 OA
ATOM     93  O   UNL     1       3.087  10.977 -18.309  1.00  0.00    -0.744 OA
ENDBRANCH  89  90
ENDBRANCH  63  84
ENDBRANCH  37  38
ENDBRANCH  30  32
ENDBRANCH  29  30
ENDBRANCH  28  29
ENDBRANCH  27  28
ENDBRANCH  26  27
ENDBRANCH  25  26
ENDBRANCH   1  25
TORSDOF 23
