REMARK SMILES CC(C)[C@](C)(CC(=O)NC#N)C(=O)OCCOCCOCCOC(=O)c1ccc(-c2c3nc(c(-c4ccc(S(=O)(=O)[O-])cc4)c4ccc([nH]4)c(-c4ccc(S(=O)(=O)[O-])cc4)c4nc(c(-c5ccc(S(=O)(=O)[O-])cc5)c5ccc2[nH]5)C=C4)C=C3)cc1
REMARK SMILES IDX 18 1 17 2 16 3 15 4 14 5 12 6 13 7 4 8 5 9 2 10 1 11 3 12
REMARK SMILES IDX 6 13 7 14 8 15 9 16 10 18 11 19 19 20 20 21 21 22 22 23
REMARK SMILES IDX 23 24 24 25 25 26 26 27 27 28 85 29 28 30 84 31 29 32 30 33
REMARK SMILES IDX 31 34 78 35 32 36 83 37 77 38 79 39 33 40 82 41 76 42 75 43
REMARK SMILES IDX 34 45 64 46 45 47 63 48 46 49 49 50 62 51 80 52 47 53 48 54
REMARK SMILES IDX 61 56 81 57 50 58 35 59 36 60 44 61 37 62 43 63 38 64 39 65
REMARK SMILES IDX 40 66 41 67 42 68 65 69 66 70 74 71 67 72 73 73 68 74 69 75
REMARK SMILES IDX 70 76 71 77 72 78 51 79 52 80 60 81 53 82 59 83 54 84 55 85
REMARK SMILES IDX 56 86 57 87 58 88
REMARK H PARENT 9 17 79 44 49 55
REMARK Flexibility Score: inf
ROOT
ATOM      1  C   UNL     1      -0.995   1.907  -3.359  1.00  0.00     0.188 C 
ENDROOT
BRANCH   1   2
ATOM      2  O   UNL     1      -1.738   1.021  -4.179  1.00  0.00    -0.376 OA
BRANCH   2   3
ATOM      3  C   UNL     1      -3.039   0.608  -3.788  1.00  0.00     0.202 C 
BRANCH   3   4
ATOM      4  C   UNL     1      -3.287  -0.038  -2.402  1.00  0.00     0.261 C 
BRANCH   4   5
ATOM      5  O   UNL     1      -2.884   0.665  -1.191  1.00  0.00    -0.463 OA
BRANCH   5   6
ATOM      6  C   UNL     1      -1.677   0.285  -0.698  1.00  0.00     0.312 C 
ATOM      7  O   UNL     1      -0.984  -0.555  -1.271  1.00  0.00    -0.252 OA
BRANCH   6   8
ATOM      8  C   UNL     1      -1.237   0.899   0.673  1.00  0.00     0.076 C 
ATOM      9  C   UNL     1       0.307   0.816   0.614  1.00  0.00     0.024 C 
BRANCH   8  10
ATOM     10  C   UNL     1      -1.747  -0.095   1.827  1.00  0.00     0.000 C 
ATOM     11  C   UNL     1      -2.913   0.434   2.687  1.00  0.00     0.008 C 
ATOM     12  C   UNL     1      -2.159  -1.495   1.343  1.00  0.00     0.008 C 
ENDBRANCH   8  10
BRANCH   8  13
ATOM     13  C   UNL     1      -1.644   2.358   1.084  1.00  0.00     0.119 C 
BRANCH  13  14
ATOM     14  C   UNL     1      -1.131   3.708   0.571  1.00  0.00     0.234 C 
ATOM     15  O   UNL     1      -1.920   4.507   0.055  1.00  0.00    -0.274 OA
ATOM     16  N   UNL     1       0.128   4.160   0.775  1.00  0.00    -0.263 N 
ATOM     17  H   UNL     1       0.244   5.072   0.421  1.00  0.00     0.182 HD
BRANCH  16  18
ATOM     18  C   UNL     1       1.254   3.707   1.325  1.00  0.00     0.183 C 
ATOM     19  N   UNL     1       2.270   3.353   1.756  1.00  0.00    -0.172 NA
ENDBRANCH  16  18
ENDBRANCH  13  14
ENDBRANCH   8  13
ENDBRANCH   6   8
ENDBRANCH   5   6
ENDBRANCH   4   5
ENDBRANCH   3   4
ENDBRANCH   2   3
ENDBRANCH   1   2
BRANCH   1  20
ATOM     20  C   UNL     1      -1.742   2.908  -2.474  1.00  0.00     0.188 C 
BRANCH  20  21
ATOM     21  O   UNL     1      -3.117   3.026  -2.719  1.00  0.00    -0.376 OA
BRANCH  21  22
ATOM     22  C   UNL     1      -3.574   4.181  -3.386  1.00  0.00     0.202 C 
BRANCH  22  23
ATOM     23  C   UNL     1      -2.764   4.824  -4.531  1.00  0.00     0.261 C 
BRANCH  23  24
ATOM     24  O   UNL     1      -1.330   4.686  -4.521  1.00  0.00    -0.460 OA
BRANCH  24  25
ATOM     25  C   UNL     1      -0.621   5.591  -3.803  1.00  0.00     0.338 C 
ATOM     26  O   UNL     1      -1.069   6.523  -3.160  1.00  0.00    -0.246 OA
BRANCH  25  27
ATOM     27  C   UNL     1       0.799   5.162  -3.737  1.00  0.00     0.060 A 
ATOM     28  C   UNL     1       1.292   4.598  -2.552  1.00  0.00     0.016 A 
ATOM     29  C   UNL     1       1.663   5.390  -4.803  1.00  0.00     0.016 A 
ATOM     30  C   UNL     1       2.647   4.303  -2.402  1.00  0.00     0.010 A 
ATOM     31  C   UNL     1       3.026   5.099  -4.653  1.00  0.00     0.010 A 
ATOM     32  C   UNL     1       3.534   4.588  -3.442  1.00  0.00    -0.014 A 
BRANCH  32  33
ATOM     33  C   UNL     1       5.000   4.498  -3.219  1.00  0.00     0.031 A 
ATOM     34  C   UNL     1       5.803   5.771  -3.157  1.00  0.00     0.074 A 
ATOM     35  C   UNL     1       5.613   3.311  -3.048  1.00  0.00     0.049 A 
ATOM     36  N   UNL     1       7.100   5.935  -3.138  1.00  0.00    -0.248 NA
ATOM     37  C   UNL     1       5.037   7.028  -3.117  1.00  0.00     0.031 C 
ATOM     38  C   UNL     1       4.944   2.012  -2.991  1.00  0.00     0.029 A 
ATOM     39  N   UNL     1       6.945   3.008  -2.904  1.00  0.00    -0.354 N 
ATOM     40  C   UNL     1       7.306   7.310  -3.116  1.00  0.00     0.074 A 
ATOM     41  C   UNL     1       6.002   7.935  -3.151  1.00  0.00     0.031 C 
ATOM     42  C   UNL     1       5.869   1.050  -2.838  1.00  0.00     0.029 A 
ATOM     43  C   UNL     1       7.198   1.656  -2.855  1.00  0.00     0.049 A 
ATOM     44  H   UNL     1       7.651   3.691  -2.842  1.00  0.00     0.167 HD
ATOM     45  C   UNL     1       8.477   7.990  -3.067  1.00  0.00     0.031 A 
ATOM     46  C   UNL     1       8.365   0.981  -2.872  1.00  0.00     0.031 A 
ATOM     47  C   UNL     1       9.770   7.357  -3.037  1.00  0.00     0.049 A 
ATOM     48  C   UNL     1       9.658   1.752  -2.927  1.00  0.00     0.074 A 
ATOM     49  C   UNL     1      11.019   7.953  -3.003  1.00  0.00     0.029 A 
ATOM     50  N   UNL     1       9.982   5.986  -3.033  1.00  0.00    -0.354 N 
ATOM     51  N   UNL     1       9.842   3.051  -2.948  1.00  0.00    -0.248 NA
ATOM     52  C   UNL     1      10.899   0.968  -2.958  1.00  0.00     0.031 C 
ATOM     53  C   UNL     1      11.985   6.943  -3.049  1.00  0.00     0.029 A 
ATOM     54  C   UNL     1      11.341   5.716  -3.024  1.00  0.00     0.049 A 
ATOM     55  H   UNL     1       9.272   5.304  -3.036  1.00  0.00     0.167 HD
ATOM     56  C   UNL     1      11.221   3.239  -2.962  1.00  0.00     0.074 A 
ATOM     57  C   UNL     1      11.821   1.921  -2.932  1.00  0.00     0.031 C 
ATOM     58  C   UNL     1      11.926   4.398  -2.994  1.00  0.00     0.031 A 
BRANCH  45  59
ATOM     59  C   UNL     1       8.414   9.496  -3.086  1.00  0.00    -0.014 A 
ATOM     60  C   UNL     1       7.903  10.223  -1.996  1.00  0.00     0.010 A 
ATOM     61  C   UNL     1       8.915  10.199  -4.198  1.00  0.00     0.010 A 
ATOM     62  C   UNL     1       7.861  11.620  -2.032  1.00  0.00     0.020 A 
ATOM     63  C   UNL     1       8.908  11.597  -4.223  1.00  0.00     0.020 A 
ATOM     64  C   UNL     1       8.368  12.298  -3.144  1.00  0.00     0.054 A 
BRANCH  64  65
ATOM     65  S   UNL     1       8.333  14.111  -3.144  1.00  0.00     0.124 S 
ATOM     66  O   UNL     1       6.901  14.386  -3.236  1.00  0.00    -0.237 OA
ATOM     67  O   UNL     1       8.954  14.440  -1.864  1.00  0.00    -0.237 OA
ATOM     68  O   UNL     1       9.112  14.475  -4.325  1.00  0.00    -0.744 OA
ENDBRANCH  64  65
ENDBRANCH  45  59
BRANCH  46  69
ATOM     69  C   UNL     1       8.359  -0.511  -2.886  1.00  0.00    -0.014 A 
ATOM     70  C   UNL     1       8.858  -1.248  -1.798  1.00  0.00     0.010 A 
ATOM     71  C   UNL     1       7.838  -1.205  -3.995  1.00  0.00     0.010 A 
ATOM     72  C   UNL     1       8.842  -2.646  -1.822  1.00  0.00     0.020 A 
ATOM     73  C   UNL     1       7.786  -2.601  -4.007  1.00  0.00     0.020 A 
ATOM     74  C   UNL     1       8.296  -3.314  -2.922  1.00  0.00     0.054 A 
BRANCH  74  75
ATOM     75  S   UNL     1       8.224  -5.127  -2.897  1.00  0.00     0.124 S 
ATOM     76  O   UNL     1       9.634  -5.490  -3.000  1.00  0.00    -0.237 OA
ATOM     77  O   UNL     1       7.593  -5.397  -1.607  1.00  0.00    -0.237 OA
ATOM     78  O   UNL     1       7.408  -5.455  -4.063  1.00  0.00    -0.744 OA
ENDBRANCH  74  75
ENDBRANCH  46  69
BRANCH  58  79
ATOM     79  C   UNL     1      13.431   4.303  -2.947  1.00  0.00    -0.014 A 
ATOM     80  C   UNL     1      14.172   3.795  -4.028  1.00  0.00     0.010 A 
ATOM     81  C   UNL     1      14.116   4.790  -1.818  1.00  0.00     0.010 A 
ATOM     82  C   UNL     1      15.568   3.744  -3.966  1.00  0.00     0.020 A 
ATOM     83  C   UNL     1      15.512   4.776  -1.767  1.00  0.00     0.020 A 
ATOM     84  C   UNL     1      16.229   4.239  -2.837  1.00  0.00     0.054 A 
BRANCH  84  85
ATOM     85  S   UNL     1      18.042   4.204  -2.804  1.00  0.00     0.124 S 
ATOM     86  O   UNL     1      18.318   2.774  -2.697  1.00  0.00    -0.237 OA
ATOM     87  O   UNL     1      18.395   4.819  -4.082  1.00  0.00    -0.237 OA
ATOM     88  O   UNL     1      18.384   4.994  -1.623  1.00  0.00    -0.744 OA
ENDBRANCH  84  85
ENDBRANCH  58  79
ENDBRANCH  32  33
ENDBRANCH  25  27
ENDBRANCH  24  25
ENDBRANCH  23  24
ENDBRANCH  22  23
ENDBRANCH  21  22
ENDBRANCH  20  21
ENDBRANCH   1  20
TORSDOF 24
