REMARK SMILES COc1ccc(CCN2C(=O)C[C@@H](C(=O)OCCOCCOCCOC(=O)c3ccc(-c4c5nc(c(-c6ccc(S(=O)(=O)[O-])cc6)c6ccc([nH]6)c(-c6ccc(S(=O)(=O)[O-])cc6)c6nc(c(-c7ccc(S(=O)(=O)[O-])cc7)c7ccc4[nH]7)C=C6)C=C5)cc3)S/C2=[NH+]\c2ccc(F)cc2)cc1OC
REMARK SMILES IDX 20 1 19 2 18 3 17 4 16 5 14 6 15 7 13 8 9 9 10 10 89 11
REMARK SMILES IDX 11 12 12 13 88 14 90 15 8 17 7 18 6 19 3 20 4 21 99 22 5 23
REMARK SMILES IDX 98 24 2 25 1 26 100 27 101 28 91 29 92 30 97 31 93 32 96 33
REMARK SMILES IDX 94 34 95 35 21 36 22 37 23 38 24 39 25 40 26 41 27 42 28 43
REMARK SMILES IDX 29 44 87 45 30 46 86 47 31 48 32 49 33 50 80 51 34 52 85 53
REMARK SMILES IDX 79 54 81 55 35 56 84 57 78 58 77 59 36 61 66 62 47 63 65 64
REMARK SMILES IDX 48 65 51 66 64 67 82 68 49 69 50 70 63 72 83 73 52 74 37 75
REMARK SMILES IDX 38 76 46 77 39 78 45 79 40 80 41 81 42 82 43 83 44 84 67 85
REMARK SMILES IDX 68 86 76 87 69 88 75 89 70 90 71 91 72 92 73 93 74 94 53 95
REMARK SMILES IDX 54 96 62 97 55 98 61 99 56 100 57 101 58 102 59 103 60 104
REMARK H PARENT 90 16 81 60 51 71
REMARK Flexibility Score: inf
ROOT
ATOM      1  C   UNL     1      -4.133  -0.123 -10.070  1.00  0.00     0.188 C 
ENDROOT
BRANCH   1   2
ATOM      2  O   UNL     1      -4.632  -0.009 -11.396  1.00  0.00    -0.376 OA
BRANCH   2   3
ATOM      3  C   UNL     1      -3.757   0.450 -12.423  1.00  0.00     0.202 C 
BRANCH   3   4
ATOM      4  C   UNL     1      -2.942   1.733 -12.185  1.00  0.00     0.261 C 
BRANCH   4   5
ATOM      5  O   UNL     1      -2.093   1.685 -11.018  1.00  0.00    -0.462 OA
BRANCH   5   6
ATOM      6  C   UNL     1      -2.237   2.687 -10.116  1.00  0.00     0.320 C 
ATOM      7  O   UNL     1      -2.963   3.660 -10.296  1.00  0.00    -0.251 OA
BRANCH   6   8
ATOM      8  C   UNL     1      -1.486   2.498  -8.798  1.00  0.00     0.180 C 
ATOM      9  N   UNL     1       0.751   2.672  -6.898  1.00  0.00    -0.191 N 
ATOM     10  C   UNL     1       0.191   3.856  -7.353  1.00  0.00     0.311 C 
ATOM     11  C   UNL     1       0.214   1.415  -7.121  1.00  0.00     0.319 C 
ATOM     12  O   UNL     1       0.540   4.958  -6.918  1.00  0.00    -0.247 OA
ATOM     13  C   UNL     1      -0.825   3.818  -8.469  1.00  0.00     0.155 C 
ATOM     14  S   UNL     1      -0.224   1.203  -8.780  1.00  0.00    -0.022 SA
ATOM     15  N   UNL     1       0.122   0.591  -6.135  1.00  0.00    -0.235 N 
ATOM     16  H   UNL     1       0.514   0.905  -5.288  1.00  0.00     0.313 HD
BRANCH   9  17
ATOM     17  C   UNL     1       2.062   2.748  -6.260  1.00  0.00     0.251 C 
BRANCH  17  18
ATOM     18  C   UNL     1       2.132   3.400  -4.878  1.00  0.00     0.082 C 
BRANCH  18  19
ATOM     19  C   UNL     1       1.784   2.437  -3.778  1.00  0.00    -0.040 A 
ATOM     20  C   UNL     1       1.149   0.510  -1.847  1.00  0.00     0.160 A 
ATOM     21  C   UNL     1       0.138   1.269  -2.452  1.00  0.00     0.051 A 
ATOM     22  C   UNL     1       2.487   0.717  -2.199  1.00  0.00     0.160 A 
ATOM     23  C   UNL     1       0.455   2.238  -3.401  1.00  0.00     0.008 A 
ATOM     24  C   UNL     1       2.791   1.674  -3.171  1.00  0.00     0.054 A 
BRANCH  20  25
ATOM     25  O   UNL     1       0.802  -0.512  -1.006  1.00  0.00    -0.493 OA
ATOM     26  C   UNL     1       0.111  -0.061   0.158  1.00  0.00     0.278 C 
ENDBRANCH  20  25
BRANCH  22  27
ATOM     27  O   UNL     1       3.591   0.058  -1.724  1.00  0.00    -0.493 OA
ATOM     28  C   UNL     1       3.491  -0.480  -0.413  1.00  0.00     0.278 C 
ENDBRANCH  22  27
ENDBRANCH  18  19
ENDBRANCH  17  18
ENDBRANCH   9  17
BRANCH  15  29
ATOM     29  C   UNL     1      -0.452  -0.687  -6.090  1.00  0.00     0.125 A 
ATOM     30  C   UNL     1      -1.341  -0.950  -5.028  1.00  0.00     0.055 A 
ATOM     31  C   UNL     1      -0.055  -1.762  -6.888  1.00  0.00     0.055 A 
ATOM     32  C   UNL     1      -1.802  -2.243  -4.752  1.00  0.00     0.043 A 
ATOM     33  C   UNL     1      -0.533  -3.058  -6.632  1.00  0.00     0.043 A 
ATOM     34  C   UNL     1      -1.388  -3.290  -5.558  1.00  0.00     0.123 A 
ATOM     35  F   UNL     1      -1.834  -4.529  -5.314  1.00  0.00    -0.207 F 
ENDBRANCH  15  29
ENDBRANCH   6   8
ENDBRANCH   5   6
ENDBRANCH   4   5
ENDBRANCH   3   4
ENDBRANCH   2   3
ENDBRANCH   1   2
BRANCH   1  36
ATOM     36  C   UNL     1      -2.800  -0.848  -9.839  1.00  0.00     0.188 C 
BRANCH  36  37
ATOM     37  O   UNL     1      -2.069  -1.145 -11.008  1.00  0.00    -0.376 OA
BRANCH  37  38
ATOM     38  C   UNL     1      -1.838  -2.521 -11.272  1.00  0.00     0.202 C 
BRANCH  38  39
ATOM     39  C   UNL     1      -3.049  -3.478 -11.321  1.00  0.00     0.261 C 
BRANCH  39  40
ATOM     40  O   UNL     1      -4.033  -3.341 -10.278  1.00  0.00    -0.460 OA
BRANCH  40  41
ATOM     41  C   UNL     1      -3.720  -3.857  -9.062  1.00  0.00     0.338 C 
ATOM     42  O   UNL     1      -2.702  -4.454  -8.773  1.00  0.00    -0.246 OA
BRANCH  41  43
ATOM     43  C   UNL     1      -4.725  -3.360  -8.086  1.00  0.00     0.060 A 
ATOM     44  C   UNL     1      -4.345  -2.408  -7.130  1.00  0.00     0.016 A 
ATOM     45  C   UNL     1      -6.036  -3.828  -8.111  1.00  0.00     0.016 A 
ATOM     46  C   UNL     1      -5.248  -1.957  -6.165  1.00  0.00     0.010 A 
ATOM     47  C   UNL     1      -6.942  -3.382  -7.141  1.00  0.00     0.010 A 
ATOM     48  C   UNL     1      -6.545  -2.473  -6.141  1.00  0.00    -0.014 A 
BRANCH  48  49
ATOM     49  C   UNL     1      -7.437  -2.209  -4.985  1.00  0.00     0.031 A 
ATOM     50  C   UNL     1      -7.607  -3.291  -3.952  1.00  0.00     0.074 A 
ATOM     51  C   UNL     1      -8.089  -1.040  -4.846  1.00  0.00     0.049 A 
ATOM     52  N   UNL     1      -8.418  -3.343  -2.928  1.00  0.00    -0.248 NA
ATOM     53  C   UNL     1      -6.745  -4.475  -4.102  1.00  0.00     0.031 C 
ATOM     54  C   UNL     1      -7.952   0.119  -5.725  1.00  0.00     0.029 A 
ATOM     55  N   UNL     1      -9.011  -0.644  -3.908  1.00  0.00    -0.354 N 
ATOM     56  C   UNL     1      -8.188  -4.577  -2.329  1.00  0.00     0.074 A 
ATOM     57  C   UNL     1      -7.178  -5.248  -3.118  1.00  0.00     0.031 C 
ATOM     58  C   UNL     1      -8.769   1.095  -5.290  1.00  0.00     0.029 A 
ATOM     59  C   UNL     1      -9.523   0.612  -4.134  1.00  0.00     0.049 A 
ATOM     60  H   UNL     1      -9.280  -1.207  -3.147  1.00  0.00     0.167 HD
ATOM     61  C   UNL     1      -8.767  -5.106  -1.223  1.00  0.00     0.031 A 
ATOM     62  C   UNL     1     -10.507   1.281  -3.499  1.00  0.00     0.031 A 
ATOM     63  C   UNL     1      -9.785  -4.442  -0.452  1.00  0.00     0.049 A 
ATOM     64  C   UNL     1     -11.215   0.630  -2.338  1.00  0.00     0.074 A 
ATOM     65  C   UNL     1     -10.430  -4.889   0.688  1.00  0.00     0.029 A 
ATOM     66  N   UNL     1     -10.315  -3.195  -0.747  1.00  0.00    -0.354 N 
ATOM     67  N   UNL     1     -10.989  -0.536  -1.779  1.00  0.00    -0.248 NA
ATOM     68  C   UNL     1     -12.312   1.390  -1.720  1.00  0.00     0.031 C 
ATOM     69  C   UNL     1     -11.396  -3.942   1.042  1.00  0.00     0.029 A 
ATOM     70  C   UNL     1     -11.302  -2.870   0.169  1.00  0.00     0.049 A 
ATOM     71  H   UNL     1     -10.032  -2.624  -1.498  1.00  0.00     0.167 HD
ATOM     72  C   UNL     1     -11.890  -0.632  -0.722  1.00  0.00     0.074 A 
ATOM     73  C   UNL     1     -12.658   0.597  -0.715  1.00  0.00     0.031 C 
ATOM     74  C   UNL     1     -12.061  -1.643   0.168  1.00  0.00     0.031 A 
BRANCH  61  75
ATOM     75  C   UNL     1      -8.346  -6.497  -0.824  1.00  0.00    -0.014 A 
ATOM     76  C   UNL     1      -7.051  -6.766  -0.343  1.00  0.00     0.010 A 
ATOM     77  C   UNL     1      -9.265  -7.557  -0.933  1.00  0.00     0.010 A 
ATOM     78  C   UNL     1      -6.666  -8.075  -0.039  1.00  0.00     0.020 A 
ATOM     79  C   UNL     1      -8.896  -8.862  -0.596  1.00  0.00     0.020 A 
ATOM     80  C   UNL     1      -7.590  -9.116  -0.174  1.00  0.00     0.054 A 
BRANCH  80  81
ATOM     81  S   UNL     1      -7.061 -10.805   0.218  1.00  0.00     0.124 S 
ATOM     82  O   UNL     1      -6.175 -11.111  -0.902  1.00  0.00    -0.237 OA
ATOM     83  O   UNL     1      -6.403 -10.642   1.512  1.00  0.00    -0.237 OA
ATOM     84  O   UNL     1      -8.310 -11.563   0.248  1.00  0.00    -0.744 OA
ENDBRANCH  80  81
ENDBRANCH  61  75
BRANCH  62  85
ATOM     85  C   UNL     1     -10.891   2.649  -3.949  1.00  0.00    -0.014 A 
ATOM     86  C   UNL     1     -10.632   3.763  -3.131  1.00  0.00     0.010 A 
ATOM     87  C   UNL     1     -11.518   2.848  -5.193  1.00  0.00     0.010 A 
ATOM     88  C   UNL     1     -11.000   5.047  -3.542  1.00  0.00     0.020 A 
ATOM     89  C   UNL     1     -11.861   4.134  -5.621  1.00  0.00     0.020 A 
ATOM     90  C   UNL     1     -11.606   5.225  -4.788  1.00  0.00     0.054 A 
BRANCH  90  91
ATOM     91  S   UNL     1     -12.016   6.910  -5.324  1.00  0.00     0.124 S 
ATOM     92  O   UNL     1     -13.126   7.249  -4.438  1.00  0.00    -0.237 OA
ATOM     93  O   UNL     1     -10.768   7.628  -5.079  1.00  0.00    -0.237 OA
ATOM     94  O   UNL     1     -12.367   6.746  -6.733  1.00  0.00    -0.744 OA
ENDBRANCH  90  91
ENDBRANCH  62  85
BRANCH  74  95
ATOM     95  C   UNL     1     -13.083  -1.449   1.260  1.00  0.00    -0.014 A 
ATOM     96  C   UNL     1     -14.463  -1.453   0.988  1.00  0.00     0.010 A 
ATOM     97  C   UNL     1     -12.652  -1.318   2.594  1.00  0.00     0.010 A 
ATOM     98  C   UNL     1     -15.389  -1.296   2.025  1.00  0.00     0.020 A 
ATOM     99  C   UNL     1     -13.574  -1.194   3.636  1.00  0.00     0.020 A 
ATOM    100  C   UNL     1     -14.938  -1.169   3.342  1.00  0.00     0.054 A 
BRANCH 100 101
ATOM    101  S   UNL     1     -16.161  -1.012   4.673  1.00  0.00     0.124 S 
ATOM    102  O   UNL     1     -16.671   0.340   4.461  1.00  0.00    -0.237 OA
ATOM    103  O   UNL     1     -17.099  -2.092   4.374  1.00  0.00    -0.237 OA
ATOM    104  O   UNL     1     -15.376  -1.197   5.891  1.00  0.00    -0.744 OA
ENDBRANCH 100 101
ENDBRANCH  74  95
ENDBRANCH  48  49
ENDBRANCH  41  43
ENDBRANCH  40  41
ENDBRANCH  39  40
ENDBRANCH  38  39
ENDBRANCH  37  38
ENDBRANCH  36  37
ENDBRANCH   1  36
TORSDOF 26
