REMARK SMILES CCC[C@]1(C(=O)OCCOCCOCCOC(=O)c2ccc(-c3c4nc(c(-c5ccc(S(=O)(=O)[O-])cc5)c5ccc([nH]5)c(-c5ccc(S(=O)(=O)[O-])cc5)c5nc(c(-c6ccc(S(=O)(=O)[O-])cc6)c6ccc3[nH]6)C=C5)C=C4)cc2)CCCN(C(=O)N[C@H]2CCOC2)C1
REMARK SMILES IDX 12 1 11 2 10 3 9 4 8 5 7 6 5 7 6 8 4 9 79 10 91 11 80 12
REMARK SMILES IDX 82 13 81 14 3 15 2 16 1 17 83 18 84 19 85 20 86 22 87 23
REMARK SMILES IDX 90 24 88 25 89 26 13 27 14 28 15 29 16 30 17 31 18 32 19 33
REMARK SMILES IDX 20 34 78 35 21 36 77 37 22 38 23 39 24 40 71 41 25 42 76 43
REMARK SMILES IDX 70 44 72 45 26 46 75 47 69 48 68 49 27 51 57 52 38 53 56 54
REMARK SMILES IDX 39 55 42 56 55 57 73 58 40 59 41 60 54 62 74 63 43 64 28 65
REMARK SMILES IDX 29 66 37 67 30 68 36 69 31 70 32 71 33 72 34 73 35 74 58 75
REMARK SMILES IDX 59 76 67 77 60 78 66 79 61 80 62 81 63 82 64 83 65 84 44 85
REMARK SMILES IDX 45 86 53 87 46 88 52 89 47 90 48 91 49 92 50 93 51 94
REMARK H PARENT 85 21 72 50 42 61
REMARK Flexibility Score: inf
ROOT
ATOM      1  C   UNL     1      -6.198  -0.074   3.877  1.00  0.00     0.188 C 
ENDROOT
BRANCH   1   2
ATOM      2  C   UNL     1      -7.449  -0.712   4.507  1.00  0.00     0.188 C 
BRANCH   2   3
ATOM      3  O   UNL     1      -8.648   0.035   4.579  1.00  0.00    -0.376 OA
BRANCH   3   4
ATOM      4  C   UNL     1      -8.667   1.226   5.359  1.00  0.00     0.202 C 
BRANCH   4   5
ATOM      5  C   UNL     1      -7.924   1.321   6.711  1.00  0.00     0.261 C 
BRANCH   5   6
ATOM      6  O   UNL     1      -6.567   0.864   6.630  1.00  0.00    -0.463 OA
BRANCH   6   7
ATOM      7  C   UNL     1      -5.860   0.630   7.783  1.00  0.00     0.313 C 
ATOM      8  O   UNL     1      -6.285   0.833   8.909  1.00  0.00    -0.252 OA
BRANCH   7   9
ATOM      9  C   UNL     1      -4.452   0.119   7.418  1.00  0.00     0.086 C 
ATOM     10  C   UNL     1      -3.930   1.211   6.404  1.00  0.00     0.022 C 
ATOM     11  C   UNL     1      -3.413   0.140   8.573  1.00  0.00     0.140 C 
ATOM     12  C   UNL     1      -2.505   0.999   5.928  1.00  0.00     0.023 C 
ATOM     13  N   UNL     1      -2.052  -0.136   8.009  1.00  0.00    -0.324 N 
ATOM     14  C   UNL     1      -1.583   0.905   7.129  1.00  0.00     0.121 C 
BRANCH   9  15
ATOM     15  C   UNL     1      -4.561  -1.345   6.861  1.00  0.00     0.020 C 
BRANCH  15  16
ATOM     16  C   UNL     1      -4.843  -2.506   7.844  1.00  0.00    -0.002 C 
ATOM     17  C   UNL     1      -6.250  -2.587   8.411  1.00  0.00     0.004 C 
ENDBRANCH  15  16
ENDBRANCH   9  15
BRANCH  13  18
ATOM     18  C   UNL     1      -1.504  -1.369   8.166  1.00  0.00     0.317 C 
ATOM     19  O   UNL     1      -1.902  -2.134   9.051  1.00  0.00    -0.249 OA
ATOM     20  N   UNL     1      -0.561  -1.909   7.381  1.00  0.00    -0.333 N 
ATOM     21  H   UNL     1      -0.548  -2.877   7.559  1.00  0.00     0.165 HD
BRANCH  20  22
ATOM     22  C   UNL     1       0.463  -1.636   6.360  1.00  0.00     0.112 C 
ATOM     23  C   UNL     1       0.081  -1.148   4.982  1.00  0.00     0.056 C 
ATOM     24  C   UNL     1       1.603  -0.739   6.812  1.00  0.00     0.185 C 
ATOM     25  C   UNL     1       0.830   0.157   4.791  1.00  0.00     0.162 C 
ATOM     26  O   UNL     1       1.743   0.336   5.877  1.00  0.00    -0.379 OA
ENDBRANCH  20  22
ENDBRANCH  13  18
ENDBRANCH   7   9
ENDBRANCH   6   7
ENDBRANCH   5   6
ENDBRANCH   4   5
ENDBRANCH   3   4
ENDBRANCH   2   3
ENDBRANCH   1   2
BRANCH   1  27
ATOM     27  O   UNL     1      -6.209   1.242   3.377  1.00  0.00    -0.376 OA
BRANCH  27  28
ATOM     28  C   UNL     1      -7.032   1.548   2.266  1.00  0.00     0.202 C 
BRANCH  28  29
ATOM     29  C   UNL     1      -7.303   0.566   1.107  1.00  0.00     0.261 C 
BRANCH  29  30
ATOM     30  O   UNL     1      -7.275  -0.836   1.402  1.00  0.00    -0.460 OA
BRANCH  30  31
ATOM     31  C   UNL     1      -6.169  -1.500   0.982  1.00  0.00     0.338 C 
ATOM     32  O   UNL     1      -5.211  -1.028   0.375  1.00  0.00    -0.246 OA
BRANCH  31  33
ATOM     33  C   UNL     1      -6.166  -2.854   1.569  1.00  0.00     0.060 A 
ATOM     34  C   UNL     1      -5.154  -3.197   2.480  1.00  0.00     0.016 A 
ATOM     35  C   UNL     1      -7.145  -3.782   1.219  1.00  0.00     0.016 A 
ATOM     36  C   UNL     1      -5.114  -4.474   3.038  1.00  0.00     0.010 A 
ATOM     37  C   UNL     1      -7.085  -5.072   1.755  1.00  0.00     0.010 A 
ATOM     38  C   UNL     1      -6.058  -5.431   2.648  1.00  0.00    -0.014 A 
BRANCH  38  39
ATOM     39  C   UNL     1      -5.882  -6.853   3.033  1.00  0.00     0.031 A 
ATOM     40  C   UNL     1      -5.265  -7.795   2.035  1.00  0.00     0.074 A 
ATOM     41  C   UNL     1      -6.267  -7.303   4.240  1.00  0.00     0.049 A 
ATOM     42  N   UNL     1      -5.097  -9.089   2.110  1.00  0.00    -0.248 NA
ATOM     43  C   UNL     1      -4.776  -7.194   0.782  1.00  0.00     0.031 C 
ATOM     44  C   UNL     1      -6.824  -6.483   5.314  1.00  0.00     0.029 A 
ATOM     45  N   UNL     1      -6.259  -8.576   4.756  1.00  0.00    -0.354 N 
ATOM     46  C   UNL     1      -4.499  -9.461   0.912  1.00  0.00     0.074 A 
ATOM     47  C   UNL     1      -4.355  -8.260   0.118  1.00  0.00     0.031 C 
ATOM     48  C   UNL     1      -7.122  -7.278   6.358  1.00  0.00     0.029 A 
ATOM     49  C   UNL     1      -6.816  -8.665   6.009  1.00  0.00     0.049 A 
ATOM     50  H   UNL     1      -5.890  -9.351   4.274  1.00  0.00     0.167 HD
ATOM     51  C   UNL     1      -4.105 -10.692   0.507  1.00  0.00     0.031 A 
ATOM     52  C   UNL     1      -7.079  -9.745   6.774  1.00  0.00     0.031 A 
ATOM     53  C   UNL     1      -4.270 -11.888   1.290  1.00  0.00     0.049 A 
ATOM     54  C   UNL     1      -6.716 -11.118   6.265  1.00  0.00     0.074 A 
ATOM     55  C   UNL     1      -3.892 -13.181   0.974  1.00  0.00     0.029 A 
ATOM     56  N   UNL     1      -4.873 -11.942   2.538  1.00  0.00    -0.354 N 
ATOM     57  N   UNL     1      -6.131 -11.454   5.139  1.00  0.00    -0.248 NA
ATOM     58  C   UNL     1      -7.045 -12.257   7.134  1.00  0.00     0.031 C 
ATOM     59  C   UNL     1      -4.326 -14.026   2.000  1.00  0.00     0.029 A 
ATOM     60  C   UNL     1      -4.908 -13.251   2.990  1.00  0.00     0.049 A 
ATOM     61  H   UNL     1      -5.224 -11.165   3.030  1.00  0.00     0.167 HD
ATOM     62  C   UNL     1      -5.997 -12.840   5.179  1.00  0.00     0.074 A 
ATOM     63  C   UNL     1      -6.547 -13.276   6.446  1.00  0.00     0.031 C 
ATOM     64  C   UNL     1      -5.463 -13.675   4.252  1.00  0.00     0.031 A 
BRANCH  51  65
ATOM     65  C   UNL     1      -3.499 -10.812  -0.866  1.00  0.00    -0.014 A 
ATOM     66  C   UNL     1      -2.226 -10.285  -1.154  1.00  0.00     0.010 A 
ATOM     67  C   UNL     1      -4.202 -11.492  -1.878  1.00  0.00     0.010 A 
ATOM     68  C   UNL     1      -1.687 -10.401  -2.438  1.00  0.00     0.020 A 
ATOM     69  C   UNL     1      -3.653 -11.637  -3.155  1.00  0.00     0.020 A 
ATOM     70  C   UNL     1      -2.405 -11.075  -3.431  1.00  0.00     0.054 A 
BRANCH  70  71
ATOM     71  S   UNL     1      -1.671 -11.226  -5.082  1.00  0.00     0.124 S 
ATOM     72  O   UNL     1      -1.759  -9.855  -5.578  1.00  0.00    -0.237 OA
ATOM     73  O   UNL     1      -0.321 -11.702  -4.789  1.00  0.00    -0.237 OA
ATOM     74  O   UNL     1      -2.535 -12.189  -5.761  1.00  0.00    -0.744 OA
ENDBRANCH  70  71
ENDBRANCH  51  65
BRANCH  52  75
ATOM     75  C   UNL     1      -7.748  -9.578   8.094  1.00  0.00    -0.014 A 
ATOM     76  C   UNL     1      -7.058  -9.848   9.289  1.00  0.00     0.010 A 
ATOM     77  C   UNL     1      -9.087  -9.149   8.162  1.00  0.00     0.010 A 
ATOM     78  C   UNL     1      -7.699  -9.709  10.525  1.00  0.00     0.020 A 
ATOM     79  C   UNL     1      -9.721  -8.979   9.396  1.00  0.00     0.020 A 
ATOM     80  C   UNL     1      -9.025  -9.270  10.570  1.00  0.00     0.054 A 
BRANCH  80  81
ATOM     81  S   UNL     1      -9.817  -9.046  12.188  1.00  0.00     0.124 S 
ATOM     82  O   UNL     1      -9.999 -10.425  12.631  1.00  0.00    -0.237 OA
ATOM     83  O   UNL     1      -8.820  -8.271  12.921  1.00  0.00    -0.237 OA
ATOM     84  O   UNL     1     -11.047  -8.324  11.869  1.00  0.00    -0.744 OA
ENDBRANCH  80  81
ENDBRANCH  52  75
BRANCH  64  85
ATOM     85  C   UNL     1      -5.412 -15.146   4.581  1.00  0.00    -0.014 A 
ATOM     86  C   UNL     1      -6.578 -15.930   4.620  1.00  0.00     0.010 A 
ATOM     87  C   UNL     1      -4.166 -15.765   4.796  1.00  0.00     0.010 A 
ATOM     88  C   UNL     1      -6.502 -17.298   4.899  1.00  0.00     0.020 A 
ATOM     89  C   UNL     1      -4.083 -17.138   5.043  1.00  0.00     0.020 A 
ATOM     90  C   UNL     1      -5.254 -17.894   5.107  1.00  0.00     0.054 A 
BRANCH  90  91
ATOM     91  S   UNL     1      -5.180 -19.679   5.423  1.00  0.00     0.124 S 
ATOM     92  O   UNL     1      -5.720 -19.771   6.777  1.00  0.00    -0.237 OA
ATOM     93  O   UNL     1      -6.030 -20.226   4.369  1.00  0.00    -0.237 OA
ATOM     94  O   UNL     1      -3.759 -19.995   5.297  1.00  0.00    -0.744 OA
ENDBRANCH  90  91
ENDBRANCH  64  85
ENDBRANCH  38  39
ENDBRANCH  31  33
ENDBRANCH  30  31
ENDBRANCH  29  30
ENDBRANCH  28  29
ENDBRANCH  27  28
ENDBRANCH   1  27
TORSDOF 24
