REMARK SMILES COc1cc(NC(=O)C2CCN(S(=O)(=O)c3cccs3)CC2)c(Cl)cc1C(=O)OCCOCCOCCOC(=O)c1ccc(-c2c3nc(c(-c4ccc(S(=O)(=O)[O-])cc4)c4ccc([nH]4)c(-c4ccc(S(=O)(=O)[O-])cc4)c4nc(c(-c5ccc(S(=O)(=O)[O-])cc5)c5ccc2[nH]5)C=C4)C=C3)cc1
REMARK SMILES IDX 33 1 32 2 31 3 30 4 29 5 27 6 28 7 26 8 3 9 4 10 5 11 25 12
REMARK SMILES IDX 23 13 24 14 2 15 1 16 6 17 7 18 8 20 9 21 10 22 22 23 11 24
REMARK SMILES IDX 21 25 12 26 13 27 14 28 15 29 16 30 17 31 20 32 18 33 19 34
REMARK SMILES IDX 34 35 35 36 36 37 37 38 38 39 39 40 40 41 41 42 42 43 100 44
REMARK SMILES IDX 43 45 99 46 44 47 45 48 46 49 93 50 47 51 98 52 92 53 94 54
REMARK SMILES IDX 48 55 97 56 91 57 90 58 49 60 79 61 60 62 78 63 61 64 64 65
REMARK SMILES IDX 77 66 95 67 62 68 63 69 76 71 96 72 65 73 50 74 51 75 59 76
REMARK SMILES IDX 52 77 58 78 53 79 54 80 55 81 56 82 57 83 80 84 81 85 89 86
REMARK SMILES IDX 82 87 88 88 83 89 84 90 85 91 86 92 87 93 66 94 67 95 75 96
REMARK SMILES IDX 68 97 74 98 69 99 70 100 71 101 72 102 73 103
REMARK H PARENT 6 19 94 59 64 70
REMARK Flexibility Score: inf
ROOT
ATOM      1  C   UNL     1      -4.295  -0.696  -3.883  1.00  0.00     0.188 C 
ENDROOT
BRANCH   1   2
ATOM      2  O   UNL     1      -4.725  -1.897  -3.257  1.00  0.00    -0.376 OA
BRANCH   2   3
ATOM      3  C   UNL     1      -4.046  -2.350  -2.094  1.00  0.00     0.202 C 
BRANCH   3   4
ATOM      4  C   UNL     1      -2.621  -2.897  -2.265  1.00  0.00     0.261 C 
BRANCH   4   5
ATOM      5  O   UNL     1      -1.600  -1.925  -2.603  1.00  0.00    -0.460 OA
BRANCH   5   6
ATOM      6  C   UNL     1      -1.206  -1.894  -3.898  1.00  0.00     0.342 C 
ATOM      7  O   UNL     1      -1.735  -2.549  -4.787  1.00  0.00    -0.246 OA
BRANCH   6   8
ATOM      8  C   UNL     1       0.050  -1.119  -4.163  1.00  0.00     0.103 A 
ATOM      9  C   UNL     1       0.685  -0.165  -3.352  1.00  0.00     0.135 A 
ATOM     10  C   UNL     1       2.061   0.034  -3.513  1.00  0.00     0.075 A 
ATOM     11  C   UNL     1       2.764  -0.570  -4.539  1.00  0.00     0.063 A 
ATOM     12  C   UNL     1       0.695  -1.488  -5.354  1.00  0.00     0.042 A 
ATOM     13  C   UNL     1       2.031  -1.172  -5.563  1.00  0.00     0.065 A 
ATOM     14  Cl  UNL     1       2.764  -1.622  -7.056  1.00  0.00    -0.082 Cl
BRANCH   9  15
ATOM     15  O   UNL     1      -0.050   0.602  -2.497  1.00  0.00    -0.496 OA
ATOM     16  C   UNL     1       0.563   1.732  -1.858  1.00  0.00     0.278 C 
ENDBRANCH   9  15
BRANCH  11  17
ATOM     17  N   UNL     1       4.158  -0.509  -4.615  1.00  0.00    -0.324 N 
ATOM     18  C   UNL     1       5.149  -0.456  -3.689  1.00  0.00     0.227 C 
ATOM     19  H   UNL     1       4.493  -0.503  -5.541  1.00  0.00     0.169 HD
ATOM     20  O   UNL     1       6.278  -0.203  -4.140  1.00  0.00    -0.274 OA
BRANCH  18  21
ATOM     21  C   UNL     1       5.034  -0.791  -2.181  1.00  0.00     0.081 C 
ATOM     22  C   UNL     1       4.561  -2.184  -1.812  1.00  0.00     0.030 C 
ATOM     23  C   UNL     1       4.525   0.275  -1.215  1.00  0.00     0.030 C 
ATOM     24  C   UNL     1       3.099  -2.336  -1.430  1.00  0.00     0.103 C 
ATOM     25  C   UNL     1       3.401  -0.143  -0.238  1.00  0.00     0.103 C 
ATOM     26  N   UNL     1       2.445  -1.138  -0.788  1.00  0.00    -0.197 NA
BRANCH  26  27
ATOM     27  S   UNL     1       1.192  -1.708   0.317  1.00  0.00     0.252 S 
ATOM     28  O   UNL     1       0.461  -2.734  -0.402  1.00  0.00    -0.206 OA
ATOM     29  O   UNL     1       1.874  -2.033   1.554  1.00  0.00    -0.206 OA
BRANCH  27  30
ATOM     30  C   UNL     1      -0.101  -0.524   0.744  1.00  0.00     0.135 A 
ATOM     31  C   UNL     1      -1.200  -0.038   0.053  1.00  0.00     0.033 A 
ATOM     32  S   UNL     1      -0.218  -0.028   2.388  1.00  0.00    -0.131 S 
ATOM     33  C   UNL     1      -2.006   0.875   0.786  1.00  0.00     0.013 A 
ATOM     34  C   UNL     1      -1.633   0.900   2.105  1.00  0.00     0.066 A 
ENDBRANCH  27  30
ENDBRANCH  26  27
ENDBRANCH  18  21
ENDBRANCH  11  17
ENDBRANCH   6   8
ENDBRANCH   5   6
ENDBRANCH   4   5
ENDBRANCH   3   4
ENDBRANCH   2   3
ENDBRANCH   1   2
BRANCH   1  35
ATOM     35  C   UNL     1      -3.576   0.352  -3.033  1.00  0.00     0.188 C 
BRANCH  35  36
ATOM     36  O   UNL     1      -4.118   0.663  -1.758  1.00  0.00    -0.376 OA
BRANCH  36  37
ATOM     37  C   UNL     1      -5.421   1.229  -1.739  1.00  0.00     0.202 C 
BRANCH  37  38
ATOM     38  C   UNL     1      -5.426   2.720  -2.090  1.00  0.00     0.261 C 
BRANCH  38  39
ATOM     39  O   UNL     1      -5.261   2.896  -3.508  1.00  0.00    -0.460 OA
BRANCH  39  40
ATOM     40  C   UNL     1      -4.103   3.470  -3.917  1.00  0.00     0.338 C 
ATOM     41  O   UNL     1      -3.259   4.012  -3.213  1.00  0.00    -0.246 OA
BRANCH  40  42
ATOM     42  C   UNL     1      -3.872   3.088  -5.330  1.00  0.00     0.060 A 
ATOM     43  C   UNL     1      -2.583   2.673  -5.708  1.00  0.00     0.016 A 
ATOM     44  C   UNL     1      -4.919   3.060  -6.252  1.00  0.00     0.016 A 
ATOM     45  C   UNL     1      -2.330   2.272  -7.020  1.00  0.00     0.010 A 
ATOM     46  C   UNL     1      -4.663   2.672  -7.567  1.00  0.00     0.010 A 
ATOM     47  C   UNL     1      -3.363   2.312  -7.965  1.00  0.00    -0.014 A 
BRANCH  47  48
ATOM     48  C   UNL     1      -3.071   2.200  -9.412  1.00  0.00     0.031 A 
ATOM     49  C   UNL     1      -2.969   3.476 -10.202  1.00  0.00     0.074 A 
ATOM     50  C   UNL     1      -2.943   1.006 -10.017  1.00  0.00     0.049 A 
ATOM     51  N   UNL     1      -2.893   3.649 -11.494  1.00  0.00    -0.248 NA
ATOM     52  C   UNL     1      -2.968   4.728  -9.424  1.00  0.00     0.031 C 
ATOM     53  C   UNL     1      -2.972  -0.294  -9.351  1.00  0.00     0.029 A 
ATOM     54  N   UNL     1      -2.786   0.702 -11.347  1.00  0.00    -0.354 N 
ATOM     55  C   UNL     1      -2.849   5.025 -11.685  1.00  0.00     0.074 A 
ATOM     56  C   UNL     1      -2.937   5.642 -10.381  1.00  0.00     0.031 C 
ATOM     57  C   UNL     1      -2.864  -1.261 -10.280  1.00  0.00     0.029 A 
ATOM     58  C   UNL     1      -2.800  -0.648 -11.606  1.00  0.00     0.049 A 
ATOM     59  H   UNL     1      -2.674   1.385 -12.047  1.00  0.00     0.167 HD
ATOM     60  C   UNL     1      -2.740   5.714 -12.845  1.00  0.00     0.031 A 
ATOM     61  C   UNL     1      -2.799  -1.308 -12.782  1.00  0.00     0.031 A 
ATOM     62  C   UNL     1      -2.674   5.093 -14.139  1.00  0.00     0.049 A 
ATOM     63  C   UNL     1      -2.758  -0.519 -14.068  1.00  0.00     0.074 A 
ATOM     64  C   UNL     1      -2.574   5.698 -15.380  1.00  0.00     0.029 A 
ATOM     65  N   UNL     1      -2.700   3.724 -14.360  1.00  0.00    -0.354 N 
ATOM     66  N   UNL     1      -2.726   0.782 -14.238  1.00  0.00    -0.248 NA
ATOM     67  C   UNL     1      -2.746  -1.289 -15.320  1.00  0.00     0.031 C 
ATOM     68  C   UNL     1      -2.589   4.695 -16.354  1.00  0.00     0.029 A 
ATOM     69  C   UNL     1      -2.631   3.464 -15.717  1.00  0.00     0.049 A 
ATOM     70  H   UNL     1      -2.759   3.039 -13.655  1.00  0.00     0.167 HD
ATOM     71  C   UNL     1      -2.659   0.985 -15.614  1.00  0.00     0.074 A 
ATOM     72  C   UNL     1      -2.644  -0.327 -16.227  1.00  0.00     0.031 C 
ATOM     73  C   UNL     1      -2.612   2.149 -16.307  1.00  0.00     0.031 A 
BRANCH  60  74
ATOM     74  C   UNL     1      -2.709   7.216 -12.760  1.00  0.00    -0.014 A 
ATOM     75  C   UNL     1      -1.590   7.889 -12.235  1.00  0.00     0.010 A 
ATOM     76  C   UNL     1      -3.794   7.968 -13.244  1.00  0.00     0.010 A 
ATOM     77  C   UNL     1      -1.570   9.284 -12.169  1.00  0.00     0.020 A 
ATOM     78  C   UNL     1      -3.766   9.365 -13.206  1.00  0.00     0.020 A 
ATOM     79  C   UNL     1      -2.659  10.013 -12.657  1.00  0.00     0.054 A 
BRANCH  79  80
ATOM     80  S   UNL     1      -2.587  11.824 -12.592  1.00  0.00     0.124 S 
ATOM     81  O   UNL     1      -2.727  12.080 -11.161  1.00  0.00    -0.237 OA
ATOM     82  O   UNL     1      -1.270  12.112 -13.155  1.00  0.00    -0.237 OA
ATOM     83  O   UNL     1      -3.718  12.247 -13.413  1.00  0.00    -0.744 OA
ENDBRANCH  79  80
ENDBRANCH  60  74
BRANCH  61  84
ATOM     84  C   UNL     1      -2.865  -2.796 -12.802  1.00  0.00    -0.014 A 
ATOM     85  C   UNL     1      -1.760  -3.557 -13.225  1.00  0.00     0.010 A 
ATOM     86  C   UNL     1      -4.036  -3.463 -12.398  1.00  0.00     0.010 A 
ATOM     87  C   UNL     1      -1.832  -4.954 -13.257  1.00  0.00     0.020 A 
ATOM     88  C   UNL     1      -4.102  -4.860 -12.401  1.00  0.00     0.020 A 
ATOM     89  C   UNL     1      -3.001  -5.597 -12.841  1.00  0.00     0.054 A 
BRANCH  89  90
ATOM     90  S   UNL     1      -3.051  -7.411 -12.845  1.00  0.00     0.124 S 
ATOM     91  O   UNL     1      -3.117  -7.711 -14.271  1.00  0.00    -0.237 OA
ATOM     92  O   UNL     1      -1.797  -7.761 -12.182  1.00  0.00    -0.237 OA
ATOM     93  O   UNL     1      -4.258  -7.722 -12.083  1.00  0.00    -0.744 OA
ENDBRANCH  89  90
ENDBRANCH  61  84
BRANCH  73  94
ATOM     94  C   UNL     1      -2.491   2.066 -17.807  1.00  0.00    -0.014 A 
ATOM     95  C   UNL     1      -3.573   1.661 -18.608  1.00  0.00     0.010 A 
ATOM     96  C   UNL     1      -1.292   2.467 -18.425  1.00  0.00     0.010 A 
ATOM     97  C   UNL     1      -3.447   1.630 -20.000  1.00  0.00     0.020 A 
ATOM     98  C   UNL     1      -1.172   2.466 -19.817  1.00  0.00     0.020 A 
ATOM     99  C   UNL     1      -2.247   2.033 -20.595  1.00  0.00     0.054 A 
BRANCH  99 100
ATOM    100  S   UNL     1      -2.125   2.028 -22.405  1.00  0.00     0.124 S 
ATOM    101  O   UNL     1      -2.046   0.600 -22.700  1.00  0.00    -0.237 OA
ATOM    102  O   UNL     1      -3.364   2.687 -22.811  1.00  0.00    -0.237 OA
ATOM    103  O   UNL     1      -0.906   2.788 -22.673  1.00  0.00    -0.744 OA
ENDBRANCH  99 100
ENDBRANCH  73  94
ENDBRANCH  47  48
ENDBRANCH  40  42
ENDBRANCH  39  40
ENDBRANCH  38  39
ENDBRANCH  37  38
ENDBRANCH  36  37
ENDBRANCH  35  36
ENDBRANCH   1  35
TORSDOF 25
