REMARK SMILES Cc1ccc(C(F)(F)F)cc1-c1ccc(/C=C/C(=O)OCCOCCOCCOC(=O)c2ccc(-c3c4nc(c(-c5ccc(S(=O)(=O)[O-])cc5)c5ccc([nH]5)c(-c5ccc(S(=O)(=O)[O-])cc5)c5nc(c(-c6ccc(S(=O)(=O)[O-])cc6)c6ccc3[nH]6)C=C5)C=C4)cc2)s1
REMARK SMILES IDX 24 1 23 2 22 3 21 4 20 5 18 6 19 7 17 8 16 9 15 10 12 11
REMARK SMILES IDX 13 12 92 13 14 14 11 15 1 16 2 17 3 18 4 19 10 20 5 21 6 22
REMARK SMILES IDX 7 23 8 24 9 25 25 26 26 27 27 28 28 29 29 30 30 31 31 32
REMARK SMILES IDX 32 33 33 34 91 35 34 36 90 37 35 38 36 39 37 40 84 41 38 42
REMARK SMILES IDX 89 43 83 44 85 45 39 46 88 47 82 48 81 49 40 51 70 52 51 53
REMARK SMILES IDX 69 54 52 55 55 56 68 57 86 58 53 59 54 60 67 62 87 63 56 64
REMARK SMILES IDX 41 65 42 66 50 67 43 68 49 69 44 70 45 71 46 72 47 73 48 74
REMARK SMILES IDX 71 75 72 76 80 77 73 78 79 79 74 80 75 81 76 82 77 83 78 84
REMARK SMILES IDX 57 85 58 86 66 87 59 88 65 89 60 90 61 91 62 92 63 93 64 94
REMARK H PARENT 85 50 55 61
REMARK Flexibility Score: inf
ROOT
ATOM      1  C   UNL     1       1.549  11.657   2.756  1.00  0.00     0.188 C 
ENDROOT
BRANCH   1   2
ATOM      2  O   UNL     1       2.929  11.346   2.570  1.00  0.00    -0.376 OA
BRANCH   2   3
ATOM      3  C   UNL     1       3.763  11.195   1.412  1.00  0.00     0.202 C 
BRANCH   3   4
ATOM      4  C   UNL     1       4.012  10.077   0.136  1.00  0.00     0.261 C 
BRANCH   4   5
ATOM      5  O   UNL     1       4.012   8.360  -0.158  1.00  0.00    -0.460 OA
BRANCH   5   6
ATOM      6  C   UNL     1       3.619   7.090   0.333  1.00  0.00     0.330 C 
ATOM      7  O   UNL     1       3.197   6.742   1.436  1.00  0.00    -0.247 OA
BRANCH   6   8
ATOM      8  C   UNL     1       3.625   5.882  -0.486  1.00  0.00     0.095 C 
ATOM      9  C   UNL     1       2.525   5.659  -1.227  1.00  0.00     0.026 C 
BRANCH   9  10
ATOM     10  C   UNL     1       2.044   4.319  -1.369  1.00  0.00     0.028 A 
ATOM     11  C   UNL     1       0.941   2.093  -1.010  1.00  0.00     0.035 A 
ATOM     12  C   UNL     1       1.731   2.135  -2.144  1.00  0.00     0.021 A 
ATOM     13  S   UNL     1       0.921   3.628  -0.239  1.00  0.00    -0.136 S 
ATOM     14  C   UNL     1       2.367   3.394  -2.339  1.00  0.00     0.020 A 
BRANCH  11  15
ATOM     15  C   UNL     1       0.204   0.925  -0.479  1.00  0.00    -0.005 A 
ATOM     16  C   UNL     1       2.381  -0.373  -0.085  1.00  0.00     0.045 C 
ATOM     17  C   UNL     1       0.878  -0.270  -0.129  1.00  0.00    -0.042 A 
ATOM     18  C   UNL     1       0.138  -1.430   0.166  1.00  0.00     0.005 A 
ATOM     19  C   UNL     1      -1.254  -1.405   0.180  1.00  0.00     0.013 A 
ATOM     20  C   UNL     1      -1.203   0.940  -0.423  1.00  0.00     0.023 A 
ATOM     21  C   UNL     1      -1.940  -0.213  -0.084  1.00  0.00     0.056 A 
BRANCH  21  22
ATOM     22  C   UNL     1      -3.448  -0.209  -0.051  1.00  0.00     0.416 C 
ATOM     23  F   UNL     1      -3.988  -0.835  -1.138  1.00  0.00    -0.166 F 
ATOM     24  F   UNL     1      -3.955  -0.868   1.031  1.00  0.00    -0.166 F 
ATOM     25  F   UNL     1      -4.002   1.032  -0.026  1.00  0.00    -0.166 F 
ENDBRANCH  21  22
ENDBRANCH  11  15
ENDBRANCH   9  10
ENDBRANCH   6   8
ENDBRANCH   5   6
ENDBRANCH   4   5
ENDBRANCH   3   4
ENDBRANCH   2   3
ENDBRANCH   1   2
BRANCH   1  26
ATOM     26  C   UNL     1       0.695  12.246   1.671  1.00  0.00     0.188 C 
BRANCH  26  27
ATOM     27  O   UNL     1       1.157  11.788   0.418  1.00  0.00    -0.376 OA
BRANCH  27  28
ATOM     28  C   UNL     1       0.405  12.262  -0.678  1.00  0.00     0.202 C 
BRANCH  28  29
ATOM     29  C   UNL     1      -1.092  11.891  -0.657  1.00  0.00     0.261 C 
BRANCH  29  30
ATOM     30  O   UNL     1      -1.366  10.487  -0.909  1.00  0.00    -0.460 OA
BRANCH  30  31
ATOM     31  C   UNL     1      -1.805   9.666   0.119  1.00  0.00     0.338 C 
ATOM     32  O   UNL     1      -2.969   9.289   0.184  1.00  0.00    -0.246 OA
BRANCH  31  33
ATOM     33  C   UNL     1      -0.655   9.056   0.861  1.00  0.00     0.060 A 
ATOM     34  C   UNL     1      -0.509   8.564   2.162  1.00  0.00     0.016 A 
ATOM     35  C   UNL     1       0.473   8.996   0.138  1.00  0.00     0.016 A 
ATOM     36  C   UNL     1       0.809   8.341   2.796  1.00  0.00     0.010 A 
ATOM     37  C   UNL     1       1.680   8.915   0.826  1.00  0.00     0.010 A 
ATOM     38  C   UNL     1       2.020   8.656   2.179  1.00  0.00    -0.014 A 
BRANCH  38  39
ATOM     39  C   UNL     1       3.576   8.694   2.918  1.00  0.00     0.031 A 
ATOM     40  C   UNL     1       5.024   8.008   2.492  1.00  0.00     0.074 A 
ATOM     41  C   UNL     1       3.709   9.297   4.118  1.00  0.00     0.049 A 
ATOM     42  N   UNL     1       5.546   6.873   2.931  1.00  0.00    -0.248 NA
ATOM     43  C   UNL     1       5.946   8.535   1.444  1.00  0.00     0.031 C 
ATOM     44  C   UNL     1       4.932   9.584   4.869  1.00  0.00     0.029 A 
ATOM     45  N   UNL     1       2.694   9.771   4.943  1.00  0.00    -0.354 N 
ATOM     46  C   UNL     1       6.682   6.601   2.130  1.00  0.00     0.074 A 
ATOM     47  C   UNL     1       6.555   7.440   0.984  1.00  0.00     0.031 C 
ATOM     48  C   UNL     1       4.588   9.896   6.133  1.00  0.00     0.029 A 
ATOM     49  C   UNL     1       3.150   9.694   6.256  1.00  0.00     0.049 A 
ATOM     50  H   UNL     1       1.814  10.100   4.652  1.00  0.00     0.167 HD
ATOM     51  C   UNL     1       7.960   6.290   2.538  1.00  0.00     0.031 A 
ATOM     52  C   UNL     1       2.516   8.834   7.101  1.00  0.00     0.031 A 
ATOM     53  C   UNL     1       8.080   6.602   3.937  1.00  0.00     0.049 A 
ATOM     54  C   UNL     1       3.452   7.712   7.483  1.00  0.00     0.074 A 
ATOM     55  C   UNL     1       8.444   7.772   4.585  1.00  0.00     0.029 A 
ATOM     56  N   UNL     1       7.366   5.841   4.833  1.00  0.00    -0.354 N 
ATOM     57  N   UNL     1       4.499   7.354   6.781  1.00  0.00    -0.248 NA
ATOM     58  C   UNL     1       3.352   6.984   8.742  1.00  0.00     0.031 C 
ATOM     59  C   UNL     1       7.795   7.768   5.850  1.00  0.00     0.029 A 
ATOM     60  C   UNL     1       7.119   6.566   5.979  1.00  0.00     0.049 A 
ATOM     61  H   UNL     1       7.075   4.914   4.679  1.00  0.00     0.167 HD
ATOM     62  C   UNL     1       5.223   6.432   7.480  1.00  0.00     0.074 A 
ATOM     63  C   UNL     1       4.461   6.226   8.698  1.00  0.00     0.031 C 
ATOM     64  C   UNL     1       6.407   5.909   7.054  1.00  0.00     0.031 A 
BRANCH  51  65
ATOM     65  C   UNL     1       9.134   6.251   1.532  1.00  0.00    -0.014 A 
ATOM     66  C   UNL     1      10.393   6.819   1.813  1.00  0.00     0.010 A 
ATOM     67  C   UNL     1       8.986   5.695   0.234  1.00  0.00     0.010 A 
ATOM     68  C   UNL     1      11.403   6.928   0.828  1.00  0.00     0.020 A 
ATOM     69  C   UNL     1       9.968   5.838  -0.770  1.00  0.00     0.020 A 
ATOM     70  C   UNL     1      11.175   6.462  -0.468  1.00  0.00     0.054 A 
BRANCH  70  71
ATOM     71  S   UNL     1      12.449   6.704  -1.750  1.00  0.00     0.124 S 
ATOM     72  O   UNL     1      12.783   8.120  -1.611  1.00  0.00    -0.237 OA
ATOM     73  O   UNL     1      13.492   5.769  -1.339  1.00  0.00    -0.237 OA
ATOM     74  O   UNL     1      11.761   6.361  -2.994  1.00  0.00    -0.744 OA
ENDBRANCH  70  71
ENDBRANCH  51  65
BRANCH  52  75
ATOM     75  C   UNL     1       1.017   8.823   6.927  1.00  0.00    -0.014 A 
ATOM     76  C   UNL     1       0.360  10.072   7.093  1.00  0.00     0.010 A 
ATOM     77  C   UNL     1       0.302   7.806   6.273  1.00  0.00     0.010 A 
ATOM     78  C   UNL     1      -0.867  10.353   6.478  1.00  0.00     0.020 A 
ATOM     79  C   UNL     1      -0.959   8.076   5.676  1.00  0.00     0.020 A 
ATOM     80  C   UNL     1      -1.497   9.368   5.726  1.00  0.00     0.054 A 
BRANCH  80  81
ATOM     81  S   UNL     1      -2.906   9.890   4.685  1.00  0.00     0.124 S 
ATOM     82  O   UNL     1      -3.854  10.403   5.670  1.00  0.00    -0.237 OA
ATOM     83  O   UNL     1      -2.289  10.903   3.826  1.00  0.00    -0.237 OA
ATOM     84  O   UNL     1      -3.315   8.662   4.013  1.00  0.00    -0.744 OA
ENDBRANCH  80  81
ENDBRANCH  52  75
BRANCH  64  85
ATOM     85  C   UNL     1       7.047   4.676   7.629  1.00  0.00    -0.014 A 
ATOM     86  C   UNL     1       6.300   3.652   8.224  1.00  0.00     0.010 A 
ATOM     87  C   UNL     1       8.421   4.432   7.385  1.00  0.00     0.010 A 
ATOM     88  C   UNL     1       6.914   2.471   8.643  1.00  0.00     0.020 A 
ATOM     89  C   UNL     1       9.027   3.229   7.736  1.00  0.00     0.020 A 
ATOM     90  C   UNL     1       8.274   2.272   8.404  1.00  0.00     0.054 A 
BRANCH  90  91
ATOM     91  S   UNL     1       9.057   0.735   8.935  1.00  0.00     0.124 S 
ATOM     92  O   UNL     1       9.501   1.084  10.282  1.00  0.00    -0.237 OA
ATOM     93  O   UNL     1       7.965  -0.234   8.867  1.00  0.00    -0.237 OA
ATOM     94  O   UNL     1      10.120   0.536   7.954  1.00  0.00    -0.744 OA
ENDBRANCH  90  91
ENDBRANCH  64  85
ENDBRANCH  38  39
ENDBRANCH  31  33
ENDBRANCH  30  31
ENDBRANCH  29  30
ENDBRANCH  28  29
ENDBRANCH  27  28
ENDBRANCH  26  27
ENDBRANCH   1  26
TORSDOF 23
