REMARK SMILES CCCc1cc2c(cc1Cl)C=C(C(=O)OCCOCCOCCOC(=O)c1ccc(-c3c4nc(c(-c5ccc(S(=O)(=O)[O-])cc5)c5ccc([nH]5)c(-c5ccc(S(=O)(=O)[O-])cc5)c5nc(c(-c6ccc(S(=O)(=O)[O-])cc6)c6ccc3[nH]6)C=C5)C=C4)cc1)[C@@H](C(F)(F)F)O2
REMARK SMILES IDX 20 1 19 2 18 3 17 4 16 5 15 6 13 7 14 8 12 9 4 10 5 11 9 12
REMARK SMILES IDX 6 13 8 14 10 15 7 16 92 17 11 18 87 19 3 20 2 21 1 22 88 23
REMARK SMILES IDX 89 24 90 25 91 26 21 27 22 28 23 29 24 30 25 31 26 32 27 33
REMARK SMILES IDX 28 34 86 35 29 36 85 37 30 38 31 39 32 40 79 41 33 42 84 43
REMARK SMILES IDX 78 44 80 45 34 46 83 47 77 48 76 49 35 51 65 52 46 53 64 54
REMARK SMILES IDX 47 55 50 56 63 57 81 58 48 59 49 60 62 62 82 63 51 64 36 65
REMARK SMILES IDX 37 66 45 67 38 68 44 69 39 70 40 71 41 72 42 73 43 74 66 75
REMARK SMILES IDX 67 76 75 77 68 78 74 79 69 80 70 81 71 82 72 83 73 84 52 85
REMARK SMILES IDX 53 86 61 87 54 88 60 89 55 90 56 91 57 92 58 93 59 94
REMARK H PARENT 80 50 50 61
REMARK Flexibility Score: inf
ROOT
ATOM      1  C   UNL     1      -2.260  -5.852  -4.989  1.00  0.00     0.188 C 
ENDROOT
BRANCH   1   2
ATOM      2  C   UNL     1      -2.262  -5.943  -6.530  1.00  0.00     0.188 C 
BRANCH   2   3
ATOM      3  O   UNL     1      -2.009  -7.257  -7.001  1.00  0.00    -0.376 OA
BRANCH   3   4
ATOM      4  C   UNL     1      -0.804  -7.460  -7.718  1.00  0.00     0.202 C 
BRANCH   4   5
ATOM      5  C   UNL     1       0.488  -7.371  -6.897  1.00  0.00     0.261 C 
BRANCH   5   6
ATOM      6  O   UNL     1       0.576  -6.243  -6.012  1.00  0.00    -0.460 OA
BRANCH   6   7
ATOM      7  C   UNL     1       0.954  -5.063  -6.549  1.00  0.00     0.338 C 
ATOM      8  O   UNL     1       1.195  -4.845  -7.723  1.00  0.00    -0.246 OA
BRANCH   7   9
ATOM      9  C   UNL     1       0.926  -4.037  -5.481  1.00  0.00     0.087 C 
ATOM     10  C   UNL     1       0.651   0.218  -2.800  1.00  0.00    -0.026 A 
ATOM     11  C   UNL     1       1.155  -1.073  -2.576  1.00  0.00     0.052 A 
ATOM     12  C   UNL     1      -0.085   0.435  -3.977  1.00  0.00     0.045 A 
ATOM     13  C   UNL     1       0.987  -2.095  -3.513  1.00  0.00     0.128 A 
ATOM     14  C   UNL     1      -0.225  -0.583  -4.934  1.00  0.00     0.032 A 
ATOM     15  Cl  UNL     1      -0.818   1.958  -4.335  1.00  0.00    -0.084 Cl
ATOM     16  C   UNL     1       0.345  -1.842  -4.721  1.00  0.00     0.019 A 
ATOM     17  O   UNL     1       1.516  -3.301  -3.165  1.00  0.00    -0.475 OA
ATOM     18  C   UNL     1       0.349  -2.860  -5.762  1.00  0.00     0.027 C 
ATOM     19  C   UNL     1       1.498  -4.386  -4.129  1.00  0.00     0.316 C 
BRANCH  10  20
ATOM     20  C   UNL     1       1.011   1.319  -1.824  1.00  0.00     0.037 C 
BRANCH  20  21
ATOM     21  C   UNL     1       0.306   1.285  -0.464  1.00  0.00     0.001 C 
ATOM     22  C   UNL     1       0.785   0.177   0.465  1.00  0.00     0.004 C 
ENDBRANCH  20  21
ENDBRANCH  10  20
BRANCH  19  23
ATOM     23  C   UNL     1       2.926  -4.948  -4.199  1.00  0.00     0.430 C 
ATOM     24  F   UNL     1       3.395  -5.238  -2.958  1.00  0.00    -0.167 F 
ATOM     25  F   UNL     1       2.997  -6.096  -4.910  1.00  0.00    -0.167 F 
ATOM     26  F   UNL     1       3.789  -4.070  -4.758  1.00  0.00    -0.167 F 
ENDBRANCH  19  23
ENDBRANCH   7   9
ENDBRANCH   6   7
ENDBRANCH   5   6
ENDBRANCH   4   5
ENDBRANCH   3   4
ENDBRANCH   2   3
ENDBRANCH   1   2
BRANCH   1  27
ATOM     27  O   UNL     1      -2.282  -7.046  -4.215  1.00  0.00    -0.376 OA
BRANCH  27  28
ATOM     28  C   UNL     1      -3.180  -8.088  -4.583  1.00  0.00     0.202 C 
BRANCH  28  29
ATOM     29  C   UNL     1      -4.681  -7.774  -4.624  1.00  0.00     0.261 C 
BRANCH  29  30
ATOM     30  O   UNL     1      -5.033  -6.688  -5.497  1.00  0.00    -0.460 OA
BRANCH  30  31
ATOM     31  C   UNL     1      -5.546  -5.587  -4.889  1.00  0.00     0.338 C 
ATOM     32  O   UNL     1      -5.778  -5.442  -3.701  1.00  0.00    -0.246 OA
BRANCH  31  33
ATOM     33  C   UNL     1      -5.590  -4.474  -5.862  1.00  0.00     0.060 A 
ATOM     34  C   UNL     1      -6.314  -4.576  -7.052  1.00  0.00     0.016 A 
ATOM     35  C   UNL     1      -4.885  -3.301  -5.559  1.00  0.00     0.016 A 
ATOM     36  C   UNL     1      -6.349  -3.486  -7.930  1.00  0.00     0.010 A 
ATOM     37  C   UNL     1      -4.898  -2.227  -6.449  1.00  0.00     0.010 A 
ATOM     38  C   UNL     1      -5.648  -2.304  -7.631  1.00  0.00    -0.014 A 
BRANCH  38  39
ATOM     39  C   UNL     1      -5.837  -1.086  -8.455  1.00  0.00     0.031 A 
ATOM     40  C   UNL     1      -4.870  -0.699  -9.532  1.00  0.00     0.074 A 
ATOM     41  C   UNL     1      -6.902  -0.305  -8.188  1.00  0.00     0.049 A 
ATOM     42  N   UNL     1      -4.933   0.315 -10.355  1.00  0.00    -0.248 NA
ATOM     43  C   UNL     1      -3.685  -1.551  -9.712  1.00  0.00     0.031 C 
ATOM     44  C   UNL     1      -7.902  -0.586  -7.156  1.00  0.00     0.029 A 
ATOM     45  N   UNL     1      -7.323   0.873  -8.752  1.00  0.00    -0.354 N 
ATOM     46  C   UNL     1      -3.816   0.213 -11.174  1.00  0.00     0.074 A 
ATOM     47  C   UNL     1      -3.066  -0.939 -10.717  1.00  0.00     0.031 C 
ATOM     48  C   UNL     1      -8.828   0.384  -7.170  1.00  0.00     0.029 A 
ATOM     49  C   UNL     1      -8.475   1.369  -8.189  1.00  0.00     0.049 A 
ATOM     50  H   UNL     1      -6.846   1.319  -9.488  1.00  0.00     0.167 HD
ATOM     51  C   UNL     1      -3.467   1.000 -12.219  1.00  0.00     0.031 A 
ATOM     52  C   UNL     1      -9.176   2.489  -8.458  1.00  0.00     0.031 A 
ATOM     53  C   UNL     1      -4.214   2.159 -12.645  1.00  0.00     0.049 A 
ATOM     54  C   UNL     1      -8.726   3.388  -9.574  1.00  0.00     0.074 A 
ATOM     55  C   UNL     1      -3.956   2.990 -13.722  1.00  0.00     0.029 A 
ATOM     56  N   UNL     1      -5.345   2.660 -12.018  1.00  0.00    -0.354 N 
ATOM     57  N   UNL     1      -7.710   3.232 -10.388  1.00  0.00    -0.248 NA
ATOM     58  C   UNL     1      -9.515   4.602  -9.821  1.00  0.00     0.031 C 
ATOM     59  C   UNL     1      -4.883   4.034 -13.701  1.00  0.00     0.029 A 
ATOM     60  C   UNL     1      -5.770   3.812 -12.660  1.00  0.00     0.049 A 
ATOM     61  H   UNL     1      -5.782   2.256 -11.233  1.00  0.00     0.167 HD
ATOM     62  C   UNL     1      -7.750   4.316 -11.257  1.00  0.00     0.074 A 
ATOM     63  C   UNL     1      -8.895   5.117 -10.877  1.00  0.00     0.031 C 
ATOM     64  C   UNL     1      -6.910   4.610 -12.279  1.00  0.00     0.031 A 
BRANCH  51  65
ATOM     65  C   UNL     1      -2.236   0.646 -13.014  1.00  0.00    -0.014 A 
ATOM     66  C   UNL     1      -1.128   1.514 -13.021  1.00  0.00     0.010 A 
ATOM     67  C   UNL     1      -2.244  -0.457 -13.887  1.00  0.00     0.010 A 
ATOM     68  C   UNL     1      -0.070   1.310 -13.911  1.00  0.00     0.020 A 
ATOM     69  C   UNL     1      -1.175  -0.680 -14.761  1.00  0.00     0.020 A 
ATOM     70  C   UNL     1      -0.107   0.220 -14.785  1.00  0.00     0.054 A 
BRANCH  70  71
ATOM     71  S   UNL     1       1.252  -0.004 -15.967  1.00  0.00     0.124 S 
ATOM     72  O   UNL     1       0.982   1.040 -16.951  1.00  0.00    -0.237 OA
ATOM     73  O   UNL     1       2.436   0.203 -15.135  1.00  0.00    -0.237 OA
ATOM     74  O   UNL     1       1.069  -1.374 -16.442  1.00  0.00    -0.744 OA
ENDBRANCH  70  71
ENDBRANCH  51  65
BRANCH  52  75
ATOM     75  C   UNL     1     -10.405   2.772  -7.669  1.00  0.00    -0.014 A 
ATOM     76  C   UNL     1     -10.315   3.089  -6.300  1.00  0.00     0.010 A 
ATOM     77  C   UNL     1     -11.674   2.615  -8.253  1.00  0.00     0.010 A 
ATOM     78  C   UNL     1     -11.467   3.180  -5.516  1.00  0.00     0.020 A 
ATOM     79  C   UNL     1     -12.831   2.734  -7.477  1.00  0.00     0.020 A 
ATOM     80  C   UNL     1     -12.717   2.984  -6.107  1.00  0.00     0.054 A 
BRANCH  80  81
ATOM     81  S   UNL     1     -14.195   3.037  -5.057  1.00  0.00     0.124 S 
ATOM     82  O   UNL     1     -14.120   1.749  -4.371  1.00  0.00    -0.237 OA
ATOM     83  O   UNL     1     -13.952   4.210  -4.221  1.00  0.00    -0.237 OA
ATOM     84  O   UNL     1     -15.290   3.173  -6.014  1.00  0.00    -0.744 OA
ENDBRANCH  80  81
ENDBRANCH  52  75
BRANCH  64  85
ATOM     85  C   UNL     1      -7.166   5.857 -13.086  1.00  0.00    -0.014 A 
ATOM     86  C   UNL     1      -7.546   5.747 -14.437  1.00  0.00     0.010 A 
ATOM     87  C   UNL     1      -6.856   7.125 -12.563  1.00  0.00     0.010 A 
ATOM     88  C   UNL     1      -7.552   6.871 -15.267  1.00  0.00     0.020 A 
ATOM     89  C   UNL     1      -6.889   8.257 -13.384  1.00  0.00     0.020 A 
ATOM     90  C   UNL     1      -7.204   8.116 -14.739  1.00  0.00     0.054 A 
BRANCH  90  91
ATOM     91  S   UNL     1      -7.131   9.547 -15.852  1.00  0.00     0.124 S 
ATOM     92  O   UNL     1      -5.906   9.291 -16.602  1.00  0.00    -0.237 OA
ATOM     93  O   UNL     1      -8.373   9.425 -16.612  1.00  0.00    -0.237 OA
ATOM     94  O   UNL     1      -7.078  10.689 -14.941  1.00  0.00    -0.744 OA
ENDBRANCH  90  91
ENDBRANCH  64  85
ENDBRANCH  38  39
ENDBRANCH  31  33
ENDBRANCH  30  31
ENDBRANCH  29  30
ENDBRANCH  28  29
ENDBRANCH  27  28
ENDBRANCH   1  27
TORSDOF 23
