REMARK SMILES C[C@H]1CCCCC[C@@H]1[NH2+]Cc1cc(C(=O)OCCOCCOCCOC(=O)c2ccc(-c3c4nc(c(-c5ccc(S(=O)(=O)[O-])cc5)c5ccc([nH]5)c(-c5ccc(S(=O)(=O)[O-])cc5)c5nc(c(-c6ccc(S(=O)(=O)[O-])cc6)c6ccc3[nH]6)C=C5)C=C4)cc2)cs1
REMARK SMILES IDX 19 1 18 2 17 3 16 4 14 5 15 6 13 7 11 8 12 9 89 10 88 11
REMARK SMILES IDX 10 12 9 13 8 16 2 17 1 18 3 19 4 20 7 22 6 23 5 24 20 26
REMARK SMILES IDX 21 27 22 28 23 29 24 30 25 31 26 32 27 33 28 34 29 35 87 36
REMARK SMILES IDX 30 37 86 38 31 39 32 40 33 41 80 42 34 43 85 44 79 45 81 46
REMARK SMILES IDX 35 47 84 48 78 49 77 50 36 52 66 53 47 54 65 55 48 56 51 57
REMARK SMILES IDX 64 58 82 59 49 60 50 61 63 63 83 64 52 65 37 66 38 67 46 68
REMARK SMILES IDX 39 69 45 70 40 71 41 72 42 73 43 74 44 75 67 76 68 77 76 78
REMARK SMILES IDX 69 79 75 80 70 81 71 82 72 83 73 84 74 85 53 86 54 87 62 88
REMARK SMILES IDX 55 89 61 90 56 91 57 92 58 93 59 94 60 95
REMARK H PARENT 9 14 9 15 81 51 51 62
REMARK Flexibility Score: 90.00
ROOT
ATOM      1  O   UNL     1       9.665   3.647  -2.404  1.00  0.00    -0.376 OA
ENDROOT
BRANCH   1   2
ATOM      2  C   UNL     1       9.152   3.375  -3.702  1.00  0.00     0.202 C 
BRANCH   2   3
ATOM      3  C   UNL     1       8.431   2.042  -3.912  1.00  0.00     0.261 C 
BRANCH   3   4
ATOM      4  O   UNL     1       7.258   1.901  -3.095  1.00  0.00    -0.460 OA
BRANCH   4   5
ATOM      5  C   UNL     1       7.304   0.898  -2.169  1.00  0.00     0.339 C 
ATOM      6  O   UNL     1       8.200   0.067  -2.086  1.00  0.00    -0.246 OA
BRANCH   5   7
ATOM      7  C   UNL     1       6.226   0.989  -1.189  1.00  0.00     0.071 A 
ATOM      8  C   UNL     1       4.108   1.409  -0.251  1.00  0.00     0.060 A 
ATOM      9  C   UNL     1       4.893   1.475  -1.391  1.00  0.00     0.037 A 
ATOM     10  S   UNL     1       5.019   0.848   1.089  1.00  0.00    -0.142 S 
ATOM     11  C   UNL     1       6.406   0.605   0.127  1.00  0.00     0.081 A 
BRANCH   8  12
ATOM     12  C   UNL     1       2.641   1.706  -0.062  1.00  0.00     0.308 C 
BRANCH  12  13
ATOM     13  N   UNL     1       2.046   2.084  -1.337  1.00  0.00    -0.339 N 
ATOM     14  H   UNL     1       2.172   3.090  -1.445  1.00  0.00     0.346 HD
ATOM     15  H   UNL     1       2.525   1.504  -2.026  1.00  0.00     0.346 HD
BRANCH  13  16
ATOM     16  C   UNL     1       0.621   1.796  -1.539  1.00  0.00     0.185 C 
BRANCH  16  17
ATOM     17  C   UNL     1       0.262   0.290  -1.449  1.00  0.00     0.044 C 
ATOM     18  C   UNL     1      -1.258   0.071  -1.385  1.00  0.00     0.014 C 
BRANCH  17  19
ATOM     19  C   UNL     1       0.943  -0.587  -2.517  1.00  0.00     0.009 C 
BRANCH  19  20
ATOM     20  C   UNL     1       0.372  -0.478  -3.925  1.00  0.00     0.001 CG0
ATOM     21  G   UNL     1       0.844   0.703  -4.766  1.00  0.00     0.000 G0
ENDBRANCH  19  20
ENDBRANCH  17  19
ENDBRANCH  16  17
BRANCH  16  22
ATOM     22  C   UNL     1       0.227   2.422  -2.902  1.00  0.00     0.065 C 
BRANCH  22  23
ATOM     23  C   UNL     1       1.124   2.037  -4.085  1.00  0.00     0.006 C 
BRANCH  23  24
ATOM     24  C   UNL     1       0.844   0.703  -4.766  1.00  0.00     0.000 CG0
ATOM     25  G   UNL     1       0.372  -0.478  -3.925  1.00  0.00     0.000 G0
ENDBRANCH  23  24
ENDBRANCH  22  23
ENDBRANCH  16  22
ENDBRANCH  13  16
ENDBRANCH  12  13
ENDBRANCH   8  12
ENDBRANCH   5   7
ENDBRANCH   4   5
ENDBRANCH   3   4
ENDBRANCH   2   3
ENDBRANCH   1   2
BRANCH   1  26
ATOM     26  C   UNL     1       8.775   3.763  -1.297  1.00  0.00     0.188 C 
BRANCH  26  27
ATOM     27  C   UNL     1       7.463   4.554  -1.469  1.00  0.00     0.188 C 
BRANCH  27  28
ATOM     28  O   UNL     1       7.451   5.361  -2.634  1.00  0.00    -0.376 OA
BRANCH  28  29
ATOM     29  C   UNL     1       7.501   6.765  -2.463  1.00  0.00     0.202 C 
BRANCH  29  30
ATOM     30  C   UNL     1       8.771   7.364  -1.846  1.00  0.00     0.261 C 
BRANCH  30  31
ATOM     31  O   UNL     1       9.244   6.754  -0.638  1.00  0.00    -0.460 OA
BRANCH  31  32
ATOM     32  C   UNL     1       8.559   7.014   0.498  1.00  0.00     0.338 C 
ATOM     33  O   UNL     1       7.535   7.662   0.602  1.00  0.00    -0.246 OA
BRANCH  32  34
ATOM     34  C   UNL     1       9.196   6.242   1.589  1.00  0.00     0.060 A 
ATOM     35  C   UNL     1       8.421   5.347   2.336  1.00  0.00     0.016 A 
ATOM     36  C   UNL     1      10.555   6.408   1.874  1.00  0.00     0.016 A 
ATOM     37  C   UNL     1       9.000   4.638   3.393  1.00  0.00     0.010 A 
ATOM     38  C   UNL     1      11.128   5.710   2.940  1.00  0.00     0.010 A 
ATOM     39  C   UNL     1      10.347   4.844   3.723  1.00  0.00    -0.014 A 
BRANCH  39  40
ATOM     40  C   UNL     1      10.905   4.298   4.986  1.00  0.00     0.031 A 
ATOM     41  C   UNL     1      10.907   5.178   6.207  1.00  0.00     0.074 A 
ATOM     42  C   UNL     1      11.415   3.055   5.049  1.00  0.00     0.049 A 
ATOM     43  N   UNL     1      11.399   4.945   7.396  1.00  0.00    -0.248 NA
ATOM     44  C   UNL     1      10.271   6.498   6.064  1.00  0.00     0.031 C 
ATOM     45  C   UNL     1      11.442   2.091   3.950  1.00  0.00     0.029 A 
ATOM     46  N   UNL     1      12.024   2.397   6.090  1.00  0.00    -0.354 N 
ATOM     47  C   UNL     1      11.136   6.089   8.142  1.00  0.00     0.074 A 
ATOM     48  C   UNL     1      10.461   7.021   7.266  1.00  0.00     0.031 C 
ATOM     49  C   UNL     1      12.050   0.968   4.372  1.00  0.00     0.029 A 
ATOM     50  C   UNL     1      12.482   1.145   5.758  1.00  0.00     0.049 A 
ATOM     51  H   UNL     1      12.124   2.787   6.989  1.00  0.00     0.167 HD
ATOM     52  C   UNL     1      11.429   6.342   9.439  1.00  0.00     0.031 A 
ATOM     53  C   UNL     1      13.190   0.254   6.482  1.00  0.00     0.031 A 
ATOM     54  C   UNL     1      12.125   5.429  10.304  1.00  0.00     0.049 A 
ATOM     55  C   UNL     1      13.572   0.587   7.902  1.00  0.00     0.074 A 
ATOM     56  C   UNL     1      12.470   5.596  11.634  1.00  0.00     0.029 A 
ATOM     57  N   UNL     1      12.592   4.182   9.922  1.00  0.00    -0.354 N 
ATOM     58  N   UNL     1      13.299   1.665   8.598  1.00  0.00    -0.248 NA
ATOM     59  C   UNL     1      14.356  -0.420   8.633  1.00  0.00     0.031 C 
ATOM     60  C   UNL     1      13.185   4.466  12.044  1.00  0.00     0.029 A 
ATOM     61  C   UNL     1      13.241   3.575  10.983  1.00  0.00     0.049 A 
ATOM     62  H   UNL     1      12.480   3.786   9.028  1.00  0.00     0.167 HD
ATOM     63  C   UNL     1      13.853   1.453   9.857  1.00  0.00     0.074 A 
ATOM     64  C   UNL     1      14.471   0.144   9.829  1.00  0.00     0.031 C 
ATOM     65  C   UNL     1      13.846   2.268  10.941  1.00  0.00     0.031 A 
BRANCH  52  66
ATOM     66  C   UNL     1      11.025   7.684   9.984  1.00  0.00    -0.014 A 
ATOM     67  C   UNL     1       9.678   7.978  10.260  1.00  0.00     0.010 A 
ATOM     68  C   UNL     1      12.007   8.659  10.234  1.00  0.00     0.010 A 
ATOM     69  C   UNL     1       9.315   9.240  10.738  1.00  0.00     0.020 A 
ATOM     70  C   UNL     1      11.650   9.915  10.733  1.00  0.00     0.020 A 
ATOM     71  C   UNL     1      10.303  10.203  10.964  1.00  0.00     0.054 A 
BRANCH  71  72
ATOM     72  S   UNL     1       9.807  11.832  11.590  1.00  0.00     0.124 S 
ATOM     73  O   UNL     1       9.240  12.452  10.394  1.00  0.00    -0.237 OA
ATOM     74  O   UNL     1       8.847  11.497  12.638  1.00  0.00    -0.237 OA
ATOM     75  O   UNL     1      11.059  12.418  12.061  1.00  0.00    -0.744 OA
ENDBRANCH  71  72
ENDBRANCH  52  66
BRANCH  53  76
ATOM     76  C   UNL     1      13.605  -1.039   5.872  1.00  0.00    -0.014 A 
ATOM     77  C   UNL     1      13.010  -2.246   6.277  1.00  0.00     0.010 A 
ATOM     78  C   UNL     1      14.606  -1.067   4.884  1.00  0.00     0.010 A 
ATOM     79  C   UNL     1      13.419  -3.461   5.716  1.00  0.00     0.020 A 
ATOM     80  C   UNL     1      15.001  -2.276   4.304  1.00  0.00     0.020 A 
ATOM     81  C   UNL     1      14.413  -3.468   4.733  1.00  0.00     0.054 A 
BRANCH  81  82
ATOM     82  S   UNL     1      14.895  -5.048   3.983  1.00  0.00     0.124 S 
ATOM     83  O   UNL     1      15.723  -5.640   5.029  1.00  0.00    -0.237 OA
ATOM     84  O   UNL     1      13.607  -5.697   3.753  1.00  0.00    -0.237 OA
ATOM     85  O   UNL     1      15.607  -4.647   2.771  1.00  0.00    -0.744 OA
ENDBRANCH  81  82
ENDBRANCH  53  76
BRANCH  65  86
ATOM     86  C   UNL     1      14.489   1.758  12.203  1.00  0.00    -0.014 A 
ATOM     87  C   UNL     1      15.886   1.706  12.341  1.00  0.00     0.010 A 
ATOM     88  C   UNL     1      13.677   1.392  13.293  1.00  0.00     0.010 A 
ATOM     89  C   UNL     1      16.461   1.274  13.540  1.00  0.00     0.020 A 
ATOM     90  C   UNL     1      14.248   0.982  14.500  1.00  0.00     0.020 A 
ATOM     91  C   UNL     1      15.638   0.914  14.612  1.00  0.00     0.054 A 
BRANCH  91  92
ATOM     92  S   UNL     1      16.405   0.410  16.177  1.00  0.00     0.124 S 
ATOM     93  O   UNL     1      16.838  -0.952  15.878  1.00  0.00    -0.237 OA
ATOM     94  O   UNL     1      17.477   1.389  16.343  1.00  0.00    -0.237 OA
ATOM     95  O   UNL     1      15.317   0.519  17.146  1.00  0.00    -0.744 OA
ENDBRANCH  91  92
ENDBRANCH  65  86
ENDBRANCH  39  40
ENDBRANCH  32  34
ENDBRANCH  31  32
ENDBRANCH  30  31
ENDBRANCH  29  30
ENDBRANCH  28  29
ENDBRANCH  27  28
ENDBRANCH  26  27
ENDBRANCH   1  26
TORSDOF 23
