REMARK SMILES Cc1c(CC(=O)OCCOCCOCCOC(=O)c2ccc(-c3c4nc(c(-c5ccc(S(=O)(=O)[O-])cc5)c5ccc([nH]5)c(-c5ccc(S(=O)(=O)[O-])cc5)c5nc(c(-c6ccc(S(=O)(=O)[O-])cc6)c6ccc3[nH]6)C=C5)C=C4)cc2)c2cc(O)ccc2n1C(=O)c1ccc(Cl)cc1
REMARK SMILES IDX 11 1 10 2 9 3 8 4 7 5 5 6 6 7 4 8 3 9 1 10 2 11 86 12 79 13
REMARK SMILES IDX 85 14 80 15 84 16 81 17 83 18 87 19 88 20 89 21 90 22 95 23
REMARK SMILES IDX 91 24 94 25 92 26 93 27 82 28 12 30 13 31 14 32 15 33 16 34
REMARK SMILES IDX 17 35 18 36 19 37 20 38 78 39 21 40 77 41 22 42 23 43 24 44
REMARK SMILES IDX 71 45 25 46 76 47 70 48 72 49 26 50 75 51 69 52 68 53 27 55
REMARK SMILES IDX 57 56 38 57 56 58 39 59 42 60 55 61 73 62 40 63 41 64 54 66
REMARK SMILES IDX 74 67 43 68 28 69 29 70 37 71 30 72 36 73 31 74 32 75 33 76
REMARK SMILES IDX 34 77 35 78 58 79 59 80 67 81 60 82 66 83 61 84 62 85 63 86
REMARK SMILES IDX 64 87 65 88 44 89 45 90 53 91 46 92 52 93 47 94 48 95 49 96
REMARK SMILES IDX 50 97 51 98
REMARK H PARENT 82 29 72 54 42 65
REMARK Flexibility Score: inf
ROOT
ATOM      1  C   UNL     1      -3.796  -0.043  -4.109  1.00  0.00     0.188 C 
ENDROOT
BRANCH   1   2
ATOM      2  O   UNL     1      -5.005  -0.522  -3.583  1.00  0.00    -0.376 OA
BRANCH   2   3
ATOM      3  C   UNL     1      -5.243  -0.379  -2.199  1.00  0.00     0.202 C 
BRANCH   3   4
ATOM      4  C   UNL     1      -4.185  -0.891  -1.211  1.00  0.00     0.261 C 
BRANCH   4   5
ATOM      5  O   UNL     1      -2.934  -0.127  -1.185  1.00  0.00    -0.463 OA
BRANCH   5   6
ATOM      6  C   UNL     1      -1.895  -0.807  -1.724  1.00  0.00     0.310 C 
ATOM      7  O   UNL     1      -2.082  -1.964  -2.090  1.00  0.00    -0.252 OA
BRANCH   6   8
ATOM      8  C   UNL     1      -0.570  -0.118  -2.065  1.00  0.00     0.160 C 
BRANCH   8   9
ATOM      9  C   UNL     1      -0.076   1.251  -1.615  1.00  0.00    -0.008 A 
ATOM     10  C   UNL     1       0.993   0.466   0.630  1.00  0.00     0.065 C 
ATOM     11  C   UNL     1       0.653   1.449  -0.444  1.00  0.00     0.028 A 
ATOM     12  N   UNL     1       1.099   2.768  -0.407  1.00  0.00    -0.280 N 
ATOM     13  C   UNL     1       0.140   2.466  -2.400  1.00  0.00     0.008 A 
ATOM     14  C   UNL     1       1.035   3.277  -1.707  1.00  0.00     0.057 A 
ATOM     15  C   UNL     1      -0.249   2.982  -3.660  1.00  0.00     0.056 A 
ATOM     16  C   UNL     1       1.632   4.411  -2.327  1.00  0.00     0.031 A 
ATOM     17  C   UNL     1       0.359   4.068  -4.296  1.00  0.00     0.116 A 
ATOM     18  C   UNL     1       1.308   4.786  -3.628  1.00  0.00     0.048 A 
BRANCH  12  19
ATOM     19  C   UNL     1       1.525   3.502   0.727  1.00  0.00     0.262 C 
ATOM     20  O   UNL     1       1.717   2.923   1.799  1.00  0.00    -0.268 OA
BRANCH  19  21
ATOM     21  C   UNL     1       1.691   4.964   0.681  1.00  0.00     0.040 A 
ATOM     22  C   UNL     1       0.559   5.762   0.458  1.00  0.00     0.015 A 
ATOM     23  C   UNL     1       2.983   5.484   0.568  1.00  0.00     0.015 A 
ATOM     24  C   UNL     1       0.729   7.082   0.043  1.00  0.00     0.021 A 
ATOM     25  C   UNL     1       3.143   6.803   0.138  1.00  0.00     0.021 A 
ATOM     26  C   UNL     1       2.018   7.587  -0.140  1.00  0.00     0.041 A 
ATOM     27  Cl  UNL     1       2.224   9.167  -0.789  1.00  0.00    -0.084 Cl
ENDBRANCH  19  21
ENDBRANCH  12  19
BRANCH  17  28
ATOM     28  O   UNL     1       0.053   4.456  -5.568  1.00  0.00    -0.508 OA
ATOM     29  H   UNL     1      -0.593   3.987  -6.059  1.00  0.00     0.293 HD
ENDBRANCH  17  28
ENDBRANCH   8   9
ENDBRANCH   6   8
ENDBRANCH   5   6
ENDBRANCH   4   5
ENDBRANCH   3   4
ENDBRANCH   2   3
ENDBRANCH   1   2
BRANCH   1  30
ATOM     30  C   UNL     1      -3.241   1.297  -3.623  1.00  0.00     0.188 C 
BRANCH  30  31
ATOM     31  O   UNL     1      -4.092   2.312  -3.156  1.00  0.00    -0.376 OA
BRANCH  31  32
ATOM     32  C   UNL     1      -4.960   2.860  -4.131  1.00  0.00     0.202 C 
BRANCH  32  33
ATOM     33  C   UNL     1      -4.369   3.144  -5.540  1.00  0.00     0.261 C 
BRANCH  33  34
ATOM     34  O   UNL     1      -3.901   1.952  -6.262  1.00  0.00    -0.460 OA
BRANCH  34  35
ATOM     35  C   UNL     1      -2.645   1.999  -6.810  1.00  0.00     0.338 C 
ATOM     36  O   UNL     1      -2.024   3.043  -6.991  1.00  0.00    -0.246 OA
BRANCH  35  37
ATOM     37  C   UNL     1      -1.895   0.679  -6.710  1.00  0.00     0.060 A 
ATOM     38  C   UNL     1      -2.289  -0.620  -7.020  1.00  0.00     0.016 A 
ATOM     39  C   UNL     1      -0.673   0.799  -6.048  1.00  0.00     0.016 A 
ATOM     40  C   UNL     1      -1.520  -1.729  -6.519  1.00  0.00     0.010 A 
ATOM     41  C   UNL     1       0.126  -0.258  -5.646  1.00  0.00     0.010 A 
ATOM     42  C   UNL     1      -0.340  -1.552  -5.754  1.00  0.00    -0.014 A 
BRANCH  42  43
ATOM     43  C   UNL     1       0.660  -2.584  -5.361  1.00  0.00     0.031 A 
ATOM     44  C   UNL     1       1.500  -2.870  -6.517  1.00  0.00     0.074 A 
ATOM     45  C   UNL     1       1.052  -3.172  -4.201  1.00  0.00     0.049 A 
ATOM     46  N   UNL     1       1.095  -3.659  -7.449  1.00  0.00    -0.248 NA
ATOM     47  C   UNL     1       2.685  -2.070  -6.837  1.00  0.00     0.031 C 
ATOM     48  C   UNL     1       0.438  -3.092  -2.903  1.00  0.00     0.029 A 
ATOM     49  N   UNL     1       2.109  -4.017  -3.929  1.00  0.00    -0.354 N 
ATOM     50  C   UNL     1       2.146  -3.708  -8.322  1.00  0.00     0.074 A 
ATOM     51  C   UNL     1       2.904  -2.502  -8.083  1.00  0.00     0.031 C 
ATOM     52  C   UNL     1       1.200  -3.615  -1.920  1.00  0.00     0.029 A 
ATOM     53  C   UNL     1       2.311  -4.294  -2.566  1.00  0.00     0.049 A 
ATOM     54  H   UNL     1       2.679  -4.397  -4.636  1.00  0.00     0.167 HD
ATOM     55  C   UNL     1       2.487  -4.901  -8.871  1.00  0.00     0.031 A 
ATOM     56  C   UNL     1       2.899  -5.360  -1.955  1.00  0.00     0.031 A 
ATOM     57  C   UNL     1       1.509  -5.930  -8.559  1.00  0.00     0.049 A 
ATOM     58  C   UNL     1       2.844  -6.477  -2.914  1.00  0.00     0.074 A 
ATOM     59  C   UNL     1       0.152  -6.084  -8.771  1.00  0.00     0.029 A 
ATOM     60  N   UNL     1       1.839  -6.776  -7.522  1.00  0.00    -0.354 N 
ATOM     61  N   UNL     1       1.744  -7.108  -3.212  1.00  0.00    -0.248 NA
ATOM     62  C   UNL     1       3.939  -6.630  -3.855  1.00  0.00     0.031 C 
ATOM     63  C   UNL     1      -0.348  -6.761  -7.620  1.00  0.00     0.029 A 
ATOM     64  C   UNL     1       0.722  -7.063  -6.775  1.00  0.00     0.049 A 
ATOM     65  H   UNL     1       2.742  -7.124  -7.343  1.00  0.00     0.167 HD
ATOM     66  C   UNL     1       1.851  -7.351  -4.571  1.00  0.00     0.074 A 
ATOM     67  C   UNL     1       3.264  -7.149  -4.882  1.00  0.00     0.031 C 
ATOM     68  C   UNL     1       0.743  -7.423  -5.363  1.00  0.00     0.031 A 
BRANCH  55  69
ATOM     69  C   UNL     1       3.881  -5.217  -9.314  1.00  0.00    -0.014 A 
ATOM     70  C   UNL     1       5.012  -4.455  -8.956  1.00  0.00     0.010 A 
ATOM     71  C   UNL     1       4.107  -6.429  -9.985  1.00  0.00     0.010 A 
ATOM     72  C   UNL     1       6.301  -4.835  -9.310  1.00  0.00     0.020 A 
ATOM     73  C   UNL     1       5.403  -6.848 -10.302  1.00  0.00     0.020 A 
ATOM     74  C   UNL     1       6.487  -6.032  -9.982  1.00  0.00     0.054 A 
BRANCH  74  75
ATOM     75  S   UNL     1       8.177  -6.506 -10.393  1.00  0.00     0.124 S 
ATOM     76  O   UNL     1       8.531  -5.499 -11.390  1.00  0.00    -0.237 OA
ATOM     77  O   UNL     1       8.855  -6.384  -9.106  1.00  0.00    -0.237 OA
ATOM     78  O   UNL     1       8.035  -7.867 -10.900  1.00  0.00    -0.744 OA
ENDBRANCH  74  75
ENDBRANCH  55  69
BRANCH  56  79
ATOM     79  C   UNL     1       3.897  -5.304  -0.851  1.00  0.00    -0.014 A 
ATOM     80  C   UNL     1       4.485  -4.081  -0.476  1.00  0.00     0.010 A 
ATOM     81  C   UNL     1       4.461  -6.490  -0.332  1.00  0.00     0.010 A 
ATOM     82  C   UNL     1       5.677  -4.049   0.260  1.00  0.00     0.020 A 
ATOM     83  C   UNL     1       5.656  -6.464   0.408  1.00  0.00     0.020 A 
ATOM     84  C   UNL     1       6.285  -5.243   0.648  1.00  0.00     0.054 A 
BRANCH  84  85
ATOM     85  S   UNL     1       7.956  -5.169   1.359  1.00  0.00     0.124 S 
ATOM     86  O   UNL     1       8.749  -4.724   0.215  1.00  0.00    -0.237 OA
ATOM     87  O   UNL     1       7.803  -4.192   2.433  1.00  0.00    -0.237 OA
ATOM     88  O   UNL     1       8.210  -6.539   1.798  1.00  0.00    -0.744 OA
ENDBRANCH  84  85
ENDBRANCH  56  79
BRANCH  68  89
ATOM     89  C   UNL     1      -0.601  -7.715  -4.719  1.00  0.00    -0.014 A 
ATOM     90  C   UNL     1      -1.325  -8.801  -5.249  1.00  0.00     0.010 A 
ATOM     91  C   UNL     1      -1.234  -6.901  -3.759  1.00  0.00     0.010 A 
ATOM     92  C   UNL     1      -2.653  -9.034  -4.890  1.00  0.00     0.020 A 
ATOM     93  C   UNL     1      -2.566  -7.146  -3.372  1.00  0.00     0.020 A 
ATOM     94  C   UNL     1      -3.275  -8.194  -3.966  1.00  0.00     0.054 A 
BRANCH  94  95
ATOM     95  S   UNL     1      -5.027  -8.493  -3.595  1.00  0.00     0.124 S 
ATOM     96  O   UNL     1      -5.682  -8.074  -4.832  1.00  0.00    -0.237 OA
ATOM     97  O   UNL     1      -5.061  -9.931  -3.332  1.00  0.00    -0.237 OA
ATOM     98  O   UNL     1      -5.295  -7.648  -2.434  1.00  0.00    -0.744 OA
ENDBRANCH  94  95
ENDBRANCH  68  89
ENDBRANCH  42  43
ENDBRANCH  35  37
ENDBRANCH  34  35
ENDBRANCH  33  34
ENDBRANCH  32  33
ENDBRANCH  31  32
ENDBRANCH  30  31
ENDBRANCH   1  30
TORSDOF 24
