REMARK SMILES COc1ccc(S(=O)(=O)N2C[C@H](C)C[C@H](C)C2)cc1C(=O)OCCOCCOCCOC(=O)c1ccc(-c2c3nc(c(-c4ccc(S(=O)(=O)[O-])cc4)c4ccc([nH]4)c(-c4ccc(S(=O)(=O)[O-])cc4)c4nc(c(-c5ccc(S(=O)(=O)[O-])cc5)c5ccc2[nH]5)C=C4)C=C3)cc1
REMARK SMILES IDX 27 1 26 2 25 3 24 4 23 5 22 6 20 7 21 8 19 9 3 10 4 11 5 12
REMARK SMILES IDX 18 13 6 14 2 15 1 16 7 17 8 18 9 19 10 20 11 21 17 22 12 23
REMARK SMILES IDX 15 24 13 25 14 26 16 27 28 28 29 29 30 30 31 31 32 32 33 33
REMARK SMILES IDX 34 34 35 35 93 36 36 37 92 38 37 39 38 40 39 41 86 42 40 43
REMARK SMILES IDX 91 44 85 45 87 46 41 47 90 48 84 49 83 50 42 52 72 53 53 54
REMARK SMILES IDX 71 55 54 56 57 57 70 58 88 59 55 60 56 61 69 63 89 64 58 65
REMARK SMILES IDX 43 66 44 67 52 68 45 69 51 70 46 71 47 72 48 73 49 74 50 75
REMARK SMILES IDX 73 76 74 77 82 78 75 79 81 80 76 81 77 82 78 83 79 84 80 85
REMARK SMILES IDX 59 86 60 87 68 88 61 89 67 90 62 91 63 92 64 93 65 94 66 95
REMARK H PARENT 87 51 57 62
REMARK Flexibility Score: inf
ROOT
ATOM      1  C   UNL     1       3.885  -3.049   0.126  1.00  0.00     0.188 C 
ENDROOT
BRANCH   1   2
ATOM      2  C   UNL     1       5.021  -2.054  -0.198  1.00  0.00     0.188 C 
BRANCH   2   3
ATOM      3  O   UNL     1       5.291  -1.075   0.795  1.00  0.00    -0.376 OA
BRANCH   3   4
ATOM      4  C   UNL     1       4.962   0.256   0.415  1.00  0.00     0.202 C 
BRANCH   4   5
ATOM      5  C   UNL     1       3.493   0.586   0.675  1.00  0.00     0.261 C 
BRANCH   5   6
ATOM      6  O   UNL     1       2.570  -0.278  -0.015  1.00  0.00    -0.460 OA
BRANCH   6   7
ATOM      7  C   UNL     1       2.207   0.097  -1.260  1.00  0.00     0.342 C 
ATOM      8  O   UNL     1       2.687   1.029  -1.889  1.00  0.00    -0.246 OA
BRANCH   7   9
ATOM      9  C   UNL     1       1.208  -0.840  -1.840  1.00  0.00     0.103 A 
ATOM     10  C   UNL     1       0.079  -1.338  -1.196  1.00  0.00     0.133 A 
ATOM     11  C   UNL     1      -0.709  -2.292  -1.861  1.00  0.00     0.049 A 
ATOM     12  C   UNL     1      -0.411  -2.708  -3.172  1.00  0.00     0.025 A 
ATOM     13  C   UNL     1       1.461  -1.242  -3.162  1.00  0.00     0.041 A 
ATOM     14  C   UNL     1       0.684  -2.168  -3.849  1.00  0.00     0.083 A 
BRANCH  10  15
ATOM     15  O   UNL     1      -0.348  -1.000   0.058  1.00  0.00    -0.496 OA
ATOM     16  C   UNL     1      -0.433   0.406   0.289  1.00  0.00     0.278 C 
ENDBRANCH  10  15
BRANCH  14  17
ATOM     17  S   UNL     1       0.980  -2.707  -5.551  1.00  0.00     0.243 S 
ATOM     18  O   UNL     1       0.697  -4.130  -5.527  1.00  0.00    -0.207 OA
ATOM     19  O   UNL     1       0.191  -1.812  -6.370  1.00  0.00    -0.207 OA
BRANCH  17  20
ATOM     20  N   UNL     1       2.598  -2.555  -6.011  1.00  0.00    -0.197 NA
ATOM     21  C   UNL     1       3.197  -1.317  -6.560  1.00  0.00     0.105 C 
ATOM     22  C   UNL     1       3.614  -3.474  -5.488  1.00  0.00     0.105 C 
ATOM     23  C   UNL     1       3.928  -0.545  -5.458  1.00  0.00     0.001 C 
ATOM     24  C   UNL     1       4.134  -2.827  -4.219  1.00  0.00     0.001 C 
ATOM     25  C   UNL     1       4.725   0.654  -5.957  1.00  0.00     0.009 C 
ATOM     26  C   UNL     1       4.784  -1.461  -4.536  1.00  0.00     0.009 C 
ATOM     27  C   UNL     1       4.991  -3.772  -3.424  1.00  0.00     0.009 C 
ENDBRANCH  17  20
ENDBRANCH  14  17
ENDBRANCH   7   9
ENDBRANCH   6   7
ENDBRANCH   5   6
ENDBRANCH   4   5
ENDBRANCH   3   4
ENDBRANCH   2   3
ENDBRANCH   1   2
BRANCH   1  28
ATOM     28  O   UNL     1       3.429  -3.269   1.452  1.00  0.00    -0.376 OA
BRANCH  28  29
ATOM     29  C   UNL     1       4.329  -3.134   2.534  1.00  0.00     0.202 C 
BRANCH  29  30
ATOM     30  C   UNL     1       5.521  -4.096   2.631  1.00  0.00     0.261 C 
BRANCH  30  31
ATOM     31  O   UNL     1       6.154  -4.423   1.385  1.00  0.00    -0.460 OA
BRANCH  31  32
ATOM     32  C   UNL     1       5.859  -5.653   0.890  1.00  0.00     0.338 C 
ATOM     33  O   UNL     1       5.125  -6.485   1.396  1.00  0.00    -0.246 OA
BRANCH  32  34
ATOM     34  C   UNL     1       6.458  -5.812  -0.459  1.00  0.00     0.060 A 
ATOM     35  C   UNL     1       5.716  -6.498  -1.424  1.00  0.00     0.016 A 
ATOM     36  C   UNL     1       7.716  -5.296  -0.794  1.00  0.00     0.016 A 
ATOM     37  C   UNL     1       6.216  -6.633  -2.724  1.00  0.00     0.010 A 
ATOM     38  C   UNL     1       8.226  -5.460  -2.094  1.00  0.00     0.010 A 
ATOM     39  C   UNL     1       7.477  -6.114  -3.082  1.00  0.00    -0.014 A 
BRANCH  39  40
ATOM     40  C   UNL     1       8.007  -6.348  -4.463  1.00  0.00     0.031 A 
ATOM     41  C   UNL     1       8.225  -7.770  -4.914  1.00  0.00     0.074 A 
ATOM     42  C   UNL     1       8.243  -5.346  -5.341  1.00  0.00     0.049 A 
ATOM     43  N   UNL     1       8.586  -8.219  -6.088  1.00  0.00    -0.248 NA
ATOM     44  C   UNL     1       8.013  -8.822  -3.905  1.00  0.00     0.031 C 
ATOM     45  C   UNL     1       8.094  -3.920  -5.072  1.00  0.00     0.029 A 
ATOM     46  N   UNL     1       8.634  -5.377  -6.663  1.00  0.00    -0.354 N 
ATOM     47  C   UNL     1       8.628  -9.601  -5.963  1.00  0.00     0.074 A 
ATOM     48  C   UNL     1       8.234  -9.920  -4.609  1.00  0.00     0.031 C 
ATOM     49  C   UNL     1       8.278  -3.222  -6.205  1.00  0.00     0.029 A 
ATOM     50  C   UNL     1       8.697  -4.136  -7.261  1.00  0.00     0.049 A 
ATOM     51  H   UNL     1       8.849  -6.212  -7.138  1.00  0.00     0.167 HD
ATOM     52  C   UNL     1       9.010 -10.531  -6.869  1.00  0.00     0.031 A 
ATOM     53  C   UNL     1       9.101  -3.759  -8.494  1.00  0.00     0.031 A 
ATOM     54  C   UNL     1       9.545 -10.231  -8.166  1.00  0.00     0.049 A 
ATOM     55  C   UNL     1       9.646  -4.803  -9.435  1.00  0.00     0.074 A 
ATOM     56  C   UNL     1      10.055 -11.108  -9.106  1.00  0.00     0.029 A 
ATOM     57  N   UNL     1       9.683  -8.955  -8.688  1.00  0.00    -0.354 N 
ATOM     58  N   UNL     1       9.675  -6.105  -9.292  1.00  0.00    -0.248 NA
ATOM     59  C   UNL     1      10.258  -4.320 -10.684  1.00  0.00     0.031 C 
ATOM     60  C   UNL     1      10.563 -10.356 -10.170  1.00  0.00     0.029 A 
ATOM     61  C   UNL     1      10.303  -9.018  -9.923  1.00  0.00     0.049 A 
ATOM     62  H   UNL     1       9.384  -8.128  -8.246  1.00  0.00     0.167 HD
ATOM     63  C   UNL     1      10.304  -6.596 -10.432  1.00  0.00     0.074 A 
ATOM     64  C   UNL     1      10.614  -5.457 -11.268  1.00  0.00     0.031 C 
ATOM     65  C   UNL     1      10.608  -7.878 -10.749  1.00  0.00     0.031 A 
BRANCH  52  66
ATOM     66  C   UNL     1       8.964 -11.961  -6.416  1.00  0.00    -0.014 A 
ATOM     67  C   UNL     1       7.741 -12.645  -6.299  1.00  0.00     0.010 A 
ATOM     68  C   UNL     1      10.160 -12.614  -6.067  1.00  0.00     0.010 A 
ATOM     69  C   UNL     1       7.712 -13.948  -5.796  1.00  0.00     0.020 A 
ATOM     70  C   UNL     1      10.136 -13.923  -5.585  1.00  0.00     0.020 A 
ATOM     71  C   UNL     1       8.910 -14.574  -5.434  1.00  0.00     0.054 A 
BRANCH  71  72
ATOM     72  S   UNL     1       8.843 -16.259  -4.768  1.00  0.00     0.124 S 
ATOM     73  O   UNL     1       8.296 -16.031  -3.433  1.00  0.00    -0.237 OA
ATOM     74  O   UNL     1       7.953 -16.939  -5.705  1.00  0.00    -0.237 OA
ATOM     75  O   UNL     1      10.235 -16.700  -4.803  1.00  0.00    -0.744 OA
ENDBRANCH  71  72
ENDBRANCH  52  66
BRANCH  53  76
ATOM     76  C   UNL     1       9.112  -2.318  -8.894  1.00  0.00    -0.014 A 
ATOM     77  C   UNL     1       8.318  -1.859  -9.962  1.00  0.00     0.010 A 
ATOM     78  C   UNL     1       9.963  -1.404  -8.244  1.00  0.00     0.010 A 
ATOM     79  C   UNL     1       8.388  -0.524 -10.380  1.00  0.00     0.020 A 
ATOM     80  C   UNL     1      10.009  -0.062  -8.634  1.00  0.00     0.020 A 
ATOM     81  C   UNL     1       9.233   0.366  -9.711  1.00  0.00     0.054 A 
BRANCH  81  82
ATOM     82  S   UNL     1       9.284   2.102 -10.239  1.00  0.00     0.124 S 
ATOM     83  O   UNL     1      10.064   2.022 -11.470  1.00  0.00    -0.237 OA
ATOM     84  O   UNL     1       7.868   2.423 -10.404  1.00  0.00    -0.237 OA
ATOM     85  O   UNL     1       9.941   2.777  -9.122  1.00  0.00    -0.744 OA
ENDBRANCH  81  82
ENDBRANCH  53  76
BRANCH  65  86
ATOM     86  C   UNL     1      11.291  -8.138 -12.065  1.00  0.00    -0.014 A 
ATOM     87  C   UNL     1      12.647  -7.819 -12.259  1.00  0.00     0.010 A 
ATOM     88  C   UNL     1      10.589  -8.801 -13.088  1.00  0.00     0.010 A 
ATOM     89  C   UNL     1      13.285  -8.151 -13.458  1.00  0.00     0.020 A 
ATOM     90  C   UNL     1      11.231  -9.158 -14.277  1.00  0.00     0.020 A 
ATOM     91  C   UNL     1      12.574  -8.824 -14.457  1.00  0.00     0.054 A 
BRANCH  91  92
ATOM     92  S   UNL     1      13.446  -9.317 -15.969  1.00  0.00     0.124 S 
ATOM     93  O   UNL     1      13.601  -8.041 -16.661  1.00  0.00    -0.237 OA
ATOM     94  O   UNL     1      14.680  -9.905 -15.451  1.00  0.00    -0.237 OA
ATOM     95  O   UNL     1      12.532 -10.264 -16.604  1.00  0.00    -0.744 OA
ENDBRANCH  91  92
ENDBRANCH  65  86
ENDBRANCH  39  40
ENDBRANCH  32  34
ENDBRANCH  31  32
ENDBRANCH  30  31
ENDBRANCH  29  30
ENDBRANCH  28  29
ENDBRANCH   1  28
TORSDOF 23
