REMARK SMILES CC[C@H]1CCCC[C@@H]1Sc1csc(C(=O)OCCOCCOCCOC(=O)c2ccc(-c3c4nc(c(-c5ccc(S(=O)(=O)[O-])cc5)c5ccc([nH]5)c(-c5ccc(S(=O)(=O)[O-])cc5)c5nc(c(-c6ccc(S(=O)(=O)[O-])cc6)c6ccc3[nH]6)C=C5)C=C4)cc2)c1
REMARK SMILES IDX 20 1 19 2 18 3 17 4 16 5 14 6 15 7 13 8 10 9 11 10 88 11
REMARK SMILES IDX 12 12 9 13 8 14 3 15 4 16 5 17 7 18 6 19 2 20 1 21 21 22
REMARK SMILES IDX 22 23 23 24 24 25 25 26 26 27 27 28 28 29 29 30 87 31 30 32
REMARK SMILES IDX 86 33 31 34 32 35 33 36 80 37 34 38 85 39 79 40 81 41 35 42
REMARK SMILES IDX 84 43 78 44 77 45 36 47 66 48 47 49 65 50 48 51 51 52 64 53
REMARK SMILES IDX 82 54 49 55 50 56 63 58 83 59 52 60 37 61 38 62 46 63 39 64
REMARK SMILES IDX 45 65 40 66 41 67 42 68 43 69 44 70 67 71 68 72 76 73 69 74
REMARK SMILES IDX 75 75 70 76 71 77 72 78 73 79 74 80 53 81 54 82 62 83 55 84
REMARK SMILES IDX 61 85 56 86 57 87 58 88 59 89 60 90
REMARK H PARENT 81 46 51 57
REMARK Flexibility Score: inf
ROOT
ATOM      1  C   UNL     1       9.962  -1.828  -0.430  1.00  0.00     0.188 C 
ENDROOT
BRANCH   1   2
ATOM      2  O   UNL     1      10.927  -1.508   0.567  1.00  0.00    -0.376 OA
BRANCH   2   3
ATOM      3  C   UNL     1      10.521  -1.317   1.914  1.00  0.00     0.202 C 
BRANCH   3   4
ATOM      4  C   UNL     1       9.549  -0.174   2.219  1.00  0.00     0.261 C 
BRANCH   4   5
ATOM      5  O   UNL     1       8.340  -0.205   1.442  1.00  0.00    -0.459 OA
BRANCH   5   6
ATOM      6  C   UNL     1       8.167   0.849   0.586  1.00  0.00     0.348 C 
ATOM      7  O   UNL     1       8.916   1.816   0.524  1.00  0.00    -0.245 OA
BRANCH   6   8
ATOM      8  C   UNL     1       7.019   0.619  -0.271  1.00  0.00     0.113 A 
ATOM      9  C   UNL     1       4.949  -0.031  -1.159  1.00  0.00     0.019 A 
ATOM     10  C   UNL     1       5.506   0.636  -2.224  1.00  0.00     0.080 A 
ATOM     11  C   UNL     1       5.843  -0.075  -0.041  1.00  0.00     0.042 A 
ATOM     12  S   UNL     1       7.050   1.269  -1.858  1.00  0.00    -0.136 S 
BRANCH   9  13
ATOM     13  S   UNL     1       3.350  -0.763  -1.067  1.00  0.00    -0.122 SA
BRANCH  13  14
ATOM     14  C   UNL     1       2.564  -0.424  -2.702  1.00  0.00     0.055 C 
ATOM     15  C   UNL     1       1.011  -0.473  -2.570  1.00  0.00     0.002 C 
ATOM     16  C   UNL     1       0.515  -1.916  -2.355  1.00  0.00     0.005 C 
ATOM     17  C   UNL     1       0.999  -2.867  -3.444  1.00  0.00     0.000 C 
ATOM     18  C   UNL     1       3.065  -1.422  -3.763  1.00  0.00     0.015 C 
ATOM     19  C   UNL     1       2.517  -2.839  -3.586  1.00  0.00     0.001 C 
BRANCH  15  20
ATOM     20  C   UNL     1       0.351   0.216  -3.795  1.00  0.00     0.001 C 
ATOM     21  C   UNL     1      -1.172   0.185  -3.794  1.00  0.00     0.004 C 
ENDBRANCH  15  20
ENDBRANCH  13  14
ENDBRANCH   9  13
ENDBRANCH   6   8
ENDBRANCH   5   6
ENDBRANCH   4   5
ENDBRANCH   3   4
ENDBRANCH   2   3
ENDBRANCH   1   2
BRANCH   1  22
ATOM     22  C   UNL     1       8.814  -2.806  -0.110  1.00  0.00     0.188 C 
BRANCH  22  23
ATOM     23  O   UNL     1       8.993  -3.533   1.095  1.00  0.00    -0.376 OA
BRANCH  23  24
ATOM     24  C   UNL     1       9.209  -4.930   0.967  1.00  0.00     0.202 C 
BRANCH  24  25
ATOM     25  C   UNL     1      10.568  -5.343   0.389  1.00  0.00     0.261 C 
BRANCH  25  26
ATOM     26  O   UNL     1      10.894  -4.787  -0.893  1.00  0.00    -0.460 OA
BRANCH  26  27
ATOM     27  C   UNL     1      10.204  -5.251  -1.959  1.00  0.00     0.338 C 
ATOM     28  O   UNL     1       9.298  -6.064  -1.947  1.00  0.00    -0.246 OA
BRANCH  27  29
ATOM     29  C   UNL     1      10.637  -4.479  -3.143  1.00  0.00     0.060 A 
ATOM     30  C   UNL     1       9.685  -3.754  -3.869  1.00  0.00     0.016 A 
ATOM     31  C   UNL     1      11.980  -4.470  -3.530  1.00  0.00     0.016 A 
ATOM     32  C   UNL     1      10.076  -3.034  -5.003  1.00  0.00     0.010 A 
ATOM     33  C   UNL     1      12.366  -3.762  -4.672  1.00  0.00     0.010 A 
ATOM     34  C   UNL     1      11.412  -3.060  -5.429  1.00  0.00    -0.014 A 
BRANCH  34  35
ATOM     35  C   UNL     1      11.791  -2.483  -6.743  1.00  0.00     0.031 A 
ATOM     36  C   UNL     1      11.856  -3.394  -7.940  1.00  0.00     0.074 A 
ATOM     37  C   UNL     1      12.077  -1.175  -6.876  1.00  0.00     0.049 A 
ATOM     38  N   UNL     1      12.187  -3.117  -9.174  1.00  0.00    -0.248 NA
ATOM     39  C   UNL     1      11.500  -4.804  -7.711  1.00  0.00     0.031 C 
ATOM     40  C   UNL     1      12.025  -0.182  -5.805  1.00  0.00     0.029 A 
ATOM     41  N   UNL     1      12.478  -0.461  -7.979  1.00  0.00    -0.354 N 
ATOM     42  C   UNL     1      12.080  -4.316  -9.870  1.00  0.00     0.074 A 
ATOM     43  C   UNL     1      11.678  -5.326  -8.916  1.00  0.00     0.031 C 
ATOM     44  C   UNL     1      12.390   1.014  -6.302  1.00  0.00     0.029 A 
ATOM     45  C   UNL     1      12.727   0.866  -7.717  1.00  0.00     0.049 A 
ATOM     46  H   UNL     1      12.577  -0.861  -8.873  1.00  0.00     0.167 HD
ATOM     47  C   UNL     1      12.294  -4.556 -11.186  1.00  0.00     0.031 A 
ATOM     48  C   UNL     1      13.190   1.843  -8.522  1.00  0.00     0.031 A 
ATOM     49  C   UNL     1      12.718  -3.561 -12.133  1.00  0.00     0.049 A 
ATOM     50  C   UNL     1      13.492   1.536  -9.967  1.00  0.00     0.074 A 
ATOM     51  C   UNL     1      12.949  -3.707 -13.490  1.00  0.00     0.029 A 
ATOM     52  N   UNL     1      12.989  -2.238 -11.821  1.00  0.00    -0.354 N 
ATOM     53  N   UNL     1      13.351   0.406 -10.617  1.00  0.00    -0.248 NA
ATOM     54  C   UNL     1      14.011   2.641 -10.788  1.00  0.00     0.031 C 
ATOM     55  C   UNL     1      13.406  -2.482 -13.989  1.00  0.00     0.029 A 
ATOM     56  C   UNL     1      13.409  -1.562 -12.953  1.00  0.00     0.049 A 
ATOM     57  H   UNL     1      12.897  -1.838 -10.926  1.00  0.00     0.167 HD
ATOM     58  C   UNL     1      13.738   0.670 -11.928  1.00  0.00     0.074 A 
ATOM     59  C   UNL     1      14.110   2.069 -11.980  1.00  0.00     0.031 C 
ATOM     60  C   UNL     1      13.777  -0.169 -12.992  1.00  0.00     0.031 A 
BRANCH  47  61
ATOM     61  C   UNL     1      12.100  -5.967 -11.668  1.00  0.00    -0.014 A 
ATOM     62  C   UNL     1      10.812  -6.517 -11.803  1.00  0.00     0.010 A 
ATOM     63  C   UNL     1      13.219  -6.746 -12.012  1.00  0.00     0.010 A 
ATOM     64  C   UNL     1      10.649  -7.835 -12.236  1.00  0.00     0.020 A 
ATOM     65  C   UNL     1      13.059  -8.058 -12.468  1.00  0.00     0.020 A 
ATOM     66  C   UNL     1      11.775  -8.599 -12.560  1.00  0.00     0.054 A 
BRANCH  66  67
ATOM     67  S   UNL     1      11.536 -10.304 -13.131  1.00  0.00     0.124 S 
ATOM     68  O   UNL     1      11.201 -10.993 -11.887  1.00  0.00    -0.237 OA
ATOM     69  O   UNL     1      10.441 -10.173 -14.089  1.00  0.00    -0.237 OA
ATOM     70  O   UNL     1      12.828 -10.660 -13.711  1.00  0.00    -0.744 OA
ENDBRANCH  66  67
ENDBRANCH  47  61
BRANCH  48  71
ATOM     71  C   UNL     1      13.415   3.211  -7.979  1.00  0.00    -0.014 A 
ATOM     72  C   UNL     1      12.580   4.278  -8.353  1.00  0.00     0.010 A 
ATOM     73  C   UNL     1      14.478   3.454  -7.089  1.00  0.00     0.010 A 
ATOM     74  C   UNL     1      12.811   5.566  -7.860  1.00  0.00     0.020 A 
ATOM     75  C   UNL     1      14.698   4.736  -6.575  1.00  0.00     0.020 A 
ATOM     76  C   UNL     1      13.870   5.786  -6.973  1.00  0.00     0.054 A 
BRANCH  76  77
ATOM     77  S   UNL     1      14.124   7.456  -6.309  1.00  0.00     0.124 S 
ATOM     78  O   UNL     1      14.728   8.146  -7.444  1.00  0.00    -0.237 OA
ATOM     79  O   UNL     1      12.767   7.872  -5.965  1.00  0.00    -0.237 OA
ATOM     80  O   UNL     1      15.009   7.237  -5.166  1.00  0.00    -0.744 OA
ENDBRANCH  76  77
ENDBRANCH  48  71
BRANCH  60  81
ATOM     81  C   UNL     1      14.204   0.404 -14.318  1.00  0.00    -0.014 A 
ATOM     82  C   UNL     1      15.551   0.711 -14.580  1.00  0.00     0.010 A 
ATOM     83  C   UNL     1      13.250   0.579 -15.337  1.00  0.00     0.010 A 
ATOM     84  C   UNL     1      15.932   1.206 -15.831  1.00  0.00     0.020 A 
ATOM     85  C   UNL     1      13.630   1.051 -16.596  1.00  0.00     0.020 A 
ATOM     86  C   UNL     1      14.968   1.375 -16.831  1.00  0.00     0.054 A 
BRANCH  86  87
ATOM     87  S   UNL     1      15.492   1.972 -18.462  1.00  0.00     0.124 S 
ATOM     88  O   UNL     1      15.692   3.397 -18.213  1.00  0.00    -0.237 OA
ATOM     89  O   UNL     1      16.708   1.202 -18.713  1.00  0.00    -0.237 OA
ATOM     90  O   UNL     1      14.364   1.643 -19.329  1.00  0.00    -0.744 OA
ENDBRANCH  86  87
ENDBRANCH  60  81
ENDBRANCH  34  35
ENDBRANCH  27  29
ENDBRANCH  26  27
ENDBRANCH  25  26
ENDBRANCH  24  25
ENDBRANCH  23  24
ENDBRANCH  22  23
ENDBRANCH   1  22
TORSDOF 23
