REMARK SMILES CSc1nc2nnc(C(=O)OCCOCCOCCOC(=O)c3ccc(-c4c5nc(c(-c6ccc(S(=O)(=O)[O-])cc6)c6ccc([nH]6)c(-c6ccc(S(=O)(=O)[O-])cc6)c6nc(c(-c7ccc(S(=O)(=O)[O-])cc7)c7ccc4[nH]7)C=C6)C=C5)cc3)c(O)n2n1
REMARK SMILES IDX 16 1 15 2 14 3 13 4 12 5 11 6 9 7 10 8 8 9 3 10 4 11 86 12
REMARK SMILES IDX 5 13 85 14 6 15 83 16 7 17 2 18 1 19 84 20 17 22 18 23 19 24
REMARK SMILES IDX 20 25 21 26 22 27 23 28 24 29 82 30 25 31 81 32 26 33 27 34
REMARK SMILES IDX 28 35 75 36 29 37 80 38 74 39 76 40 30 41 79 42 73 43 72 44
REMARK SMILES IDX 31 46 61 47 42 48 60 49 43 50 46 51 59 52 77 53 44 54 45 55
REMARK SMILES IDX 58 57 78 58 47 59 32 60 33 61 41 62 34 63 40 64 35 65 36 66
REMARK SMILES IDX 37 67 38 68 39 69 62 70 63 71 71 72 64 73 70 74 65 75 66 76
REMARK SMILES IDX 67 77 68 78 69 79 48 80 49 81 57 82 50 83 56 84 51 85 52 86
REMARK SMILES IDX 53 87 54 88 55 89
REMARK H PARENT 84 21 76 45 46 56
REMARK Flexibility Score: inf
ROOT
ATOM      1  C   UNL     1      -0.733  -5.859   6.707  1.00  0.00     0.188 C 
ENDROOT
BRANCH   1   2
ATOM      2  C   UNL     1      -0.785  -6.690   5.407  1.00  0.00     0.188 C 
BRANCH   2   3
ATOM      3  O   UNL     1      -0.454  -8.072   5.387  1.00  0.00    -0.376 OA
BRANCH   3   4
ATOM      4  C   UNL     1       0.545  -8.615   6.233  1.00  0.00     0.202 C 
BRANCH   4   5
ATOM      5  C   UNL     1       1.955  -7.994   6.338  1.00  0.00     0.261 C 
BRANCH   5   6
ATOM      6  O   UNL     1       2.055  -6.568   6.233  1.00  0.00    -0.458 OA
BRANCH   6   7
ATOM      7  C   UNL     1       2.389  -6.099   5.008  1.00  0.00     0.364 C 
ATOM      8  O   UNL     1       2.643  -6.774   4.024  1.00  0.00    -0.244 OA
BRANCH   7   9
ATOM      9  C   UNL     1       2.206  -4.625   4.932  1.00  0.00     0.232 A 
ATOM     10  C   UNL     1       1.157  -0.768   3.241  1.00  0.00     0.210 A 
ATOM     11  N   UNL     1       1.647  -0.704   4.514  1.00  0.00    -0.182 NA
ATOM     12  N   UNL     1       1.017  -1.993   2.743  1.00  0.00    -0.134 NA
ATOM     13  C   UNL     1       1.841  -1.970   4.827  1.00  0.00     0.275 A 
ATOM     14  N   UNL     1       1.481  -2.765   3.748  1.00  0.00    -0.159 N 
ATOM     15  N   UNL     1       2.342  -2.558   5.957  1.00  0.00    -0.108 NA
ATOM     16  C   UNL     1       1.668  -4.144   3.791  1.00  0.00     0.251 A 
ATOM     17  N   UNL     1       2.514  -3.812   6.010  1.00  0.00    -0.134 NA
BRANCH  10  18
ATOM     18  S   UNL     1       0.783   0.648   2.297  1.00  0.00    -0.088 SA
ATOM     19  C   UNL     1       1.040   0.003   0.625  1.00  0.00     0.094 C 
ENDBRANCH  10  18
BRANCH  16  20
ATOM     20  O   UNL     1       1.293  -4.903   2.691  1.00  0.00    -0.491 OA
ATOM     21  H   UNL     1       1.411  -5.832   2.701  1.00  0.00     0.295 HD
ENDBRANCH  16  20
ENDBRANCH   7   9
ENDBRANCH   6   7
ENDBRANCH   5   6
ENDBRANCH   4   5
ENDBRANCH   3   4
ENDBRANCH   2   3
ENDBRANCH   1   2
BRANCH   1  22
ATOM     22  O   UNL     1      -0.238  -6.567   7.821  1.00  0.00    -0.376 OA
BRANCH  22  23
ATOM     23  C   UNL     1      -1.124  -7.030   8.825  1.00  0.00     0.202 C 
BRANCH  23  24
ATOM     24  C   UNL     1      -2.482  -7.659   8.511  1.00  0.00     0.261 C 
BRANCH  24  25
ATOM     25  O   UNL     1      -3.041  -7.385   7.239  1.00  0.00    -0.460 OA
BRANCH  25  26
ATOM     26  C   UNL     1      -3.797  -6.282   7.193  1.00  0.00     0.338 C 
ATOM     27  O   UNL     1      -3.733  -5.315   7.975  1.00  0.00    -0.246 OA
BRANCH  26  28
ATOM     28  C   UNL     1      -4.811  -6.424   6.159  1.00  0.00     0.060 A 
ATOM     29  C   UNL     1      -5.532  -5.284   5.805  1.00  0.00     0.016 A 
ATOM     30  C   UNL     1      -5.226  -7.715   5.788  1.00  0.00     0.016 A 
ATOM     31  C   UNL     1      -6.782  -5.453   5.257  1.00  0.00     0.010 A 
ATOM     32  C   UNL     1      -6.482  -7.881   5.252  1.00  0.00     0.010 A 
ATOM     33  C   UNL     1      -7.274  -6.753   5.074  1.00  0.00    -0.014 A 
BRANCH  33  34
ATOM     34  C   UNL     1      -8.641  -6.886   4.623  1.00  0.00     0.031 A 
ATOM     35  C   UNL     1      -8.826  -6.487   3.218  1.00  0.00     0.074 A 
ATOM     36  C   UNL     1      -9.635  -7.357   5.396  1.00  0.00     0.049 A 
ATOM     37  N   UNL     1      -9.346  -5.389   2.784  1.00  0.00    -0.248 NA
ATOM     38  C   UNL     1      -8.186  -7.312   2.185  1.00  0.00     0.031 C 
ATOM     39  C   UNL     1      -9.537  -8.013   6.702  1.00  0.00     0.029 A 
ATOM     40  N   UNL     1     -10.963  -7.423   5.112  1.00  0.00    -0.354 N 
ATOM     41  C   UNL     1      -9.316  -5.493   1.402  1.00  0.00     0.074 A 
ATOM     42  C   UNL     1      -8.417  -6.578   1.097  1.00  0.00     0.031 C 
ATOM     43  C   UNL     1     -10.721  -8.605   6.989  1.00  0.00     0.029 A 
ATOM     44  C   UNL     1     -11.688  -8.243   5.965  1.00  0.00     0.049 A 
ATOM     45  H   UNL     1     -11.375  -6.931   4.366  1.00  0.00     0.167 HD
ATOM     46  C   UNL     1     -10.258  -4.882   0.634  1.00  0.00     0.031 A 
ATOM     47  C   UNL     1     -12.976  -8.632   5.797  1.00  0.00     0.031 A 
ATOM     48  C   UNL     1     -10.984  -3.881   1.373  1.00  0.00     0.049 A 
ATOM     49  C   UNL     1     -13.618  -7.639   4.900  1.00  0.00     0.074 A 
ATOM     50  C   UNL     1     -10.655  -2.711   2.026  1.00  0.00     0.029 A 
ATOM     51  N   UNL     1     -12.232  -4.244   1.824  1.00  0.00    -0.354 N 
ATOM     52  N   UNL     1     -13.837  -6.398   5.237  1.00  0.00    -0.248 NA
ATOM     53  C   UNL     1     -13.661  -7.913   3.471  1.00  0.00     0.031 C 
ATOM     54  C   UNL     1     -11.544  -2.638   3.136  1.00  0.00     0.029 A 
ATOM     55  C   UNL     1     -12.401  -3.741   3.085  1.00  0.00     0.049 A 
ATOM     56  H   UNL     1     -12.892  -4.777   1.324  1.00  0.00     0.167 HD
ATOM     57  C   UNL     1     -13.630  -5.673   4.073  1.00  0.00     0.074 A 
ATOM     58  C   UNL     1     -13.645  -6.663   3.001  1.00  0.00     0.031 C 
ATOM     59  C   UNL     1     -13.193  -4.381   4.117  1.00  0.00     0.031 A 
BRANCH  46  60
ATOM     60  C   UNL     1     -10.834  -5.522  -0.606  1.00  0.00    -0.014 A 
ATOM     61  C   UNL     1     -11.812  -4.813  -1.333  1.00  0.00     0.010 A 
ATOM     62  C   UNL     1     -10.688  -6.894  -0.896  1.00  0.00     0.010 A 
ATOM     63  C   UNL     1     -12.662  -5.470  -2.230  1.00  0.00     0.020 A 
ATOM     64  C   UNL     1     -11.497  -7.548  -1.823  1.00  0.00     0.020 A 
ATOM     65  C   UNL     1     -12.508  -6.839  -2.453  1.00  0.00     0.054 A 
BRANCH  65  66
ATOM     66  S   UNL     1     -13.693  -7.705  -3.507  1.00  0.00     0.124 S 
ATOM     67  O   UNL     1     -14.922  -7.591  -2.728  1.00  0.00    -0.237 OA
ATOM     68  O   UNL     1     -13.642  -6.919  -4.736  1.00  0.00    -0.237 OA
ATOM     69  O   UNL     1     -13.136  -9.052  -3.609  1.00  0.00    -0.744 OA
ENDBRANCH  65  66
ENDBRANCH  46  60
BRANCH  47  70
ATOM     70  C   UNL     1     -13.588  -9.947   6.111  1.00  0.00    -0.014 A 
ATOM     71  C   UNL     1     -14.983 -10.125   6.045  1.00  0.00     0.010 A 
ATOM     72  C   UNL     1     -12.785 -11.103   6.192  1.00  0.00     0.010 A 
ATOM     73  C   UNL     1     -15.549 -11.410   5.989  1.00  0.00     0.020 A 
ATOM     74  C   UNL     1     -13.342 -12.388   6.146  1.00  0.00     0.020 A 
ATOM     75  C   UNL     1     -14.720 -12.535   6.017  1.00  0.00     0.054 A 
BRANCH  75  76
ATOM     76  S   UNL     1     -15.445 -14.183   5.766  1.00  0.00     0.124 S 
ATOM     77  O   UNL     1     -16.242 -14.360   6.977  1.00  0.00    -0.237 OA
ATOM     78  O   UNL     1     -16.203 -14.010   4.530  1.00  0.00    -0.237 OA
ATOM     79  O   UNL     1     -14.280 -15.059   5.658  1.00  0.00    -0.744 OA
ENDBRANCH  75  76
ENDBRANCH  47  70
BRANCH  59  80
ATOM     80  C   UNL     1     -13.319  -3.614   5.410  1.00  0.00    -0.014 A 
ATOM     81  C   UNL     1     -12.592  -3.919   6.576  1.00  0.00     0.010 A 
ATOM     82  C   UNL     1     -14.053  -2.415   5.364  1.00  0.00     0.010 A 
ATOM     83  C   UNL     1     -12.588  -3.030   7.663  1.00  0.00     0.020 A 
ATOM     84  C   UNL     1     -14.039  -1.520   6.435  1.00  0.00     0.020 A 
ATOM     85  C   UNL     1     -13.301  -1.829   7.578  1.00  0.00     0.054 A 
BRANCH  85  86
ATOM     86  S   UNL     1     -13.193  -0.625   8.933  1.00  0.00     0.124 S 
ATOM     87  O   UNL     1     -13.918  -1.293  10.011  1.00  0.00    -0.237 OA
ATOM     88  O   UNL     1     -11.752  -0.491   9.133  1.00  0.00    -0.237 OA
ATOM     89  O   UNL     1     -13.848   0.567   8.395  1.00  0.00    -0.744 OA
ENDBRANCH  85  86
ENDBRANCH  59  80
ENDBRANCH  33  34
ENDBRANCH  26  28
ENDBRANCH  25  26
ENDBRANCH  24  25
ENDBRANCH  23  24
ENDBRANCH  22  23
ENDBRANCH   1  22
TORSDOF 22
