REMARK SMILES CC(C)(C)OC(=O)N1CCSC[C@@H]1CC(=O)OCCOCCOCCOC(=O)c1ccc(-c2c3nc(c(-c4ccc(S(=O)(=O)[O-])cc4)c4ccc([nH]4)c(-c4ccc(S(=O)(=O)[O-])cc4)c4nc(c(-c5ccc(S(=O)(=O)[O-])cc5)c5ccc2[nH]5)C=C4)C=C3)cc1
REMARK SMILES IDX 21 1 20 2 19 3 18 4 17 5 15 6 16 7 14 8 13 9 8 10 9 11 10 12
REMARK SMILES IDX 12 13 11 14 6 15 7 16 5 17 2 18 1 19 3 20 4 21 22 22 23 23
REMARK SMILES IDX 24 24 25 25 26 26 27 27 28 28 29 29 30 30 88 31 31 32 87 33
REMARK SMILES IDX 32 34 33 35 34 36 81 37 35 38 86 39 80 40 82 41 36 42 85 43
REMARK SMILES IDX 79 44 78 45 37 47 67 48 48 49 66 50 49 51 52 52 65 53 83 54
REMARK SMILES IDX 50 55 51 56 64 58 84 59 53 60 38 61 39 62 47 63 40 64 46 65
REMARK SMILES IDX 41 66 42 67 43 68 44 69 45 70 68 71 69 72 77 73 70 74 76 75
REMARK SMILES IDX 71 76 72 77 73 78 74 79 75 80 54 81 55 82 63 83 56 84 62 85
REMARK SMILES IDX 57 86 58 87 59 88 60 89 61 90
REMARK H PARENT 82 46 52 57
REMARK Flexibility Score: inf
ROOT
ATOM      1  C   UNL     1       3.217  -8.255   2.643  1.00  0.00     0.188 C 
ENDROOT
BRANCH   1   2
ATOM      2  O   UNL     1       4.194  -8.091   1.620  1.00  0.00    -0.376 OA
BRANCH   2   3
ATOM      3  C   UNL     1       4.249  -6.853   0.915  1.00  0.00     0.202 C 
BRANCH   3   4
ATOM      4  C   UNL     1       2.990  -6.474   0.134  1.00  0.00     0.261 C 
BRANCH   4   5
ATOM      5  O   UNL     1       1.991  -5.923   1.016  1.00  0.00    -0.463 OA
BRANCH   5   6
ATOM      6  C   UNL     1       0.709  -6.097   0.635  1.00  0.00     0.307 C 
ATOM      7  O   UNL     1       0.386  -6.649  -0.414  1.00  0.00    -0.252 OA
BRANCH   6   8
ATOM      8  C   UNL     1      -0.323  -5.736   1.681  1.00  0.00     0.148 C 
BRANCH   8   9
ATOM      9  C   UNL     1      -0.345  -4.469   2.570  1.00  0.00     0.109 C 
ATOM     10  N   UNL     1       0.603  -3.379   2.327  1.00  0.00    -0.303 N 
ATOM     11  C   UNL     1       1.926  -3.450   2.952  1.00  0.00     0.134 C 
ATOM     12  C   UNL     1       1.836  -3.435   4.482  1.00  0.00     0.091 C 
ATOM     13  C   UNL     1      -0.594  -4.734   4.073  1.00  0.00     0.095 C 
ATOM     14  S   UNL     1       0.881  -4.843   5.127  1.00  0.00    -0.158 SA
BRANCH  10  15
ATOM     15  C   UNL     1       0.059  -2.103   2.223  1.00  0.00     0.410 C 
ATOM     16  O   UNL     1      -1.002  -1.784   2.736  1.00  0.00    -0.224 OA
BRANCH  15  17
ATOM     17  O   UNL     1       0.828  -1.304   1.448  1.00  0.00    -0.444 OA
BRANCH  17  18
ATOM     18  C   UNL     1       0.403   0.046   1.131  1.00  0.00     0.106 C 
ATOM     19  C   UNL     1       1.166   0.400  -0.151  1.00  0.00     0.056 C 
ATOM     20  C   UNL     1       0.840   0.968   2.270  1.00  0.00     0.056 C 
ATOM     21  C   UNL     1      -1.100   0.189   0.838  1.00  0.00     0.056 C 
ENDBRANCH  17  18
ENDBRANCH  15  17
ENDBRANCH  10  15
ENDBRANCH   8   9
ENDBRANCH   6   8
ENDBRANCH   5   6
ENDBRANCH   4   5
ENDBRANCH   3   4
ENDBRANCH   2   3
ENDBRANCH   1   2
BRANCH   1  22
ATOM     22  C   UNL     1       2.996  -7.090   3.608  1.00  0.00     0.188 C 
BRANCH  22  23
ATOM     23  O   UNL     1       4.117  -6.255   3.881  1.00  0.00    -0.376 OA
BRANCH  23  24
ATOM     24  C   UNL     1       5.201  -6.888   4.558  1.00  0.00     0.202 C 
BRANCH  24  25
ATOM     25  C   UNL     1       4.962  -6.981   6.065  1.00  0.00     0.261 C 
BRANCH  25  26
ATOM     26  O   UNL     1       4.032  -8.043   6.336  1.00  0.00    -0.460 OA
BRANCH  26  27
ATOM     27  C   UNL     1       2.981  -7.705   7.123  1.00  0.00     0.338 C 
ATOM     28  O   UNL     1       2.814  -6.669   7.736  1.00  0.00    -0.246 OA
BRANCH  27  29
ATOM     29  C   UNL     1       1.965  -8.768   7.009  1.00  0.00     0.060 A 
ATOM     30  C   UNL     1       0.690  -8.428   6.542  1.00  0.00     0.016 A 
ATOM     31  C   UNL     1       2.254 -10.076   7.399  1.00  0.00     0.016 A 
ATOM     32  C   UNL     1      -0.317  -9.388   6.490  1.00  0.00     0.010 A 
ATOM     33  C   UNL     1       1.239 -11.034   7.368  1.00  0.00     0.010 A 
ATOM     34  C   UNL     1      -0.056 -10.686   6.943  1.00  0.00    -0.014 A 
BRANCH  34  35
ATOM     35  C   UNL     1      -1.171 -11.634   7.158  1.00  0.00     0.031 A 
ATOM     36  C   UNL     1      -1.716 -11.784   8.550  1.00  0.00     0.074 A 
ATOM     37  C   UNL     1      -1.689 -12.342   6.140  1.00  0.00     0.049 A 
ATOM     38  N   UNL     1      -2.566 -12.660   9.016  1.00  0.00    -0.248 NA
ATOM     39  C   UNL     1      -1.233 -10.816   9.550  1.00  0.00     0.031 C 
ATOM     40  C   UNL     1      -1.302 -12.219   4.734  1.00  0.00     0.029 A 
ATOM     41  N   UNL     1      -2.651 -13.320   6.141  1.00  0.00    -0.354 N 
ATOM     42  C   UNL     1      -2.702 -12.366  10.368  1.00  0.00     0.074 A 
ATOM     43  C   UNL     1      -1.843 -11.237  10.649  1.00  0.00     0.031 C 
ATOM     44  C   UNL     1      -2.014 -13.101   4.010  1.00  0.00     0.029 A 
ATOM     45  C   UNL     1      -2.864 -13.881   4.906  1.00  0.00     0.049 A 
ATOM     46  H   UNL     1      -3.141 -13.593   6.950  1.00  0.00     0.167 HD
ATOM     47  C   UNL     1      -3.469 -12.988  11.293  1.00  0.00     0.031 A 
ATOM     48  C   UNL     1      -3.630 -14.931   4.551  1.00  0.00     0.031 A 
ATOM     49  C   UNL     1      -4.311 -14.117  11.008  1.00  0.00     0.049 A 
ATOM     50  C   UNL     1      -4.407 -15.665   5.612  1.00  0.00     0.074 A 
ATOM     51  C   UNL     1      -5.103 -14.845  11.878  1.00  0.00     0.029 A 
ATOM     52  N   UNL     1      -4.473 -14.679   9.751  1.00  0.00    -0.354 N 
ATOM     53  N   UNL     1      -4.487 -15.414   6.898  1.00  0.00    -0.248 NA
ATOM     54  C   UNL     1      -5.188 -16.831   5.176  1.00  0.00     0.031 C 
ATOM     55  C   UNL     1      -5.719 -15.870  11.150  1.00  0.00     0.029 A 
ATOM     56  C   UNL     1      -5.345 -15.750   9.821  1.00  0.00     0.049 A 
ATOM     57  H   UNL     1      -4.032 -14.362   8.930  1.00  0.00     0.167 HD
ATOM     58  C   UNL     1      -5.346 -16.376   7.419  1.00  0.00     0.074 A 
ATOM     59  C   UNL     1      -5.766 -17.207   6.309  1.00  0.00     0.031 C 
ATOM     60  C   UNL     1      -5.752 -16.557   8.700  1.00  0.00     0.031 A 
BRANCH  47  61
ATOM     61  C   UNL     1      -3.388 -12.482  12.706  1.00  0.00    -0.014 A 
ATOM     62  C   UNL     1      -4.000 -11.273  13.082  1.00  0.00     0.010 A 
ATOM     63  C   UNL     1      -2.695 -13.231  13.674  1.00  0.00     0.010 A 
ATOM     64  C   UNL     1      -3.889 -10.804  14.393  1.00  0.00     0.020 A 
ATOM     65  C   UNL     1      -2.600 -12.776  14.991  1.00  0.00     0.020 A 
ATOM     66  C   UNL     1      -3.183 -11.555  15.338  1.00  0.00     0.054 A 
BRANCH  66  67
ATOM     67  S   UNL     1      -3.061 -10.932  17.038  1.00  0.00     0.124 S 
ATOM     68  O   UNL     1      -2.055  -9.882  16.901  1.00  0.00    -0.237 OA
ATOM     69  O   UNL     1      -4.419 -10.470  17.311  1.00  0.00    -0.237 OA
ATOM     70  O   UNL     1      -2.639 -12.102  17.805  1.00  0.00    -0.744 OA
ENDBRANCH  66  67
ENDBRANCH  47  61
BRANCH  48  71
ATOM     71  C   UNL     1      -3.668 -15.384   3.134  1.00  0.00    -0.014 A 
ATOM     72  C   UNL     1      -4.826 -15.206   2.358  1.00  0.00     0.010 A 
ATOM     73  C   UNL     1      -2.547 -16.008   2.557  1.00  0.00     0.010 A 
ATOM     74  C   UNL     1      -4.870 -15.660   1.037  1.00  0.00     0.020 A 
ATOM     75  C   UNL     1      -2.578 -16.442   1.229  1.00  0.00     0.020 A 
ATOM     76  C   UNL     1      -3.745 -16.277   0.481  1.00  0.00     0.054 A 
BRANCH  76  77
ATOM     77  S   UNL     1      -3.805 -16.823  -1.249  1.00  0.00     0.124 S 
ATOM     78  O   UNL     1      -4.569 -18.062  -1.148  1.00  0.00    -0.237 OA
ATOM     79  O   UNL     1      -4.484 -15.712  -1.911  1.00  0.00    -0.237 OA
ATOM     80  O   UNL     1      -2.396 -16.981  -1.603  1.00  0.00    -0.744 OA
ENDBRANCH  76  77
ENDBRANCH  48  71
BRANCH  60  81
ATOM     81  C   UNL     1      -6.731 -17.668   8.962  1.00  0.00    -0.014 A 
ATOM     82  C   UNL     1      -6.317 -19.010   8.991  1.00  0.00     0.010 A 
ATOM     83  C   UNL     1      -8.074 -17.353   9.240  1.00  0.00     0.010 A 
ATOM     84  C   UNL     1      -7.238 -20.024   9.267  1.00  0.00     0.020 A 
ATOM     85  C   UNL     1      -8.992 -18.363   9.537  1.00  0.00     0.020 A 
ATOM     86  C   UNL     1      -8.570 -19.694   9.536  1.00  0.00     0.054 A 
BRANCH  86  87
ATOM     87  S   UNL     1      -9.740 -21.021   9.938  1.00  0.00     0.124 S 
ATOM     88  O   UNL     1     -10.027 -21.582   8.620  1.00  0.00    -0.237 OA
ATOM     89  O   UNL     1      -8.962 -21.879  10.830  1.00  0.00    -0.237 OA
ATOM     90  O   UNL     1     -10.852 -20.320  10.574  1.00  0.00    -0.744 OA
ENDBRANCH  86  87
ENDBRANCH  60  81
ENDBRANCH  34  35
ENDBRANCH  27  29
ENDBRANCH  26  27
ENDBRANCH  25  26
ENDBRANCH  24  25
ENDBRANCH  23  24
ENDBRANCH  22  23
ENDBRANCH   1  22
TORSDOF 24
