REMARK SMILES Cc1nc(=O)[nH]c(C)c1CC(=O)N1CC[C@H](C(=O)OCCOCCOCCOC(=O)c2ccc(-c3c4nc(c(-c5ccc(S(=O)(=O)[O-])cc5)c5ccc([nH]5)c(-c5ccc(S(=O)(=O)[O-])cc5)c5nc(c(-c6ccc(S(=O)(=O)[O-])cc6)c6ccc3[nH]6)C=C5)C=C4)cc2)[C@@H]1C
REMARK SMILES IDX 23 1 22 2 21 3 20 4 19 5 17 6 18 7 16 8 13 9 14 10 91 11
REMARK SMILES IDX 15 12 92 13 11 14 12 15 10 16 9 17 1 18 2 19 3 20 4 21 7 22
REMARK SMILES IDX 5 23 6 24 8 25 24 27 25 28 26 29 27 30 28 31 29 32 30 33
REMARK SMILES IDX 31 34 32 35 90 36 33 37 89 38 34 39 35 40 36 41 83 42 37 43
REMARK SMILES IDX 88 44 82 45 84 46 38 47 87 48 81 49 80 50 39 52 69 53 50 54
REMARK SMILES IDX 68 55 51 56 54 57 67 58 85 59 52 60 53 61 66 63 86 64 55 65
REMARK SMILES IDX 40 66 41 67 49 68 42 69 48 70 43 71 44 72 45 73 46 74 47 75
REMARK SMILES IDX 70 76 71 77 79 78 72 79 78 80 73 81 74 82 75 83 76 84 77 85
REMARK SMILES IDX 56 86 57 87 65 88 58 89 64 90 59 91 60 92 61 93 62 94 63 95
REMARK H PARENT 6 26 84 51 54 62
REMARK Flexibility Score: inf
ROOT
ATOM      1  C   UNL     1      -1.725  -1.409   7.654  1.00  0.00     0.188 C 
ENDROOT
BRANCH   1   2
ATOM      2  O   UNL     1      -1.297  -0.261   8.376  1.00  0.00    -0.376 OA
BRANCH   2   3
ATOM      3  C   UNL     1      -1.198   0.980   7.694  1.00  0.00     0.202 C 
BRANCH   3   4
ATOM      4  C   UNL     1      -0.322   1.046   6.438  1.00  0.00     0.261 C 
BRANCH   4   5
ATOM      5  O   UNL     1      -0.608   0.039   5.447  1.00  0.00    -0.463 OA
BRANCH   5   6
ATOM      6  C   UNL     1       0.389  -0.805   5.085  1.00  0.00     0.311 C 
ATOM      7  O   UNL     1       1.494  -0.822   5.612  1.00  0.00    -0.252 OA
BRANCH   6   8
ATOM      8  C   UNL     1       0.007  -1.779   3.972  1.00  0.00     0.123 C 
ATOM      9  N   UNL     1      -1.660  -2.349   2.365  1.00  0.00    -0.339 N 
ATOM     10  C   UNL     1      -1.984  -3.127   3.539  1.00  0.00     0.121 C 
ATOM     11  C   UNL     1      -0.744  -1.258   2.734  1.00  0.00     0.096 C 
ATOM     12  C   UNL     1      -0.728  -3.062   4.394  1.00  0.00     0.039 C 
ATOM     13  C   UNL     1      -1.509   0.054   2.896  1.00  0.00     0.032 C 
BRANCH   9  14
ATOM     14  C   UNL     1      -2.428  -2.505   1.229  1.00  0.00     0.227 C 
ATOM     15  O   UNL     1      -3.565  -2.987   1.304  1.00  0.00    -0.275 OA
BRANCH  14  16
ATOM     16  C   UNL     1      -1.820  -2.304  -0.166  1.00  0.00     0.139 C 
BRANCH  16  17
ATOM     17  C   UNL     1      -0.964  -1.102  -0.387  1.00  0.00     0.002 A 
ATOM     18  C   UNL     1       1.249  -2.525  -0.281  1.00  0.00     0.067 C 
ATOM     19  C   UNL     1       0.538  -1.186  -0.378  1.00  0.00     0.049 A 
ATOM     20  N   UNL     1       1.322  -0.157  -0.402  1.00  0.00    -0.198 NA
ATOM     21  C   UNL     1       0.786   1.097  -0.455  1.00  0.00     0.345 A 
ATOM     22  C   UNL     1      -1.447   0.144  -0.560  1.00  0.00     0.022 A 
ATOM     23  O   UNL     1       1.455   2.119  -0.388  1.00  0.00    -0.246 OA
ATOM     24  N   UNL     1      -0.574   1.199  -0.584  1.00  0.00    -0.310 N 
ATOM     25  C   UNL     1      -2.903   0.526  -0.623  1.00  0.00     0.065 C 
ATOM     26  H   UNL     1      -0.954   2.099  -0.703  1.00  0.00     0.171 HD
ENDBRANCH  16  17
ENDBRANCH  14  16
ENDBRANCH   9  14
ENDBRANCH   6   8
ENDBRANCH   5   6
ENDBRANCH   4   5
ENDBRANCH   3   4
ENDBRANCH   2   3
ENDBRANCH   1   2
BRANCH   1  27
ATOM     27  C   UNL     1      -2.857  -1.269   6.615  1.00  0.00     0.188 C 
BRANCH  27  28
ATOM     28  O   UNL     1      -3.590  -0.064   6.725  1.00  0.00    -0.376 OA
BRANCH  28  29
ATOM     29  C   UNL     1      -4.955  -0.196   7.074  1.00  0.00     0.202 C 
BRANCH  29  30
ATOM     30  C   UNL     1      -5.231  -0.715   8.492  1.00  0.00     0.261 C 
BRANCH  30  31
ATOM     31  O   UNL     1      -4.517  -1.901   8.890  1.00  0.00    -0.460 OA
BRANCH  31  32
ATOM     32  C   UNL     1      -4.926  -3.076   8.356  1.00  0.00     0.338 C 
ATOM     33  O   UNL     1      -5.836  -3.227   7.561  1.00  0.00    -0.246 OA
BRANCH  32  34
ATOM     34  C   UNL     1      -3.955  -4.138   8.728  1.00  0.00     0.060 A 
ATOM     35  C   UNL     1      -3.335  -4.869   7.706  1.00  0.00     0.016 A 
ATOM     36  C   UNL     1      -3.668  -4.428  10.064  1.00  0.00     0.016 A 
ATOM     37  C   UNL     1      -2.472  -5.925   8.019  1.00  0.00     0.010 A 
ATOM     38  C   UNL     1      -2.812  -5.496  10.375  1.00  0.00     0.010 A 
ATOM     39  C   UNL     1      -2.240  -6.279   9.356  1.00  0.00    -0.014 A 
BRANCH  39  40
ATOM     40  C   UNL     1      -1.544  -7.560   9.668  1.00  0.00     0.031 A 
ATOM     41  C   UNL     1      -2.371  -8.763  10.059  1.00  0.00     0.074 A 
ATOM     42  C   UNL     1      -0.206  -7.683   9.558  1.00  0.00     0.049 A 
ATOM     43  N   UNL     1      -1.985  -9.985  10.329  1.00  0.00    -0.248 NA
ATOM     44  C   UNL     1      -3.826  -8.561  10.156  1.00  0.00     0.031 C 
ATOM     45  C   UNL     1       0.713  -6.618   9.158  1.00  0.00     0.029 A 
ATOM     46  N   UNL     1       0.612  -8.768   9.767  1.00  0.00    -0.354 N 
ATOM     47  C   UNL     1      -3.143 -10.691  10.639  1.00  0.00     0.074 A 
ATOM     48  C   UNL     1      -4.243  -9.757  10.547  1.00  0.00     0.031 C 
ATOM     49  C   UNL     1       1.967  -7.106   9.141  1.00  0.00     0.029 A 
ATOM     50  C   UNL     1       1.947  -8.507   9.558  1.00  0.00     0.049 A 
ATOM     51  H   UNL     1       0.274  -9.651  10.041  1.00  0.00     0.167 HD
ATOM     52  C   UNL     1      -3.283 -11.999  10.966  1.00  0.00     0.031 A 
ATOM     53  C   UNL     1       3.030  -9.302   9.695  1.00  0.00     0.031 A 
ATOM     54  C   UNL     1      -2.193 -12.935  11.060  1.00  0.00     0.049 A 
ATOM     55  C   UNL     1       2.846 -10.740  10.119  1.00  0.00     0.074 A 
ATOM     56  C   UNL     1      -2.247 -14.289  11.347  1.00  0.00     0.029 A 
ATOM     57  N   UNL     1      -0.855 -12.619  10.885  1.00  0.00    -0.354 N 
ATOM     58  N   UNL     1       1.737 -11.401  10.353  1.00  0.00    -0.248 NA
ATOM     59  C   UNL     1       4.068 -11.542  10.282  1.00  0.00     0.031 C 
ATOM     60  C   UNL     1      -0.937 -14.775  11.418  1.00  0.00     0.029 A 
ATOM     61  C   UNL     1      -0.072 -13.742  11.096  1.00  0.00     0.049 A 
ATOM     62  H   UNL     1      -0.512 -11.727  10.646  1.00  0.00     0.167 HD
ATOM     63  C   UNL     1       2.129 -12.704  10.654  1.00  0.00     0.074 A 
ATOM     64  C   UNL     1       3.572 -12.742  10.545  1.00  0.00     0.031 C 
ATOM     65  C   UNL     1       1.365 -13.774  10.991  1.00  0.00     0.031 A 
BRANCH  52  66
ATOM     66  C   UNL     1      -4.668 -12.502  11.286  1.00  0.00    -0.014 A 
ATOM     67  C   UNL     1      -5.643 -12.665  10.286  1.00  0.00     0.010 A 
ATOM     68  C   UNL     1      -4.971 -12.894  12.604  1.00  0.00     0.010 A 
ATOM     69  C   UNL     1      -6.899 -13.191  10.601  1.00  0.00     0.020 A 
ATOM     70  C   UNL     1      -6.215 -13.447  12.918  1.00  0.00     0.020 A 
ATOM     71  C   UNL     1      -7.176 -13.583  11.915  1.00  0.00     0.054 A 
BRANCH  71  72
ATOM     72  S   UNL     1      -8.794 -14.316  12.283  1.00  0.00     0.124 S 
ATOM     73  O   UNL     1      -9.684 -13.165  12.149  1.00  0.00    -0.237 OA
ATOM     74  O   UNL     1      -8.925 -15.336  11.246  1.00  0.00    -0.237 OA
ATOM     75  O   UNL     1      -8.643 -14.829  13.642  1.00  0.00    -0.744 OA
ENDBRANCH  71  72
ENDBRANCH  52  66
BRANCH  53  76
ATOM     76  C   UNL     1       4.402  -8.770   9.446  1.00  0.00    -0.014 A 
ATOM     77  C   UNL     1       5.192  -9.274   8.396  1.00  0.00     0.010 A 
ATOM     78  C   UNL     1       4.952  -7.797  10.301  1.00  0.00     0.010 A 
ATOM     79  C   UNL     1       6.515  -8.850   8.233  1.00  0.00     0.020 A 
ATOM     80  C   UNL     1       6.262  -7.343  10.120  1.00  0.00     0.020 A 
ATOM     81  C   UNL     1       7.043  -7.888   9.099  1.00  0.00     0.054 A 
BRANCH  81  82
ATOM     82  S   UNL     1       8.758  -7.344   8.863  1.00  0.00     0.124 S 
ATOM     83  O   UNL     1       9.511  -8.508   9.316  1.00  0.00    -0.237 OA
ATOM     84  O   UNL     1       8.808  -7.077   7.427  1.00  0.00    -0.237 OA
ATOM     85  O   UNL     1       8.861  -6.161   9.714  1.00  0.00    -0.744 OA
ENDBRANCH  81  82
ENDBRANCH  53  76
BRANCH  65  86
ATOM     86  C   UNL     1       2.072 -15.088  11.220  1.00  0.00    -0.014 A 
ATOM     87  C   UNL     1       2.939 -15.280  12.311  1.00  0.00     0.010 A 
ATOM     88  C   UNL     1       1.862 -16.153  10.323  1.00  0.00     0.010 A 
ATOM     89  C   UNL     1       3.637 -16.483  12.459  1.00  0.00     0.020 A 
ATOM     90  C   UNL     1       2.527 -17.371  10.490  1.00  0.00     0.020 A 
ATOM     91  C   UNL     1       3.433 -17.518  11.541  1.00  0.00     0.054 A 
BRANCH  91  92
ATOM     92  S   UNL     1       4.362 -19.063  11.744  1.00  0.00     0.124 S 
ATOM     93  O   UNL     1       5.704 -18.666  11.329  1.00  0.00    -0.237 OA
ATOM     94  O   UNL     1       4.202 -19.349  13.167  1.00  0.00    -0.237 OA
ATOM     95  O   UNL     1       3.683 -19.995  10.847  1.00  0.00    -0.744 OA
ENDBRANCH  91  92
ENDBRANCH  65  86
ENDBRANCH  39  40
ENDBRANCH  32  34
ENDBRANCH  31  32
ENDBRANCH  30  31
ENDBRANCH  29  30
ENDBRANCH  28  29
ENDBRANCH  27  28
ENDBRANCH   1  27
TORSDOF 23
