REMARK SMILES COc1ccc(S(=O)(=O)N2CCC[C@H](C(=O)N3CCC[C@H](C(=O)OCCOCCOCCOC(=O)c4ccc(-c5c6nc(c(-c7ccc(S(=O)(=O)[O-])cc7)c7ccc([nH]7)c(-c7ccc(S(=O)(=O)[O-])cc7)c7nc(c(-c8ccc(S(=O)(=O)[O-])cc8)c8ccc5[nH]8)C=C7)C=C6)cc4)C3)C2)cc1
REMARK SMILES IDX 28 1 27 2 26 3 25 4 24 5 22 6 23 7 21 8 17 9 18 10 96 11
REMARK SMILES IDX 19 12 20 13 15 14 16 15 14 16 10 17 11 18 97 19 12 20 13 21
REMARK SMILES IDX 7 22 8 23 9 24 6 25 3 26 4 27 99 28 5 29 98 30 2 31 1 32
REMARK SMILES IDX 29 33 30 34 31 35 32 36 33 37 34 38 35 39 36 40 37 41 95 42
REMARK SMILES IDX 38 43 94 44 39 45 40 46 41 47 88 48 42 49 93 50 87 51 89 52
REMARK SMILES IDX 43 53 92 54 86 55 85 56 44 58 74 59 55 60 73 61 56 62 59 63
REMARK SMILES IDX 72 64 90 65 57 66 58 67 71 69 91 70 60 71 45 72 46 73 54 74
REMARK SMILES IDX 47 75 53 76 48 77 49 78 50 79 51 80 52 81 75 82 76 83 84 84
REMARK SMILES IDX 77 85 83 86 78 87 79 88 80 89 81 90 82 91 61 92 62 93 70 94
REMARK SMILES IDX 63 95 69 96 64 97 65 98 66 99 67 100 68 101
REMARK H PARENT 89 57 59 68
REMARK Flexibility Score: inf
ROOT
ATOM      1  C   UNL     1      10.345  -5.553  10.158  1.00  0.00     0.188 C 
ENDROOT
BRANCH   1   2
ATOM      2  O   UNL     1      11.343  -4.543  10.275  1.00  0.00    -0.376 OA
BRANCH   2   3
ATOM      3  C   UNL     1      10.897  -3.182  10.223  1.00  0.00     0.202 C 
BRANCH   3   4
ATOM      4  C   UNL     1       9.858  -2.835   9.148  1.00  0.00     0.261 C 
BRANCH   4   5
ATOM      5  O   UNL     1       8.527  -3.276   9.505  1.00  0.00    -0.463 OA
BRANCH   5   6
ATOM      6  C   UNL     1       7.860  -4.016   8.590  1.00  0.00     0.310 C 
ATOM      7  O   UNL     1       8.326  -4.366   7.509  1.00  0.00    -0.252 OA
BRANCH   6   8
ATOM      8  C   UNL     1       6.427  -4.354   8.970  1.00  0.00     0.119 C 
ATOM      9  N   UNL     1       5.513  -2.175   8.347  1.00  0.00    -0.342 N 
ATOM     10  C   UNL     1       4.984  -1.891   9.674  1.00  0.00     0.119 C 
ATOM     11  C   UNL     1       5.531  -3.591   8.001  1.00  0.00     0.134 C 
ATOM     12  C   UNL     1       5.753  -2.638  10.756  1.00  0.00     0.022 C 
ATOM     13  C   UNL     1       5.951  -4.114  10.408  1.00  0.00     0.019 C 
BRANCH   9  14
ATOM     14  C   UNL     1       6.280  -1.213   7.716  1.00  0.00     0.227 C 
ATOM     15  O   UNL     1       6.919  -0.379   8.367  1.00  0.00    -0.275 OA
BRANCH  14  16
ATOM     16  C   UNL     1       6.147  -1.014   6.203  1.00  0.00     0.094 C 
ATOM     17  N   UNL     1       3.737  -1.496   5.926  1.00  0.00    -0.197 NA
ATOM     18  C   UNL     1       3.985  -2.771   5.229  1.00  0.00     0.102 C 
ATOM     19  C   UNL     1       4.769  -0.445   5.910  1.00  0.00     0.116 C 
ATOM     20  C   UNL     1       5.369  -2.896   4.601  1.00  0.00     0.018 C 
ATOM     21  C   UNL     1       6.529  -2.128   5.241  1.00  0.00     0.016 C 
BRANCH  17  22
ATOM     22  S   UNL     1       2.125  -1.040   6.168  1.00  0.00     0.243 S 
ATOM     23  O   UNL     1       2.099   0.113   7.045  1.00  0.00    -0.207 OA
ATOM     24  O   UNL     1       1.373  -2.237   6.472  1.00  0.00    -0.207 OA
BRANCH  22  25
ATOM     25  C   UNL     1       1.556  -0.477   4.579  1.00  0.00     0.082 A 
ATOM     26  C   UNL     1       0.546   0.288   2.090  1.00  0.00     0.118 A 
ATOM     27  C   UNL     1      -0.287   0.270   3.212  1.00  0.00     0.048 A 
ATOM     28  C   UNL     1       1.894  -0.035   2.226  1.00  0.00     0.048 A 
ATOM     29  C   UNL     1       0.211  -0.120   4.458  1.00  0.00     0.025 A 
ATOM     30  C   UNL     1       2.396  -0.424   3.466  1.00  0.00     0.025 A 
BRANCH  26  31
ATOM     31  O   UNL     1      -0.048   0.645   0.910  1.00  0.00    -0.497 OA
ATOM     32  C   UNL     1       0.609   0.170  -0.263  1.00  0.00     0.278 C 
ENDBRANCH  26  31
ENDBRANCH  22  25
ENDBRANCH  17  22
ENDBRANCH  14  16
ENDBRANCH   9  14
ENDBRANCH   6   8
ENDBRANCH   5   6
ENDBRANCH   4   5
ENDBRANCH   3   4
ENDBRANCH   2   3
ENDBRANCH   1   2
BRANCH   1  33
ATOM     33  C   UNL     1       9.326  -5.625  11.301  1.00  0.00     0.188 C 
BRANCH  33  34
ATOM     34  O   UNL     1       9.206  -4.399  11.998  1.00  0.00    -0.376 OA
BRANCH  34  35
ATOM     35  C   UNL     1       8.969  -4.396  13.400  1.00  0.00     0.202 C 
BRANCH  35  36
ATOM     36  C   UNL     1       9.935  -5.226  14.264  1.00  0.00     0.261 C 
BRANCH  36  37
ATOM     37  O   UNL     1       9.851  -6.652  14.088  1.00  0.00    -0.460 OA
BRANCH  37  38
ATOM     38  C   UNL     1       8.621  -7.221  14.125  1.00  0.00     0.338 C 
ATOM     39  O   UNL     1       7.604  -6.729  14.579  1.00  0.00    -0.246 OA
BRANCH  38  40
ATOM     40  C   UNL     1       8.662  -8.430  13.262  1.00  0.00     0.060 A 
ATOM     41  C   UNL     1       7.567  -8.687  12.424  1.00  0.00     0.016 A 
ATOM     42  C   UNL     1       9.800  -9.242  13.196  1.00  0.00     0.016 A 
ATOM     43  C   UNL     1       7.591  -9.783  11.556  1.00  0.00     0.010 A 
ATOM     44  C   UNL     1       9.822 -10.337  12.331  1.00  0.00     0.010 A 
ATOM     45  C   UNL     1       8.704 -10.635  11.535  1.00  0.00    -0.014 A 
BRANCH  45  46
ATOM     46  C   UNL     1       8.616 -11.965  10.885  1.00  0.00     0.031 A 
ATOM     47  C   UNL     1       8.214 -13.133  11.744  1.00  0.00     0.074 A 
ATOM     48  C   UNL     1       8.904 -12.152   9.585  1.00  0.00     0.049 A 
ATOM     49  N   UNL     1       8.118 -14.399  11.434  1.00  0.00    -0.248 NA
ATOM     50  C   UNL     1       7.883 -12.826  13.146  1.00  0.00     0.031 C 
ATOM     51  C   UNL     1       9.281 -11.106   8.636  1.00  0.00     0.029 A 
ATOM     52  N   UNL     1       8.935 -13.308   8.844  1.00  0.00    -0.354 N 
ATOM     53  C   UNL     1       7.726 -15.040  12.603  1.00  0.00     0.074 A 
ATOM     54  C   UNL     1       7.628 -14.029  13.633  1.00  0.00     0.031 C 
ATOM     55  C   UNL     1       9.519 -11.672   7.439  1.00  0.00     0.029 A 
ATOM     56  C   UNL     1       9.339 -13.121   7.544  1.00  0.00     0.049 A 
ATOM     57  H   UNL     1       8.690 -14.189   9.210  1.00  0.00     0.167 HD
ATOM     58  C   UNL     1       7.467 -16.352  12.807  1.00  0.00     0.031 A 
ATOM     59  C   UNL     1       9.557 -14.017   6.559  1.00  0.00     0.031 A 
ATOM     60  C   UNL     1       7.593 -17.366  11.799  1.00  0.00     0.049 A 
ATOM     61  C   UNL     1       9.328 -15.484   6.822  1.00  0.00     0.074 A 
ATOM     62  C   UNL     1       7.342 -18.722  11.905  1.00  0.00     0.029 A 
ATOM     63  N   UNL     1       8.024 -17.136  10.501  1.00  0.00    -0.354 N 
ATOM     64  N   UNL     1       8.918 -16.071   7.922  1.00  0.00    -0.248 NA
ATOM     65  C   UNL     1       9.584 -16.409   5.707  1.00  0.00     0.031 C 
ATOM     66  C   UNL     1       7.670 -19.321  10.684  1.00  0.00     0.029 A 
ATOM     67  C   UNL     1       8.072 -18.329   9.802  1.00  0.00     0.049 A 
ATOM     68  H   UNL     1       8.261 -16.255  10.132  1.00  0.00     0.167 HD
ATOM     69  C   UNL     1       8.846 -17.430   7.625  1.00  0.00     0.074 A 
ATOM     70  C   UNL     1       9.246 -17.576   6.240  1.00  0.00     0.031 C 
ATOM     71  C   UNL     1       8.476 -18.461   8.425  1.00  0.00     0.031 A 
BRANCH  58  72
ATOM     72  C   UNL     1       7.069 -16.754  14.200  1.00  0.00    -0.014 A 
ATOM     73  C   UNL     1       5.808 -16.411  14.723  1.00  0.00     0.010 A 
ATOM     74  C   UNL     1       7.979 -17.459  15.006  1.00  0.00     0.010 A 
ATOM     75  C   UNL     1       5.488 -16.716  16.048  1.00  0.00     0.020 A 
ATOM     76  C   UNL     1       7.652 -17.790  16.323  1.00  0.00     0.020 A 
ATOM     77  C   UNL     1       6.418 -17.394  16.843  1.00  0.00     0.054 A 
BRANCH  77  78
ATOM     78  S   UNL     1       5.988 -17.764  18.565  1.00  0.00     0.124 S 
ATOM     79  O   UNL     1       6.154 -16.459  19.201  1.00  0.00    -0.237 OA
ATOM     80  O   UNL     1       4.611 -18.239  18.459  1.00  0.00    -0.237 OA
ATOM     81  O   UNL     1       6.965 -18.776  18.956  1.00  0.00    -0.744 OA
ENDBRANCH  77  78
ENDBRANCH  58  72
BRANCH  59  82
ATOM     82  C   UNL     1      10.033 -13.550   5.228  1.00  0.00    -0.014 A 
ATOM     83  C   UNL     1       9.172 -13.554   4.117  1.00  0.00     0.010 A 
ATOM     84  C   UNL     1      11.349 -13.077   5.071  1.00  0.00     0.010 A 
ATOM     85  C   UNL     1       9.617 -13.092   2.874  1.00  0.00     0.020 A 
ATOM     86  C   UNL     1      11.791 -12.594   3.836  1.00  0.00     0.020 A 
ATOM     87  C   UNL     1      10.921 -12.608   2.743  1.00  0.00     0.054 A 
BRANCH  87  88
ATOM     88  S   UNL     1      11.448 -11.932   1.143  1.00  0.00     0.124 S 
ATOM     89  O   UNL     1      11.630 -13.141   0.346  1.00  0.00    -0.237 OA
ATOM     90  O   UNL     1      10.314 -11.091   0.767  1.00  0.00    -0.237 OA
ATOM     91  O   UNL     1      12.673 -11.203   1.466  1.00  0.00    -0.744 OA
ENDBRANCH  87  88
ENDBRANCH  59  82
BRANCH  71  92
ATOM     92  C   UNL     1       8.453 -19.842   7.824  1.00  0.00    -0.014 A 
ATOM     93  C   UNL     1       9.643 -20.546   7.567  1.00  0.00     0.010 A 
ATOM     94  C   UNL     1       7.218 -20.473   7.587  1.00  0.00     0.010 A 
ATOM     95  C   UNL     1       9.596 -21.848   7.060  1.00  0.00     0.020 A 
ATOM     96  C   UNL     1       7.168 -21.783   7.103  1.00  0.00     0.020 A 
ATOM     97  C   UNL     1       8.359 -22.458   6.831  1.00  0.00     0.054 A 
BRANCH  97  98
ATOM     98  S   UNL     1       8.322 -24.168   6.223  1.00  0.00     0.124 S 
ATOM     99  O   UNL     1       8.674 -23.997   4.816  1.00  0.00    -0.237 OA
ATOM    100  O   UNL     1       9.333 -24.825   7.048  1.00  0.00    -0.237 OA
ATOM    101  O   UNL     1       6.948 -24.595   6.475  1.00  0.00    -0.744 OA
ENDBRANCH  97  98
ENDBRANCH  71  92
ENDBRANCH  45  46
ENDBRANCH  38  40
ENDBRANCH  37  38
ENDBRANCH  36  37
ENDBRANCH  35  36
ENDBRANCH  34  35
ENDBRANCH  33  34
ENDBRANCH   1  33
TORSDOF 25
