REMARK SMILES CC(C)C[C@H](NC(=O)[C@H](Cc1ccccc1)NC(=O)CNC(=O)C[NH3+])C(=O)OCCOCCOCCOC(=O)c1ccc(-c2c3nc(c(-c4ccc(S(=O)(=O)[O-])cc4)c4ccc([nH]4)c(-c4ccc(S(=O)(=O)[O-])cc4)c4nc(c(-c5ccc(S(=O)(=O)[O-])cc5)c5ccc2[nH]5)C=C4)C=C3)cc1
REMARK SMILES IDX 30 1 29 2 28 3 26 4 27 5 5 6 4 7 2 8 1 9 3 10 6 11 7 12 8 14
REMARK SMILES IDX 9 15 17 16 18 17 19 19 20 20 21 21 22 22 23 24 24 25 25 26
REMARK SMILES IDX 10 30 11 31 12 32 16 33 13 34 15 35 14 36 31 37 32 38 33 39
REMARK SMILES IDX 34 40 35 41 36 42 37 43 38 44 39 45 40 46 41 47 99 48 42 49
REMARK SMILES IDX 98 50 43 51 44 52 45 53 92 54 46 55 97 56 91 57 93 58 47 59
REMARK SMILES IDX 96 60 90 61 89 62 48 64 78 65 59 66 77 67 60 68 63 69 76 70
REMARK SMILES IDX 94 71 61 72 62 73 75 75 95 76 64 77 49 78 50 79 58 80 51 81
REMARK SMILES IDX 57 82 52 83 53 84 54 85 55 86 56 87 79 88 80 89 88 90 81 91
REMARK SMILES IDX 87 92 82 93 83 94 84 95 85 96 86 97 65 98 66 99 74 100
REMARK SMILES IDX 67 101 73 102 68 103 69 104 70 105 71 106 72 107
REMARK H PARENT 6 13 17 18 21 23 25 27 25 28 25 29 93 63 63 74
REMARK Flexibility Score: inf
ROOT
ATOM      1  C   UNL     1       5.532   5.798  -0.595  1.00  0.00     0.202 C 
ENDROOT
BRANCH   1   2
ATOM      2  C   UNL     1       5.363   4.956  -1.872  1.00  0.00     0.261 C 
BRANCH   2   3
ATOM      3  O   UNL     1       4.201   4.119  -1.739  1.00  0.00    -0.462 OA
BRANCH   3   4
ATOM      4  C   UNL     1       4.154   2.949  -2.410  1.00  0.00     0.328 C 
ATOM      5  O   UNL     1       4.971   2.634  -3.266  1.00  0.00    -0.250 OA
BRANCH   4   6
ATOM      6  C   UNL     1       3.053   2.020  -1.793  1.00  0.00     0.192 C 
BRANCH   6   7
ATOM      7  C   UNL     1       3.438   0.588  -2.169  1.00  0.00     0.040 C 
BRANCH   7   8
ATOM      8  C   UNL     1       4.677   0.115  -1.377  1.00  0.00    -0.015 C 
ATOM      9  C   UNL     1       4.371  -0.252   0.071  1.00  0.00     0.007 C 
ATOM     10  C   UNL     1       5.326  -1.057  -2.097  1.00  0.00     0.007 C 
ENDBRANCH   7   8
ENDBRANCH   6   7
BRANCH   6  11
ATOM     11  N   UNL     1       1.647   2.320  -2.096  1.00  0.00    -0.341 N 
ATOM     12  C   UNL     1       0.506   1.869  -1.474  1.00  0.00     0.243 C 
ATOM     13  H   UNL     1       1.501   2.932  -2.854  1.00  0.00     0.164 HD
ATOM     14  O   UNL     1      -0.558   2.409  -1.798  1.00  0.00    -0.273 OA
BRANCH  12  15
ATOM     15  C   UNL     1       0.513   0.699  -0.432  1.00  0.00     0.175 C 
BRANCH  15  16
ATOM     16  N   UNL     1      -0.324   1.083   0.726  1.00  0.00    -0.342 N 
ATOM     17  C   UNL     1      -0.119   1.404   2.024  1.00  0.00     0.240 C 
ATOM     18  H   UNL     1      -1.279   1.114   0.490  1.00  0.00     0.164 HD
ATOM     19  O   UNL     1      -1.145   1.618   2.682  1.00  0.00    -0.273 OA
BRANCH  17  20
ATOM     20  C   UNL     1       1.248   1.685   2.664  1.00  0.00     0.216 C 
BRANCH  20  21
ATOM     21  N   UNL     1       2.250   0.646   2.811  1.00  0.00    -0.342 N 
ATOM     22  C   UNL     1       3.586   0.795   3.074  1.00  0.00     0.275 C 
ATOM     23  H   UNL     1       1.930  -0.280   2.709  1.00  0.00     0.164 HD
ATOM     24  O   UNL     1       4.186  -0.154   3.586  1.00  0.00    -0.268 OA
BRANCH  22  25
ATOM     25  C   UNL     1       4.366   2.075   2.750  1.00  0.00     0.360 C 
BRANCH  25  26
ATOM     26  N   UNL     1       3.893   2.758   1.545  1.00  0.00    -0.350 N 
ATOM     27  H   UNL     1       4.014   2.147   0.738  1.00  0.00     0.344 HD
ATOM     28  H   UNL     1       4.431   3.614   1.407  1.00  0.00     0.344 HD
ATOM     29  H   UNL     1       2.906   2.990   1.651  1.00  0.00     0.344 HD
ENDBRANCH  25  26
ENDBRANCH  22  25
ENDBRANCH  20  21
ENDBRANCH  17  20
ENDBRANCH  15  16
BRANCH  15  30
ATOM     30  C   UNL     1      -0.177  -0.551  -1.096  1.00  0.00     0.070 C 
BRANCH  30  31
ATOM     31  C   UNL     1       0.645  -1.796  -1.359  1.00  0.00    -0.045 A 
ATOM     32  C   UNL     1       0.320  -2.640  -2.435  1.00  0.00     0.004 A 
ATOM     33  C   UNL     1       1.691  -2.185  -0.521  1.00  0.00     0.004 A 
ATOM     34  C   UNL     1       1.101  -3.763  -2.732  1.00  0.00     0.000 A 
ATOM     35  C   UNL     1       2.499  -3.280  -0.841  1.00  0.00     0.000 A 
ATOM     36  C   UNL     1       2.218  -4.057  -1.958  1.00  0.00     0.000 A 
ENDBRANCH  30  31
ENDBRANCH  15  30
ENDBRANCH  12  15
ENDBRANCH   6  11
ENDBRANCH   4   6
ENDBRANCH   3   4
ENDBRANCH   2   3
ENDBRANCH   1   2
BRANCH   1  37
ATOM     37  O   UNL     1       4.383   6.535  -0.176  1.00  0.00    -0.376 OA
BRANCH  37  38
ATOM     38  C   UNL     1       3.229   5.757   0.113  1.00  0.00     0.188 C 
BRANCH  38  39
ATOM     39  C   UNL     1       2.099   5.806  -0.935  1.00  0.00     0.188 C 
BRANCH  39  40
ATOM     40  O   UNL     1       2.262   6.564  -2.120  1.00  0.00    -0.376 OA
BRANCH  40  41
ATOM     41  C   UNL     1       2.841   7.855  -2.013  1.00  0.00     0.202 C 
BRANCH  41  42
ATOM     42  C   UNL     1       2.354   8.860  -0.945  1.00  0.00     0.261 C 
BRANCH  42  43
ATOM     43  O   UNL     1       1.993   8.332   0.347  1.00  0.00    -0.460 OA
BRANCH  43  44
ATOM     44  C   UNL     1       0.666   8.196   0.571  1.00  0.00     0.338 C 
ATOM     45  O   UNL     1      -0.239   8.499  -0.209  1.00  0.00    -0.246 OA
BRANCH  44  46
ATOM     46  C   UNL     1       0.408   7.446   1.819  1.00  0.00     0.060 A 
ATOM     47  C   UNL     1      -0.305   6.238   1.744  1.00  0.00     0.016 A 
ATOM     48  C   UNL     1       0.750   7.979   3.063  1.00  0.00     0.016 A 
ATOM     49  C   UNL     1      -0.735   5.595   2.903  1.00  0.00     0.010 A 
ATOM     50  C   UNL     1       0.288   7.350   4.228  1.00  0.00     0.010 A 
ATOM     51  C   UNL     1      -0.504   6.188   4.149  1.00  0.00    -0.014 A 
BRANCH  51  52
ATOM     52  C   UNL     1      -1.306   5.742   5.318  1.00  0.00     0.031 A 
ATOM     53  C   UNL     1      -2.561   6.507   5.656  1.00  0.00     0.074 A 
ATOM     54  C   UNL     1      -0.971   4.655   6.034  1.00  0.00     0.049 A 
ATOM     55  N   UNL     1      -3.415   6.317   6.628  1.00  0.00    -0.248 NA
ATOM     56  C   UNL     1      -2.888   7.648   4.784  1.00  0.00     0.031 C 
ATOM     57  C   UNL     1       0.182   3.798   5.775  1.00  0.00     0.029 A 
ATOM     58  N   UNL     1      -1.580   4.079   7.121  1.00  0.00    -0.354 N 
ATOM     59  C   UNL     1      -4.364   7.325   6.500  1.00  0.00     0.074 A 
ATOM     60  C   UNL     1      -3.968   8.138   5.372  1.00  0.00     0.031 C 
ATOM     61  C   UNL     1       0.183   2.786   6.660  1.00  0.00     0.029 A 
ATOM     62  C   UNL     1      -0.940   2.953   7.582  1.00  0.00     0.049 A 
ATOM     63  H   UNL     1      -2.399   4.439   7.532  1.00  0.00     0.167 HD
ATOM     64  C   UNL     1      -5.466   7.555   7.253  1.00  0.00     0.031 A 
ATOM     65  C   UNL     1      -1.220   2.159   8.635  1.00  0.00     0.031 A 
ATOM     66  C   UNL     1      -5.856   6.747   8.378  1.00  0.00     0.049 A 
ATOM     67  C   UNL     1      -2.415   2.474   9.499  1.00  0.00     0.074 A 
ATOM     68  C   UNL     1      -6.963   6.888   9.196  1.00  0.00     0.029 A 
ATOM     69  N   UNL     1      -5.150   5.649   8.847  1.00  0.00    -0.354 N 
ATOM     70  N   UNL     1      -3.307   3.428   9.363  1.00  0.00    -0.248 NA
ATOM     71  C   UNL     1      -2.641   1.603  10.661  1.00  0.00     0.031 C 
ATOM     72  C   UNL     1      -6.889   5.919  10.202  1.00  0.00     0.029 A 
ATOM     73  C   UNL     1      -5.778   5.125   9.964  1.00  0.00     0.049 A 
ATOM     74  H   UNL     1      -4.324   5.295   8.445  1.00  0.00     0.167 HD
ATOM     75  C   UNL     1      -4.218   3.247  10.400  1.00  0.00     0.074 A 
ATOM     76  C   UNL     1      -3.775   2.088  11.147  1.00  0.00     0.031 C 
ATOM     77  C   UNL     1      -5.325   3.972  10.703  1.00  0.00     0.031 A 
BRANCH  64  78
ATOM     78  C   UNL     1      -6.295   8.770   6.918  1.00  0.00    -0.014 A 
ATOM     79  C   UNL     1      -7.054   8.845   5.736  1.00  0.00     0.010 A 
ATOM     80  C   UNL     1      -6.322   9.852   7.817  1.00  0.00     0.010 A 
ATOM     81  C   UNL     1      -7.786   9.999   5.438  1.00  0.00     0.020 A 
ATOM     82  C   UNL     1      -7.079  10.993   7.538  1.00  0.00     0.020 A 
ATOM     83  C   UNL     1      -7.790  11.068   6.340  1.00  0.00     0.054 A 
BRANCH  83  84
ATOM     84  S   UNL     1      -8.753  12.550   5.933  1.00  0.00     0.124 S 
ATOM     85  O   UNL     1      -7.960  13.138   4.856  1.00  0.00    -0.237 OA
ATOM     86  O   UNL     1     -10.042  11.993   5.531  1.00  0.00    -0.237 OA
ATOM     87  O   UNL     1      -8.767  13.309   7.181  1.00  0.00    -0.744 OA
ENDBRANCH  83  84
ENDBRANCH  64  78
BRANCH  65  88
ATOM     88  C   UNL     1      -0.348   0.990   8.945  1.00  0.00    -0.014 A 
ATOM     89  C   UNL     1      -0.838  -0.323   8.818  1.00  0.00     0.010 A 
ATOM     90  C   UNL     1       0.975   1.183   9.382  1.00  0.00     0.010 A 
ATOM     91  C   UNL     1      -0.028  -1.417   9.140  1.00  0.00     0.020 A 
ATOM     92  C   UNL     1       1.798   0.092   9.673  1.00  0.00     0.020 A 
ATOM     93  C   UNL     1       1.287  -1.202   9.562  1.00  0.00     0.054 A 
BRANCH  93  94
ATOM     94  S   UNL     1       2.333  -2.638   9.930  1.00  0.00     0.124 S 
ATOM     95  O   UNL     1       1.751  -3.127  11.176  1.00  0.00    -0.237 OA
ATOM     96  O   UNL     1       2.127  -3.486   8.759  1.00  0.00    -0.237 OA
ATOM     97  O   UNL     1       3.672  -2.065  10.049  1.00  0.00    -0.744 OA
ENDBRANCH  93  94
ENDBRANCH  65  88
BRANCH  77  98
ATOM     98  C   UNL     1      -6.165   3.507  11.866  1.00  0.00    -0.014 A 
ATOM     99  C   UNL     1      -5.712   3.612  13.193  1.00  0.00     0.010 A 
ATOM    100  C   UNL     1      -7.453   2.992  11.624  1.00  0.00     0.010 A 
ATOM    101  C   UNL     1      -6.512   3.168  14.251  1.00  0.00     0.020 A 
ATOM    102  C   UNL     1      -8.269   2.579  12.681  1.00  0.00     0.020 A 
ATOM    103  C   UNL     1      -7.785   2.652  13.988  1.00  0.00     0.054 A 
BRANCH 103 104
ATOM    104  S   UNL     1      -8.812   2.105  15.379  1.00  0.00     0.124 S 
ATOM    105  O   UNL     1      -8.148   0.868  15.780  1.00  0.00    -0.237 OA
ATOM    106  O   UNL     1      -8.693   3.215  16.321  1.00  0.00    -0.237 OA
ATOM    107  O   UNL     1     -10.137   1.937  14.787  1.00  0.00    -0.744 OA
ENDBRANCH 103 104
ENDBRANCH  77  98
ENDBRANCH  51  52
ENDBRANCH  44  46
ENDBRANCH  43  44
ENDBRANCH  42  43
ENDBRANCH  41  42
ENDBRANCH  40  41
ENDBRANCH  39  40
ENDBRANCH  38  39
ENDBRANCH  37  38
ENDBRANCH   1  37
TORSDOF 31
