REMARK SMILES NC(=O)c1ccsc1NS(=O)(=O)c1ccc(C(=O)OCCOCCOCCOC(=O)c2ccc(-c3c4nc(c(-c5ccc(S(=O)(=O)[O-])cc5)c5ccc([nH]5)c(-c5ccc(S(=O)(=O)[O-])cc5)c5nc(c(-c6ccc(S(=O)(=O)[O-])cc6)c6ccc3[nH]6)C=C5)C=C4)cc2)cc1
REMARK SMILES IDX 23 1 22 2 21 3 20 4 19 5 17 6 18 7 16 8 13 9 14 10 92 11
REMARK SMILES IDX 15 12 91 13 10 14 11 15 12 16 9 17 8 19 4 20 5 21 6 22 7 23
REMARK SMILES IDX 2 24 1 25 3 28 24 29 25 30 26 31 27 32 28 33 29 34 30 35
REMARK SMILES IDX 31 36 32 37 90 38 33 39 89 40 34 41 35 42 36 43 83 44 37 45
REMARK SMILES IDX 88 46 82 47 84 48 38 49 87 50 81 51 80 52 39 54 69 55 50 56
REMARK SMILES IDX 68 57 51 58 54 59 67 60 85 61 52 62 53 63 66 65 86 66 55 67
REMARK SMILES IDX 40 68 41 69 49 70 42 71 48 72 43 73 44 74 45 75 46 76 47 77
REMARK SMILES IDX 70 78 71 79 79 80 72 81 78 82 73 83 74 84 75 85 76 86 77 87
REMARK SMILES IDX 56 88 57 89 65 90 58 91 64 92 59 93 60 94 61 95 62 96 63 97
REMARK H PARENT 9 18 1 26 1 27 84 53 54 64
REMARK Flexibility Score: inf
ROOT
ATOM      1  C   UNL     1       3.619  -9.208   6.628  1.00  0.00     0.188 C 
ENDROOT
BRANCH   1   2
ATOM      2  O   UNL     1       4.851  -9.440   7.277  1.00  0.00    -0.376 OA
BRANCH   2   3
ATOM      3  C   UNL     1       6.003  -8.674   6.963  1.00  0.00     0.202 C 
BRANCH   3   4
ATOM      4  C   UNL     1       6.225  -7.962   5.624  1.00  0.00     0.261 C 
BRANCH   4   5
ATOM      5  O   UNL     1       5.059  -7.366   5.046  1.00  0.00    -0.460 OA
BRANCH   5   6
ATOM      6  C   UNL     1       4.757  -7.820   3.804  1.00  0.00     0.338 C 
ATOM      7  O   UNL     1       5.427  -8.591   3.136  1.00  0.00    -0.246 OA
BRANCH   6   8
ATOM      8  C   UNL     1       3.425  -7.341   3.359  1.00  0.00     0.060 A 
ATOM      9  C   UNL     1       1.073  -6.395   2.212  1.00  0.00     0.087 A 
ATOM     10  C   UNL     1       1.612  -7.616   1.790  1.00  0.00     0.023 A 
ATOM     11  C   UNL     1       1.602  -5.732   3.321  1.00  0.00     0.023 A 
ATOM     12  C   UNL     1       2.778  -8.096   2.376  1.00  0.00     0.017 A 
ATOM     13  C   UNL     1       2.817  -6.178   3.858  1.00  0.00     0.017 A 
BRANCH   9  14
ATOM     14  S   UNL     1      -0.092  -5.621   1.111  1.00  0.00     0.262 S 
ATOM     15  O   UNL     1      -1.401  -5.901   1.660  1.00  0.00    -0.201 OA
ATOM     16  O   UNL     1       0.255  -6.028  -0.237  1.00  0.00    -0.201 OA
BRANCH  14  17
ATOM     17  N   UNL     1       0.086  -3.967   1.173  1.00  0.00    -0.270 N 
ATOM     18  H   UNL     1      -0.747  -3.443   1.153  1.00  0.00     0.181 HD
BRANCH  17  19
ATOM     19  C   UNL     1       1.291  -3.218   1.250  1.00  0.00     0.115 A 
ATOM     20  C   UNL     1       1.278  -1.832   1.315  1.00  0.00     0.074 A 
ATOM     21  C   UNL     1       2.504  -1.351   1.895  1.00  0.00     0.028 A 
ATOM     22  C   UNL     1       3.447  -2.346   2.012  1.00  0.00     0.068 A 
ATOM     23  S   UNL     1       2.904  -3.774   1.241  1.00  0.00    -0.125 S 
BRANCH  20  24
ATOM     24  C   UNL     1       0.145  -1.017   0.908  1.00  0.00     0.251 C 
ATOM     25  N   UNL     1       0.497   0.163   0.314  1.00  0.00    -0.366 N 
ATOM     26  H   UNL     1      -0.200   0.784   0.003  1.00  0.00     0.159 HD
ATOM     27  H   UNL     1       1.448   0.391   0.197  1.00  0.00     0.159 HD
ATOM     28  O   UNL     1      -1.022  -1.372   1.000  1.00  0.00    -0.269 OA
ENDBRANCH  20  24
ENDBRANCH  17  19
ENDBRANCH  14  17
ENDBRANCH   9  14
ENDBRANCH   6   8
ENDBRANCH   5   6
ENDBRANCH   4   5
ENDBRANCH   3   4
ENDBRANCH   2   3
ENDBRANCH   1   2
BRANCH   1  29
ATOM     29  C   UNL     1       2.839  -7.911   6.918  1.00  0.00     0.188 C 
BRANCH  29  30
ATOM     30  O   UNL     1       3.386  -6.888   7.726  1.00  0.00    -0.376 OA
BRANCH  30  31
ATOM     31  C   UNL     1       3.740  -7.196   9.066  1.00  0.00     0.202 C 
BRANCH  31  32
ATOM     32  C   UNL     1       2.809  -7.997   9.987  1.00  0.00     0.261 C 
BRANCH  32  33
ATOM     33  O   UNL     1       2.248  -9.186   9.414  1.00  0.00    -0.460 OA
BRANCH  33  34
ATOM     34  C   UNL     1       0.905  -9.142   9.212  1.00  0.00     0.338 C 
ATOM     35  O   UNL     1       0.151  -8.221   9.474  1.00  0.00    -0.246 OA
BRANCH  34  36
ATOM     36  C   UNL     1       0.491 -10.318   8.425  1.00  0.00     0.060 A 
ATOM     37  C   UNL     1      -0.100 -10.113   7.169  1.00  0.00     0.016 A 
ATOM     38  C   UNL     1       0.631 -11.604   8.944  1.00  0.00     0.016 A 
ATOM     39  C   UNL     1      -0.582 -11.197   6.438  1.00  0.00     0.010 A 
ATOM     40  C   UNL     1       0.121 -12.686   8.224  1.00  0.00     0.010 A 
ATOM     41  C   UNL     1      -0.516 -12.483   6.986  1.00  0.00    -0.014 A 
BRANCH  41  42
ATOM     42  C   UNL     1      -1.297 -13.588   6.384  1.00  0.00     0.031 A 
ATOM     43  C   UNL     1      -2.662 -13.877   6.947  1.00  0.00     0.074 A 
ATOM     44  C   UNL     1      -0.804 -14.333   5.380  1.00  0.00     0.049 A 
ATOM     45  N   UNL     1      -3.482 -14.857   6.675  1.00  0.00    -0.248 NA
ATOM     46  C   UNL     1      -3.164 -12.932   7.960  1.00  0.00     0.031 C 
ATOM     47  C   UNL     1       0.477 -14.116   4.712  1.00  0.00     0.029 A 
ATOM     48  N   UNL     1      -1.327 -15.440   4.759  1.00  0.00    -0.354 N 
ATOM     49  C   UNL     1      -4.588 -14.659   7.492  1.00  0.00     0.074 A 
ATOM     50  C   UNL     1      -4.327 -13.477   8.284  1.00  0.00     0.031 C 
ATOM     51  C   UNL     1       0.651 -15.075   3.784  1.00  0.00     0.029 A 
ATOM     52  C   UNL     1      -0.487 -15.993   3.822  1.00  0.00     0.049 A 
ATOM     53  H   UNL     1      -2.218 -15.804   4.966  1.00  0.00     0.167 HD
ATOM     54  C   UNL     1      -5.720 -15.396   7.579  1.00  0.00     0.031 A 
ATOM     55  C   UNL     1      -0.611 -17.126   3.103  1.00  0.00     0.031 A 
ATOM     56  C   UNL     1      -5.966 -16.584   6.806  1.00  0.00     0.049 A 
ATOM     57  C   UNL     1      -1.843 -17.980   3.275  1.00  0.00     0.074 A 
ATOM     58  C   UNL     1      -7.079 -17.404   6.820  1.00  0.00     0.029 A 
ATOM     59  N   UNL     1      -5.080 -17.124   5.886  1.00  0.00    -0.354 N 
ATOM     60  N   UNL     1      -2.884 -17.781   4.049  1.00  0.00    -0.248 NA
ATOM     61  C   UNL     1      -1.917 -19.210   2.474  1.00  0.00     0.031 C 
ATOM     62  C   UNL     1      -6.844 -18.471   5.947  1.00  0.00     0.029 A 
ATOM     63  C   UNL     1      -5.612 -18.279   5.341  1.00  0.00     0.049 A 
ATOM     64  H   UNL     1      -4.203 -16.741   5.654  1.00  0.00     0.167 HD
ATOM     65  C   UNL     1      -3.752 -18.841   3.800  1.00  0.00     0.074 A 
ATOM     66  C   UNL     1      -3.115 -19.676   2.802  1.00  0.00     0.031 C 
ATOM     67  C   UNL     1      -4.969 -19.095   4.341  1.00  0.00     0.031 A 
BRANCH  54  68
ATOM     68  C   UNL     1      -6.753 -14.958   8.582  1.00  0.00    -0.014 A 
ATOM     69  C   UNL     1      -7.515 -13.792   8.384  1.00  0.00     0.010 A 
ATOM     70  C   UNL     1      -6.973 -15.733   9.735  1.00  0.00     0.010 A 
ATOM     71  C   UNL     1      -8.444 -13.385   9.345  1.00  0.00     0.020 A 
ATOM     72  C   UNL     1      -7.922 -15.344  10.684  1.00  0.00     0.020 A 
ATOM     73  C   UNL     1      -8.638 -14.161  10.492  1.00  0.00     0.054 A 
BRANCH  73  74
ATOM     74  S   UNL     1      -9.855 -13.614  11.719  1.00  0.00     0.124 S 
ATOM     75  O   UNL     1      -9.170 -12.483  12.340  1.00  0.00    -0.237 OA
ATOM     76  O   UNL     1     -11.011 -13.271  10.895  1.00  0.00    -0.237 OA
ATOM     77  O   UNL     1     -10.031 -14.782  12.579  1.00  0.00    -0.744 OA
ENDBRANCH  73  74
ENDBRANCH  54  68
BRANCH  55  78
ATOM     78  C   UNL     1       0.471 -17.535   2.165  1.00  0.00    -0.014 A 
ATOM     79  C   UNL     1       0.265 -17.496   0.775  1.00  0.00     0.010 A 
ATOM     80  C   UNL     1       1.716 -17.966   2.660  1.00  0.00     0.010 A 
ATOM     81  C   UNL     1       1.279 -17.894  -0.103  1.00  0.00     0.020 A 
ATOM     82  C   UNL     1       2.740 -18.340   1.785  1.00  0.00     0.020 A 
ATOM     83  C   UNL     1       2.511 -18.311   0.408  1.00  0.00     0.054 A 
BRANCH  83  84
ATOM     84  S   UNL     1       3.829 -18.773  -0.751  1.00  0.00     0.124 S 
ATOM     85  O   UNL     1       3.360 -20.063  -1.247  1.00  0.00    -0.237 OA
ATOM     86  O   UNL     1       3.799 -17.675  -1.715  1.00  0.00    -0.237 OA
ATOM     87  O   UNL     1       5.023 -18.821   0.089  1.00  0.00    -0.744 OA
ENDBRANCH  83  84
ENDBRANCH  55  78
BRANCH  67  88
ATOM     88  C   UNL     1      -5.726 -20.295   3.835  1.00  0.00    -0.014 A 
ATOM     89  C   UNL     1      -5.350 -21.603   4.185  1.00  0.00     0.010 A 
ATOM     90  C   UNL     1      -6.884 -20.099   3.058  1.00  0.00     0.010 A 
ATOM     91  C   UNL     1      -6.106 -22.695   3.748  1.00  0.00     0.020 A 
ATOM     92  C   UNL     1      -7.657 -21.186   2.642  1.00  0.00     0.020 A 
ATOM     93  C   UNL     1      -7.256 -22.479   2.981  1.00  0.00     0.054 A 
BRANCH  93  94
ATOM     94  S   UNL     1      -8.252 -23.909   2.476  1.00  0.00     0.124 S 
ATOM     95  O   UNL     1      -7.426 -24.501   1.428  1.00  0.00    -0.237 OA
ATOM     96  O   UNL     1      -8.351 -24.684   3.711  1.00  0.00    -0.237 OA
ATOM     97  O   UNL     1      -9.507 -23.314   2.020  1.00  0.00    -0.744 OA
ENDBRANCH  93  94
ENDBRANCH  67  88
ENDBRANCH  41  42
ENDBRANCH  34  36
ENDBRANCH  33  34
ENDBRANCH  32  33
ENDBRANCH  31  32
ENDBRANCH  30  31
ENDBRANCH  29  30
ENDBRANCH   1  29
TORSDOF 24
