REMARK SMILES Cc1nc2sc3c(c2c2nc(CCC(=O)OCCOCCOCCOC(=O)c4ccc(-c5c6nc(c(-c7ccc(S(=O)(=O)[O-])cc7)c7ccc([nH]7)c(-c7ccc(S(=O)(=O)[O-])cc7)c7nc(c(-c8ccc(S(=O)(=O)[O-])cc8)c8ccc5[nH]8)C=C7)C=C6)cc4)nn12)[C@@H](C)CCC3
REMARK SMILES IDX 21 1 20 2 19 3 18 4 17 5 16 6 14 7 15 8 13 9 12 10 11 11
REMARK SMILES IDX 1 12 2 13 3 14 89 15 4 16 9 17 88 18 5 19 8 20 10 21 6 22
REMARK SMILES IDX 7 23 94 24 90 25 93 26 91 27 92 28 22 29 23 30 24 31 25 32
REMARK SMILES IDX 26 33 27 34 28 35 29 36 87 37 30 38 86 39 31 40 32 41 33 42
REMARK SMILES IDX 80 43 34 44 85 45 79 46 81 47 35 48 84 49 78 50 77 51 36 53
REMARK SMILES IDX 66 54 47 55 65 56 48 57 51 58 64 59 82 60 49 61 50 62 63 64
REMARK SMILES IDX 83 65 52 66 37 67 38 68 46 69 39 70 45 71 40 72 41 73 42 74
REMARK SMILES IDX 43 75 44 76 67 77 68 78 76 79 69 80 75 81 70 82 71 83 72 84
REMARK SMILES IDX 73 85 74 86 53 87 54 88 62 89 55 90 61 91 56 92 57 93 58 94
REMARK SMILES IDX 59 95 60 96
REMARK H PARENT 81 52 51 63
REMARK Flexibility Score: inf
ROOT
ATOM      1  C   UNL     1       2.103   6.758   4.328  1.00  0.00     0.188 C 
ENDROOT
BRANCH   1   2
ATOM      2  C   UNL     1       0.708   7.209   3.962  1.00  0.00     0.188 C 
BRANCH   2   3
ATOM      3  O   UNL     1      -0.056   7.673   5.069  1.00  0.00    -0.376 OA
BRANCH   3   4
ATOM      4  C   UNL     1      -1.206   6.881   5.360  1.00  0.00     0.202 C 
BRANCH   4   5
ATOM      5  C   UNL     1      -2.246   6.737   4.223  1.00  0.00     0.261 C 
BRANCH   5   6
ATOM      6  O   UNL     1      -1.775   5.954   3.087  1.00  0.00    -0.463 OA
BRANCH   6   7
ATOM      7  C   UNL     1      -1.551   6.632   1.932  1.00  0.00     0.306 C 
ATOM      8  O   UNL     1      -1.917   7.789   1.746  1.00  0.00    -0.252 OA
BRANCH   7   9
ATOM      9  C   UNL     1      -0.841   5.848   0.837  1.00  0.00     0.131 C 
BRANCH   9  10
ATOM     10  C   UNL     1       0.444   5.067   1.119  1.00  0.00     0.091 C 
BRANCH  10  11
ATOM     11  C   UNL     1       0.261   3.668   1.599  1.00  0.00     0.152 A 
ATOM     12  C   UNL     1       0.836  -0.148   0.058  1.00  0.00     0.090 C 
ATOM     13  C   UNL     1       0.387   0.210   1.440  1.00  0.00     0.131 A 
ATOM     14  N   UNL     1       0.117  -0.700   2.345  1.00  0.00    -0.222 NA
ATOM     15  N   UNL     1       0.301   1.584   1.700  1.00  0.00    -0.199 N 
ATOM     16  C   UNL     1      -0.271  -0.227   3.577  1.00  0.00     0.129 A 
ATOM     17  C   UNL     1      -0.067   2.071   2.923  1.00  0.00     0.168 A 
ATOM     18  N   UNL     1       0.495   2.594   0.821  1.00  0.00    -0.150 NA
ATOM     19  S   UNL     1      -0.705  -1.284   4.850  1.00  0.00    -0.120 S 
ATOM     20  C   UNL     1      -0.394   1.094   3.986  1.00  0.00     0.060 A 
ATOM     21  N   UNL     1      -0.089   3.379   2.892  1.00  0.00    -0.211 NA
ATOM     22  C   UNL     1      -1.039   0.013   5.908  1.00  0.00     0.011 A 
ATOM     23  C   UNL     1      -0.840   1.256   5.330  1.00  0.00    -0.018 A 
ATOM     24  C   UNL     1      -1.539  -0.213   7.304  1.00  0.00     0.047 C 
ATOM     25  C   UNL     1      -1.077   2.526   6.107  1.00  0.00     0.018 C 
ATOM     26  C   UNL     1      -1.298   1.033   8.165  1.00  0.00     0.006 C 
ATOM     27  C   UNL     1      -1.881   3.547   5.321  1.00  0.00     0.013 C 
ATOM     28  C   UNL     1      -1.797   2.287   7.450  1.00  0.00     0.008 C 
ENDBRANCH  10  11
ENDBRANCH   9  10
ENDBRANCH   7   9
ENDBRANCH   6   7
ENDBRANCH   5   6
ENDBRANCH   4   5
ENDBRANCH   3   4
ENDBRANCH   2   3
ENDBRANCH   1   2
BRANCH   1  29
ATOM     29  O   UNL     1       2.249   5.329   4.217  1.00  0.00    -0.376 OA
BRANCH  29  30
ATOM     30  C   UNL     1       1.829   4.558   5.342  1.00  0.00     0.202 C 
BRANCH  30  31
ATOM     31  C   UNL     1       2.879   4.324   6.428  1.00  0.00     0.261 C 
BRANCH  31  32
ATOM     32  O   UNL     1       3.587   5.515   6.685  1.00  0.00    -0.460 OA
BRANCH  32  33
ATOM     33  C   UNL     1       4.518   5.787   5.743  1.00  0.00     0.338 C 
ATOM     34  O   UNL     1       4.973   5.030   4.897  1.00  0.00    -0.246 OA
BRANCH  33  35
ATOM     35  C   UNL     1       4.884   7.195   5.887  1.00  0.00     0.060 A 
ATOM     36  C   UNL     1       5.818   7.700   4.985  1.00  0.00     0.016 A 
ATOM     37  C   UNL     1       4.464   7.902   7.026  1.00  0.00     0.016 A 
ATOM     38  C   UNL     1       6.607   8.726   5.423  1.00  0.00     0.010 A 
ATOM     39  C   UNL     1       5.259   8.912   7.471  1.00  0.00     0.010 A 
ATOM     40  C   UNL     1       6.396   9.188   6.724  1.00  0.00    -0.014 A 
BRANCH  40  41
ATOM     41  C   UNL     1       7.444   9.943   7.349  1.00  0.00     0.031 A 
ATOM     42  C   UNL     1       7.418  11.349   6.931  1.00  0.00     0.074 A 
ATOM     43  C   UNL     1       8.252   9.356   8.252  1.00  0.00     0.049 A 
ATOM     44  N   UNL     1       8.225  11.928   6.110  1.00  0.00    -0.248 NA
ATOM     45  C   UNL     1       6.210  12.130   7.256  1.00  0.00     0.031 C 
ATOM     46  C   UNL     1       8.121   8.032   8.876  1.00  0.00     0.029 A 
ATOM     47  N   UNL     1       9.317   9.881   8.900  1.00  0.00    -0.354 N 
ATOM     48  C   UNL     1       7.762  13.231   6.027  1.00  0.00     0.074 A 
ATOM     49  C   UNL     1       6.407  13.220   6.516  1.00  0.00     0.031 C 
ATOM     50  C   UNL     1       8.898   7.985   9.985  1.00  0.00     0.029 A 
ATOM     51  C   UNL     1       9.674   9.212  10.064  1.00  0.00     0.049 A 
ATOM     52  H   UNL     1       9.800  10.674   8.573  1.00  0.00     0.167 HD
ATOM     53  C   UNL     1       8.626  14.271   5.900  1.00  0.00     0.031 A 
ATOM     54  C   UNL     1      10.471   9.706  11.047  1.00  0.00     0.031 A 
ATOM     55  C   UNL     1       9.935  13.831   5.495  1.00  0.00     0.049 A 
ATOM     56  C   UNL     1      11.221  10.847  10.451  1.00  0.00     0.074 A 
ATOM     57  C   UNL     1      10.429  13.174   4.386  1.00  0.00     0.029 A 
ATOM     58  N   UNL     1      10.868  13.667   6.494  1.00  0.00    -0.354 N 
ATOM     59  N   UNL     1      12.102  10.709   9.498  1.00  0.00    -0.248 NA
ATOM     60  C   UNL     1      10.637  12.176  10.567  1.00  0.00     0.031 C 
ATOM     61  C   UNL     1      11.425  12.290   4.889  1.00  0.00     0.029 A 
ATOM     62  C   UNL     1      11.549  12.497   6.265  1.00  0.00     0.049 A 
ATOM     63  H   UNL     1      11.021  14.284   7.245  1.00  0.00     0.167 HD
ATOM     64  C   UNL     1      11.871  11.775   8.638  1.00  0.00     0.074 A 
ATOM     65  C   UNL     1      11.019  12.693   9.394  1.00  0.00     0.031 C 
ATOM     66  C   UNL     1      12.145  11.677   7.303  1.00  0.00     0.031 A 
BRANCH  53  67
ATOM     67  C   UNL     1       8.378  15.592   6.569  1.00  0.00    -0.014 A 
ATOM     68  C   UNL     1       9.192  16.687   6.245  1.00  0.00     0.010 A 
ATOM     69  C   UNL     1       7.523  15.729   7.686  1.00  0.00     0.010 A 
ATOM     70  C   UNL     1       9.160  17.857   7.013  1.00  0.00     0.020 A 
ATOM     71  C   UNL     1       7.446  16.903   8.428  1.00  0.00     0.020 A 
ATOM     72  C   UNL     1       8.285  17.955   8.099  1.00  0.00     0.054 A 
BRANCH  72  73
ATOM     73  S   UNL     1       8.293  19.449   9.116  1.00  0.00     0.124 S 
ATOM     74  O   UNL     1       9.634  19.415   9.690  1.00  0.00    -0.237 OA
ATOM     75  O   UNL     1       8.051  20.494   8.125  1.00  0.00    -0.237 OA
ATOM     76  O   UNL     1       7.199  19.227  10.059  1.00  0.00    -0.744 OA
ENDBRANCH  72  73
ENDBRANCH  53  67
BRANCH  54  77
ATOM     77  C   UNL     1      10.313   9.548  12.520  1.00  0.00    -0.014 A 
ATOM     78  C   UNL     1      11.304  10.028  13.400  1.00  0.00     0.010 A 
ATOM     79  C   UNL     1       9.062   9.207  13.075  1.00  0.00     0.010 A 
ATOM     80  C   UNL     1      11.026  10.242  14.763  1.00  0.00     0.020 A 
ATOM     81  C   UNL     1       8.780   9.409  14.433  1.00  0.00     0.020 A 
ATOM     82  C   UNL     1       9.754   9.957  15.265  1.00  0.00     0.054 A 
BRANCH  82  83
ATOM     83  S   UNL     1       9.339  10.429  16.971  1.00  0.00     0.124 S 
ATOM     84  O   UNL     1      10.171   9.524  17.758  1.00  0.00    -0.237 OA
ATOM     85  O   UNL     1       9.725  11.837  17.011  1.00  0.00    -0.237 OA
ATOM     86  O   UNL     1       7.901  10.182  17.058  1.00  0.00    -0.744 OA
ENDBRANCH  82  83
ENDBRANCH  54  77
BRANCH  66  87
ATOM     87  C   UNL     1      12.982  10.507   6.829  1.00  0.00    -0.014 A 
ATOM     88  C   UNL     1      12.591   9.155   6.921  1.00  0.00     0.010 A 
ATOM     89  C   UNL     1      14.156  10.815   6.120  1.00  0.00     0.010 A 
ATOM     90  C   UNL     1      13.370   8.142   6.334  1.00  0.00     0.020 A 
ATOM     91  C   UNL     1      14.924   9.816   5.519  1.00  0.00     0.020 A 
ATOM     92  C   UNL     1      14.534   8.482   5.636  1.00  0.00     0.054 A 
BRANCH  92  93
ATOM     93  S   UNL     1      15.527   7.180   4.850  1.00  0.00     0.124 S 
ATOM     94  O   UNL     1      16.023   6.423   5.995  1.00  0.00    -0.237 OA
ATOM     95  O   UNL     1      14.550   6.488   4.013  1.00  0.00    -0.237 OA
ATOM     96  O   UNL     1      16.549   7.920   4.110  1.00  0.00    -0.744 OA
ENDBRANCH  92  93
ENDBRANCH  66  87
ENDBRANCH  40  41
ENDBRANCH  33  35
ENDBRANCH  32  33
ENDBRANCH  31  32
ENDBRANCH  30  31
ENDBRANCH  29  30
ENDBRANCH   1  29
TORSDOF 22
