REMARK SMILES O=C(OCCOCCOCCOC(=O)[C@@H]1[C@H](C(=O)NCc2ccccc2Cl)[C@@H]2C=C[C@H]1C2)c1ccc(-c2c3nc(c(-c4ccc(S(=O)(=O)[O-])cc4)c4ccc([nH]4)c(-c4ccc(S(=O)(=O)[O-])cc4)c4nc(c(-c5ccc(S(=O)(=O)[O-])cc5)c5ccc2[nH]5)C=C4)C=C3)cc1
REMARK SMILES IDX 7 1 6 2 5 3 4 4 3 5 2 6 1 7 33 8 34 9 92 10 35 11 91 12
REMARK SMILES IDX 36 13 37 14 38 15 85 16 39 17 90 18 84 19 86 20 40 21 89 22
REMARK SMILES IDX 83 23 82 24 41 26 71 27 52 28 70 29 53 30 56 31 69 32 87 33
REMARK SMILES IDX 54 34 55 35 68 37 88 38 57 39 42 40 43 41 51 42 44 43 50 44
REMARK SMILES IDX 45 45 46 46 47 47 48 48 49 49 72 50 73 51 81 52 74 53 80 54
REMARK SMILES IDX 75 55 76 56 77 57 78 58 79 59 58 60 59 61 67 62 60 63 66 64
REMARK SMILES IDX 61 65 62 66 63 67 64 68 65 69 8 70 9 71 10 72 11 73 12 74
REMARK SMILES IDX 13 75 14 76 15 77 16 78 31 79 28 80 30 81 32 82 29 83 17 84
REMARK SMILES IDX 18 85 19 86 20 88 21 89 22 90 26 91 23 92 25 93 27 94 24 95
REMARK H PARENT 86 25 56 36 19 87
REMARK Flexibility Score: inf
ROOT
ATOM      1  C   UNL     1       3.098   1.143  -0.297  1.00  0.00     0.188 C 
ENDROOT
BRANCH   1   2
ATOM      2  O   UNL     1       4.475   0.928  -0.066  1.00  0.00    -0.376 OA
BRANCH   2   3
ATOM      3  C   UNL     1       5.178   0.108  -0.987  1.00  0.00     0.202 C 
BRANCH   3   4
ATOM      4  C   UNL     1       4.517  -1.166  -1.550  1.00  0.00     0.261 C 
BRANCH   4   5
ATOM      5  O   UNL     1       3.238  -1.694  -1.082  1.00  0.00    -0.460 OA
BRANCH   5   6
ATOM      6  C   UNL     1       2.583  -2.121   0.015  1.00  0.00     0.338 C 
ATOM      7  O   UNL     1       1.457  -2.597  -0.129  1.00  0.00    -0.246 OA
BRANCH   6   8
ATOM      8  C   UNL     1       3.114  -2.031   1.399  1.00  0.00     0.060 A 
ATOM      9  C   UNL     1       4.296  -1.386   1.701  1.00  0.00     0.016 A 
ATOM     10  C   UNL     1       2.396  -2.613   2.461  1.00  0.00     0.016 A 
ATOM     11  C   UNL     1       4.776  -1.280   2.986  1.00  0.00     0.010 A 
ATOM     12  C   UNL     1       2.901  -2.580   3.770  1.00  0.00     0.010 A 
ATOM     13  C   UNL     1       4.115  -1.932   4.016  1.00  0.00    -0.014 A 
BRANCH  13  14
ATOM     14  C   UNL     1       4.942  -2.147   5.212  1.00  0.00     0.031 A 
ATOM     15  C   UNL     1       5.721  -3.431   5.271  1.00  0.00     0.074 A 
ATOM     16  C   UNL     1       5.225  -1.102   6.010  1.00  0.00     0.049 A 
ATOM     17  N   UNL     1       6.587  -3.833   6.158  1.00  0.00    -0.248 NA
ATOM     18  C   UNL     1       5.536  -4.369   4.145  1.00  0.00     0.031 C 
ATOM     19  C   UNL     1       4.685   0.253   5.849  1.00  0.00     0.029 A 
ATOM     20  N   UNL     1       6.085  -0.994   7.066  1.00  0.00    -0.354 N 
ATOM     21  C   UNL     1       7.035  -5.070   5.707  1.00  0.00     0.074 A 
ATOM     22  C   UNL     1       6.351  -5.359   4.471  1.00  0.00     0.031 C 
ATOM     23  C   UNL     1       5.233   1.056   6.775  1.00  0.00     0.029 A 
ATOM     24  C   UNL     1       6.102   0.258   7.632  1.00  0.00     0.049 A 
ATOM     25  H   UNL     1       6.638  -1.741   7.391  1.00  0.00     0.167 HD
ATOM     26  C   UNL     1       7.934  -5.893   6.290  1.00  0.00     0.031 A 
ATOM     27  C   UNL     1       6.719   0.681   8.751  1.00  0.00     0.031 A 
ATOM     28  C   UNL     1       8.563  -5.580   7.541  1.00  0.00     0.049 A 
ATOM     29  C   UNL     1       7.561  -0.324   9.493  1.00  0.00     0.074 A 
ATOM     30  C   UNL     1       9.374  -6.372   8.328  1.00  0.00     0.029 A 
ATOM     31  N   UNL     1       8.438  -4.355   8.185  1.00  0.00    -0.354 N 
ATOM     32  N   UNL     1       7.877  -1.551   9.140  1.00  0.00    -0.248 NA
ATOM     33  C   UNL     1       8.119   0.097  10.781  1.00  0.00     0.031 C 
ATOM     34  C   UNL     1       9.694  -5.642   9.479  1.00  0.00     0.029 A 
ATOM     35  C   UNL     1       9.142  -4.372   9.372  1.00  0.00     0.049 A 
ATOM     36  H   UNL     1       7.924  -3.588   7.844  1.00  0.00     0.167 HD
ATOM     37  C   UNL     1       8.686  -2.043  10.155  1.00  0.00     0.074 A 
ATOM     38  C   UNL     1       8.832  -0.968  11.120  1.00  0.00     0.031 C 
ATOM     39  C   UNL     1       9.256  -3.267  10.291  1.00  0.00     0.031 A 
BRANCH  26  40
ATOM     40  C   UNL     1       8.179  -7.221   5.629  1.00  0.00    -0.014 A 
ATOM     41  C   UNL     1       8.911  -7.327   4.432  1.00  0.00     0.010 A 
ATOM     42  C   UNL     1       7.624  -8.383   6.196  1.00  0.00     0.010 A 
ATOM     43  C   UNL     1       9.054  -8.566   3.799  1.00  0.00     0.020 A 
ATOM     44  C   UNL     1       7.786  -9.626   5.579  1.00  0.00     0.020 A 
ATOM     45  C   UNL     1       8.488  -9.708   4.375  1.00  0.00     0.054 A 
BRANCH  45  46
ATOM     46  S   UNL     1       8.698 -11.304   3.539  1.00  0.00     0.124 S 
ATOM     47  O   UNL     1       7.842 -11.146   2.366  1.00  0.00    -0.237 OA
ATOM     48  O   UNL     1      10.133 -11.335   3.268  1.00  0.00    -0.237 OA
ATOM     49  O   UNL     1       8.232 -12.277   4.524  1.00  0.00    -0.744 OA
ENDBRANCH  45  46
ENDBRANCH  26  40
BRANCH  27  50
ATOM     50  C   UNL     1       6.469   2.050   9.289  1.00  0.00    -0.014 A 
ATOM     51  C   UNL     1       7.511   2.974   9.478  1.00  0.00     0.010 A 
ATOM     52  C   UNL     1       5.162   2.421   9.666  1.00  0.00     0.010 A 
ATOM     53  C   UNL     1       7.258   4.220  10.066  1.00  0.00     0.020 A 
ATOM     54  C   UNL     1       4.898   3.676  10.220  1.00  0.00     0.020 A 
ATOM     55  C   UNL     1       5.953   4.560  10.438  1.00  0.00     0.054 A 
BRANCH  55  56
ATOM     56  S   UNL     1       5.648   6.173  11.210  1.00  0.00     0.124 S 
ATOM     57  O   UNL     1       6.245   5.996  12.529  1.00  0.00    -0.237 OA
ATOM     58  O   UNL     1       6.350   7.088  10.313  1.00  0.00    -0.237 OA
ATOM     59  O   UNL     1       4.191   6.290  11.192  1.00  0.00    -0.744 OA
ENDBRANCH  55  56
ENDBRANCH  27  50
BRANCH  39  60
ATOM     60  C   UNL     1      10.119  -3.480  11.501  1.00  0.00    -0.014 A 
ATOM     61  C   UNL     1       9.559  -3.604  12.783  1.00  0.00     0.010 A 
ATOM     62  C   UNL     1      11.508  -3.619  11.333  1.00  0.00     0.010 A 
ATOM     63  C   UNL     1      10.382  -3.828  13.886  1.00  0.00     0.020 A 
ATOM     64  C   UNL     1      12.330  -3.878  12.428  1.00  0.00     0.020 A 
ATOM     65  C   UNL     1      11.762  -3.966  13.701  1.00  0.00     0.054 A 
BRANCH  65  66
ATOM     66  S   UNL     1      12.804  -4.303  15.143  1.00  0.00     0.124 S 
ATOM     67  O   UNL     1      12.814  -3.008  15.818  1.00  0.00    -0.237 OA
ATOM     68  O   UNL     1      12.069  -5.364  15.827  1.00  0.00    -0.237 OA
ATOM     69  O   UNL     1      14.080  -4.713  14.560  1.00  0.00    -0.744 OA
ENDBRANCH  65  66
ENDBRANCH  39  60
ENDBRANCH  13  14
ENDBRANCH   6   8
ENDBRANCH   5   6
ENDBRANCH   4   5
ENDBRANCH   3   4
ENDBRANCH   2   3
ENDBRANCH   1   2
BRANCH   1  70
ATOM     70  C   UNL     1       2.720   2.524  -0.797  1.00  0.00     0.188 C 
BRANCH  70  71
ATOM     71  O   UNL     1       3.686   3.259  -1.526  1.00  0.00    -0.376 OA
BRANCH  71  72
ATOM     72  C   UNL     1       4.860   3.650  -0.811  1.00  0.00     0.202 C 
BRANCH  72  73
ATOM     73  C   UNL     1       4.745   4.285   0.592  1.00  0.00     0.261 C 
BRANCH  73  74
ATOM     74  O   UNL     1       3.917   3.576   1.535  1.00  0.00    -0.463 OA
BRANCH  74  75
ATOM     75  C   UNL     1       3.249   4.371   2.432  1.00  0.00     0.310 C 
ATOM     76  O   UNL     1       3.313   5.584   2.456  1.00  0.00    -0.252 OA
BRANCH  75  77
ATOM     77  C   UNL     1       2.507   3.530   3.450  1.00  0.00     0.119 C 
ATOM     78  C   UNL     1       1.116   2.915   3.130  1.00  0.00     0.100 C 
ATOM     79  C   UNL     1       2.236   4.261   4.800  1.00  0.00     0.027 C 
ATOM     80  C   UNL     1       0.244   3.331   4.350  1.00  0.00     0.025 C 
ATOM     81  C   UNL     1       1.231   5.377   4.630  1.00  0.00    -0.027 C 
ATOM     82  C   UNL     1       1.292   3.255   5.478  1.00  0.00     0.017 C 
ATOM     83  C   UNL     1       0.036   4.819   4.383  1.00  0.00    -0.027 C 
BRANCH  78  84
ATOM     84  C   UNL     1       0.452   2.952   1.755  1.00  0.00     0.224 C 
ATOM     85  O   UNL     1       0.130   1.869   1.240  1.00  0.00    -0.275 OA
ATOM     86  N   UNL     1       0.155   4.029   0.996  1.00  0.00    -0.352 N 
ATOM     87  H   UNL     1      -0.196   3.787   0.108  1.00  0.00     0.163 HD
BRANCH  86  88
ATOM     88  C   UNL     1       0.239   5.461   1.201  1.00  0.00     0.153 C 
BRANCH  88  89
ATOM     89  C   UNL     1       1.126   6.227   0.246  1.00  0.00    -0.010 A 
ATOM     90  C   UNL     1       1.626   5.678  -0.941  1.00  0.00     0.007 A 
ATOM     91  C   UNL     1       1.525   7.537   0.571  1.00  0.00     0.046 A 
ATOM     92  C   UNL     1       2.613   6.337  -1.684  1.00  0.00     0.000 A 
ATOM     93  C   UNL     1       2.503   8.201  -0.176  1.00  0.00     0.021 A 
ATOM     94  Cl  UNL     1       0.817   8.399   1.895  1.00  0.00    -0.084 Cl
ATOM     95  C   UNL     1       3.076   7.584  -1.284  1.00  0.00     0.002 A 
ENDBRANCH  88  89
ENDBRANCH  86  88
ENDBRANCH  78  84
ENDBRANCH  75  77
ENDBRANCH  74  75
ENDBRANCH  73  74
ENDBRANCH  72  73
ENDBRANCH  71  72
ENDBRANCH  70  71
ENDBRANCH   1  70
TORSDOF 23
