REMARK SMILES [NH3+][C@H](C(=O)OCCOCCOCCOC(=O)c1ccc(-c2c3nc(c(-c4ccc(S(=O)(=O)[O-])cc4)c4ccc([nH]4)c(-c4ccc(S(=O)(=O)[O-])cc4)c4nc(c(-c5ccc(S(=O)(=O)[O-])cc5)c5ccc2[nH]5)C=C4)C=C3)cc1)c1cc(F)c(F)c(F)c1F
REMARK SMILES IDX 10 1 9 2 8 3 7 4 6 5 5 6 3 7 4 8 2 9 1 10 77 14 78 15 85 16
REMARK SMILES IDX 79 17 83 18 86 19 80 20 81 21 84 22 82 23 11 24 12 25 13 26
REMARK SMILES IDX 14 27 15 28 16 29 17 30 18 31 76 32 19 33 75 34 20 35 21 36
REMARK SMILES IDX 22 37 69 38 23 39 74 40 68 41 70 42 24 43 73 44 67 45 66 46
REMARK SMILES IDX 25 48 55 49 36 50 54 51 37 52 40 53 53 54 71 55 38 56 39 57
REMARK SMILES IDX 52 59 72 60 41 61 26 62 27 63 35 64 28 65 34 66 29 67 30 68
REMARK SMILES IDX 31 69 32 70 33 71 56 72 57 73 65 74 58 75 64 76 59 77 60 78
REMARK SMILES IDX 61 79 62 80 63 81 42 82 43 83 51 84 44 85 50 86 45 87 46 88
REMARK SMILES IDX 47 89 48 90 49 91
REMARK H PARENT 1 11 1 12 1 13 70 47 40 58
REMARK Flexibility Score: inf
ROOT
ATOM      1  C   UNL     1      -0.693   0.337  -2.214  1.00  0.00     0.188 C 
ENDROOT
BRANCH   1   2
ATOM      2  C   UNL     1       0.778   0.735  -2.068  1.00  0.00     0.188 C 
BRANCH   2   3
ATOM      3  O   UNL     1       1.714  -0.032  -2.814  1.00  0.00    -0.376 OA
BRANCH   3   4
ATOM      4  C   UNL     1       1.746  -1.435  -2.551  1.00  0.00     0.202 C 
BRANCH   4   5
ATOM      5  C   UNL     1       2.077  -1.853  -1.109  1.00  0.00     0.261 C 
BRANCH   5   6
ATOM      6  O   UNL     1       1.204  -1.281  -0.107  1.00  0.00    -0.459 OA
BRANCH   6   7
ATOM      7  C   UNL     1       1.828  -0.644   0.919  1.00  0.00     0.369 C 
ATOM      8  O   UNL     1       3.051  -0.612   1.060  1.00  0.00    -0.245 OA
BRANCH   7   9
ATOM      9  C   UNL     1       0.914   0.160   1.879  1.00  0.00     0.326 C 
BRANCH   9  10
ATOM     10  N   UNL     1       1.434   1.555   1.928  1.00  0.00    -0.342 N 
ATOM     11  H   UNL     1       0.853   2.113   2.554  1.00  0.00     0.345 HD
ATOM     12  H   UNL     1       1.412   1.960   0.992  1.00  0.00     0.345 HD
ATOM     13  H   UNL     1       2.394   1.548   2.272  1.00  0.00     0.345 HD
ENDBRANCH   9  10
BRANCH   9  14
ATOM     14  C   UNL     1      -0.601   0.135   1.718  1.00  0.00     0.063 A 
ATOM     15  C   UNL     1      -1.380   1.310   1.814  1.00  0.00     0.056 A 
ATOM     16  C   UNL     1      -1.296  -1.082   1.668  1.00  0.00     0.171 A 
ATOM     17  C   UNL     1      -2.775   1.252   1.836  1.00  0.00     0.162 A 
ATOM     18  C   UNL     1      -2.693  -1.129   1.669  1.00  0.00     0.198 A 
ATOM     19  F   UNL     1      -0.612  -2.235   1.690  1.00  0.00    -0.203 F 
ATOM     20  F   UNL     1      -3.471   2.392   1.948  1.00  0.00    -0.204 F 
ATOM     21  C   UNL     1      -3.434   0.038   1.752  1.00  0.00     0.197 A 
ATOM     22  F   UNL     1      -3.319  -2.315   1.631  1.00  0.00    -0.200 F 
ATOM     23  F   UNL     1      -4.773  -0.008   1.791  1.00  0.00    -0.200 F 
ENDBRANCH   9  14
ENDBRANCH   7   9
ENDBRANCH   6   7
ENDBRANCH   5   6
ENDBRANCH   4   5
ENDBRANCH   3   4
ENDBRANCH   2   3
ENDBRANCH   1   2
BRANCH   1  24
ATOM     24  O   UNL     1      -0.963  -1.055  -2.132  1.00  0.00    -0.376 OA
BRANCH  24  25
ATOM     25  C   UNL     1      -2.318  -1.462  -2.338  1.00  0.00     0.202 C 
BRANCH  25  26
ATOM     26  C   UNL     1      -3.032  -0.921  -3.596  1.00  0.00     0.261 C 
BRANCH  26  27
ATOM     27  O   UNL     1      -3.164   0.515  -3.687  1.00  0.00    -0.460 OA
BRANCH  27  28
ATOM     28  C   UNL     1      -3.657   1.174  -2.613  1.00  0.00     0.338 C 
ATOM     29  O   UNL     1      -4.207   0.669  -1.649  1.00  0.00    -0.246 OA
BRANCH  28  30
ATOM     30  C   UNL     1      -3.159   2.578  -2.642  1.00  0.00     0.060 A 
ATOM     31  C   UNL     1      -2.761   3.149  -1.426  1.00  0.00     0.016 A 
ATOM     32  C   UNL     1      -3.010   3.307  -3.823  1.00  0.00     0.016 A 
ATOM     33  C   UNL     1      -2.250   4.446  -1.372  1.00  0.00     0.010 A 
ATOM     34  C   UNL     1      -2.518   4.619  -3.771  1.00  0.00     0.010 A 
ATOM     35  C   UNL     1      -2.164   5.207  -2.541  1.00  0.00    -0.014 A 
BRANCH  35  36
ATOM     36  C   UNL     1      -1.922   6.670  -2.443  1.00  0.00     0.031 A 
ATOM     37  C   UNL     1      -3.116   7.589  -2.487  1.00  0.00     0.074 A 
ATOM     38  C   UNL     1      -0.691   7.185  -2.266  1.00  0.00     0.049 A 
ATOM     39  N   UNL     1      -3.160   8.895  -2.474  1.00  0.00    -0.248 NA
ATOM     40  C   UNL     1      -4.437   6.941  -2.553  1.00  0.00     0.031 C 
ATOM     41  C   UNL     1       0.543   6.413  -2.125  1.00  0.00     0.029 A 
ATOM     42  N   UNL     1      -0.280   8.494  -2.174  1.00  0.00    -0.354 N 
ATOM     43  C   UNL     1      -4.508   9.226  -2.548  1.00  0.00     0.074 A 
ATOM     44  C   UNL     1      -5.247   7.986  -2.627  1.00  0.00     0.031 C 
ATOM     45  C   UNL     1       1.575   7.265  -1.974  1.00  0.00     0.029 A 
ATOM     46  C   UNL     1       1.082   8.640  -2.048  1.00  0.00     0.049 A 
ATOM     47  H   UNL     1      -0.903   9.256  -2.197  1.00  0.00     0.167 HD
ATOM     48  C   UNL     1      -5.084  10.452  -2.549  1.00  0.00     0.031 A 
ATOM     49  C   UNL     1       1.845   9.753  -2.022  1.00  0.00     0.031 A 
ATOM     50  C   UNL     1      -4.354  11.689  -2.476  1.00  0.00     0.049 A 
ATOM     51  C   UNL     1       1.189  11.110  -2.121  1.00  0.00     0.074 A 
ATOM     52  C   UNL     1      -4.853  12.980  -2.468  1.00  0.00     0.029 A 
ATOM     53  N   UNL     1      -2.974  11.792  -2.404  1.00  0.00    -0.354 N 
ATOM     54  N   UNL     1      -0.087  11.407  -2.192  1.00  0.00    -0.248 NA
ATOM     55  C   UNL     1       2.078  12.281  -2.132  1.00  0.00     0.031 C 
ATOM     56  C   UNL     1      -3.771  13.865  -2.454  1.00  0.00     0.029 A 
ATOM     57  C   UNL     1      -2.602  13.126  -2.381  1.00  0.00     0.049 A 
ATOM     58  H   UNL     1      -2.351  11.031  -2.373  1.00  0.00     0.167 HD
ATOM     59  C   UNL     1      -0.153  12.798  -2.225  1.00  0.00     0.074 A 
ATOM     60  C   UNL     1       1.209  13.283  -2.153  1.00  0.00     0.031 C 
ATOM     61  C   UNL     1      -1.243  13.601  -2.304  1.00  0.00     0.031 A 
BRANCH  48  62
ATOM     62  C   UNL     1      -6.582  10.514  -2.682  1.00  0.00    -0.014 A 
ATOM     63  C   UNL     1      -7.429  10.123  -1.630  1.00  0.00     0.010 A 
ATOM     64  C   UNL     1      -7.148  11.008  -3.871  1.00  0.00     0.010 A 
ATOM     65  C   UNL     1      -8.817  10.192  -1.779  1.00  0.00     0.020 A 
ATOM     66  C   UNL     1      -8.534  11.107  -4.013  1.00  0.00     0.020 A 
ATOM     67  C   UNL     1      -9.360  10.683  -2.971  1.00  0.00     0.054 A 
BRANCH  67  68
ATOM     68  S   UNL     1     -11.164  10.787  -3.127  1.00  0.00     0.124 S 
ATOM     69  O   UNL     1     -11.537   9.380  -3.248  1.00  0.00    -0.237 OA
ATOM     70  O   UNL     1     -11.556  11.436  -1.879  1.00  0.00    -0.237 OA
ATOM     71  O   UNL     1     -11.363  11.589  -4.332  1.00  0.00    -0.744 OA
ENDBRANCH  67  68
ENDBRANCH  48  62
BRANCH  49  72
ATOM     72  C   UNL     1       3.330   9.644  -1.937  1.00  0.00    -0.014 A 
ATOM     73  C   UNL     1       4.024  10.095  -0.800  1.00  0.00     0.010 A 
ATOM     74  C   UNL     1       4.064   9.111  -3.014  1.00  0.00     0.010 A 
ATOM     75  C   UNL     1       5.421  10.034  -0.749  1.00  0.00     0.020 A 
ATOM     76  C   UNL     1       5.457   9.019  -2.954  1.00  0.00     0.020 A 
ATOM     77  C   UNL     1       6.129   9.493  -1.826  1.00  0.00     0.054 A 
BRANCH  77  78
ATOM     78  S   UNL     1       7.937   9.380  -1.720  1.00  0.00     0.124 S 
ATOM     79  O   UNL     1       8.338  10.775  -1.866  1.00  0.00    -0.237 OA
ATOM     80  O   UNL     1       8.137   8.798  -0.395  1.00  0.00    -0.237 OA
ATOM     81  O   UNL     1       8.291   8.505  -2.836  1.00  0.00    -0.744 OA
ENDBRANCH  77  78
ENDBRANCH  49  72
BRANCH  61  82
ATOM     82  C   UNL     1      -1.025  15.093  -2.271  1.00  0.00    -0.014 A 
ATOM     83  C   UNL     1      -0.461  15.777  -3.361  1.00  0.00     0.010 A 
ATOM     84  C   UNL     1      -1.456  15.830  -1.151  1.00  0.00     0.010 A 
ATOM     85  C   UNL     1      -0.303  17.167  -3.320  1.00  0.00     0.020 A 
ATOM     86  C   UNL     1      -1.327  17.221  -1.118  1.00  0.00     0.020 A 
ATOM     87  C   UNL     1      -0.738  17.880  -2.198  1.00  0.00     0.054 A 
BRANCH  87  88
ATOM     88  S   UNL     1      -0.563  19.686  -2.187  1.00  0.00     0.124 S 
ATOM     89  O   UNL     1       0.877  19.851  -2.010  1.00  0.00    -0.237 OA
ATOM     90  O   UNL     1      -1.083  20.066  -3.498  1.00  0.00    -0.237 OA
ATOM     91  O   UNL     1      -1.382  20.108  -1.053  1.00  0.00    -0.744 OA
ENDBRANCH  87  88
ENDBRANCH  61  82
ENDBRANCH  35  36
ENDBRANCH  28  30
ENDBRANCH  27  28
ENDBRANCH  26  27
ENDBRANCH  25  26
ENDBRANCH  24  25
ENDBRANCH   1  24
TORSDOF 22
