REMARK SMILES CS(=O)(=O)c1ccc(-n2nc(C(F)(F)F)cc2-c2ccc(CC(=O)OCCOCCOCCOC(=O)c3ccc(-c4c5nc(c(-c6ccc(S(=O)(=O)[O-])cc6)c6ccc([nH]6)c(-c6ccc(S(=O)(=O)[O-])cc6)c6nc(c(-c7ccc(S(=O)(=O)[O-])cc7)c7ccc4[nH]7)C=C6)C=C5)cc3)cc2)cc1
REMARK SMILES IDX 29 1 28 2 27 3 26 4 25 5 23 6 24 7 22 8 21 9 18 10 19 11
REMARK SMILES IDX 98 12 20 13 97 14 17 15 9 16 10 17 11 18 16 19 8 20 5 21
REMARK SMILES IDX 6 22 100 23 7 24 99 25 2 26 1 27 3 28 4 29 12 30 13 31 14 32
REMARK SMILES IDX 15 33 30 34 31 35 32 36 33 37 34 38 35 39 36 40 37 41 38 42
REMARK SMILES IDX 96 43 39 44 95 45 40 46 41 47 42 48 89 49 43 50 94 51 88 52
REMARK SMILES IDX 90 53 44 54 93 55 87 56 86 57 45 59 75 60 56 61 74 62 57 63
REMARK SMILES IDX 60 64 73 65 91 66 58 67 59 68 72 70 92 71 61 72 46 73 47 74
REMARK SMILES IDX 55 75 48 76 54 77 49 78 50 79 51 80 52 81 53 82 76 83 77 84
REMARK SMILES IDX 85 85 78 86 84 87 79 88 80 89 81 90 82 91 83 92 62 93 63 94
REMARK SMILES IDX 71 95 64 96 70 97 65 98 66 99 67 100 68 101 69 102
REMARK H PARENT 90 58 60 69
REMARK Flexibility Score: inf
ROOT
ATOM      1  C   UNL     1       7.029   1.929  -1.116  1.00  0.00     0.188 C 
ENDROOT
BRANCH   1   2
ATOM      2  O   UNL     1       7.856   0.873  -0.635  1.00  0.00    -0.376 OA
BRANCH   2   3
ATOM      3  C   UNL     1       7.352   0.040   0.389  1.00  0.00     0.202 C 
BRANCH   3   4
ATOM      4  C   UNL     1       7.773   0.489   1.794  1.00  0.00     0.261 C 
BRANCH   4   5
ATOM      5  O   UNL     1       7.557   1.891   2.080  1.00  0.00    -0.463 OA
BRANCH   5   6
ATOM      6  C   UNL     1       8.647   2.698   2.027  1.00  0.00     0.310 C 
ATOM      7  O   UNL     1       9.794   2.275   1.886  1.00  0.00    -0.252 OA
BRANCH   6   8
ATOM      8  C   UNL     1       8.401   4.188   2.223  1.00  0.00     0.158 C 
BRANCH   8   9
ATOM      9  C   UNL     1       7.020   4.816   2.127  1.00  0.00    -0.037 A 
ATOM     10  C   UNL     1       4.488   6.115   1.966  1.00  0.00     0.000 A 
ATOM     11  C   UNL     1       5.362   6.119   0.875  1.00  0.00     0.010 A 
ATOM     12  C   UNL     1       4.897   5.475   3.142  1.00  0.00     0.010 A 
ATOM     13  C   UNL     1       6.620   5.501   0.963  1.00  0.00     0.005 A 
ATOM     14  C   UNL     1       6.137   4.813   3.215  1.00  0.00     0.005 A 
BRANCH  10  15
ATOM     15  C   UNL     1       3.238   6.880   1.911  1.00  0.00     0.075 A 
ATOM     16  N   UNL     1       2.086   6.556   1.194  1.00  0.00    -0.233 N 
ATOM     17  N   UNL     1       1.231   7.614   1.124  1.00  0.00    -0.163 NA
ATOM     18  C   UNL     1       1.732   8.544   1.952  1.00  0.00     0.167 A 
ATOM     19  C   UNL     1       3.002   8.143   2.429  1.00  0.00     0.064 A 
BRANCH  16  20
ATOM     20  C   UNL     1       1.618   5.304   0.707  1.00  0.00     0.065 A 
ATOM     21  C   UNL     1       0.420   2.912  -0.119  1.00  0.00     0.067 A 
ATOM     22  C   UNL     1       1.267   2.919   0.995  1.00  0.00     0.022 A 
ATOM     23  C   UNL     1       0.189   4.091  -0.836  1.00  0.00     0.022 A 
ATOM     24  C   UNL     1       1.888   4.114   1.393  1.00  0.00     0.030 A 
ATOM     25  C   UNL     1       0.761   5.289  -0.404  1.00  0.00     0.030 A 
BRANCH  21  26
ATOM     26  S   UNL     1      -0.349   1.432  -0.740  1.00  0.00     0.175 S 
ATOM     27  C   UNL     1       0.324   0.046   0.125  1.00  0.00     0.163 C 
ATOM     28  O   UNL     1       0.083   1.288  -2.120  1.00  0.00    -0.224 OA
ATOM     29  O   UNL     1      -1.749   1.511  -0.386  1.00  0.00    -0.224 OA
ENDBRANCH  21  26
ENDBRANCH  16  20
BRANCH  18  30
ATOM     30  C   UNL     1       0.992   9.810   2.293  1.00  0.00     0.435 C 
ATOM     31  F   UNL     1       0.441  10.429   1.218  1.00  0.00    -0.164 F 
ATOM     32  F   UNL     1      -0.015   9.580   3.181  1.00  0.00    -0.164 F 
ATOM     33  F   UNL     1       1.810  10.725   2.889  1.00  0.00    -0.164 F 
ENDBRANCH  18  30
ENDBRANCH  10  15
ENDBRANCH   8   9
ENDBRANCH   6   8
ENDBRANCH   5   6
ENDBRANCH   4   5
ENDBRANCH   3   4
ENDBRANCH   2   3
ENDBRANCH   1   2
BRANCH   1  34
ATOM     34  C   UNL     1       5.925   2.527  -0.231  1.00  0.00     0.188 C 
BRANCH  34  35
ATOM     35  O   UNL     1       4.898   1.742   0.352  1.00  0.00    -0.376 OA
BRANCH  35  36
ATOM     36  C   UNL     1       4.076   0.913  -0.446  1.00  0.00     0.202 C 
BRANCH  36  37
ATOM     37  C   UNL     1       3.336   1.530  -1.607  1.00  0.00     0.261 C 
BRANCH  37  38
ATOM     38  O   UNL     1       4.240   2.115  -2.517  1.00  0.00    -0.460 OA
BRANCH  38  39
ATOM     39  C   UNL     1       4.185   3.456  -2.586  1.00  0.00     0.338 C 
ATOM     40  O   UNL     1       3.668   4.236  -1.790  1.00  0.00    -0.246 OA
BRANCH  39  41
ATOM     41  C   UNL     1       4.753   3.845  -3.865  1.00  0.00     0.060 A 
ATOM     42  C   UNL     1       4.686   5.203  -4.180  1.00  0.00     0.016 A 
ATOM     43  C   UNL     1       4.949   2.840  -4.828  1.00  0.00     0.016 A 
ATOM     44  C   UNL     1       4.553   5.539  -5.503  1.00  0.00     0.010 A 
ATOM     45  C   UNL     1       4.761   3.173  -6.136  1.00  0.00     0.010 A 
ATOM     46  C   UNL     1       4.485   4.503  -6.437  1.00  0.00    -0.014 A 
BRANCH  46  47
ATOM     47  C   UNL     1       4.088   4.822  -7.779  1.00  0.00     0.031 A 
ATOM     48  C   UNL     1       5.203   5.214  -8.651  1.00  0.00     0.074 A 
ATOM     49  C   UNL     1       2.833   4.606  -8.202  1.00  0.00     0.049 A 
ATOM     50  N   UNL     1       5.423   6.378  -9.158  1.00  0.00    -0.248 NA
ATOM     51  C   UNL     1       6.289   4.241  -8.848  1.00  0.00     0.031 C 
ATOM     52  C   UNL     1       1.753   3.906  -7.502  1.00  0.00     0.029 A 
ATOM     53  N   UNL     1       2.314   4.847  -9.430  1.00  0.00    -0.354 N 
ATOM     54  C   UNL     1       6.580   6.232  -9.905  1.00  0.00     0.074 A 
ATOM     55  C   UNL     1       7.174   4.979  -9.512  1.00  0.00     0.031 C 
ATOM     56  C   UNL     1       0.800   3.574  -8.402  1.00  0.00     0.029 A 
ATOM     57  C   UNL     1       1.161   4.130  -9.698  1.00  0.00     0.049 A 
ATOM     58  H   UNL     1       2.719   5.474 -10.072  1.00  0.00     0.167 HD
ATOM     59  C   UNL     1       6.843   7.019 -10.980  1.00  0.00     0.031 A 
ATOM     60  C   UNL     1       0.621   3.927 -10.924  1.00  0.00     0.031 A 
ATOM     61  C   UNL     1       5.966   8.156 -11.052  1.00  0.00     0.049 A 
ATOM     62  C   UNL     1       1.189   4.954 -11.839  1.00  0.00     0.074 A 
ATOM     63  C   UNL     1       5.707   9.227 -10.221  1.00  0.00     0.029 A 
ATOM     64  N   UNL     1       4.901   8.073 -11.921  1.00  0.00    -0.354 N 
ATOM     65  N   UNL     1       0.929   6.228 -11.741  1.00  0.00    -0.248 NA
ATOM     66  C   UNL     1       2.392   4.634 -12.599  1.00  0.00     0.031 C 
ATOM     67  C   UNL     1       4.309   9.471 -10.347  1.00  0.00     0.029 A 
ATOM     68  C   UNL     1       3.792   8.562 -11.274  1.00  0.00     0.049 A 
ATOM     69  H   UNL     1       4.929   7.726 -12.842  1.00  0.00     0.167 HD
ATOM     70  C   UNL     1       2.126   6.868 -12.037  1.00  0.00     0.074 A 
ATOM     71  C   UNL     1       2.947   5.848 -12.681  1.00  0.00     0.031 C 
ATOM     72  C   UNL     1       2.440   8.074 -11.473  1.00  0.00     0.031 A 
BRANCH  59  73
ATOM     73  C   UNL     1       7.645   6.535 -12.152  1.00  0.00    -0.014 A 
ATOM     74  C   UNL     1       8.092   7.463 -13.106  1.00  0.00     0.010 A 
ATOM     75  C   UNL     1       7.766   5.164 -12.469  1.00  0.00     0.010 A 
ATOM     76  C   UNL     1       8.603   7.034 -14.337  1.00  0.00     0.020 A 
ATOM     77  C   UNL     1       8.321   4.726 -13.667  1.00  0.00     0.020 A 
ATOM     78  C   UNL     1       8.702   5.668 -14.611  1.00  0.00     0.054 A 
BRANCH  78  79
ATOM     79  S   UNL     1       9.257   5.124 -16.243  1.00  0.00     0.124 S 
ATOM     80  O   UNL     1       8.126   5.504 -17.083  1.00  0.00    -0.237 OA
ATOM     81  O   UNL     1      10.479   5.900 -16.432  1.00  0.00    -0.237 OA
ATOM     82  O   UNL     1       9.458   3.687 -16.073  1.00  0.00    -0.744 OA
ENDBRANCH  78  79
ENDBRANCH  59  73
BRANCH  60  83
ATOM     83  C   UNL     1      -0.122   2.732 -11.390  1.00  0.00    -0.014 A 
ATOM     84  C   UNL     1      -0.817   2.745 -12.611  1.00  0.00     0.010 A 
ATOM     85  C   UNL     1       0.044   1.487 -10.745  1.00  0.00     0.010 A 
ATOM     86  C   UNL     1      -1.277   1.551 -13.192  1.00  0.00     0.020 A 
ATOM     87  C   UNL     1      -0.427   0.297 -11.306  1.00  0.00     0.020 A 
ATOM     88  C   UNL     1      -1.063   0.332 -12.542  1.00  0.00     0.054 A 
BRANCH  88  89
ATOM     89  S   UNL     1      -1.498  -1.219 -13.380  1.00  0.00     0.124 S 
ATOM     90  O   UNL     1      -2.956  -1.201 -13.331  1.00  0.00    -0.237 OA
ATOM     91  O   UNL     1      -0.906  -1.040 -14.703  1.00  0.00    -0.237 OA
ATOM     92  O   UNL     1      -0.861  -2.245 -12.556  1.00  0.00    -0.744 OA
ENDBRANCH  88  89
ENDBRANCH  60  83
BRANCH  72  93
ATOM     93  C   UNL     1       1.340   8.827 -10.755  1.00  0.00    -0.014 A 
ATOM     94  C   UNL     1       0.643   8.301  -9.649  1.00  0.00     0.010 A 
ATOM     95  C   UNL     1       1.103  10.165 -11.117  1.00  0.00     0.010 A 
ATOM     96  C   UNL     1      -0.294   9.076  -8.952  1.00  0.00     0.020 A 
ATOM     97  C   UNL     1       0.186  10.951 -10.413  1.00  0.00     0.020 A 
ATOM     98  C   UNL     1      -0.518  10.399  -9.341  1.00  0.00     0.054 A 
BRANCH  98  99
ATOM     99  S   UNL     1      -1.693  11.412  -8.400  1.00  0.00     0.124 S 
ATOM    100  O   UNL     1      -2.981  10.846  -8.790  1.00  0.00    -0.237 OA
ATOM    101  O   UNL     1      -1.293  11.174  -7.015  1.00  0.00    -0.237 OA
ATOM    102  O   UNL     1      -1.443  12.771  -8.882  1.00  0.00    -0.744 OA
ENDBRANCH  98  99
ENDBRANCH  72  93
ENDBRANCH  46  47
ENDBRANCH  39  41
ENDBRANCH  38  39
ENDBRANCH  37  38
ENDBRANCH  36  37
ENDBRANCH  35  36
ENDBRANCH  34  35
ENDBRANCH   1  34
TORSDOF 25
