REMARK SMILES CCOc1ccc(-n2ncc(C(=O)OCCOCCOCCOC(=O)c3ccc(-c4c5nc(c(-c6ccc(S(=O)(=O)[O-])cc6)c6ccc([nH]6)c(-c6ccc(S(=O)(=O)[O-])cc6)c6nc(c(-c7ccc(S(=O)(=O)[O-])cc7)c7ccc4[nH]7)C=C6)C=C5)cc3)c2C)nn1
REMARK SMILES IDX 18 1 17 2 16 3 15 4 14 5 12 6 13 7 11 8 8 9 9 10 86 11 10 12
REMARK SMILES IDX 87 13 7 14 4 15 5 16 89 17 6 18 88 19 3 20 2 21 1 22 19 23
REMARK SMILES IDX 20 24 21 25 22 26 23 27 24 28 25 29 26 30 27 31 85 32 28 33
REMARK SMILES IDX 84 34 29 35 30 36 31 37 78 38 32 39 83 40 77 41 79 42 33 43
REMARK SMILES IDX 82 44 76 45 75 46 34 48 64 49 45 50 63 51 46 52 49 53 62 54
REMARK SMILES IDX 80 55 47 56 48 57 61 59 81 60 50 61 35 62 36 63 44 64 37 65
REMARK SMILES IDX 43 66 38 67 39 68 40 69 41 70 42 71 65 72 66 73 74 74 67 75
REMARK SMILES IDX 73 76 68 77 69 78 70 79 71 80 72 81 51 82 52 83 60 84 53 85
REMARK SMILES IDX 59 86 54 87 55 88 56 89 57 90 58 91
REMARK H PARENT 79 47 49 58
REMARK Flexibility Score: inf
ROOT
ATOM      1  C   UNL     1       9.503  -0.490   6.582  1.00  0.00     0.188 C 
ENDROOT
BRANCH   1   2
ATOM      2  O   UNL     1      10.691  -1.216   6.852  1.00  0.00    -0.376 OA
BRANCH   2   3
ATOM      3  C   UNL     1      11.881  -0.983   6.115  1.00  0.00     0.202 C 
BRANCH   3   4
ATOM      4  C   UNL     1      11.906  -0.744   4.589  1.00  0.00     0.261 C 
BRANCH   4   5
ATOM      5  O   UNL     1      10.856   0.056   4.035  1.00  0.00    -0.460 OA
BRANCH   5   6
ATOM      6  C   UNL     1       9.870  -0.636   3.390  1.00  0.00     0.341 C 
ATOM      7  O   UNL     1       9.901  -1.817   3.140  1.00  0.00    -0.246 OA
BRANCH   6   8
ATOM      8  C   UNL     1       8.706   0.199   3.131  1.00  0.00     0.101 A 
ATOM      9  N   UNL     1       6.612   0.894   2.883  1.00  0.00    -0.217 N 
ATOM     10  N   UNL     1       7.392   1.897   2.383  1.00  0.00    -0.174 NA
ATOM     11  C   UNL     1       7.383  -0.133   3.408  1.00  0.00     0.058 A 
ATOM     12  C   UNL     1       8.643   1.502   2.616  1.00  0.00     0.151 A 
ATOM     13  C   UNL     1       6.828  -1.341   4.080  1.00  0.00     0.068 C 
BRANCH   9  14
ATOM     14  C   UNL     1       5.198   0.935   2.729  1.00  0.00     0.176 A 
ATOM     15  C   UNL     1       2.535   0.824   2.285  1.00  0.00     0.233 A 
ATOM     16  C   UNL     1       3.314   1.527   1.389  1.00  0.00     0.074 A 
ATOM     17  N   UNL     1       3.045   0.213   3.373  1.00  0.00    -0.110 NA
ATOM     18  C   UNL     1       4.680   1.597   1.623  1.00  0.00     0.057 A 
ATOM     19  N   UNL     1       4.400   0.249   3.583  1.00  0.00    -0.127 NA
BRANCH  15  20
ATOM     20  O   UNL     1       1.175   0.812   2.109  1.00  0.00    -0.477 OA
BRANCH  20  21
ATOM     21  C   UNL     1       0.752  -0.396   1.472  1.00  0.00     0.228 C 
ATOM     22  C   UNL     1       0.826  -0.251  -0.042  1.00  0.00     0.049 C 
ENDBRANCH  20  21
ENDBRANCH  15  20
ENDBRANCH   9  14
ENDBRANCH   6   8
ENDBRANCH   5   6
ENDBRANCH   4   5
ENDBRANCH   3   4
ENDBRANCH   2   3
ENDBRANCH   1   2
BRANCH   1  23
ATOM     23  C   UNL     1       9.538   1.045   6.423  1.00  0.00     0.188 C 
BRANCH  23  24
ATOM     24  O   UNL     1      10.834   1.584   6.267  1.00  0.00    -0.376 OA
BRANCH  24  25
ATOM     25  C   UNL     1      11.500   2.196   7.358  1.00  0.00     0.202 C 
BRANCH  25  26
ATOM     26  C   UNL     1      11.393   1.692   8.796  1.00  0.00     0.261 C 
BRANCH  26  27
ATOM     27  O   UNL     1      10.268   0.897   9.099  1.00  0.00    -0.460 OA
BRANCH  27  28
ATOM     28  C   UNL     1       9.159   1.591   9.422  1.00  0.00     0.338 C 
ATOM     29  O   UNL     1       8.937   2.768   9.199  1.00  0.00    -0.246 OA
BRANCH  28  30
ATOM     30  C   UNL     1       8.288   0.707  10.195  1.00  0.00     0.060 A 
ATOM     31  C   UNL     1       6.979   1.137  10.419  1.00  0.00     0.016 A 
ATOM     32  C   UNL     1       8.897  -0.299  10.959  1.00  0.00     0.016 A 
ATOM     33  C   UNL     1       6.362   0.731  11.578  1.00  0.00     0.010 A 
ATOM     34  C   UNL     1       8.300  -0.666  12.133  1.00  0.00     0.010 A 
ATOM     35  C   UNL     1       7.084  -0.074  12.464  1.00  0.00    -0.014 A 
BRANCH  35  36
ATOM     36  C   UNL     1       6.515  -0.350  13.761  1.00  0.00     0.031 A 
ATOM     37  C   UNL     1       5.519  -1.437  13.713  1.00  0.00     0.074 A 
ATOM     38  C   UNL     1       6.989   0.238  14.874  1.00  0.00     0.049 A 
ATOM     39  N   UNL     1       4.241  -1.346  13.862  1.00  0.00    -0.248 NA
ATOM     40  C   UNL     1       5.981  -2.750  13.224  1.00  0.00     0.031 C 
ATOM     41  C   UNL     1       8.179   1.089  14.996  1.00  0.00     0.029 A 
ATOM     42  N   UNL     1       6.589   0.086  16.163  1.00  0.00    -0.354 N 
ATOM     43  C   UNL     1       3.779  -2.651  13.741  1.00  0.00     0.074 A 
ATOM     44  C   UNL     1       4.824  -3.394  13.089  1.00  0.00     0.031 C 
ATOM     45  C   UNL     1       8.536   1.165  16.298  1.00  0.00     0.029 A 
ATOM     46  C   UNL     1       7.541   0.472  17.100  1.00  0.00     0.049 A 
ATOM     47  H   UNL     1       5.704  -0.266  16.412  1.00  0.00     0.167 HD
ATOM     48  C   UNL     1       2.753  -3.104  14.510  1.00  0.00     0.031 A 
ATOM     49  C   UNL     1       7.548   0.151  18.420  1.00  0.00     0.031 A 
ATOM     50  C   UNL     1       1.998  -2.019  15.083  1.00  0.00     0.049 A 
ATOM     51  C   UNL     1       6.176  -0.295  18.771  1.00  0.00     0.074 A 
ATOM     52  C   UNL     1       1.302  -0.940  14.575  1.00  0.00     0.029 A 
ATOM     53  N   UNL     1       2.233  -1.741  16.409  1.00  0.00    -0.354 N 
ATOM     54  N   UNL     1       5.137   0.493  18.773  1.00  0.00    -0.248 NA
ATOM     55  C   UNL     1       5.874  -1.716  18.691  1.00  0.00     0.031 C 
ATOM     56  C   UNL     1       1.514   0.115  15.508  1.00  0.00     0.029 A 
ATOM     57  C   UNL     1       2.276  -0.382  16.568  1.00  0.00     0.049 A 
ATOM     58  H   UNL     1       2.351  -2.407  17.124  1.00  0.00     0.167 HD
ATOM     59  C   UNL     1       4.101  -0.279  18.266  1.00  0.00     0.074 A 
ATOM     60  C   UNL     1       4.586  -1.655  18.341  1.00  0.00     0.031 C 
ATOM     61  C   UNL     1       3.072   0.294  17.573  1.00  0.00     0.031 A 
BRANCH  48  62
ATOM     62  C   UNL     1       2.758  -4.488  15.120  1.00  0.00    -0.014 A 
ATOM     63  C   UNL     1       1.646  -4.892  15.882  1.00  0.00     0.010 A 
ATOM     64  C   UNL     1       3.919  -5.286  15.216  1.00  0.00     0.010 A 
ATOM     65  C   UNL     1       1.722  -5.991  16.747  1.00  0.00     0.020 A 
ATOM     66  C   UNL     1       3.991  -6.410  16.035  1.00  0.00     0.020 A 
ATOM     67  C   UNL     1       2.901  -6.734  16.825  1.00  0.00     0.054 A 
BRANCH  67  68
ATOM     68  S   UNL     1       3.028  -8.087  18.015  1.00  0.00     0.124 S 
ATOM     69  O   UNL     1       2.984  -7.371  19.285  1.00  0.00    -0.237 OA
ATOM     70  O   UNL     1       1.852  -8.890  17.693  1.00  0.00    -0.237 OA
ATOM     71  O   UNL     1       4.309  -8.710  17.688  1.00  0.00    -0.744 OA
ENDBRANCH  67  68
ENDBRANCH  48  62
BRANCH  49  72
ATOM     72  C   UNL     1       8.721  -0.118  19.293  1.00  0.00    -0.014 A 
ATOM     73  C   UNL     1       8.572  -0.237  20.689  1.00  0.00     0.010 A 
ATOM     74  C   UNL     1       9.947  -0.532  18.733  1.00  0.00     0.010 A 
ATOM     75  C   UNL     1       9.585  -0.807  21.481  1.00  0.00     0.020 A 
ATOM     76  C   UNL     1      10.965  -1.090  19.516  1.00  0.00     0.020 A 
ATOM     77  C   UNL     1      10.768  -1.249  20.885  1.00  0.00     0.054 A 
BRANCH  77  78
ATOM     78  S   UNL     1      11.998  -2.143  21.883  1.00  0.00     0.124 S 
ATOM     79  O   UNL     1      12.534  -1.088  22.736  1.00  0.00    -0.237 OA
ATOM     80  O   UNL     1      11.187  -3.152  22.558  1.00  0.00    -0.237 OA
ATOM     81  O   UNL     1      12.931  -2.669  20.887  1.00  0.00    -0.744 OA
ENDBRANCH  77  78
ENDBRANCH  49  72
BRANCH  61  82
ATOM     82  C   UNL     1       2.870   1.786  17.692  1.00  0.00    -0.014 A 
ATOM     83  C   UNL     1       3.812   2.750  17.284  1.00  0.00     0.010 A 
ATOM     84  C   UNL     1       1.601   2.223  18.112  1.00  0.00     0.010 A 
ATOM     85  C   UNL     1       3.496   4.117  17.321  1.00  0.00     0.020 A 
ATOM     86  C   UNL     1       1.274   3.579  18.133  1.00  0.00     0.020 A 
ATOM     87  C   UNL     1       2.226   4.522  17.747  1.00  0.00     0.054 A 
BRANCH  87  88
ATOM     88  S   UNL     1       1.802   6.287  17.755  1.00  0.00     0.124 S 
ATOM     89  O   UNL     1       2.643   6.810  18.827  1.00  0.00    -0.237 OA
ATOM     90  O   UNL     1       2.162   6.714  16.405  1.00  0.00    -0.237 OA
ATOM     91  O   UNL     1       0.366   6.299  18.036  1.00  0.00    -0.744 OA
ENDBRANCH  87  88
ENDBRANCH  61  82
ENDBRANCH  35  36
ENDBRANCH  28  30
ENDBRANCH  27  28
ENDBRANCH  26  27
ENDBRANCH  25  26
ENDBRANCH  24  25
ENDBRANCH  23  24
ENDBRANCH   1  23
TORSDOF 23
