REMARK SMILES O=C(OCCOCCOCCOC(=O)[C@@H]1Cc2ccccc2CN1C(=O)COc1ccccc1)c1ccc(-c2c3nc(c(-c4ccc(S(=O)(=O)[O-])cc4)c4ccc([nH]4)c(-c4ccc(S(=O)(=O)[O-])cc4)c4nc(c(-c5ccc(S(=O)(=O)[O-])cc5)c5ccc2[nH]5)C=C4)C=C3)cc1
REMARK SMILES IDX 8 1 7 2 6 3 5 4 4 5 3 6 2 7 1 8 35 9 36 10 94 11 37 12 93 13
REMARK SMILES IDX 38 14 39 15 40 16 87 17 41 18 92 19 86 20 88 21 42 22 91 23
REMARK SMILES IDX 85 24 84 25 43 27 73 28 54 29 72 30 55 31 58 32 71 33 89 34
REMARK SMILES IDX 56 35 57 36 70 38 90 39 59 40 44 41 45 42 53 43 46 44 52 45
REMARK SMILES IDX 47 46 48 47 49 48 50 49 51 50 74 51 75 52 83 53 76 54 82 55
REMARK SMILES IDX 77 56 78 57 79 58 80 59 81 60 60 61 61 62 69 63 62 64 68 65
REMARK SMILES IDX 63 66 64 67 65 68 66 69 67 70 9 71 10 72 11 73 12 74 13 75
REMARK SMILES IDX 14 76 15 77 16 78 24 79 17 80 23 81 18 82 22 83 19 84 21 85
REMARK SMILES IDX 20 86 25 87 26 88 27 89 28 90 29 91 30 92 34 93 31 94 33 95
REMARK SMILES IDX 32 96
REMARK H PARENT 88 26 58 37
REMARK Flexibility Score: inf
ROOT
ATOM      1  C   UNL     1       3.517   0.423  -6.098  1.00  0.00     0.188 C 
ENDROOT
BRANCH   1   2
ATOM      2  C   UNL     1       5.008   0.116  -5.980  1.00  0.00     0.188 C 
BRANCH   2   3
ATOM      3  O   UNL     1       5.517   0.099  -4.650  1.00  0.00    -0.376 OA
BRANCH   3   4
ATOM      4  C   UNL     1       6.902   0.423  -4.505  1.00  0.00     0.202 C 
BRANCH   4   5
ATOM      5  C   UNL     1       7.930  -0.343  -5.360  1.00  0.00     0.261 C 
BRANCH   5   6
ATOM      6  O   UNL     1       7.394  -1.152  -6.419  1.00  0.00    -0.460 OA
BRANCH   6   7
ATOM      7  C   UNL     1       7.003  -2.446  -6.413  1.00  0.00     0.338 C 
ATOM      8  O   UNL     1       6.692  -2.969  -7.482  1.00  0.00    -0.246 OA
BRANCH   7   9
ATOM      9  C   UNL     1       6.882  -3.271  -5.180  1.00  0.00     0.060 A 
ATOM     10  C   UNL     1       6.508  -2.794  -3.922  1.00  0.00     0.016 A 
ATOM     11  C   UNL     1       7.007  -4.656  -5.344  1.00  0.00     0.016 A 
ATOM     12  C   UNL     1       6.343  -3.646  -2.830  1.00  0.00     0.010 A 
ATOM     13  C   UNL     1       6.784  -5.522  -4.271  1.00  0.00     0.010 A 
ATOM     14  C   UNL     1       6.481  -5.019  -2.994  1.00  0.00    -0.014 A 
BRANCH  14  15
ATOM     15  C   UNL     1       6.489  -5.922  -1.819  1.00  0.00     0.031 A 
ATOM     16  C   UNL     1       7.781  -6.633  -1.525  1.00  0.00     0.074 A 
ATOM     17  C   UNL     1       5.399  -6.104  -1.044  1.00  0.00     0.049 A 
ATOM     18  N   UNL     1       8.032  -7.587  -0.672  1.00  0.00    -0.248 NA
ATOM     19  C   UNL     1       8.946  -6.235  -2.340  1.00  0.00     0.031 C 
ATOM     20  C   UNL     1       4.109  -5.429  -1.208  1.00  0.00     0.029 A 
ATOM     21  N   UNL     1       5.198  -6.926   0.037  1.00  0.00    -0.354 N 
ATOM     22  C   UNL     1       9.357  -7.941  -0.895  1.00  0.00     0.074 A 
ATOM     23  C   UNL     1       9.842  -7.141  -1.994  1.00  0.00     0.031 C 
ATOM     24  C   UNL     1       3.248  -5.878  -0.277  1.00  0.00     0.029 A 
ATOM     25  C   UNL     1       3.910  -6.894   0.531  1.00  0.00     0.049 A 
ATOM     26  H   UNL     1       5.908  -7.487   0.424  1.00  0.00     0.167 HD
ATOM     27  C   UNL     1      10.112  -8.844  -0.230  1.00  0.00     0.031 A 
ATOM     28  C   UNL     1       3.341  -7.625   1.511  1.00  0.00     0.031 A 
ATOM     29  C   UNL     1       9.621  -9.599   0.884  1.00  0.00     0.049 A 
ATOM     30  C   UNL     1       4.207  -8.621   2.240  1.00  0.00     0.074 A 
ATOM     31  C   UNL     1      10.284 -10.528   1.660  1.00  0.00     0.029 A 
ATOM     32  N   UNL     1       8.330  -9.495   1.383  1.00  0.00    -0.354 N 
ATOM     33  N   UNL     1       5.474  -8.908   2.047  1.00  0.00    -0.248 NA
ATOM     34  C   UNL     1       3.576  -9.378   3.330  1.00  0.00     0.031 C 
ATOM     35  C   UNL     1       9.377 -11.024   2.602  1.00  0.00     0.029 A 
ATOM     36  C   UNL     1       8.169 -10.359   2.447  1.00  0.00     0.049 A 
ATOM     37  H   UNL     1       7.633  -8.895   1.031  1.00  0.00     0.167 HD
ATOM     38  C   UNL     1       5.795  -9.858   3.008  1.00  0.00     0.074 A 
ATOM     39  C   UNL     1       4.601 -10.071   3.801  1.00  0.00     0.031 C 
ATOM     40  C   UNL     1       6.962 -10.513   3.217  1.00  0.00     0.031 A 
BRANCH  27  41
ATOM     41  C   UNL     1      11.507  -9.075  -0.742  1.00  0.00    -0.014 A 
ATOM     42  C   UNL     1      12.497  -8.077  -0.662  1.00  0.00     0.010 A 
ATOM     43  C   UNL     1      11.811 -10.289  -1.382  1.00  0.00     0.010 A 
ATOM     44  C   UNL     1      13.734  -8.257  -1.285  1.00  0.00     0.020 A 
ATOM     45  C   UNL     1      13.060 -10.488  -1.975  1.00  0.00     0.020 A 
ATOM     46  C   UNL     1      14.002  -9.458  -1.949  1.00  0.00     0.054 A 
BRANCH  46  47
ATOM     47  S   UNL     1      15.599  -9.649  -2.785  1.00  0.00     0.124 S 
ATOM     48  O   UNL     1      15.426  -8.800  -3.960  1.00  0.00    -0.237 OA
ATOM     49  O   UNL     1      16.544  -9.159  -1.788  1.00  0.00    -0.237 OA
ATOM     50  O   UNL     1      15.675 -11.085  -3.059  1.00  0.00    -0.744 OA
ENDBRANCH  46  47
ENDBRANCH  27  41
BRANCH  28  51
ATOM     51  C   UNL     1       1.898  -7.481   1.869  1.00  0.00    -0.014 A 
ATOM     52  C   UNL     1       1.518  -7.019   3.144  1.00  0.00     0.010 A 
ATOM     53  C   UNL     1       0.891  -7.859   0.962  1.00  0.00     0.010 A 
ATOM     54  C   UNL     1       0.169  -6.959   3.512  1.00  0.00     0.020 A 
ATOM     55  C   UNL     1      -0.462  -7.758   1.309  1.00  0.00     0.020 A 
ATOM     56  C   UNL     1      -0.815  -7.306   2.584  1.00  0.00     0.054 A 
BRANCH  56  57
ATOM     57  S   UNL     1      -2.555  -6.954   2.985  1.00  0.00     0.124 S 
ATOM     58  O   UNL     1      -2.901  -8.063   3.866  1.00  0.00    -0.237 OA
ATOM     59  O   UNL     1      -2.467  -5.642   3.622  1.00  0.00    -0.237 OA
ATOM     60  O   UNL     1      -3.205  -6.955   1.677  1.00  0.00    -0.744 OA
ENDBRANCH  56  57
ENDBRANCH  28  51
BRANCH  40  61
ATOM     61  C   UNL     1       7.005 -11.480   4.362  1.00  0.00    -0.014 A 
ATOM     62  C   UNL     1       6.351 -12.721   4.285  1.00  0.00     0.010 A 
ATOM     63  C   UNL     1       7.778 -11.168   5.495  1.00  0.00     0.010 A 
ATOM     64  C   UNL     1       6.457 -13.633   5.335  1.00  0.00     0.020 A 
ATOM     65  C   UNL     1       7.912 -12.091   6.531  1.00  0.00     0.020 A 
ATOM     66  C   UNL     1       7.244 -13.315   6.446  1.00  0.00     0.054 A 
BRANCH  66  67
ATOM     67  S   UNL     1       7.438 -14.553   7.755  1.00  0.00     0.124 S 
ATOM     68  O   UNL     1       6.135 -14.505   8.412  1.00  0.00    -0.237 OA
ATOM     69  O   UNL     1       7.719 -15.772   7.001  1.00  0.00    -0.237 OA
ATOM     70  O   UNL     1       8.555 -14.046   8.548  1.00  0.00    -0.744 OA
ENDBRANCH  66  67
ENDBRANCH  40  61
ENDBRANCH  14  15
ENDBRANCH   7   9
ENDBRANCH   6   7
ENDBRANCH   5   6
ENDBRANCH   4   5
ENDBRANCH   3   4
ENDBRANCH   2   3
ENDBRANCH   1   2
BRANCH   1  71
ATOM     71  O   UNL     1       3.009   1.583  -5.459  1.00  0.00    -0.376 OA
BRANCH  71  72
ATOM     72  C   UNL     1       3.355   1.801  -4.101  1.00  0.00     0.202 C 
BRANCH  72  73
ATOM     73  C   UNL     1       2.929   0.797  -3.013  1.00  0.00     0.261 C 
BRANCH  73  74
ATOM     74  O   UNL     1       3.023  -0.608  -3.288  1.00  0.00    -0.462 OA
BRANCH  74  75
ATOM     75  C   UNL     1       1.878  -1.145  -3.800  1.00  0.00     0.329 C 
ATOM     76  O   UNL     1       1.011  -0.490  -4.370  1.00  0.00    -0.250 OA
BRANCH  75  77
ATOM     77  C   UNL     1       1.776  -2.650  -3.523  1.00  0.00     0.200 C 
ATOM     78  C   UNL     1       2.627  -3.384  -4.583  1.00  0.00     0.073 C 
ATOM     79  N   UNL     1       0.344  -3.068  -3.538  1.00  0.00    -0.321 N 
ATOM     80  C   UNL     1       2.403  -4.871  -4.518  1.00  0.00    -0.040 A 
ATOM     81  C   UNL     1      -0.007  -4.349  -4.138  1.00  0.00     0.156 C 
ATOM     82  C   UNL     1       3.413  -5.793  -4.791  1.00  0.00     0.004 A 
ATOM     83  C   UNL     1       1.129  -5.335  -4.179  1.00  0.00    -0.025 A 
ATOM     84  C   UNL     1       3.207  -7.157  -4.589  1.00  0.00     0.000 A 
ATOM     85  C   UNL     1       0.918  -6.707  -3.983  1.00  0.00     0.006 A 
ATOM     86  C   UNL     1       1.965  -7.612  -4.159  1.00  0.00     0.000 A 
BRANCH  79  87
ATOM     87  C   UNL     1      -0.700  -2.386  -2.921  1.00  0.00     0.261 C 
ATOM     88  O   UNL     1      -1.877  -2.648  -3.197  1.00  0.00    -0.271 OA
BRANCH  87  89
ATOM     89  C   UNL     1      -0.403  -1.298  -1.872  1.00  0.00     0.329 C 
BRANCH  89  90
ATOM     90  O   UNL     1       0.781  -1.440  -1.096  1.00  0.00    -0.484 OA
BRANCH  90  91
ATOM     91  C   UNL     1       0.642  -2.278  -0.022  1.00  0.00     0.120 A 
ATOM     92  C   UNL     1       1.400  -1.958   1.106  1.00  0.00     0.046 A 
ATOM     93  C   UNL     1      -0.199  -3.389   0.000  1.00  0.00     0.046 A 
ATOM     94  C   UNL     1       1.240  -2.688   2.282  1.00  0.00     0.004 A 
ATOM     95  C   UNL     1      -0.376  -4.096   1.178  1.00  0.00     0.004 A 
ATOM     96  C   UNL     1       0.325  -3.733   2.323  1.00  0.00     0.000 A 
ENDBRANCH  90  91
ENDBRANCH  89  90
ENDBRANCH  87  89
ENDBRANCH  79  87
ENDBRANCH  75  77
ENDBRANCH  74  75
ENDBRANCH  73  74
ENDBRANCH  72  73
ENDBRANCH  71  72
ENDBRANCH   1  71
TORSDOF 24
