REMARK SMILES CCOc1cccc(OCC)c1-c1ccc([C@@H](C)C(=O)OCCOCCOCCOC(=O)c2ccc(-c3c4nc(c(-c5ccc(S(=O)(=O)[O-])cc5)c5ccc([nH]5)c(-c5ccc(S(=O)(=O)[O-])cc5)c5nc(c(-c6ccc(S(=O)(=O)[O-])cc6)c6ccc3[nH]6)C=C5)C=C4)cc2)cc1F
REMARK SMILES IDX 25 1 24 2 23 3 22 4 21 5 19 6 20 7 17 8 18 9 16 10 13 11
REMARK SMILES IDX 14 12 94 13 15 14 93 15 95 16 12 17 4 18 5 19 6 20 8 21 7 22
REMARK SMILES IDX 3 23 2 24 1 25 9 26 10 27 11 28 26 29 27 30 28 31 29 32
REMARK SMILES IDX 30 33 31 34 32 35 33 36 34 37 92 38 35 39 91 40 36 41 37 42
REMARK SMILES IDX 38 43 85 44 39 45 90 46 84 47 86 48 40 49 89 50 83 51 82 52
REMARK SMILES IDX 41 54 71 55 52 56 70 57 53 58 56 59 69 60 87 61 54 62 55 63
REMARK SMILES IDX 68 65 88 66 57 67 42 68 43 69 51 70 44 71 50 72 45 73 46 74
REMARK SMILES IDX 47 75 48 76 49 77 72 78 73 79 81 80 74 81 80 82 75 83 76 84
REMARK SMILES IDX 77 85 78 86 79 87 58 88 59 89 67 90 60 91 66 92 61 93 62 94
REMARK SMILES IDX 63 95 64 96 65 97
REMARK H PARENT 86 53 56 64
REMARK Flexibility Score: inf
ROOT
ATOM      1  C   UNL     1      -1.353  -0.957  -3.894  1.00  0.00     0.188 C 
ENDROOT
BRANCH   1   2
ATOM      2  O   UNL     1      -1.282  -1.702  -5.103  1.00  0.00    -0.376 OA
BRANCH   2   3
ATOM      3  C   UNL     1      -0.005  -1.985  -5.661  1.00  0.00     0.202 C 
BRANCH   3   4
ATOM      4  C   UNL     1       0.891  -0.790  -5.997  1.00  0.00     0.261 C 
BRANCH   4   5
ATOM      5  O   UNL     1       1.339  -0.045  -4.839  1.00  0.00    -0.463 OA
BRANCH   5   6
ATOM      6  C   UNL     1       1.135   1.294  -4.885  1.00  0.00     0.313 C 
ATOM      7  O   UNL     1       0.633   1.859  -5.856  1.00  0.00    -0.252 OA
BRANCH   6   8
ATOM      8  C   UNL     1       1.590   2.111  -3.677  1.00  0.00     0.126 C 
ATOM      9  C   UNL     1       2.687   3.066  -4.160  1.00  0.00     0.025 C 
BRANCH   8  10
ATOM     10  C   UNL     1       2.007   1.508  -2.333  1.00  0.00    -0.031 A 
ATOM     11  C   UNL     1       2.963   0.691   0.265  1.00  0.00     0.025 A 
ATOM     12  C   UNL     1       3.175  -0.085  -0.892  1.00  0.00     0.012 A 
ATOM     13  C   UNL     1       2.200   1.851   0.099  1.00  0.00     0.131 A 
ATOM     14  C   UNL     1       2.751   0.336  -2.171  1.00  0.00     0.005 A 
ATOM     15  C   UNL     1       1.726   2.246  -1.162  1.00  0.00     0.044 A 
ATOM     16  F   UNL     1       1.946   2.651   1.145  1.00  0.00    -0.206 F 
BRANCH  11  17
ATOM     17  C   UNL     1       3.540   0.285   1.574  1.00  0.00     0.069 A 
ATOM     18  C   UNL     1       2.676  -0.172   2.604  1.00  0.00     0.130 A 
ATOM     19  C   UNL     1       3.136  -0.748   3.796  1.00  0.00     0.047 A 
ATOM     20  C   UNL     1       4.494  -0.876   4.011  1.00  0.00     0.008 A 
ATOM     21  C   UNL     1       4.923   0.228   1.859  1.00  0.00     0.130 A 
ATOM     22  C   UNL     1       5.371  -0.367   3.061  1.00  0.00     0.047 A 
BRANCH  18  23
ATOM     23  O   UNL     1       1.327   0.044   2.509  1.00  0.00    -0.493 OA
BRANCH  23  24
ATOM     24  C   UNL     1       0.592  -1.159   2.307  1.00  0.00     0.226 C 
ATOM     25  C   UNL     1      -0.075  -1.005   0.969  1.00  0.00     0.049 C 
ENDBRANCH  23  24
ENDBRANCH  18  23
BRANCH  21  26
ATOM     26  O   UNL     1       6.004   0.658   1.140  1.00  0.00    -0.493 OA
BRANCH  26  27
ATOM     27  C   UNL     1       5.905   1.533   0.028  1.00  0.00     0.226 C 
ATOM     28  C   UNL     1       6.316   0.752  -1.206  1.00  0.00     0.049 C 
ENDBRANCH  26  27
ENDBRANCH  21  26
ENDBRANCH  11  17
ENDBRANCH   8  10
ENDBRANCH   6   8
ENDBRANCH   5   6
ENDBRANCH   4   5
ENDBRANCH   3   4
ENDBRANCH   2   3
ENDBRANCH   1   2
BRANCH   1  29
ATOM     29  C   UNL     1      -0.348  -1.272  -2.775  1.00  0.00     0.188 C 
BRANCH  29  30
ATOM     30  O   UNL     1       0.311  -2.525  -2.878  1.00  0.00    -0.376 OA
BRANCH  30  31
ATOM     31  C   UNL     1       0.034  -3.442  -1.827  1.00  0.00     0.202 C 
BRANCH  31  32
ATOM     32  C   UNL     1      -1.402  -3.966  -1.849  1.00  0.00     0.261 C 
BRANCH  32  33
ATOM     33  O   UNL     1      -2.348  -2.895  -1.663  1.00  0.00    -0.460 OA
BRANCH  33  34
ATOM     34  C   UNL     1      -2.906  -2.751  -0.449  1.00  0.00     0.338 C 
ATOM     35  O   UNL     1      -2.764  -3.489   0.521  1.00  0.00    -0.246 OA
BRANCH  34  36
ATOM     36  C   UNL     1      -3.723  -1.524  -0.445  1.00  0.00     0.060 A 
ATOM     37  C   UNL     1      -3.129  -0.256  -0.514  1.00  0.00     0.016 A 
ATOM     38  C   UNL     1      -5.102  -1.637  -0.297  1.00  0.00     0.016 A 
ATOM     39  C   UNL     1      -3.896   0.900  -0.401  1.00  0.00     0.010 A 
ATOM     40  C   UNL     1      -5.877  -0.480  -0.216  1.00  0.00     0.010 A 
ATOM     41  C   UNL     1      -5.277   0.792  -0.241  1.00  0.00    -0.014 A 
BRANCH  41  42
ATOM     42  C   UNL     1      -6.107   1.990   0.008  1.00  0.00     0.031 A 
ATOM     43  C   UNL     1      -6.665   2.203   1.383  1.00  0.00     0.074 A 
ATOM     44  C   UNL     1      -6.392   2.847  -0.988  1.00  0.00     0.049 A 
ATOM     45  N   UNL     1      -7.614   3.010   1.774  1.00  0.00    -0.248 NA
ATOM     46  C   UNL     1      -6.079   1.385   2.458  1.00  0.00     0.031 C 
ATOM     47  C   UNL     1      -5.837   2.795  -2.340  1.00  0.00     0.029 A 
ATOM     48  N   UNL     1      -7.254   3.913  -1.016  1.00  0.00    -0.354 N 
ATOM     49  C   UNL     1      -7.772   2.768   3.133  1.00  0.00     0.074 A 
ATOM     50  C   UNL     1      -6.820   1.741   3.498  1.00  0.00     0.031 C 
ATOM     51  C   UNL     1      -6.398   3.768  -3.078  1.00  0.00     0.029 A 
ATOM     52  C   UNL     1      -7.395   4.463  -2.268  1.00  0.00     0.049 A 
ATOM     53  H   UNL     1      -7.724   4.252  -0.220  1.00  0.00     0.167 HD
ATOM     54  C   UNL     1      -8.646   3.344   3.993  1.00  0.00     0.031 A 
ATOM     55  C   UNL     1      -8.273   5.378  -2.722  1.00  0.00     0.031 A 
ATOM     56  C   UNL     1      -9.591   4.358   3.610  1.00  0.00     0.049 A 
ATOM     57  C   UNL     1      -9.294   5.945  -1.774  1.00  0.00     0.074 A 
ATOM     58  C   UNL     1     -10.533   5.000   4.393  1.00  0.00     0.029 A 
ATOM     59  N   UNL     1      -9.713   4.878   2.329  1.00  0.00    -0.354 N 
ATOM     60  N   UNL     1      -9.475   5.678  -0.502  1.00  0.00    -0.248 NA
ATOM     61  C   UNL     1     -10.233   6.931  -2.324  1.00  0.00     0.031 C 
ATOM     62  C   UNL     1     -11.253   5.878   3.575  1.00  0.00     0.029 A 
ATOM     63  C   UNL     1     -10.724   5.821   2.295  1.00  0.00     0.049 A 
ATOM     64  H   UNL     1      -9.160   4.614   1.558  1.00  0.00     0.167 HD
ATOM     65  C   UNL     1     -10.537   6.478  -0.094  1.00  0.00     0.074 A 
ATOM     66  C   UNL     1     -10.949   7.246  -1.252  1.00  0.00     0.031 C 
ATOM     67  C   UNL     1     -11.118   6.571   1.128  1.00  0.00     0.031 A 
BRANCH  54  68
ATOM     68  C   UNL     1      -8.651   2.839   5.409  1.00  0.00    -0.014 A 
ATOM     69  C   UNL     1      -7.602   3.136   6.298  1.00  0.00     0.010 A 
ATOM     70  C   UNL     1      -9.725   2.049   5.857  1.00  0.00     0.010 A 
ATOM     71  C   UNL     1      -7.606   2.615   7.595  1.00  0.00     0.020 A 
ATOM     72  C   UNL     1      -9.746   1.546   7.161  1.00  0.00     0.020 A 
ATOM     73  C   UNL     1      -8.675   1.816   8.015  1.00  0.00     0.054 A 
BRANCH  73  74
ATOM     74  S   UNL     1      -8.657   1.149   9.702  1.00  0.00     0.124 S 
ATOM     75  O   UNL     1      -7.670   0.078   9.591  1.00  0.00    -0.237 OA
ATOM     76  O   UNL     1      -8.245   2.302  10.500  1.00  0.00    -0.237 OA
ATOM     77  O   UNL     1     -10.034   0.709   9.915  1.00  0.00    -0.744 OA
ENDBRANCH  73  74
ENDBRANCH  54  68
BRANCH  55  78
ATOM     78  C   UNL     1      -8.254   5.768  -4.158  1.00  0.00    -0.014 A 
ATOM     79  C   UNL     1      -7.795   7.037  -4.547  1.00  0.00     0.010 A 
ATOM     80  C   UNL     1      -8.668   4.856  -5.147  1.00  0.00     0.010 A 
ATOM     81  C   UNL     1      -7.751   7.388  -5.899  1.00  0.00     0.020 A 
ATOM     82  C   UNL     1      -8.602   5.194  -6.501  1.00  0.00     0.020 A 
ATOM     83  C   UNL     1      -8.151   6.463  -6.868  1.00  0.00     0.054 A 
BRANCH  83  84
ATOM     84  S   UNL     1      -8.016   6.916  -8.621  1.00  0.00     0.124 S 
ATOM     85  O   UNL     1      -9.146   7.824  -8.787  1.00  0.00    -0.237 OA
ATOM     86  O   UNL     1      -6.693   7.532  -8.687  1.00  0.00    -0.237 OA
ATOM     87  O   UNL     1      -8.133   5.635  -9.314  1.00  0.00    -0.744 OA
ENDBRANCH  83  84
ENDBRANCH  55  78
BRANCH  67  88
ATOM     88  C   UNL     1     -12.237   7.564   1.284  1.00  0.00    -0.014 A 
ATOM     89  C   UNL     1     -13.515   7.310   0.758  1.00  0.00     0.010 A 
ATOM     90  C   UNL     1     -12.016   8.744   2.017  1.00  0.00     0.010 A 
ATOM     91  C   UNL     1     -14.548   8.234   0.938  1.00  0.00     0.020 A 
ATOM     92  C   UNL     1     -13.052   9.659   2.220  1.00  0.00     0.020 A 
ATOM     93  C   UNL     1     -14.309   9.404   1.667  1.00  0.00     0.054 A 
BRANCH  93  94
ATOM     94  S   UNL     1     -15.674  10.569   1.926  1.00  0.00     0.124 S 
ATOM     95  O   UNL     1     -15.770  11.219   0.621  1.00  0.00    -0.237 OA
ATOM     96  O   UNL     1     -16.787   9.690   2.274  1.00  0.00    -0.237 OA
ATOM     97  O   UNL     1     -15.200  11.422   3.013  1.00  0.00    -0.744 OA
ENDBRANCH  93  94
ENDBRANCH  67  88
ENDBRANCH  41  42
ENDBRANCH  34  36
ENDBRANCH  33  34
ENDBRANCH  32  33
ENDBRANCH  31  32
ENDBRANCH  30  31
ENDBRANCH  29  30
ENDBRANCH   1  29
TORSDOF 26
