REMARK SMILES CC[C@H](Oc1ccccc1/C=C1\SC(N)=[NH+]C1=O)C(=O)OCCOCCOCCOC(=O)c1ccc(-c2c3nc(c(-c4ccc(S(=O)(=O)[O-])cc4)c4ccc([nH]4)c(-c4ccc(S(=O)(=O)[O-])cc4)c4nc(c(-c5ccc(S(=O)(=O)[O-])cc5)c5ccc2[nH]5)C=C4)C=C3)cc1
REMARK SMILES IDX 25 1 24 2 23 3 22 4 21 5 19 6 20 7 3 8 2 9 1 10 4 11 5 12
REMARK SMILES IDX 6 13 10 14 7 15 9 16 8 17 11 18 12 19 13 20 17 21 14 22
REMARK SMILES IDX 16 23 18 24 15 25 26 29 27 30 28 31 29 32 30 33 31 34 32 35
REMARK SMILES IDX 33 36 34 37 92 38 35 39 91 40 36 41 37 42 38 43 85 44 39 45
REMARK SMILES IDX 90 46 84 47 86 48 40 49 89 50 83 51 82 52 41 54 71 55 52 56
REMARK SMILES IDX 70 57 53 58 56 59 69 60 87 61 54 62 55 63 68 65 88 66 57 67
REMARK SMILES IDX 42 68 43 69 51 70 44 71 50 72 45 73 46 74 47 75 48 76 49 77
REMARK SMILES IDX 72 78 73 79 81 80 74 81 80 82 75 83 76 84 77 85 78 86 79 87
REMARK SMILES IDX 58 88 59 89 67 90 60 91 66 92 61 93 62 94 63 95 64 96 65 97
REMARK H PARENT 16 26 15 27 15 28 86 53 56 64
REMARK Flexibility Score: inf
ROOT
ATOM      1  C   UNL     1       1.182  -0.662  -5.135  1.00  0.00     0.188 C 
ENDROOT
BRANCH   1   2
ATOM      2  O   UNL     1       0.469  -1.177  -6.233  1.00  0.00    -0.376 OA
BRANCH   2   3
ATOM      3  C   UNL     1      -0.522  -2.171  -6.059  1.00  0.00     0.202 C 
BRANCH   3   4
ATOM      4  C   UNL     1      -0.933  -2.839  -4.733  1.00  0.00     0.261 C 
BRANCH   4   5
ATOM      5  O   UNL     1      -0.559  -2.247  -3.485  1.00  0.00    -0.461 OA
BRANCH   5   6
ATOM      6  C   UNL     1       0.493  -2.829  -2.843  1.00  0.00     0.347 C 
ATOM      7  O   UNL     1       1.178  -3.724  -3.332  1.00  0.00    -0.248 OA
BRANCH   6   8
ATOM      8  C   UNL     1       0.671  -2.349  -1.380  1.00  0.00     0.282 C 
BRANCH   8   9
ATOM      9  C   UNL     1      -0.025  -3.484  -0.589  1.00  0.00     0.054 C 
ATOM     10  C   UNL     1      -0.189  -3.364   0.913  1.00  0.00     0.008 C 
ENDBRANCH   8   9
BRANCH   8  11
ATOM     11  O   UNL     1       0.176  -1.023  -1.149  1.00  0.00    -0.478 OA
BRANCH  11  12
ATOM     12  C   UNL     1       0.512  -0.342  -0.003  1.00  0.00     0.127 A 
ATOM     13  C   UNL     1       1.431  -0.818   0.937  1.00  0.00     0.047 A 
ATOM     14  C   UNL     1      -0.156   0.865   0.290  1.00  0.00     0.018 A 
ATOM     15  C   UNL     1       1.478  -0.292   2.232  1.00  0.00     0.004 A 
ATOM     16  C   UNL     1      -0.115   1.379   1.601  1.00  0.00     0.012 A 
ATOM     17  C   UNL     1       0.655   0.767   2.583  1.00  0.00     0.001 A 
BRANCH  14  18
ATOM     18  C   UNL     1      -0.757   1.772  -0.699  1.00  0.00     0.036 C 
ATOM     19  C   UNL     1      -1.859   1.630  -1.438  1.00  0.00     0.110 C 
ATOM     20  S   UNL     1      -2.921   0.293  -1.540  1.00  0.00     0.006 SA
ATOM     21  C   UNL     1      -2.346   2.731  -2.333  1.00  0.00     0.346 C 
ATOM     22  C   UNL     1      -3.732   1.093  -2.858  1.00  0.00     0.314 C 
ATOM     23  N   UNL     1      -3.392   2.304  -3.128  1.00  0.00    -0.200 N 
ATOM     24  O   UNL     1      -1.900   3.865  -2.319  1.00  0.00    -0.240 OA
ATOM     25  N   UNL     1      -4.659   0.386  -3.532  1.00  0.00    -0.281 N 
ATOM     26  H   UNL     1      -3.824   2.859  -3.817  1.00  0.00     0.316 HD
ATOM     27  H   UNL     1      -4.864  -0.539  -3.263  1.00  0.00     0.302 HD
ATOM     28  H   UNL     1      -5.133   0.793  -4.293  1.00  0.00     0.302 HD
ENDBRANCH  14  18
ENDBRANCH  11  12
ENDBRANCH   8  11
ENDBRANCH   6   8
ENDBRANCH   5   6
ENDBRANCH   4   5
ENDBRANCH   3   4
ENDBRANCH   2   3
ENDBRANCH   1   2
BRANCH   1  29
ATOM     29  C   UNL     1       0.427   0.305  -4.209  1.00  0.00     0.188 C 
BRANCH  29  30
ATOM     30  O   UNL     1      -0.930   0.624  -4.461  1.00  0.00    -0.376 OA
BRANCH  30  31
ATOM     31  C   UNL     1      -1.281   1.170  -5.723  1.00  0.00     0.202 C 
BRANCH  31  32
ATOM     32  C   UNL     1      -0.516   2.368  -6.299  1.00  0.00     0.261 C 
BRANCH  32  33
ATOM     33  O   UNL     1       0.910   2.219  -6.315  1.00  0.00    -0.460 OA
BRANCH  33  34
ATOM     34  C   UNL     1       1.581   3.026  -5.453  1.00  0.00     0.338 C 
ATOM     35  O   UNL     1       1.114   3.860  -4.700  1.00  0.00    -0.246 OA
BRANCH  34  36
ATOM     36  C   UNL     1       2.989   2.595  -5.394  1.00  0.00     0.060 A 
ATOM     37  C   UNL     1       3.509   2.145  -4.170  1.00  0.00     0.016 A 
ATOM     38  C   UNL     1       3.792   2.664  -6.530  1.00  0.00     0.016 A 
ATOM     39  C   UNL     1       4.847   1.776  -4.076  1.00  0.00     0.010 A 
ATOM     40  C   UNL     1       5.139   2.322  -6.427  1.00  0.00     0.010 A 
ATOM     41  C   UNL     1       5.676   1.906  -5.195  1.00  0.00    -0.014 A 
BRANCH  41  42
ATOM     42  C   UNL     1       7.144   1.794  -5.046  1.00  0.00     0.031 A 
ATOM     43  C   UNL     1       7.943   3.061  -4.933  1.00  0.00     0.074 A 
ATOM     44  C   UNL     1       7.748   0.594  -5.029  1.00  0.00     0.049 A 
ATOM     45  N   UNL     1       9.239   3.222  -4.898  1.00  0.00    -0.248 NA
ATOM     46  C   UNL     1       7.176   4.317  -4.857  1.00  0.00     0.031 C 
ATOM     47  C   UNL     1       7.068  -0.700  -5.077  1.00  0.00     0.029 A 
ATOM     48  N   UNL     1       9.081   0.274  -4.980  1.00  0.00    -0.354 N 
ATOM     49  C   UNL     1       9.444   4.595  -4.820  1.00  0.00     0.074 A 
ATOM     50  C   UNL     1       8.142   5.223  -4.835  1.00  0.00     0.031 C 
ATOM     51  C   UNL     1       7.992  -1.677  -5.068  1.00  0.00     0.029 A 
ATOM     52  C   UNL     1       9.325  -1.076  -5.058  1.00  0.00     0.049 A 
ATOM     53  H   UNL     1       9.795   0.947  -4.897  1.00  0.00     0.167 HD
ATOM     54  C   UNL     1      10.615   5.269  -4.744  1.00  0.00     0.031 A 
ATOM     55  C   UNL     1      10.492  -1.744  -5.141  1.00  0.00     0.031 A 
ATOM     56  C   UNL     1      11.905   4.632  -4.745  1.00  0.00     0.049 A 
ATOM     57  C   UNL     1      11.784  -0.966  -5.136  1.00  0.00     0.074 A 
ATOM     58  C   UNL     1      13.153   5.221  -4.652  1.00  0.00     0.029 A 
ATOM     59  N   UNL     1      12.113   3.265  -4.856  1.00  0.00    -0.354 N 
ATOM     60  N   UNL     1      11.967   0.330  -5.038  1.00  0.00    -0.248 NA
ATOM     61  C   UNL     1      13.027  -1.742  -5.247  1.00  0.00     0.031 C 
ATOM     62  C   UNL     1      14.117   4.216  -4.776  1.00  0.00     0.029 A 
ATOM     63  C   UNL     1      13.470   2.993  -4.867  1.00  0.00     0.049 A 
ATOM     64  H   UNL     1      11.400   2.588  -4.918  1.00  0.00     0.167 HD
ATOM     65  C   UNL     1      13.346   0.520  -5.038  1.00  0.00     0.074 A 
ATOM     66  C   UNL     1      13.947  -0.794  -5.135  1.00  0.00     0.031 C 
ATOM     67  C   UNL     1      14.051   1.677  -4.961  1.00  0.00     0.031 A 
BRANCH  54  68
ATOM     68  C   UNL     1      10.554   6.773  -4.699  1.00  0.00    -0.014 A 
ATOM     69  C   UNL     1      10.057   7.455  -3.574  1.00  0.00     0.010 A 
ATOM     70  C   UNL     1      11.042   7.518  -5.789  1.00  0.00     0.010 A 
ATOM     71  C   UNL     1      10.019   8.852  -3.554  1.00  0.00     0.020 A 
ATOM     72  C   UNL     1      11.035   8.915  -5.760  1.00  0.00     0.020 A 
ATOM     73  C   UNL     1      10.510   9.573  -4.646  1.00  0.00     0.054 A 
BRANCH  73  74
ATOM     74  S   UNL     1      10.483  11.385  -4.576  1.00  0.00     0.124 S 
ATOM     75  O   UNL     1       9.054  11.670  -4.678  1.00  0.00    -0.237 OA
ATOM     76  O   UNL     1      11.087  11.662  -3.275  1.00  0.00    -0.237 OA
ATOM     77  O   UNL     1      11.283  11.791  -5.729  1.00  0.00    -0.744 OA
ENDBRANCH  73  74
ENDBRANCH  54  68
BRANCH  55  78
ATOM     78  C   UNL     1      10.498  -3.230  -5.249  1.00  0.00    -0.014 A 
ATOM     79  C   UNL     1      11.003  -4.020  -4.202  1.00  0.00     0.010 A 
ATOM     80  C   UNL     1      10.001  -3.864  -6.403  1.00  0.00     0.010 A 
ATOM     81  C   UNL     1      11.029  -5.414  -4.313  1.00  0.00     0.020 A 
ATOM     82  C   UNL     1       9.995  -5.259  -6.505  1.00  0.00     0.020 A 
ATOM     83  C   UNL     1      10.520  -6.024  -5.463  1.00  0.00     0.054 A 
BRANCH  83  84
ATOM     84  S   UNL     1      10.520  -7.836  -5.561  1.00  0.00     0.124 S 
ATOM     85  O   UNL     1      11.941  -8.133  -5.708  1.00  0.00    -0.237 OA
ATOM     86  O   UNL     1       9.922  -8.218  -4.284  1.00  0.00    -0.237 OA
ATOM     87  O   UNL     1       9.697  -8.116  -6.735  1.00  0.00    -0.744 OA
ENDBRANCH  83  84
ENDBRANCH  55  78
BRANCH  67  88
ATOM     88  C   UNL     1      15.555   1.576  -4.927  1.00  0.00    -0.014 A 
ATOM     89  C   UNL     1      16.294   1.193  -6.060  1.00  0.00     0.010 A 
ATOM     90  C   UNL     1      16.243   1.934  -3.752  1.00  0.00     0.010 A 
ATOM     91  C   UNL     1      17.690   1.137  -6.008  1.00  0.00     0.020 A 
ATOM     92  C   UNL     1      17.639   1.912  -3.705  1.00  0.00     0.020 A 
ATOM     93  C   UNL     1      18.353   1.499  -4.831  1.00  0.00     0.054 A 
BRANCH  93  94
ATOM     94  S   UNL     1      20.166   1.459  -4.804  1.00  0.00     0.124 S 
ATOM     95  O   UNL     1      20.439   0.024  -4.815  1.00  0.00    -0.237 OA
ATOM     96  O   UNL     1      20.520   2.176  -6.026  1.00  0.00    -0.237 OA
ATOM     97  O   UNL     1      20.511   2.148  -3.562  1.00  0.00    -0.744 OA
ENDBRANCH  93  94
ENDBRANCH  67  88
ENDBRANCH  41  42
ENDBRANCH  34  36
ENDBRANCH  33  34
ENDBRANCH  32  33
ENDBRANCH  31  32
ENDBRANCH  30  31
ENDBRANCH  29  30
ENDBRANCH   1  29
TORSDOF 24
