REMARK SMILES Cc1cc(C(=O)OCCOCCOCCOC(=O)c2ccc(-c3c4nc(c(-c5ccc(S(=O)(=O)[O-])cc5)c5ccc([nH]5)c(-c5ccc(S(=O)(=O)[O-])cc5)c5nc(c(-c6ccc(S(=O)(=O)[O-])cc6)c6ccc3[nH]6)C=C5)C=C4)cc2)c([N+](=O)[O-])cc1[N+](=O)[O-]
REMARK SMILES IDX 12 1 11 2 10 3 9 4 8 5 7 6 5 7 6 8 4 9 1 10 2 11 3 12 84 13
REMARK SMILES IDX 83 14 79 15 85 16 86 17 87 18 80 19 81 20 82 21 13 22 14 23
REMARK SMILES IDX 15 24 16 25 17 26 18 27 19 28 20 29 78 30 21 31 77 32 22 33
REMARK SMILES IDX 23 34 24 35 71 36 25 37 76 38 70 39 72 40 26 41 75 42 69 43
REMARK SMILES IDX 68 44 27 46 57 47 38 48 56 49 39 50 42 51 55 52 73 53 40 54
REMARK SMILES IDX 41 55 54 57 74 58 43 59 28 60 29 61 37 62 30 63 36 64 31 65
REMARK SMILES IDX 32 66 33 67 34 68 35 69 58 70 59 71 67 72 60 73 66 74 61 75
REMARK SMILES IDX 62 76 63 77 64 78 65 79 44 80 45 81 53 82 46 83 52 84 47 85
REMARK SMILES IDX 48 86 49 87 50 88 51 89
REMARK H PARENT 72 45 42 56
REMARK Flexibility Score: inf
ROOT
ATOM      1  C   UNL     1      -3.855  -5.396  -3.583  1.00  0.00     0.188 C 
ENDROOT
BRANCH   1   2
ATOM      2  C   UNL     1      -3.687  -5.376  -2.059  1.00  0.00     0.188 C 
BRANCH   2   3
ATOM      3  O   UNL     1      -4.596  -4.684  -1.164  1.00  0.00    -0.376 OA
BRANCH   3   4
ATOM      4  C   UNL     1      -5.492  -3.602  -1.549  1.00  0.00     0.202 C 
BRANCH   4   5
ATOM      5  C   UNL     1      -5.325  -2.027  -0.953  1.00  0.00     0.261 C 
BRANCH   5   6
ATOM      6  O   UNL     1      -4.171  -0.880  -1.386  1.00  0.00    -0.459 OA
BRANCH   6   7
ATOM      7  C   UNL     1      -3.169  -0.110  -0.734  1.00  0.00     0.345 C 
ATOM      8  O   UNL     1      -3.012   0.118   0.465  1.00  0.00    -0.246 OA
BRANCH   7   9
ATOM      9  C   UNL     1      -2.007   0.650  -1.291  1.00  0.00     0.138 A 
ATOM     10  C   UNL     1       1.704   0.508  -0.066  1.00  0.00     0.052 C 
ATOM     11  C   UNL     1       0.431   1.099  -0.635  1.00  0.00     0.028 A 
ATOM     12  C   UNL     1      -0.701   0.258  -0.803  1.00  0.00     0.033 A 
ATOM     13  C   UNL     1       0.234   2.442  -0.930  1.00  0.00     0.279 A 
ATOM     14  C   UNL     1      -1.036   2.907  -1.335  1.00  0.00     0.172 A 
ATOM     15  C   UNL     1      -2.145   2.025  -1.487  1.00  0.00     0.290 A 
BRANCH  13  16
ATOM     16  N   UNL     1       1.285   3.436  -0.706  1.00  0.00     0.063 N 
ATOM     17  O   UNL     1       0.961   4.476  -0.114  1.00  0.00    -0.258 OA
ATOM     18  O   UNL     1       2.413   3.197  -1.155  1.00  0.00    -0.258 OA
ENDBRANCH  13  16
BRANCH  15  19
ATOM     19  N   UNL     1      -3.474   2.628  -1.647  1.00  0.00     0.063 N 
ATOM     20  O   UNL     1      -4.458   1.892  -1.773  1.00  0.00    -0.258 OA
ATOM     21  O   UNL     1      -3.532   3.865  -1.684  1.00  0.00    -0.258 OA
ENDBRANCH  15  19
ENDBRANCH   7   9
ENDBRANCH   6   7
ENDBRANCH   5   6
ENDBRANCH   4   5
ENDBRANCH   3   4
ENDBRANCH   2   3
ENDBRANCH   1   2
BRANCH   1  22
ATOM     22  O   UNL     1      -4.200  -4.109  -4.062  1.00  0.00    -0.376 OA
BRANCH  22  23
ATOM     23  C   UNL     1      -4.163  -3.931  -5.468  1.00  0.00     0.202 C 
BRANCH  23  24
ATOM     24  C   UNL     1      -2.743  -3.739  -6.047  1.00  0.00     0.261 C 
BRANCH  24  25
ATOM     25  O   UNL     1      -2.140  -2.469  -5.673  1.00  0.00    -0.460 OA
BRANCH  25  26
ATOM     26  C   UNL     1      -0.913  -2.477  -5.034  1.00  0.00     0.338 C 
ATOM     27  O   UNL     1       0.124  -2.219  -5.635  1.00  0.00    -0.246 OA
BRANCH  26  28
ATOM     28  C   UNL     1      -1.050  -2.506  -3.535  1.00  0.00     0.060 A 
ATOM     29  C   UNL     1      -0.114  -2.767  -2.522  1.00  0.00     0.016 A 
ATOM     30  C   UNL     1      -2.299  -2.305  -3.072  1.00  0.00     0.016 A 
ATOM     31  C   UNL     1      -0.497  -2.909  -1.092  1.00  0.00     0.010 A 
ATOM     32  C   UNL     1      -2.582  -2.629  -1.743  1.00  0.00     0.010 A 
ATOM     33  C   UNL     1      -1.812  -2.800  -0.622  1.00  0.00    -0.014 A 
BRANCH  33  34
ATOM     34  C   UNL     1      -2.526  -3.098   0.760  1.00  0.00     0.031 A 
ATOM     35  C   UNL     1      -3.365  -2.223   1.865  1.00  0.00     0.074 A 
ATOM     36  C   UNL     1      -2.454  -4.402   1.108  1.00  0.00     0.049 A 
ATOM     37  N   UNL     1      -3.214  -2.346   3.180  1.00  0.00    -0.248 NA
ATOM     38  C   UNL     1      -4.404  -1.161   1.680  1.00  0.00     0.031 C 
ATOM     39  C   UNL     1      -3.140  -5.090   2.193  1.00  0.00     0.029 A 
ATOM     40  N   UNL     1      -1.544  -5.339   0.626  1.00  0.00    -0.354 N 
ATOM     41  C   UNL     1      -4.150  -1.484   3.788  1.00  0.00     0.074 A 
ATOM     42  C   UNL     1      -4.421  -0.509   2.830  1.00  0.00     0.031 C 
ATOM     43  C   UNL     1      -2.455  -6.209   2.481  1.00  0.00     0.029 A 
ATOM     44  C   UNL     1      -1.247  -6.212   1.672  1.00  0.00     0.049 A 
ATOM     45  H   UNL     1      -1.178  -5.379  -0.287  1.00  0.00     0.167 HD
ATOM     46  C   UNL     1      -4.919  -1.728   4.893  1.00  0.00     0.031 A 
ATOM     47  C   UNL     1       0.038  -6.295   2.120  1.00  0.00     0.031 A 
ATOM     48  C   UNL     1      -4.389  -2.873   5.582  1.00  0.00     0.049 A 
ATOM     49  C   UNL     1       0.176  -5.822   3.552  1.00  0.00     0.074 A 
ATOM     50  C   UNL     1      -4.762  -4.198   5.666  1.00  0.00     0.029 A 
ATOM     51  N   UNL     1      -3.067  -2.796   5.983  1.00  0.00    -0.354 N 
ATOM     52  N   UNL     1      -0.797  -5.293   4.248  1.00  0.00    -0.248 NA
ATOM     53  C   UNL     1       1.414  -5.903   4.321  1.00  0.00     0.031 C 
ATOM     54  C   UNL     1      -3.572  -4.944   5.926  1.00  0.00     0.029 A 
ATOM     55  C   UNL     1      -2.517  -4.057   6.080  1.00  0.00     0.049 A 
ATOM     56  H   UNL     1      -2.586  -1.959   6.173  1.00  0.00     0.167 HD
ATOM     57  C   UNL     1      -0.331  -4.882   5.465  1.00  0.00     0.074 A 
ATOM     58  C   UNL     1       1.047  -5.338   5.485  1.00  0.00     0.031 C 
ATOM     59  C   UNL     1      -1.088  -4.163   6.346  1.00  0.00     0.031 A 
BRANCH  46  60
ATOM     60  C   UNL     1      -6.259  -0.999   5.223  1.00  0.00    -0.014 A 
ATOM     61  C   UNL     1      -6.984  -1.298   6.394  1.00  0.00     0.010 A 
ATOM     62  C   UNL     1      -6.908  -0.053   4.382  1.00  0.00     0.010 A 
ATOM     63  C   UNL     1      -8.236  -0.689   6.697  1.00  0.00     0.020 A 
ATOM     64  C   UNL     1      -8.117   0.598   4.686  1.00  0.00     0.020 A 
ATOM     65  C   UNL     1      -8.792   0.264   5.840  1.00  0.00     0.054 A 
BRANCH  65  66
ATOM     66  S   UNL     1     -10.403   1.030   6.192  1.00  0.00     0.124 S 
ATOM     67  O   UNL     1     -11.320  -0.100   6.067  1.00  0.00    -0.237 OA
ATOM     68  O   UNL     1     -10.226   1.555   7.542  1.00  0.00    -0.237 OA
ATOM     69  O   UNL     1     -10.543   2.048   5.150  1.00  0.00    -0.744 OA
ENDBRANCH  65  66
ENDBRANCH  46  60
BRANCH  47  70
ATOM     70  C   UNL     1       1.047  -6.246   1.005  1.00  0.00    -0.014 A 
ATOM     71  C   UNL     1       0.964  -7.291   0.050  1.00  0.00     0.010 A 
ATOM     72  C   UNL     1       1.749  -5.084   0.637  1.00  0.00     0.010 A 
ATOM     73  C   UNL     1       1.390  -7.116  -1.271  1.00  0.00     0.020 A 
ATOM     74  C   UNL     1       2.214  -4.917  -0.691  1.00  0.00     0.020 A 
ATOM     75  C   UNL     1       1.959  -5.905  -1.649  1.00  0.00     0.054 A 
BRANCH  75  76
ATOM     76  S   UNL     1       2.168  -5.596  -3.435  1.00  0.00     0.124 S 
ATOM     77  O   UNL     1       3.000  -6.718  -3.856  1.00  0.00    -0.237 OA
ATOM     78  O   UNL     1       0.783  -5.630  -3.909  1.00  0.00    -0.237 OA
ATOM     79  O   UNL     1       2.813  -4.287  -3.478  1.00  0.00    -0.744 OA
ENDBRANCH  75  76
ENDBRANCH  47  70
BRANCH  59  80
ATOM     80  C   UNL     1      -0.534  -3.444   7.553  1.00  0.00    -0.014 A 
ATOM     81  C   UNL     1       0.787  -2.979   7.637  1.00  0.00     0.010 A 
ATOM     82  C   UNL     1      -1.417  -3.070   8.595  1.00  0.00     0.010 A 
ATOM     83  C   UNL     1       1.234  -2.258   8.751  1.00  0.00     0.020 A 
ATOM     84  C   UNL     1      -0.998  -2.296   9.679  1.00  0.00     0.020 A 
ATOM     85  C   UNL     1       0.340  -1.930   9.770  1.00  0.00     0.054 A 
BRANCH  85  86
ATOM     86  S   UNL     1       0.906  -0.985  11.204  1.00  0.00     0.124 S 
ATOM     87  O   UNL     1       1.169  -2.047  12.173  1.00  0.00    -0.237 OA
ATOM     88  O   UNL     1       2.090  -0.290  10.704  1.00  0.00    -0.237 OA
ATOM     89  O   UNL     1      -0.232  -0.123  11.508  1.00  0.00    -0.744 OA
ENDBRANCH  85  86
ENDBRANCH  59  80
ENDBRANCH  33  34
ENDBRANCH  26  28
ENDBRANCH  25  26
ENDBRANCH  24  25
ENDBRANCH  23  24
ENDBRANCH  22  23
ENDBRANCH   1  22
TORSDOF 22
