REMARK SMILES COc1nc2c(cc1C(=O)NCc1ccc(C(=O)OCCOCCOCCOC(=O)c3ccc(-c4c5nc(c(-c6ccc(S(=O)(=O)[O-])cc6)c6ccc([nH]6)c(-c6ccc(S(=O)(=O)[O-])cc6)c6nc(c(-c7ccc(S(=O)(=O)[O-])cc7)c7ccc4[nH]7)C=C6)C=C5)cc3)s1)CCC2
REMARK SMILES IDX 23 1 22 2 21 3 20 4 19 5 17 6 18 7 16 8 13 9 14 10 91 11
REMARK SMILES IDX 15 12 12 13 11 14 9 15 10 16 8 18 3 19 4 20 5 21 7 22 6 23
REMARK SMILES IDX 94 24 92 25 93 26 2 27 1 28 24 29 25 30 26 31 27 32 28 33
REMARK SMILES IDX 29 34 30 35 31 36 32 37 90 38 33 39 89 40 34 41 35 42 36 43
REMARK SMILES IDX 83 44 37 45 88 46 82 47 84 48 38 49 87 50 81 51 80 52 39 54
REMARK SMILES IDX 69 55 50 56 68 57 51 58 54 59 67 60 85 61 52 62 53 63 66 65
REMARK SMILES IDX 86 66 55 67 40 68 41 69 49 70 42 71 48 72 43 73 44 74 45 75
REMARK SMILES IDX 46 76 47 77 70 78 71 79 79 80 72 81 78 82 73 83 74 84 75 85
REMARK SMILES IDX 76 86 77 87 56 88 57 89 65 90 58 91 64 92 59 93 60 94 61 95
REMARK SMILES IDX 62 96 63 97
REMARK H PARENT 11 17 84 53 54 64
REMARK Flexibility Score: inf
ROOT
ATOM      1  C   UNL     1       0.022   6.347  -4.268  1.00  0.00     0.188 C 
ENDROOT
BRANCH   1   2
ATOM      2  O   UNL     1       0.150   7.256  -5.351  1.00  0.00    -0.376 OA
BRANCH   2   3
ATOM      3  C   UNL     1       1.465   7.692  -5.657  1.00  0.00     0.202 C 
BRANCH   3   4
ATOM      4  C   UNL     1       2.375   6.649  -6.324  1.00  0.00     0.261 C 
BRANCH   4   5
ATOM      5  O   UNL     1       2.418   5.376  -5.663  1.00  0.00    -0.459 OA
BRANCH   5   6
ATOM      6  C   UNL     1       3.283   5.236  -4.620  1.00  0.00     0.348 C 
ATOM      7  O   UNL     1       4.067   6.103  -4.255  1.00  0.00    -0.245 OA
BRANCH   6   8
ATOM      8  C   UNL     1       3.018   3.964  -3.975  1.00  0.00     0.112 A 
ATOM      9  C   UNL     1       2.384   2.311  -2.254  1.00  0.00     0.025 A 
ATOM     10  C   UNL     1       2.203   1.822  -3.533  1.00  0.00     0.018 A 
ATOM     11  S   UNL     1       3.153   3.842  -2.274  1.00  0.00    -0.131 S 
ATOM     12  C   UNL     1       2.555   2.782  -4.527  1.00  0.00     0.028 A 
BRANCH   9  13
ATOM     13  C   UNL     1       1.899   1.722  -0.969  1.00  0.00     0.163 C 
BRANCH  13  14
ATOM     14  N   UNL     1       2.991   1.257  -0.148  1.00  0.00    -0.347 N 
ATOM     15  C   UNL     1       3.065   1.145   1.220  1.00  0.00     0.257 C 
ATOM     16  O   UNL     1       4.100   0.694   1.712  1.00  0.00    -0.269 OA
ATOM     17  H   UNL     1       3.799   0.980  -0.638  1.00  0.00     0.164 HD
BRANCH  15  18
ATOM     18  C   UNL     1       1.983   1.591   2.134  1.00  0.00     0.102 A 
ATOM     19  C   UNL     1       0.617   1.340   1.953  1.00  0.00     0.226 A 
ATOM     20  N   UNL     1      -0.368   1.784   2.775  1.00  0.00    -0.218 NA
ATOM     21  C   UNL     1       0.049   2.450   3.864  1.00  0.00     0.048 A 
ATOM     22  C   UNL     1       2.369   2.232   3.322  1.00  0.00     0.025 A 
ATOM     23  C   UNL     1       1.381   2.660   4.192  1.00  0.00    -0.025 A 
ATOM     24  C   UNL     1      -0.864   3.003   4.925  1.00  0.00     0.057 C 
ATOM     25  C   UNL     1       1.508   3.294   5.538  1.00  0.00     0.038 C 
ATOM     26  C   UNL     1       0.104   3.889   5.724  1.00  0.00     0.011 C 
BRANCH  19  27
ATOM     27  O   UNL     1       0.155   0.610   0.888  1.00  0.00    -0.480 OA
ATOM     28  C   UNL     1       0.138  -0.771   1.231  1.00  0.00     0.280 C 
ENDBRANCH  19  27
ENDBRANCH  15  18
ENDBRANCH  13  14
ENDBRANCH   9  13
ENDBRANCH   6   8
ENDBRANCH   5   6
ENDBRANCH   4   5
ENDBRANCH   3   4
ENDBRANCH   2   3
ENDBRANCH   1   2
BRANCH   1  29
ATOM     29  C   UNL     1      -0.581   4.990  -4.686  1.00  0.00     0.188 C 
BRANCH  29  30
ATOM     30  O   UNL     1      -0.957   4.785  -6.044  1.00  0.00    -0.376 OA
BRANCH  30  31
ATOM     31  C   UNL     1      -1.811   5.745  -6.662  1.00  0.00     0.202 C 
BRANCH  31  32
ATOM     32  C   UNL     1      -3.158   6.049  -5.997  1.00  0.00     0.261 C 
BRANCH  32  33
ATOM     33  O   UNL     1      -3.042   6.538  -4.650  1.00  0.00    -0.460 OA
BRANCH  33  34
ATOM     34  C   UNL     1      -3.759   5.849  -3.727  1.00  0.00     0.338 C 
ATOM     35  O   UNL     1      -4.509   4.909  -3.922  1.00  0.00    -0.246 OA
BRANCH  34  36
ATOM     36  C   UNL     1      -3.405   6.312  -2.375  1.00  0.00     0.060 A 
ATOM     37  C   UNL     1      -2.656   5.461  -1.553  1.00  0.00     0.016 A 
ATOM     38  C   UNL     1      -3.904   7.521  -1.886  1.00  0.00     0.016 A 
ATOM     39  C   UNL     1      -2.413   5.813  -0.226  1.00  0.00     0.010 A 
ATOM     40  C   UNL     1      -3.684   7.857  -0.547  1.00  0.00     0.010 A 
ATOM     41  C   UNL     1      -2.961   6.993   0.293  1.00  0.00    -0.014 A 
BRANCH  41  42
ATOM     42  C   UNL     1      -2.914   7.233   1.754  1.00  0.00     0.031 A 
ATOM     43  C   UNL     1      -4.000   6.654   2.617  1.00  0.00     0.074 A 
ATOM     44  C   UNL     1      -1.908   7.934   2.307  1.00  0.00     0.049 A 
ATOM     45  N   UNL     1      -4.149   6.729   3.914  1.00  0.00    -0.248 NA
ATOM     46  C   UNL     1      -5.050   5.883   1.931  1.00  0.00     0.031 C 
ATOM     47  C   UNL     1      -0.775   8.504   1.580  1.00  0.00     0.029 A 
ATOM     48  N   UNL     1      -1.682   8.282   3.615  1.00  0.00    -0.354 N 
ATOM     49  C   UNL     1      -5.301   6.007   4.200  1.00  0.00     0.074 A 
ATOM     50  C   UNL     1      -5.823   5.517   2.943  1.00  0.00     0.031 C 
ATOM     51  C   UNL     1       0.025   9.140   2.454  1.00  0.00     0.029 A 
ATOM     52  C   UNL     1      -0.550   9.038   3.795  1.00  0.00     0.049 A 
ATOM     53  H   UNL     1      -2.276   8.015   4.354  1.00  0.00     0.167 HD
ATOM     54  C   UNL     1      -5.871   5.770   5.403  1.00  0.00     0.031 A 
ATOM     55  C   UNL     1      -0.042   9.596   4.912  1.00  0.00     0.031 A 
ATOM     56  C   UNL     1      -5.373   6.282   6.649  1.00  0.00     0.049 A 
ATOM     57  C   UNL     1      -0.746   9.399   6.227  1.00  0.00     0.074 A 
ATOM     58  C   UNL     1      -5.884   6.092   7.920  1.00  0.00     0.029 A 
ATOM     59  N   UNL     1      -4.262   7.099   6.778  1.00  0.00    -0.354 N 
ATOM     60  N   UNL     1      -1.820   8.693   6.485  1.00  0.00    -0.248 NA
ATOM     61  C   UNL     1      -0.172  10.075   7.401  1.00  0.00     0.031 C 
ATOM     62  C   UNL     1      -5.104   6.829   8.816  1.00  0.00     0.029 A 
ATOM     63  C   UNL     1      -4.083   7.441   8.106  1.00  0.00     0.049 A 
ATOM     64  H   UNL     1      -3.685   7.391   6.036  1.00  0.00     0.167 HD
ATOM     65  C   UNL     1      -2.044   8.828   7.851  1.00  0.00     0.074 A 
ATOM     66  C   UNL     1      -0.991   9.677   8.368  1.00  0.00     0.031 C 
ATOM     67  C   UNL     1      -3.032   8.290   8.606  1.00  0.00     0.031 A 
BRANCH  54  68
ATOM     68  C   UNL     1      -7.116   4.931   5.428  1.00  0.00    -0.014 A 
ATOM     69  C   UNL     1      -7.040   3.533   5.306  1.00  0.00     0.010 A 
ATOM     70  C   UNL     1      -8.367   5.540   5.636  1.00  0.00     0.010 A 
ATOM     71  C   UNL     1      -8.199   2.756   5.377  1.00  0.00     0.020 A 
ATOM     72  C   UNL     1      -9.526   4.765   5.723  1.00  0.00     0.020 A 
ATOM     73  C   UNL     1      -9.434   3.377   5.589  1.00  0.00     0.054 A 
BRANCH  73  74
ATOM     74  S   UNL     1     -10.915   2.337   5.705  1.00  0.00     0.124 S 
ATOM     75  O   UNL     1     -10.956   1.716   4.383  1.00  0.00    -0.237 OA
ATOM     76  O   UNL     1     -10.584   1.441   6.809  1.00  0.00    -0.237 OA
ATOM     77  O   UNL     1     -11.990   3.288   5.975  1.00  0.00    -0.744 OA
ENDBRANCH  73  74
ENDBRANCH  54  68
BRANCH  55  78
ATOM     78  C   UNL     1       1.201  10.405   4.825  1.00  0.00    -0.014 A 
ATOM     79  C   UNL     1       2.426   9.881   5.270  1.00  0.00     0.010 A 
ATOM     80  C   UNL     1       1.169  11.694   4.261  1.00  0.00     0.010 A 
ATOM     81  C   UNL     1       3.600  10.628   5.145  1.00  0.00     0.020 A 
ATOM     82  C   UNL     1       2.343  12.437   4.120  1.00  0.00     0.020 A 
ATOM     83  C   UNL     1       3.553  11.898   4.561  1.00  0.00     0.054 A 
BRANCH  83  84
ATOM     84  S   UNL     1       5.103  12.818   4.358  1.00  0.00     0.124 S 
ATOM     85  O   UNL     1       5.537  12.998   5.740  1.00  0.00    -0.237 OA
ATOM     86  O   UNL     1       5.905  11.896   3.558  1.00  0.00    -0.237 OA
ATOM     87  O   UNL     1       4.692  14.039   3.668  1.00  0.00    -0.744 OA
ENDBRANCH  83  84
ENDBRANCH  55  78
BRANCH  67  88
ATOM     88  C   UNL     1      -3.033   8.578  10.081  1.00  0.00    -0.014 A 
ATOM     89  C   UNL     1      -3.535   9.793  10.575  1.00  0.00     0.010 A 
ATOM     90  C   UNL     1      -2.654   7.568  10.984  1.00  0.00     0.010 A 
ATOM     91  C   UNL     1      -3.665   9.992  11.952  1.00  0.00     0.020 A 
ATOM     92  C   UNL     1      -2.798   7.757  12.361  1.00  0.00     0.020 A 
ATOM     93  C   UNL     1      -3.308   8.967  12.835  1.00  0.00     0.054 A 
BRANCH  93  94
ATOM     94  S   UNL     1      -3.567   9.226  14.612  1.00  0.00     0.124 S 
ATOM     95  O   UNL     1      -2.669  10.342  14.895  1.00  0.00    -0.237 OA
ATOM     96  O   UNL     1      -4.993   9.533  14.680  1.00  0.00    -0.237 OA
ATOM     97  O   UNL     1      -3.178   7.951  15.211  1.00  0.00    -0.744 OA
ENDBRANCH  93  94
ENDBRANCH  67  88
ENDBRANCH  41  42
ENDBRANCH  34  36
ENDBRANCH  33  34
ENDBRANCH  32  33
ENDBRANCH  31  32
ENDBRANCH  30  31
ENDBRANCH  29  30
ENDBRANCH   1  29
TORSDOF 24
