REMARK SMILES O=C(CCCN1C(=O)C(=O)/C(=C(/[O-])c2ccc(Cl)cc2)[C@@H]1c1ccccc1[N+](=O)[O-])OCCOCCOCCOC(=O)c1ccc(-c2c3nc(c(-c4ccc(S(=O)(=O)[O-])cc4)c4ccc([nH]4)c(-c4ccc(S(=O)(=O)[O-])cc4)c4nc(c(-c5ccc(S(=O)(=O)[O-])cc5)c5ccc2[nH]5)C=C4)C=C3)cc1
REMARK SMILES IDX 35 1 34 2 33 3 32 4 31 5 2 6 1 7 3 8 4 9 5 10 6 11 7 12
REMARK SMILES IDX 21 13 8 14 9 15 11 16 10 17 12 18 13 19 22 20 23 21 27 22
REMARK SMILES IDX 24 23 26 24 25 25 28 26 29 27 30 28 14 29 15 30 20 31 16 32
REMARK SMILES IDX 19 33 17 34 18 35 36 36 37 37 38 38 39 39 40 40 41 41 42 42
REMARK SMILES IDX 43 43 44 44 102 45 45 46 101 47 46 48 47 49 48 50 95 51
REMARK SMILES IDX 49 52 100 53 94 54 96 55 50 56 99 57 93 58 92 59 51 61 81 62
REMARK SMILES IDX 62 63 80 64 63 65 66 66 79 67 97 68 64 69 65 70 78 72 98 73
REMARK SMILES IDX 67 74 52 75 53 76 61 77 54 78 60 79 55 80 56 81 57 82 58 83
REMARK SMILES IDX 59 84 82 85 83 86 91 87 84 88 90 89 85 90 86 91 87 92 88 93
REMARK SMILES IDX 89 94 68 95 69 96 77 97 70 98 76 99 71 100 72 101 73 102
REMARK SMILES IDX 74 103 75 104
REMARK H PARENT 96 60 66 71
REMARK Flexibility Score: inf
ROOT
ATOM      1  C   UNL     1       2.608  -0.489   2.190  1.00  0.00     0.188 C 
ENDROOT
BRANCH   1   2
ATOM      2  O   UNL     1       3.791   0.142   1.698  1.00  0.00    -0.376 OA
BRANCH   2   3
ATOM      3  C   UNL     1       3.778   1.562   1.746  1.00  0.00     0.202 C 
BRANCH   3   4
ATOM      4  C   UNL     1       3.310   2.198   0.447  1.00  0.00     0.261 C 
BRANCH   4   5
ATOM      5  O   UNL     1       2.046   1.699  -0.016  1.00  0.00    -0.463 OA
BRANCH   5   6
ATOM      6  C   UNL     1       1.858   0.794  -1.006  1.00  0.00     0.305 C 
ATOM      7  O   UNL     1       0.817   0.841  -1.661  1.00  0.00    -0.252 OA
BRANCH   6   8
ATOM      8  C   UNL     1       2.812  -0.369  -1.192  1.00  0.00     0.124 C 
BRANCH   8   9
ATOM      9  C   UNL     1       3.854  -0.262  -2.288  1.00  0.00     0.033 C 
BRANCH   9  10
ATOM     10  C   UNL     1       5.214   0.292  -1.886  1.00  0.00     0.121 C 
BRANCH  10  11
ATOM     11  N   UNL     1       6.073  -0.387  -0.914  1.00  0.00    -0.324 N 
ATOM     12  C   UNL     1       7.155   0.310  -0.404  1.00  0.00     0.295 C 
ATOM     13  C   UNL     1       6.032  -1.779  -0.434  1.00  0.00     0.157 C 
ATOM     14  O   UNL     1       7.400   1.505  -0.525  1.00  0.00    -0.265 OA
ATOM     15  C   UNL     1       7.995  -0.651   0.410  1.00  0.00     0.248 C 
ATOM     16  C   UNL     1       7.218  -1.906   0.526  1.00  0.00     0.025 C 
ATOM     17  O   UNL     1       9.056  -0.353   0.936  1.00  0.00    -0.283 OA
ATOM     18  C   UNL     1       7.501  -2.866   1.430  1.00  0.00    -0.092 C 
ATOM     19  O   UNL     1       6.637  -3.912   1.676  1.00  0.00    -0.872 OA
BRANCH  13  20
ATOM     20  C   UNL     1       5.939  -2.883  -1.488  1.00  0.00     0.057 A 
ATOM     21  C   UNL     1       5.310  -4.091  -1.104  1.00  0.00     0.013 A 
ATOM     22  C   UNL     1       6.382  -2.831  -2.827  1.00  0.00     0.275 A 
ATOM     23  C   UNL     1       5.099  -5.142  -2.004  1.00  0.00     0.001 A 
ATOM     24  C   UNL     1       6.091  -3.847  -3.757  1.00  0.00     0.086 A 
ATOM     25  C   UNL     1       5.444  -5.003  -3.340  1.00  0.00     0.007 A 
BRANCH  22  26
ATOM     26  N   UNL     1       7.205  -1.745  -3.327  1.00  0.00     0.063 N 
ATOM     27  O   UNL     1       6.840  -1.188  -4.371  1.00  0.00    -0.258 OA
ATOM     28  O   UNL     1       8.212  -1.452  -2.669  1.00  0.00    -0.258 OA
ENDBRANCH  22  26
ENDBRANCH  13  20
BRANCH  18  29
ATOM     29  C   UNL     1       8.764  -3.001   2.184  1.00  0.00    -0.033 A 
ATOM     30  C   UNL     1       9.078  -2.194   3.286  1.00  0.00     0.009 A 
ATOM     31  C   UNL     1       9.683  -3.985   1.783  1.00  0.00     0.009 A 
ATOM     32  C   UNL     1      10.304  -2.344   3.948  1.00  0.00     0.021 A 
ATOM     33  C   UNL     1      10.905  -4.139   2.446  1.00  0.00     0.021 A 
ATOM     34  C   UNL     1      11.213  -3.312   3.522  1.00  0.00     0.041 A 
ATOM     35  Cl  UNL     1      12.726  -3.483   4.327  1.00  0.00    -0.084 Cl
ENDBRANCH  18  29
ENDBRANCH  10  11
ENDBRANCH   9  10
ENDBRANCH   8   9
ENDBRANCH   6   8
ENDBRANCH   5   6
ENDBRANCH   4   5
ENDBRANCH   3   4
ENDBRANCH   2   3
ENDBRANCH   1   2
BRANCH   1  36
ATOM     36  C   UNL     1       2.211  -0.180   3.636  1.00  0.00     0.188 C 
BRANCH  36  37
ATOM     37  O   UNL     1       3.217   0.227   4.553  1.00  0.00    -0.376 OA
BRANCH  37  38
ATOM     38  C   UNL     1       4.508  -0.367   4.521  1.00  0.00     0.202 C 
BRANCH  38  39
ATOM     39  C   UNL     1       4.610  -1.823   4.965  1.00  0.00     0.261 C 
BRANCH  39  40
ATOM     40  O   UNL     1       4.183  -2.745   3.947  1.00  0.00    -0.460 OA
BRANCH  40  41
ATOM     41  C   UNL     1       3.005  -3.361   4.211  1.00  0.00     0.338 C 
ATOM     42  O   UNL     1       2.234  -3.135   5.126  1.00  0.00    -0.246 OA
BRANCH  41  43
ATOM     43  C   UNL     1       2.730  -4.352   3.165  1.00  0.00     0.060 A 
ATOM     44  C   UNL     1       1.533  -4.264   2.443  1.00  0.00     0.016 A 
ATOM     45  C   UNL     1       3.583  -5.447   3.021  1.00  0.00     0.016 A 
ATOM     46  C   UNL     1       1.151  -5.316   1.612  1.00  0.00     0.010 A 
ATOM     47  C   UNL     1       3.196  -6.498   2.197  1.00  0.00     0.010 A 
ATOM     48  C   UNL     1       1.956  -6.459   1.532  1.00  0.00    -0.014 A 
BRANCH  48  49
ATOM     49  C   UNL     1       1.447  -7.711   0.932  1.00  0.00     0.031 A 
ATOM     50  C   UNL     1       0.933  -8.784   1.851  1.00  0.00     0.074 A 
ATOM     51  C   UNL     1       1.518  -7.918  -0.392  1.00  0.00     0.049 A 
ATOM     52  N   UNL     1       0.630 -10.026   1.585  1.00  0.00    -0.248 NA
ATOM     53  C   UNL     1       0.749  -8.403   3.261  1.00  0.00     0.031 C 
ATOM     54  C   UNL     1       1.935  -6.928  -1.380  1.00  0.00     0.029 A 
ATOM     55  N   UNL     1       1.276  -9.050  -1.125  1.00  0.00    -0.354 N 
ATOM     56  C   UNL     1       0.242 -10.584   2.797  1.00  0.00     0.074 A 
ATOM     57  C   UNL     1       0.367  -9.550   3.801  1.00  0.00     0.031 C 
ATOM     58  C   UNL     1       1.977  -7.513  -2.589  1.00  0.00     0.029 A 
ATOM     59  C   UNL     1       1.616  -8.922  -2.449  1.00  0.00     0.049 A 
ATOM     60  H   UNL     1       0.897  -9.873  -0.740  1.00  0.00     0.167 HD
ATOM     61  C   UNL     1      -0.174 -11.848   3.049  1.00  0.00     0.031 A 
ATOM     62  C   UNL     1       1.667  -9.847  -3.427  1.00  0.00     0.031 A 
ATOM     63  C   UNL     1      -0.269 -12.871   2.043  1.00  0.00     0.049 A 
ATOM     64  C   UNL     1       1.270 -11.265  -3.118  1.00  0.00     0.074 A 
ATOM     65  C   UNL     1      -0.691 -14.181   2.183  1.00  0.00     0.029 A 
ATOM     66  N   UNL     1       0.076 -12.700   0.710  1.00  0.00    -0.354 N 
ATOM     67  N   UNL     1       0.893 -11.781  -1.972  1.00  0.00    -0.248 NA
ATOM     68  C   UNL     1       1.291 -12.220  -4.234  1.00  0.00     0.031 C 
ATOM     69  C   UNL     1      -0.547 -14.818   0.946  1.00  0.00     0.029 A 
ATOM     70  C   UNL     1      -0.100 -13.886   0.020  1.00  0.00     0.049 A 
ATOM     71  H   UNL     1       0.399 -11.859   0.314  1.00  0.00     0.167 HD
ATOM     72  C   UNL     1       0.594 -13.114  -2.237  1.00  0.00     0.074 A 
ATOM     73  C   UNL     1       0.839 -13.322  -3.650  1.00  0.00     0.031 C 
ATOM     74  C   UNL     1       0.145 -14.072  -1.389  1.00  0.00     0.031 A 
BRANCH  61  75
ATOM     75  C   UNL     1      -0.501 -12.197   4.477  1.00  0.00    -0.014 A 
ATOM     76  C   UNL     1      -1.626 -11.656   5.127  1.00  0.00     0.010 A 
ATOM     77  C   UNL     1       0.333 -13.083   5.183  1.00  0.00     0.010 A 
ATOM     78  C   UNL     1      -1.877 -11.949   6.470  1.00  0.00     0.020 A 
ATOM     79  C   UNL     1       0.069 -13.403   6.517  1.00  0.00     0.020 A 
ATOM     80  C   UNL     1      -1.022 -12.814   7.159  1.00  0.00     0.054 A 
BRANCH  80  81
ATOM     81  S   UNL     1      -1.362 -13.167   8.905  1.00  0.00     0.124 S 
ATOM     82  O   UNL     1      -0.966 -11.915   9.546  1.00  0.00    -0.237 OA
ATOM     83  O   UNL     1      -2.796 -13.445   8.903  1.00  0.00    -0.237 OA
ATOM     84  O   UNL     1      -0.507 -14.315   9.200  1.00  0.00    -0.744 OA
ENDBRANCH  80  81
ENDBRANCH  61  75
BRANCH  62  85
ATOM     85  C   UNL     1       2.123  -9.446  -4.783  1.00  0.00    -0.014 A 
ATOM     86  C   UNL     1       1.203  -9.327  -5.838  1.00  0.00     0.010 A 
ATOM     87  C   UNL     1       3.474  -9.124  -5.010  1.00  0.00     0.010 A 
ATOM     88  C   UNL     1       1.624  -8.886  -7.095  1.00  0.00     0.020 A 
ATOM     89  C   UNL     1       3.894  -8.661  -6.259  1.00  0.00     0.020 A 
ATOM     90  C   UNL     1       2.965  -8.546  -7.294  1.00  0.00     0.054 A 
BRANCH  90  91
ATOM     91  S   UNL     1       3.469  -7.878  -8.904  1.00  0.00     0.124 S 
ATOM     92  O   UNL     1       3.445  -9.068  -9.748  1.00  0.00    -0.237 OA
ATOM     93  O   UNL     1       2.428  -6.888  -9.171  1.00  0.00    -0.237 OA
ATOM     94  O   UNL     1       4.793  -7.319  -8.638  1.00  0.00    -0.744 OA
ENDBRANCH  90  91
ENDBRANCH  62  85
BRANCH  74  95
ATOM     95  C   UNL     1      -0.169 -15.427  -1.968  1.00  0.00    -0.014 A 
ATOM     96  C   UNL     1       0.850 -16.319  -2.344  1.00  0.00     0.010 A 
ATOM     97  C   UNL     1      -1.511 -15.842  -2.049  1.00  0.00     0.010 A 
ATOM     98  C   UNL     1       0.528 -17.598  -2.807  1.00  0.00     0.020 A 
ATOM     99  C   UNL     1      -1.834 -17.128  -2.485  1.00  0.00     0.020 A 
ATOM    100  C   UNL     1      -0.811 -17.996  -2.869  1.00  0.00     0.054 A 
BRANCH 100 101
ATOM    101  S   UNL     1      -1.197 -19.685  -3.406  1.00  0.00     0.124 S 
ATOM    102  O   UNL     1      -0.934 -19.616  -4.840  1.00  0.00    -0.237 OA
ATOM    103  O   UNL     1      -0.255 -20.490  -2.632  1.00  0.00    -0.237 OA
ATOM    104  O   UNL     1      -2.601 -19.854  -3.037  1.00  0.00    -0.744 OA
ENDBRANCH 100 101
ENDBRANCH  74  95
ENDBRANCH  48  49
ENDBRANCH  41  43
ENDBRANCH  40  41
ENDBRANCH  39  40
ENDBRANCH  38  39
ENDBRANCH  37  38
ENDBRANCH  36  37
ENDBRANCH   1  36
TORSDOF 26
