REMARK SMILES CC1=C(C)C[C@@H](C(=O)OCCOCCOCCOC(=O)c2ccc(-c3c4nc(c(-c5ccc(S(=O)(=O)[O-])cc5)c5ccc([nH]5)c(-c5ccc(S(=O)(=O)[O-])cc5)c5nc(c(-c6ccc(S(=O)(=O)[O-])cc6)c6ccc3[nH]6)C=C5)C=C4)cc2)[C@@H](C(=O)N2CCN(c3cccc(C(F)(F)F)c3)CC2)C1
REMARK SMILES IDX 13 1 12 2 11 3 10 4 9 5 7 6 8 7 6 8 1 9 2 10 3 11 100 12
REMARK SMILES IDX 4 13 5 14 81 15 82 16 83 17 84 18 85 19 99 20 86 21 98 22
REMARK SMILES IDX 87 23 88 24 89 25 97 26 90 27 92 28 91 29 93 30 94 31 95 32
REMARK SMILES IDX 96 33 14 34 15 35 16 36 17 37 18 38 19 39 20 40 21 41 22 42
REMARK SMILES IDX 80 43 23 44 79 45 24 46 25 47 26 48 73 49 27 50 78 51 72 52
REMARK SMILES IDX 74 53 28 54 77 55 71 56 70 57 29 59 59 60 40 61 58 62 41 63
REMARK SMILES IDX 44 64 57 65 75 66 42 67 43 68 56 70 76 71 45 72 30 73 31 74
REMARK SMILES IDX 39 75 32 76 38 77 33 78 34 79 35 80 36 81 37 82 60 83 61 84
REMARK SMILES IDX 69 85 62 86 68 87 63 88 64 89 65 90 66 91 67 92 46 93 47 94
REMARK SMILES IDX 55 95 48 96 54 97 49 98 50 99 51 100 52 101 53 102
REMARK H PARENT 74 58 44 69
REMARK Flexibility Score: inf
ROOT
ATOM      1  C   UNL     1       1.266  -2.722   6.740  1.00  0.00     0.188 C 
ENDROOT
BRANCH   1   2
ATOM      2  O   UNL     1       2.441  -3.516   6.868  1.00  0.00    -0.376 OA
BRANCH   2   3
ATOM      3  C   UNL     1       3.523  -3.089   6.046  1.00  0.00     0.202 C 
BRANCH   3   4
ATOM      4  C   UNL     1       3.430  -3.545   4.572  1.00  0.00     0.261 C 
BRANCH   4   5
ATOM      5  O   UNL     1       2.443  -2.852   3.758  1.00  0.00    -0.463 OA
BRANCH   5   6
ATOM      6  C   UNL     1       1.229  -3.449   3.657  1.00  0.00     0.310 C 
ATOM      7  O   UNL     1       0.951  -4.512   4.204  1.00  0.00    -0.252 OA
BRANCH   6   8
ATOM      8  C   UNL     1       0.259  -2.792   2.683  1.00  0.00     0.116 C 
ATOM      9  C   UNL     1       1.140   0.040  -0.611  1.00  0.00     0.039 C 
ATOM     10  C   UNL     1       0.729  -1.014   0.378  1.00  0.00    -0.074 C 
ATOM     11  C   UNL     1       1.135  -2.296   0.307  1.00  0.00    -0.073 C 
ATOM     12  C   UNL     1      -0.303  -0.618   1.400  1.00  0.00     0.045 C 
ATOM     13  C   UNL     1       2.015  -2.861  -0.774  1.00  0.00     0.039 C 
ATOM     14  C   UNL     1       0.604  -3.317   1.278  1.00  0.00     0.046 C 
ATOM     15  C   UNL     1      -0.169  -1.302   2.768  1.00  0.00     0.097 C 
BRANCH  15  16
ATOM     16  C   UNL     1       0.448  -0.402   3.848  1.00  0.00     0.227 C 
ATOM     17  O   UNL     1      -0.028  -0.381   4.983  1.00  0.00    -0.275 OA
ATOM     18  N   UNL     1       1.571   0.326   3.520  1.00  0.00    -0.339 N 
ATOM     19  C   UNL     1       2.771   0.107   4.311  1.00  0.00     0.141 C 
ATOM     20  C   UNL     1       1.485   1.736   3.127  1.00  0.00     0.141 C 
ATOM     21  C   UNL     1       3.998   0.297   3.420  1.00  0.00     0.138 C 
ATOM     22  C   UNL     1       2.723   2.162   2.303  1.00  0.00     0.138 C 
ATOM     23  N   UNL     1       3.983   1.671   2.896  1.00  0.00    -0.368 N 
BRANCH  23  24
ATOM     24  C   UNL     1       5.103   2.453   3.038  1.00  0.00     0.037 A 
ATOM     25  C   UNL     1       6.362   1.994   2.631  1.00  0.00     0.026 A 
ATOM     26  C   UNL     1       5.031   3.704   3.658  1.00  0.00     0.039 A 
ATOM     27  C   UNL     1       7.514   2.758   2.827  1.00  0.00     0.003 A 
ATOM     28  C   UNL     1       6.181   4.475   3.894  1.00  0.00     0.058 A 
ATOM     29  C   UNL     1       7.424   3.994   3.460  1.00  0.00     0.013 A 
BRANCH  28  30
ATOM     30  C   UNL     1       6.085   5.795   4.610  1.00  0.00     0.416 C 
ATOM     31  F   UNL     1       6.984   5.904   5.630  1.00  0.00    -0.166 F 
ATOM     32  F   UNL     1       6.332   6.851   3.785  1.00  0.00    -0.166 F 
ATOM     33  F   UNL     1       4.865   6.034   5.166  1.00  0.00    -0.166 F 
ENDBRANCH  28  30
ENDBRANCH  23  24
ENDBRANCH  15  16
ENDBRANCH   6   8
ENDBRANCH   5   6
ENDBRANCH   4   5
ENDBRANCH   3   4
ENDBRANCH   2   3
ENDBRANCH   1   2
BRANCH   1  34
ATOM     34  C   UNL     1       1.182  -1.587   7.746  1.00  0.00     0.188 C 
BRANCH  34  35
ATOM     35  O   UNL     1       2.163  -0.565   7.534  1.00  0.00    -0.376 OA
BRANCH  35  36
ATOM     36  C   UNL     1       2.333   0.283   8.677  1.00  0.00     0.202 C 
BRANCH  36  37
ATOM     37  C   UNL     1       1.144   1.197   9.024  1.00  0.00     0.261 C 
BRANCH  37  38
ATOM     38  O   UNL     1      -0.007   0.420   9.395  1.00  0.00    -0.460 OA
BRANCH  38  39
ATOM     39  C   UNL     1      -1.131   0.653   8.659  1.00  0.00     0.338 C 
ATOM     40  O   UNL     1      -1.334   1.587   7.915  1.00  0.00    -0.246 OA
BRANCH  39  41
ATOM     41  C   UNL     1      -2.024  -0.532   8.769  1.00  0.00     0.060 A 
ATOM     42  C   UNL     1      -2.686  -0.973   7.613  1.00  0.00     0.016 A 
ATOM     43  C   UNL     1      -2.192  -1.215   9.976  1.00  0.00     0.016 A 
ATOM     44  C   UNL     1      -3.576  -2.050   7.679  1.00  0.00     0.010 A 
ATOM     45  C   UNL     1      -3.081  -2.290  10.041  1.00  0.00     0.010 A 
ATOM     46  C   UNL     1      -3.817  -2.679   8.907  1.00  0.00    -0.014 A 
BRANCH  46  47
ATOM     47  C   UNL     1      -5.005  -3.549   9.095  1.00  0.00     0.031 A 
ATOM     48  C   UNL     1      -6.235  -2.921   9.701  1.00  0.00     0.074 A 
ATOM     49  C   UNL     1      -5.005  -4.855   8.774  1.00  0.00     0.049 A 
ATOM     50  N   UNL     1      -7.351  -3.479  10.092  1.00  0.00    -0.248 NA
ATOM     51  C   UNL     1      -6.186  -1.463   9.904  1.00  0.00     0.031 C 
ATOM     52  C   UNL     1      -3.910  -5.575   8.129  1.00  0.00     0.029 A 
ATOM     53  N   UNL     1      -5.971  -5.813   8.968  1.00  0.00    -0.354 N 
ATOM     54  C   UNL     1      -8.127  -2.445  10.604  1.00  0.00     0.074 A 
ATOM     55  C   UNL     1      -7.343  -1.234  10.503  1.00  0.00     0.031 C 
ATOM     56  C   UNL     1      -4.263  -6.866   7.986  1.00  0.00     0.029 A 
ATOM     57  C   UNL     1      -5.590  -7.071   8.567  1.00  0.00     0.049 A 
ATOM     58  H   UNL     1      -6.854  -5.616   9.358  1.00  0.00     0.167 HD
ATOM     59  C   UNL     1      -9.382  -2.492  11.108  1.00  0.00     0.031 A 
ATOM     60  C   UNL     1      -6.231  -8.253   8.678  1.00  0.00     0.031 A 
ATOM     61  C   UNL     1     -10.155  -3.697  11.228  1.00  0.00     0.049 A 
ATOM     62  C   UNL     1      -7.592  -8.300   9.331  1.00  0.00     0.074 A 
ATOM     63  C   UNL     1     -11.434  -3.854  11.730  1.00  0.00     0.029 A 
ATOM     64  N   UNL     1      -9.717  -4.955  10.844  1.00  0.00    -0.354 N 
ATOM     65  N   UNL     1      -8.316  -7.317   9.812  1.00  0.00    -0.248 NA
ATOM     66  C   UNL     1      -8.224  -9.623   9.453  1.00  0.00     0.031 C 
ATOM     67  C   UNL     1     -11.751  -5.217  11.696  1.00  0.00     0.029 A 
ATOM     68  C   UNL     1     -10.693  -5.899  11.115  1.00  0.00     0.049 A 
ATOM     69  H   UNL     1      -8.841  -5.149  10.438  1.00  0.00     0.167 HD
ATOM     70  C   UNL     1      -9.501  -7.897  10.257  1.00  0.00     0.074 A 
ATOM     71  C   UNL     1      -9.399  -9.316   9.985  1.00  0.00     0.031 C 
ATOM     72  C   UNL     1     -10.580  -7.308  10.832  1.00  0.00     0.031 A 
BRANCH  59  73
ATOM     73  C   UNL     1      -9.969  -1.197  11.605  1.00  0.00    -0.014 A 
ATOM     74  C   UNL     1     -10.322  -0.167  10.712  1.00  0.00     0.010 A 
ATOM     75  C   UNL     1     -10.158  -1.001  12.984  1.00  0.00     0.010 A 
ATOM     76  C   UNL     1     -10.799   1.054  11.194  1.00  0.00     0.020 A 
ATOM     77  C   UNL     1     -10.665   0.208  13.469  1.00  0.00     0.020 A 
ATOM     78  C   UNL     1     -10.960   1.236  12.571  1.00  0.00     0.054 A 
BRANCH  78  79
ATOM     79  S   UNL     1     -11.574   2.834  13.171  1.00  0.00     0.124 S 
ATOM     80  O   UNL     1     -10.408   3.693  12.984  1.00  0.00    -0.237 OA
ATOM     81  O   UNL     1     -12.700   3.101  12.280  1.00  0.00    -0.237 OA
ATOM     82  O   UNL     1     -11.934   2.567  14.562  1.00  0.00    -0.744 OA
ENDBRANCH  78  79
ENDBRANCH  59  73
BRANCH  60  83
ATOM     83  C   UNL     1      -5.600  -9.500   8.162  1.00  0.00    -0.014 A 
ATOM     84  C   UNL     1      -6.131 -10.150   7.034  1.00  0.00     0.010 A 
ATOM     85  C   UNL     1      -4.473 -10.052   8.799  1.00  0.00     0.010 A 
ATOM     86  C   UNL     1      -5.557 -11.334   6.560  1.00  0.00     0.020 A 
ATOM     87  C   UNL     1      -3.880 -11.222   8.312  1.00  0.00     0.020 A 
ATOM     88  C   UNL     1      -4.432 -11.861   7.200  1.00  0.00     0.054 A 
BRANCH  88  89
ATOM     89  S   UNL     1      -3.674 -13.369   6.533  1.00  0.00     0.124 S 
ATOM     90  O   UNL     1      -4.646 -14.390   6.909  1.00  0.00    -0.237 OA
ATOM     91  O   UNL     1      -3.587 -13.073   5.105  1.00  0.00    -0.237 OA
ATOM     92  O   UNL     1      -2.389 -13.442   7.226  1.00  0.00    -0.744 OA
ENDBRANCH  88  89
ENDBRANCH  60  83
BRANCH  72  93
ATOM     93  C   UNL     1     -11.765  -8.180  11.159  1.00  0.00    -0.014 A 
ATOM     94  C   UNL     1     -11.735  -9.091  12.229  1.00  0.00     0.010 A 
ATOM     95  C   UNL     1     -12.952  -8.033  10.417  1.00  0.00     0.010 A 
ATOM     96  C   UNL     1     -12.863  -9.861  12.532  1.00  0.00     0.020 A 
ATOM     97  C   UNL     1     -14.090  -8.780  10.735  1.00  0.00     0.020 A 
ATOM     98  C   UNL     1     -14.033  -9.700  11.783  1.00  0.00     0.054 A 
BRANCH  98  99
ATOM     99  S   UNL     1     -15.497 -10.676  12.225  1.00  0.00     0.124 S 
ATOM    100  O   UNL     1     -15.135 -12.005  11.740  1.00  0.00    -0.237 OA
ATOM    101  O   UNL     1     -15.553 -10.531  13.678  1.00  0.00    -0.237 OA
ATOM    102  O   UNL     1     -16.583 -10.022  11.499  1.00  0.00    -0.744 OA
ENDBRANCH  98  99
ENDBRANCH  72  93
ENDBRANCH  46  47
ENDBRANCH  39  41
ENDBRANCH  38  39
ENDBRANCH  37  38
ENDBRANCH  36  37
ENDBRANCH  35  36
ENDBRANCH  34  35
ENDBRANCH   1  34
TORSDOF 23
