REMARK SMILES COCCC(=O)N[C@@H](Cc1c[nH]c2ccccc12)C(=O)OCCOCCOCCOC(=O)c1ccc(-c2c3nc(c(-c4ccc(S(=O)(=O)[O-])cc4)c4ccc([nH]4)c(-c4ccc(S(=O)(=O)[O-])cc4)c4nc(c(-c5ccc(S(=O)(=O)[O-])cc5)c5ccc2[nH]5)C=C4)C=C3)cc1
REMARK SMILES IDX 25 1 24 2 23 3 22 4 21 5 19 6 20 7 8 8 7 9 5 10 6 11 4 13
REMARK SMILES IDX 3 14 2 15 1 16 9 17 10 18 11 19 18 20 12 21 13 22 17 23
REMARK SMILES IDX 14 25 16 26 15 27 26 28 27 29 28 30 29 31 30 32 31 33 32 34
REMARK SMILES IDX 33 35 34 36 92 37 35 38 91 39 36 40 37 41 38 42 85 43 39 44
REMARK SMILES IDX 90 45 84 46 86 47 40 48 89 49 83 50 82 51 41 53 71 54 52 55
REMARK SMILES IDX 70 56 53 57 56 58 69 59 87 60 54 61 55 62 68 64 88 65 57 66
REMARK SMILES IDX 42 67 43 68 51 69 44 70 50 71 45 72 46 73 47 74 48 75 49 76
REMARK SMILES IDX 72 77 73 78 81 79 74 80 80 81 75 82 76 83 77 84 78 85 79 86
REMARK SMILES IDX 58 87 59 88 67 89 60 90 66 91 61 92 62 93 63 94 64 95 65 96
REMARK H PARENT 7 12 12 24 86 52 56 63
REMARK Flexibility Score: inf
ROOT
ATOM      1  C   UNL     1      -2.811  -1.747   1.513  1.00  0.00     0.188 C 
ENDROOT
BRANCH   1   2
ATOM      2  O   UNL     1      -4.042  -2.321   1.088  1.00  0.00    -0.376 OA
BRANCH   2   3
ATOM      3  C   UNL     1      -3.912  -3.189  -0.041  1.00  0.00     0.202 C 
BRANCH   3   4
ATOM      4  C   UNL     1      -3.504  -2.491  -1.351  1.00  0.00     0.261 C 
BRANCH   4   5
ATOM      5  O   UNL     1      -2.092  -2.173  -1.383  1.00  0.00    -0.462 OA
BRANCH   5   6
ATOM      6  C   UNL     1      -1.729  -0.884  -1.140  1.00  0.00     0.329 C 
ATOM      7  O   UNL     1      -2.525   0.037  -0.996  1.00  0.00    -0.250 OA
BRANCH   6   8
ATOM      8  C   UNL     1      -0.213  -0.732  -0.887  1.00  0.00     0.196 C 
BRANCH   8   9
ATOM      9  N   UNL     1       0.314  -1.058   0.448  1.00  0.00    -0.342 N 
ATOM     10  C   UNL     1       0.511  -0.283   1.546  1.00  0.00     0.223 C 
ATOM     11  O   UNL     1       1.113  -0.777   2.502  1.00  0.00    -0.275 OA
ATOM     12  H   UNL     1       0.567  -2.002   0.565  1.00  0.00     0.164 HD
BRANCH  10  13
ATOM     13  C   UNL     1       0.033   1.144   1.596  1.00  0.00     0.128 C 
BRANCH  13  14
ATOM     14  C   UNL     1       1.188   2.096   1.331  1.00  0.00     0.169 C 
BRANCH  14  15
ATOM     15  O   UNL     1       1.450   2.153  -0.073  1.00  0.00    -0.384 OA
ATOM     16  C   UNL     1       2.700   1.578  -0.423  1.00  0.00     0.194 C 
ENDBRANCH  14  15
ENDBRANCH  13  14
ENDBRANCH  10  13
ENDBRANCH   8   9
BRANCH   8  17
ATOM     17  C   UNL     1       0.626  -1.337  -2.009  1.00  0.00     0.074 C 
BRANCH  17  18
ATOM     18  C   UNL     1       1.041  -2.792  -2.037  1.00  0.00    -0.020 A 
ATOM     19  C   UNL     1       2.015  -3.210  -2.931  1.00  0.00     0.087 A 
ATOM     20  C   UNL     1       0.618  -3.987  -1.339  1.00  0.00     0.003 A 
ATOM     21  N   UNL     1       2.138  -4.564  -2.866  1.00  0.00    -0.361 N 
ATOM     22  C   UNL     1       1.265  -5.073  -1.940  1.00  0.00     0.046 A 
ATOM     23  C   UNL     1      -0.257  -4.304  -0.277  1.00  0.00     0.010 A 
ATOM     24  H   UNL     1       2.764  -5.101  -3.405  1.00  0.00     0.166 HD
ATOM     25  C   UNL     1       1.017  -6.411  -1.599  1.00  0.00     0.026 A 
ATOM     26  C   UNL     1      -0.516  -5.631   0.090  1.00  0.00     0.001 A 
ATOM     27  C   UNL     1       0.099  -6.674  -0.582  1.00  0.00     0.002 A 
ENDBRANCH  17  18
ENDBRANCH   8  17
ENDBRANCH   6   8
ENDBRANCH   5   6
ENDBRANCH   4   5
ENDBRANCH   3   4
ENDBRANCH   2   3
ENDBRANCH   1   2
BRANCH   1  28
ATOM     28  C   UNL     1      -2.516  -2.026   2.963  1.00  0.00     0.188 C 
BRANCH  28  29
ATOM     29  O   UNL     1      -2.120  -3.381   3.182  1.00  0.00    -0.376 OA
BRANCH  29  30
ATOM     30  C   UNL     1      -3.160  -4.191   3.725  1.00  0.00     0.202 C 
BRANCH  30  31
ATOM     31  C   UNL     1      -3.365  -4.000   5.239  1.00  0.00     0.261 C 
BRANCH  31  32
ATOM     32  O   UNL     1      -3.795  -2.661   5.561  1.00  0.00    -0.460 OA
BRANCH  32  33
ATOM     33  C   UNL     1      -2.830  -1.835   6.045  1.00  0.00     0.338 C 
ATOM     34  O   UNL     1      -1.730  -2.169   6.461  1.00  0.00    -0.246 OA
BRANCH  33  35
ATOM     35  C   UNL     1      -3.197  -0.418   5.780  1.00  0.00     0.060 A 
ATOM     36  C   UNL     1      -2.194   0.439   5.300  1.00  0.00     0.016 A 
ATOM     37  C   UNL     1      -4.498   0.064   5.948  1.00  0.00     0.016 A 
ATOM     38  C   UNL     1      -2.475   1.779   5.025  1.00  0.00     0.010 A 
ATOM     39  C   UNL     1      -4.774   1.416   5.700  1.00  0.00     0.010 A 
ATOM     40  C   UNL     1      -3.755   2.288   5.271  1.00  0.00    -0.014 A 
BRANCH  40  41
ATOM     41  C   UNL     1      -3.954   3.759   5.333  1.00  0.00     0.031 A 
ATOM     42  C   UNL     1      -3.790   4.428   6.673  1.00  0.00     0.074 A 
ATOM     43  C   UNL     1      -4.236   4.499   4.245  1.00  0.00     0.049 A 
ATOM     44  N   UNL     1      -3.945   5.684   7.002  1.00  0.00    -0.248 NA
ATOM     45  C   UNL     1      -3.392   3.557   7.793  1.00  0.00     0.031 C 
ATOM     46  C   UNL     1      -4.356   3.994   2.879  1.00  0.00     0.029 A 
ATOM     47  N   UNL     1      -4.474   5.848   4.128  1.00  0.00    -0.354 N 
ATOM     48  C   UNL     1      -3.673   5.752   8.363  1.00  0.00     0.074 A 
ATOM     49  C   UNL     1      -3.364   4.410   8.804  1.00  0.00     0.031 C 
ATOM     50  C   UNL     1      -4.655   5.020   2.061  1.00  0.00     0.029 A 
ATOM     51  C   UNL     1      -4.780   6.247   2.848  1.00  0.00     0.049 A 
ATOM     52  H   UNL     1      -4.429   6.470   4.889  1.00  0.00     0.167 HD
ATOM     53  C   UNL     1      -3.678   6.832   9.180  1.00  0.00     0.031 A 
ATOM     54  C   UNL     1      -5.141   7.458   2.373  1.00  0.00     0.031 A 
ATOM     55  C   UNL     1      -4.009   8.164   8.755  1.00  0.00     0.049 A 
ATOM     56  C   UNL     1      -5.230   8.632   3.318  1.00  0.00     0.074 A 
ATOM     57  C   UNL     1      -4.052   9.322   9.511  1.00  0.00     0.029 A 
ATOM     58  N   UNL     1      -4.364   8.515   7.462  1.00  0.00    -0.354 N 
ATOM     59  N   UNL     1      -4.968   8.682   4.603  1.00  0.00    -0.248 NA
ATOM     60  C   UNL     1      -5.663   9.916   2.745  1.00  0.00     0.031 C 
ATOM     61  C   UNL     1      -4.483  10.365   8.685  1.00  0.00     0.029 A 
ATOM     62  C   UNL     1      -4.651   9.867   7.402  1.00  0.00     0.049 A 
ATOM     63  H   UNL     1      -4.404   7.894   6.699  1.00  0.00     0.167 HD
ATOM     64  C   UNL     1      -5.180  10.004   4.985  1.00  0.00     0.074 A 
ATOM     65  C   UNL     1      -5.579  10.724   3.794  1.00  0.00     0.031 C 
ATOM     66  C   UNL     1      -5.051  10.572   6.210  1.00  0.00     0.031 A 
BRANCH  53  67
ATOM     67  C   UNL     1      -3.362   6.594  10.631  1.00  0.00    -0.014 A 
ATOM     68  C   UNL     1      -2.055   6.293  11.054  1.00  0.00     0.010 A 
ATOM     69  C   UNL     1      -4.391   6.677  11.586  1.00  0.00     0.010 A 
ATOM     70  C   UNL     1      -1.791   6.036  12.402  1.00  0.00     0.020 A 
ATOM     71  C   UNL     1      -4.126   6.446  12.938  1.00  0.00     0.020 A 
ATOM     72  C   UNL     1      -2.830   6.109  13.335  1.00  0.00     0.054 A 
BRANCH  72  73
ATOM     73  S   UNL     1      -2.461   5.779  15.079  1.00  0.00     0.124 S 
ATOM     74  O   UNL     1      -2.294   4.328  15.082  1.00  0.00    -0.237 OA
ATOM     75  O   UNL     1      -1.241   6.551  15.301  1.00  0.00    -0.237 OA
ATOM     76  O   UNL     1      -3.642   6.271  15.783  1.00  0.00    -0.744 OA
ENDBRANCH  72  73
ENDBRANCH  53  67
BRANCH  54  77
ATOM     77  C   UNL     1      -5.476   7.627   0.930  1.00  0.00    -0.014 A 
ATOM     78  C   UNL     1      -4.640   8.370   0.078  1.00  0.00     0.010 A 
ATOM     79  C   UNL     1      -6.648   7.054   0.403  1.00  0.00     0.010 A 
ATOM     80  C   UNL     1      -4.976   8.547  -1.269  1.00  0.00     0.020 A 
ATOM     81  C   UNL     1      -6.974   7.207  -0.948  1.00  0.00     0.020 A 
ATOM     82  C   UNL     1      -6.140   7.961  -1.774  1.00  0.00     0.054 A 
BRANCH  82  83
ATOM     83  S   UNL     1      -6.528   8.156  -3.537  1.00  0.00     0.124 S 
ATOM     84  O   UNL     1      -6.979   9.543  -3.598  1.00  0.00    -0.237 OA
ATOM     85  O   UNL     1      -5.244   7.879  -4.177  1.00  0.00    -0.237 OA
ATOM     86  O   UNL     1      -7.562   7.151  -3.773  1.00  0.00    -0.744 OA
ENDBRANCH  82  83
ENDBRANCH  54  77
BRANCH  66  87
ATOM     87  C   UNL     1      -5.309  12.052   6.327  1.00  0.00    -0.014 A 
ATOM     88  C   UNL     1      -6.612  12.575   6.262  1.00  0.00     0.010 A 
ATOM     89  C   UNL     1      -4.232  12.926   6.570  1.00  0.00     0.010 A 
ATOM     90  C   UNL     1      -6.831  13.948   6.405  1.00  0.00     0.020 A 
ATOM     91  C   UNL     1      -4.450  14.296   6.739  1.00  0.00     0.020 A 
ATOM     92  C   UNL     1      -5.748  14.801   6.640  1.00  0.00     0.054 A 
BRANCH  92  93
ATOM     93  S   UNL     1      -6.060  16.575   6.862  1.00  0.00     0.124 S 
ATOM     94  O   UNL     1      -6.325  17.009   5.493  1.00  0.00    -0.237 OA
ATOM     95  O   UNL     1      -7.212  16.590   7.760  1.00  0.00    -0.237 OA
ATOM     96  O   UNL     1      -4.817  17.075   7.445  1.00  0.00    -0.744 OA
ENDBRANCH  92  93
ENDBRANCH  66  87
ENDBRANCH  40  41
ENDBRANCH  33  35
ENDBRANCH  32  33
ENDBRANCH  31  32
ENDBRANCH  30  31
ENDBRANCH  29  30
ENDBRANCH  28  29
ENDBRANCH   1  28
TORSDOF 26
