REMARK SMILES C#CCN(CC(=O)OCCOCCOCCOC(=O)c1ccc(-c2c3nc(c(-c4ccc(S(=O)(=O)[O-])cc4)c4ccc([nH]4)c(-c4ccc(S(=O)(=O)[O-])cc4)c4nc(c(-c5ccc(S(=O)(=O)[O-])cc5)c5ccc2[nH]5)C=C4)C=C3)cc1)C(=O)[C@H]1C[NH2+]C[C@H]1C
REMARK SMILES IDX 12 1 11 2 10 3 9 4 8 5 6 6 7 7 5 8 4 9 3 10 2 11 1 12 80 13
REMARK SMILES IDX 81 14 82 15 83 16 86 17 84 18 85 19 87 20 13 23 14 24 15 25
REMARK SMILES IDX 16 26 17 27 18 28 19 29 20 30 21 31 79 32 22 33 78 34 23 35
REMARK SMILES IDX 24 36 25 37 72 38 26 39 77 40 71 41 73 42 27 43 76 44 70 45
REMARK SMILES IDX 69 46 28 48 58 49 39 50 57 51 40 52 43 53 56 54 74 55 41 56
REMARK SMILES IDX 42 57 55 59 75 60 44 61 29 62 30 63 38 64 31 65 37 66 32 67
REMARK SMILES IDX 33 68 34 69 35 70 36 71 59 72 60 73 68 74 61 75 67 76 62 77
REMARK SMILES IDX 63 78 64 79 65 80 66 81 45 82 46 83 54 84 47 85 53 86 48 87
REMARK SMILES IDX 49 88 50 89 51 90 52 91
REMARK H PARENT 84 21 84 22 73 47 43 58
REMARK Flexibility Score: inf
ROOT
ATOM      1  C   UNL     1      -6.464   1.330  -3.345  1.00  0.00     0.188 C 
ENDROOT
BRANCH   1   2
ATOM      2  O   UNL     1      -7.831   1.194  -3.062  1.00  0.00    -0.376 OA
BRANCH   2   3
ATOM      3  C   UNL     1      -8.045   1.006  -1.667  1.00  0.00     0.202 C 
BRANCH   3   4
ATOM      4  C   UNL     1      -7.121  -0.059  -0.969  1.00  0.00     0.261 C 
BRANCH   4   5
ATOM      5  O   UNL     1      -5.635   0.146  -0.991  1.00  0.00    -0.462 OA
BRANCH   5   6
ATOM      6  C   UNL     1      -4.834  -0.789  -1.596  1.00  0.00     0.325 C 
ATOM      7  O   UNL     1      -5.290  -1.859  -2.006  1.00  0.00    -0.250 OA
BRANCH   6   8
ATOM      8  C   UNL     1      -3.343  -0.359  -2.013  1.00  0.00     0.243 C 
BRANCH   8   9
ATOM      9  N   UNL     1      -2.388   0.572  -1.337  1.00  0.00    -0.320 N 
BRANCH   9  10
ATOM     10  C   UNL     1      -1.832   0.057  -0.082  1.00  0.00     0.210 C 
BRANCH  10  11
ATOM     11  C   UNL     1      -0.312   0.057  -0.082  1.00  0.00    -0.085 C 
ATOM     12  C   UNL     1       0.992   0.057  -0.082  1.00  0.00     0.006 C 
ENDBRANCH  10  11
ENDBRANCH   9  10
BRANCH   9  13
ATOM     13  C   UNL     1      -1.867   1.832  -1.677  1.00  0.00     0.233 C 
ATOM     14  O   UNL     1      -1.208   2.455  -0.823  1.00  0.00    -0.274 OA
BRANCH  13  15
ATOM     15  C   UNL     1      -1.821   2.456  -3.156  1.00  0.00     0.142 C 
ATOM     16  C   UNL     1      -3.453   2.278  -4.332  1.00  0.00     0.274 C 
ATOM     17  C   UNL     1      -1.251   4.393  -3.353  1.00  0.00     0.059 C 
ATOM     18  N   UNL     1      -4.044   4.025  -4.960  1.00  0.00    -0.345 N 
ATOM     19  C   UNL     1      -2.705   5.377  -4.357  1.00  0.00     0.264 C 
ATOM     20  C   UNL     1      -0.724   5.154  -2.143  1.00  0.00     0.015 C 
ATOM     21  H   UNL     1      -4.959   4.244  -4.566  1.00  0.00     0.346 HD
ATOM     22  H   UNL     1      -4.123   4.030  -5.977  1.00  0.00     0.346 HD
ENDBRANCH  13  15
ENDBRANCH   9  13
ENDBRANCH   8   9
ENDBRANCH   6   8
ENDBRANCH   5   6
ENDBRANCH   4   5
ENDBRANCH   3   4
ENDBRANCH   2   3
ENDBRANCH   1   2
BRANCH   1  23
ATOM     23  C   UNL     1      -5.740   2.401  -2.501  1.00  0.00     0.188 C 
BRANCH  23  24
ATOM     24  O   UNL     1      -6.168   2.813  -1.231  1.00  0.00    -0.376 OA
BRANCH  24  25
ATOM     25  C   UNL     1      -5.677   4.081  -0.822  1.00  0.00     0.202 C 
BRANCH  25  26
ATOM     26  C   UNL     1      -5.061   5.120  -1.797  1.00  0.00     0.261 C 
BRANCH  26  27
ATOM     27  O   UNL     1      -4.479   4.730  -3.075  1.00  0.00    -0.460 OA
BRANCH  27  28
ATOM     28  C   UNL     1      -3.202   3.921  -3.216  1.00  0.00     0.338 C 
ATOM     29  O   UNL     1      -3.029   3.708  -2.011  1.00  0.00    -0.246 OA
BRANCH  28  30
ATOM     30  C   UNL     1      -2.082   3.551  -5.033  1.00  0.00     0.060 A 
ATOM     31  C   UNL     1      -1.238   2.356  -5.452  1.00  0.00     0.016 A 
ATOM     32  C   UNL     1      -2.170   4.295  -6.385  1.00  0.00     0.016 A 
ATOM     33  C   UNL     1      -0.661   2.031  -6.678  1.00  0.00     0.010 A 
ATOM     34  C   UNL     1      -1.715   3.932  -7.647  1.00  0.00     0.010 A 
ATOM     35  C   UNL     1      -0.974   2.790  -7.768  1.00  0.00    -0.014 A 
BRANCH  35  36
ATOM     36  C   UNL     1      -0.492   2.391  -9.065  1.00  0.00     0.031 A 
ATOM     37  C   UNL     1       0.627   3.192  -9.602  1.00  0.00     0.074 A 
ATOM     38  C   UNL     1      -1.096   1.351  -9.655  1.00  0.00     0.049 A 
ATOM     39  N   UNL     1       1.222   3.072 -10.745  1.00  0.00    -0.248 NA
ATOM     40  C   UNL     1       1.127   4.295  -8.754  1.00  0.00     0.031 C 
ATOM     41  C   UNL     1      -2.210   0.576  -9.087  1.00  0.00     0.029 A 
ATOM     42  N   UNL     1      -0.855   0.760 -10.852  1.00  0.00    -0.354 N 
ATOM     43  C   UNL     1       2.158   4.089 -10.761  1.00  0.00     0.074 A 
ATOM     44  C   UNL     1       2.013   4.860  -9.553  1.00  0.00     0.031 C 
ATOM     45  C   UNL     1      -2.532  -0.413  -9.935  1.00  0.00     0.029 A 
ATOM     46  C   UNL     1      -1.689  -0.297 -11.115  1.00  0.00     0.049 A 
ATOM     47  H   UNL     1      -0.151   1.060 -11.471  1.00  0.00     0.167 HD
ATOM     48  C   UNL     1       3.069   4.322 -11.722  1.00  0.00     0.031 A 
ATOM     49  C   UNL     1      -1.748  -1.057 -12.219  1.00  0.00     0.031 A 
ATOM     50  C   UNL     1       3.124   3.520 -12.908  1.00  0.00     0.049 A 
ATOM     51  C   UNL     1      -0.759  -0.730 -13.301  1.00  0.00     0.074 A 
ATOM     52  C   UNL     1       3.983   3.622 -13.979  1.00  0.00     0.029 A 
ATOM     53  N   UNL     1       2.256   2.463 -13.174  1.00  0.00    -0.354 N 
ATOM     54  N   UNL     1       0.169   0.204 -13.305  1.00  0.00    -0.248 NA
ATOM     55  C   UNL     1      -0.809  -1.547 -14.512  1.00  0.00     0.031 C 
ATOM     56  C   UNL     1       3.584   2.677 -14.927  1.00  0.00     0.029 A 
ATOM     57  C   UNL     1       2.535   1.923 -14.410  1.00  0.00     0.049 A 
ATOM     58  H   UNL     1       1.548   2.147 -12.567  1.00  0.00     0.167 HD
ATOM     59  C   UNL     1       0.836   0.072 -14.512  1.00  0.00     0.074 A 
ATOM     60  C   UNL     1       0.213  -1.050 -15.197  1.00  0.00     0.031 C 
ATOM     61  C   UNL     1       1.862   0.800 -15.021  1.00  0.00     0.031 A 
BRANCH  48  62
ATOM     62  C   UNL     1       3.987   5.486 -11.523  1.00  0.00    -0.014 A 
ATOM     63  C   UNL     1       4.926   5.510 -10.473  1.00  0.00     0.010 A 
ATOM     64  C   UNL     1       3.889   6.592 -12.382  1.00  0.00     0.010 A 
ATOM     65  C   UNL     1       5.734   6.629 -10.274  1.00  0.00     0.020 A 
ATOM     66  C   UNL     1       4.723   7.697 -12.210  1.00  0.00     0.020 A 
ATOM     67  C   UNL     1       5.636   7.710 -11.154  1.00  0.00     0.054 A 
BRANCH  67  68
ATOM     68  S   UNL     1       6.753   9.116 -10.918  1.00  0.00     0.124 S 
ATOM     69  O   UNL     1       6.268   9.681  -9.662  1.00  0.00    -0.237 OA
ATOM     70  O   UNL     1       8.061   8.469 -10.853  1.00  0.00    -0.237 OA
ATOM     71  O   UNL     1       6.526   9.942 -12.101  1.00  0.00    -0.744 OA
ENDBRANCH  67  68
ENDBRANCH  48  62
BRANCH  49  72
ATOM     72  C   UNL     1      -2.747  -2.149 -12.331  1.00  0.00    -0.014 A 
ATOM     73  C   UNL     1      -2.338  -3.491 -12.400  1.00  0.00     0.010 A 
ATOM     74  C   UNL     1      -4.125  -1.855 -12.336  1.00  0.00     0.010 A 
ATOM     75  C   UNL     1      -3.284  -4.515 -12.507  1.00  0.00     0.020 A 
ATOM     76  C   UNL     1      -5.075  -2.877 -12.406  1.00  0.00     0.020 A 
ATOM     77  C   UNL     1      -4.647  -4.200 -12.508  1.00  0.00     0.054 A 
BRANCH  77  78
ATOM     78  S   UNL     1      -5.851  -5.550 -12.629  1.00  0.00     0.124 S 
ATOM     79  O   UNL     1      -5.616  -6.045 -13.982  1.00  0.00    -0.237 OA
ATOM     80  O   UNL     1      -5.431  -6.438 -11.548  1.00  0.00    -0.237 OA
ATOM     81  O   UNL     1      -7.135  -4.885 -12.420  1.00  0.00    -0.744 OA
ENDBRANCH  77  78
ENDBRANCH  49  72
BRANCH  61  82
ATOM     82  C   UNL     1       2.382   0.369 -16.359  1.00  0.00    -0.014 A 
ATOM     83  C   UNL     1       1.627   0.563 -17.527  1.00  0.00     0.010 A 
ATOM     84  C   UNL     1       3.685  -0.153 -16.445  1.00  0.00     0.010 A 
ATOM     85  C   UNL     1       2.162   0.214 -18.764  1.00  0.00     0.020 A 
ATOM     86  C   UNL     1       4.239  -0.458 -17.684  1.00  0.00     0.020 A 
ATOM     87  C   UNL     1       3.468  -0.282 -18.834  1.00  0.00     0.054 A 
BRANCH  87  88
ATOM     88  S   UNL     1       4.162  -0.652 -20.463  1.00  0.00     0.124 S 
ATOM     89  O   UNL     1       3.374  -1.812 -20.872  1.00  0.00    -0.237 OA
ATOM     90  O   UNL     1       3.901   0.580 -21.203  1.00  0.00    -0.237 OA
ATOM     91  O   UNL     1       5.571  -0.922 -20.188  1.00  0.00    -0.744 OA
ENDBRANCH  87  88
ENDBRANCH  61  82
ENDBRANCH  35  36
ENDBRANCH  28  30
ENDBRANCH  27  28
ENDBRANCH  26  27
ENDBRANCH  25  26
ENDBRANCH  24  25
ENDBRANCH  23  24
ENDBRANCH   1  23
TORSDOF 25
