REMARK SMILES CC1=C(CC(=O)OCCOCCOCCOC(=O)c2ccc(-c3c4nc(c(-c5ccc(S(=O)(=O)[O-])cc5)c5ccc([nH]5)c(-c5ccc(S(=O)(=O)[O-])cc5)c5nc(c(-c6ccc(S(=O)(=O)[O-])cc6)c6ccc3[nH]6)C=C5)C=C4)cc2)c2cc(F)ccc2/C1=C\c1cccc(OCc2ccccc2)c1
REMARK SMILES IDX 11 1 10 2 9 3 8 4 7 5 5 6 6 7 4 8 3 9 1 10 2 11 86 12 79 13
REMARK SMILES IDX 85 14 87 15 80 16 84 17 81 18 83 19 82 20 88 21 89 22 101 23
REMARK SMILES IDX 90 24 92 25 91 26 93 27 94 28 95 29 96 30 100 31 97 32 99 33
REMARK SMILES IDX 98 34 12 35 13 36 14 37 15 38 16 39 17 40 18 41 19 42 20 43
REMARK SMILES IDX 78 44 21 45 77 46 22 47 23 48 24 49 71 50 25 51 76 52 70 53
REMARK SMILES IDX 72 54 26 55 75 56 69 57 68 58 27 60 57 61 38 62 56 63 39 64
REMARK SMILES IDX 42 65 55 66 73 67 40 68 41 69 54 71 74 72 43 73 28 74 29 75
REMARK SMILES IDX 37 76 30 77 36 78 31 79 32 80 33 81 34 82 35 83 58 84 59 85
REMARK SMILES IDX 67 86 60 87 66 88 61 89 62 90 63 91 64 92 65 93 44 94 45 95
REMARK SMILES IDX 53 96 46 97 52 98 47 99 48 100 49 101 50 102 51 103
REMARK H PARENT 72 59 42 70
REMARK Flexibility Score: inf
ROOT
ATOM      1  C   UNL     1       3.081  -4.949   2.803  1.00  0.00     0.188 C 
ENDROOT
BRANCH   1   2
ATOM      2  O   UNL     1       4.395  -5.167   2.291  1.00  0.00    -0.376 OA
BRANCH   2   3
ATOM      3  C   UNL     1       5.096  -4.040   1.774  1.00  0.00     0.202 C 
BRANCH   3   4
ATOM      4  C   UNL     1       4.495  -3.451   0.496  1.00  0.00     0.261 C 
BRANCH   4   5
ATOM      5  O   UNL     1       3.180  -2.915   0.749  1.00  0.00    -0.463 OA
BRANCH   5   6
ATOM      6  C   UNL     1       2.354  -2.851  -0.326  1.00  0.00     0.310 C 
ATOM      7  O   UNL     1       2.714  -3.054  -1.480  1.00  0.00    -0.252 OA
BRANCH   6   8
ATOM      8  C   UNL     1       0.889  -2.644   0.060  1.00  0.00     0.159 C 
BRANCH   8   9
ATOM      9  C   UNL     1       0.562  -1.655   1.141  1.00  0.00    -0.025 C 
ATOM     10  C   UNL     1       1.520   0.486   0.166  1.00  0.00     0.045 C 
ATOM     11  C   UNL     1       0.844  -0.332   1.214  1.00  0.00    -0.039 C 
ATOM     12  C   UNL     1       0.279   0.235   2.453  1.00  0.00    -0.014 C 
ATOM     13  C   UNL     1      -0.274  -1.984   2.314  1.00  0.00    -0.011 A 
ATOM     14  C   UNL     1      -0.367  -0.875   3.173  1.00  0.00    -0.010 A 
ATOM     15  C   UNL     1       0.265   1.540   2.784  1.00  0.00     0.017 C 
ATOM     16  C   UNL     1      -0.966  -3.145   2.619  1.00  0.00     0.048 A 
ATOM     17  C   UNL     1      -1.011  -0.966   4.402  1.00  0.00     0.012 A 
ATOM     18  C   UNL     1      -1.679  -3.200   3.819  1.00  0.00     0.123 A 
ATOM     19  C   UNL     1      -1.668  -2.147   4.729  1.00  0.00     0.040 A 
ATOM     20  F   UNL     1      -2.370  -4.306   4.119  1.00  0.00    -0.207 F 
BRANCH  15  21
ATOM     21  C   UNL     1      -0.441   2.120   3.936  1.00  0.00    -0.021 A 
ATOM     22  C   UNL     1       0.232   2.334   5.141  1.00  0.00     0.008 A 
ATOM     23  C   UNL     1      -1.817   2.393   3.849  1.00  0.00     0.054 A 
ATOM     24  C   UNL     1      -0.470   2.792   6.256  1.00  0.00     0.004 A 
ATOM     25  C   UNL     1      -2.518   2.881   4.954  1.00  0.00     0.120 A 
ATOM     26  C   UNL     1      -1.837   3.061   6.161  1.00  0.00     0.046 A 
BRANCH  25  27
ATOM     27  O   UNL     1      -3.846   3.208   4.999  1.00  0.00    -0.489 OA
BRANCH  27  28
ATOM     28  C   UNL     1      -4.605   3.199   3.785  1.00  0.00     0.265 C 
BRANCH  28  29
ATOM     29  C   UNL     1      -4.266   4.363   2.881  1.00  0.00    -0.011 A 
ATOM     30  C   UNL     1      -4.341   5.679   3.357  1.00  0.00     0.007 A 
ATOM     31  C   UNL     1      -3.846   4.142   1.562  1.00  0.00     0.007 A 
ATOM     32  C   UNL     1      -3.970   6.749   2.541  1.00  0.00     0.000 A 
ATOM     33  C   UNL     1      -3.461   5.210   0.752  1.00  0.00     0.000 A 
ATOM     34  C   UNL     1      -3.520   6.513   1.244  1.00  0.00     0.000 A 
ENDBRANCH  28  29
ENDBRANCH  27  28
ENDBRANCH  25  27
ENDBRANCH  15  21
ENDBRANCH   8   9
ENDBRANCH   6   8
ENDBRANCH   5   6
ENDBRANCH   4   5
ENDBRANCH   3   4
ENDBRANCH   2   3
ENDBRANCH   1   2
BRANCH   1  35
ATOM     35  C   UNL     1       2.838  -3.677   3.629  1.00  0.00     0.188 C 
BRANCH  35  36
ATOM     36  O   UNL     1       3.920  -3.412   4.519  1.00  0.00    -0.376 OA
BRANCH  36  37
ATOM     37  C   UNL     1       3.508  -3.174   5.859  1.00  0.00     0.202 C 
BRANCH  37  38
ATOM     38  C   UNL     1       3.516  -4.482   6.651  1.00  0.00     0.261 C 
BRANCH  38  39
ATOM     39  O   UNL     1       2.642  -5.489   6.107  1.00  0.00    -0.460 OA
BRANCH  39  40
ATOM     40  C   UNL     1       1.326  -5.329   6.366  1.00  0.00     0.338 C 
ATOM     41  O   UNL     1       0.803  -4.416   6.977  1.00  0.00    -0.246 OA
BRANCH  40  42
ATOM     42  C   UNL     1       0.595  -6.409   5.679  1.00  0.00     0.060 A 
ATOM     43  C   UNL     1       0.461  -7.666   6.260  1.00  0.00     0.016 A 
ATOM     44  C   UNL     1      -0.012  -6.137   4.455  1.00  0.00     0.016 A 
ATOM     45  C   UNL     1      -0.300  -8.643   5.606  1.00  0.00     0.010 A 
ATOM     46  C   UNL     1      -0.815  -7.090   3.828  1.00  0.00     0.010 A 
ATOM     47  C   UNL     1      -0.967  -8.358   4.396  1.00  0.00    -0.014 A 
BRANCH  47  48
ATOM     48  C   UNL     1      -1.880  -9.360   3.782  1.00  0.00     0.031 A 
ATOM     49  C   UNL     1      -1.570 -10.003   2.458  1.00  0.00     0.074 A 
ATOM     50  C   UNL     1      -3.019  -9.681   4.428  1.00  0.00     0.049 A 
ATOM     51  N   UNL     1      -2.181 -11.002   1.873  1.00  0.00    -0.248 NA
ATOM     52  C   UNL     1      -0.452  -9.448   1.678  1.00  0.00     0.031 C 
ATOM     53  C   UNL     1      -3.485  -9.052   5.666  1.00  0.00     0.029 A 
ATOM     54  N   UNL     1      -3.978 -10.625   4.153  1.00  0.00    -0.354 N 
ATOM     55  C   UNL     1      -1.511 -11.211   0.673  1.00  0.00     0.074 A 
ATOM     56  C   UNL     1      -0.493 -10.189   0.577  1.00  0.00     0.031 C 
ATOM     57  C   UNL     1      -4.600  -9.671   6.080  1.00  0.00     0.029 A 
ATOM     58  C   UNL     1      -4.941 -10.729   5.131  1.00  0.00     0.049 A 
ATOM     59  H   UNL     1      -3.977 -11.174   3.336  1.00  0.00     0.167 HD
ATOM     60  C   UNL     1      -1.706 -12.188  -0.245  1.00  0.00     0.031 A 
ATOM     61  C   UNL     1      -5.963 -11.598   5.276  1.00  0.00     0.031 A 
ATOM     62  C   UNL     1      -2.720 -13.204  -0.135  1.00  0.00     0.049 A 
ATOM     63  C   UNL     1      -6.140 -12.699   4.268  1.00  0.00     0.074 A 
ATOM     64  C   UNL     1      -2.950 -14.278  -0.978  1.00  0.00     0.029 A 
ATOM     65  N   UNL     1      -3.670 -13.275   0.872  1.00  0.00    -0.354 N 
ATOM     66  N   UNL     1      -5.423 -12.953   3.200  1.00  0.00    -0.248 NA
ATOM     67  C   UNL     1      -7.243 -13.644   4.493  1.00  0.00     0.031 C 
ATOM     68  C   UNL     1      -4.071 -14.967  -0.510  1.00  0.00     0.029 A 
ATOM     69  C   UNL     1      -4.501 -14.362   0.660  1.00  0.00     0.049 A 
ATOM     70  H   UNL     1      -3.743 -12.646   1.626  1.00  0.00     0.167 HD
ATOM     71  C   UNL     1      -5.974 -14.098   2.636  1.00  0.00     0.074 A 
ATOM     72  C   UNL     1      -7.077 -14.495   3.487  1.00  0.00     0.031 C 
ATOM     73  C   UNL     1      -5.595 -14.756   1.514  1.00  0.00     0.031 A 
BRANCH  60  74
ATOM     74  C   UNL     1      -0.776 -12.254  -1.431  1.00  0.00    -0.014 A 
ATOM     75  C   UNL     1      -1.272 -12.063  -2.734  1.00  0.00     0.010 A 
ATOM     76  C   UNL     1       0.566 -12.640  -1.262  1.00  0.00     0.010 A 
ATOM     77  C   UNL     1      -0.451 -12.282  -3.846  1.00  0.00     0.020 A 
ATOM     78  C   UNL     1       1.397 -12.833  -2.369  1.00  0.00     0.020 A 
ATOM     79  C   UNL     1       0.876 -12.675  -3.655  1.00  0.00     0.054 A 
BRANCH  79  80
ATOM     80  S   UNL     1       1.922 -12.980  -5.107  1.00  0.00     0.124 S 
ATOM     81  O   UNL     1       1.449 -14.284  -5.560  1.00  0.00    -0.237 OA
ATOM     82  O   UNL     1       1.599 -11.852  -5.977  1.00  0.00    -0.237 OA
ATOM     83  O   UNL     1       3.278 -12.962  -4.560  1.00  0.00    -0.744 OA
ENDBRANCH  79  80
ENDBRANCH  60  74
BRANCH  61  84
ATOM     84  C   UNL     1      -6.820 -11.502   6.489  1.00  0.00    -0.014 A 
ATOM     85  C   UNL     1      -7.705 -10.422   6.658  1.00  0.00     0.010 A 
ATOM     86  C   UNL     1      -6.674 -12.435   7.532  1.00  0.00     0.010 A 
ATOM     87  C   UNL     1      -8.386 -10.244   7.865  1.00  0.00     0.020 A 
ATOM     88  C   UNL     1      -7.373 -12.275   8.732  1.00  0.00     0.020 A 
ATOM     89  C   UNL     1      -8.201 -11.163   8.902  1.00  0.00     0.054 A 
BRANCH  89  90
ATOM     90  S   UNL     1      -9.041 -10.878  10.485  1.00  0.00     0.124 S 
ATOM     91  O   UNL     1      -8.221  -9.822  11.072  1.00  0.00    -0.237 OA
ATOM     92  O   UNL     1     -10.382 -10.476  10.068  1.00  0.00    -0.237 OA
ATOM     93  O   UNL     1      -8.963 -12.175  11.152  1.00  0.00    -0.744 OA
ENDBRANCH  89  90
ENDBRANCH  61  84
BRANCH  73  94
ATOM     94  C   UNL     1      -6.361 -15.986   1.108  1.00  0.00    -0.014 A 
ATOM     95  C   UNL     1      -5.732 -17.245   1.156  1.00  0.00     0.010 A 
ATOM     96  C   UNL     1      -7.633 -15.877   0.519  1.00  0.00     0.010 A 
ATOM     97  C   UNL     1      -6.338 -18.363   0.579  1.00  0.00     0.020 A 
ATOM     98  C   UNL     1      -8.253 -16.999  -0.038  1.00  0.00     0.020 A 
ATOM     99  C   UNL     1      -7.588 -18.228  -0.031  1.00  0.00     0.054 A 
BRANCH  99 100
ATOM    100  S   UNL     1      -8.328 -19.674  -0.839  1.00  0.00     0.124 S 
ATOM    101  O   UNL     1      -7.564 -19.758  -2.080  1.00  0.00    -0.237 OA
ATOM    102  O   UNL     1      -8.082 -20.744   0.125  1.00  0.00    -0.237 OA
ATOM    103  O   UNL     1      -9.732 -19.298  -0.994  1.00  0.00    -0.744 OA
ENDBRANCH  99 100
ENDBRANCH  73  94
ENDBRANCH  47  48
ENDBRANCH  40  42
ENDBRANCH  39  40
ENDBRANCH  38  39
ENDBRANCH  37  38
ENDBRANCH  36  37
ENDBRANCH  35  36
ENDBRANCH   1  35
TORSDOF 25
