REMARK SMILES NS(=O)(=O)c1ccc(-n2nc(C(F)F)cc2-c2ccc(C(=O)OCCOCCOCCOC(=O)c3ccc(-c4c5nc(c(-c6ccc(S(=O)(=O)[O-])cc6)c6ccc([nH]6)c(-c6ccc(S(=O)(=O)[O-])cc6)c6nc(c(-c7ccc(S(=O)(=O)[O-])cc7)c7ccc4[nH]7)C=C6)C=C5)cc3)cc2)cc1
REMARK SMILES IDX 27 1 26 2 25 3 24 4 23 5 21 6 22 7 20 8 17 9 18 10 96 11
REMARK SMILES IDX 19 12 95 13 16 14 9 15 10 16 11 17 15 18 8 19 5 20 6 21
REMARK SMILES IDX 98 22 7 23 97 24 2 25 3 26 4 27 1 28 12 31 13 32 14 33 28 34
REMARK SMILES IDX 29 35 30 36 31 37 32 38 33 39 34 40 35 41 36 42 94 43 37 44
REMARK SMILES IDX 93 45 38 46 39 47 40 48 87 49 41 50 92 51 86 52 88 53 42 54
REMARK SMILES IDX 91 55 85 56 84 57 43 59 73 60 54 61 72 62 55 63 58 64 71 65
REMARK SMILES IDX 89 66 56 67 57 68 70 70 90 71 59 72 44 73 45 74 53 75 46 76
REMARK SMILES IDX 52 77 47 78 48 79 49 80 50 81 51 82 74 83 75 84 83 85 76 86
REMARK SMILES IDX 82 87 77 88 78 89 79 90 80 91 81 92 60 93 61 94 69 95 62 96
REMARK SMILES IDX 68 97 63 98 64 99 65 100 66 101 67 102
REMARK H PARENT 1 29 1 30 88 58 58 69
REMARK Flexibility Score: inf
ROOT
ATOM      1  C   UNL     1       6.472  -2.785   1.632  1.00  0.00     0.188 C 
ENDROOT
BRANCH   1   2
ATOM      2  O   UNL     1       7.479  -3.519   0.978  1.00  0.00    -0.376 OA
BRANCH   2   3
ATOM      3  C   UNL     1       8.333  -4.400   1.683  1.00  0.00     0.202 C 
BRANCH   3   4
ATOM      4  C   UNL     1       8.481  -4.480   3.217  1.00  0.00     0.261 C 
BRANCH   4   5
ATOM      5  O   UNL     1       7.408  -3.976   4.015  1.00  0.00    -0.460 OA
BRANCH   5   6
ATOM      6  C   UNL     1       7.657  -2.811   4.660  1.00  0.00     0.338 C 
ATOM      7  O   UNL     1       8.705  -2.188   4.669  1.00  0.00    -0.246 OA
BRANCH   6   8
ATOM      8  C   UNL     1       6.402  -2.272   5.230  1.00  0.00     0.060 A 
ATOM      9  C   UNL     1       4.136  -1.101   6.394  1.00  0.00     0.000 A 
ATOM     10  C   UNL     1       5.005  -0.332   5.607  1.00  0.00     0.011 A 
ATOM     11  C   UNL     1       4.376  -2.476   6.535  1.00  0.00     0.011 A 
ATOM     12  C   UNL     1       6.139  -0.911   5.038  1.00  0.00     0.016 A 
ATOM     13  C   UNL     1       5.500  -3.067   5.943  1.00  0.00     0.016 A 
BRANCH   9  14
ATOM     14  C   UNL     1       3.114  -0.433   7.200  1.00  0.00     0.075 A 
ATOM     15  N   UNL     1       2.172   0.487   6.752  1.00  0.00    -0.233 N 
ATOM     16  N   UNL     1       1.697   1.251   7.772  1.00  0.00    -0.166 NA
ATOM     17  C   UNL     1       2.163   0.674   8.890  1.00  0.00     0.129 A 
ATOM     18  C   UNL     1       3.057  -0.374   8.580  1.00  0.00     0.060 A 
BRANCH  15  19
ATOM     19  C   UNL     1       1.698   0.695   5.432  1.00  0.00     0.065 A 
ATOM     20  C   UNL     1       0.784   1.133   2.838  1.00  0.00     0.082 A 
ATOM     21  C   UNL     1       1.046  -0.172   3.263  1.00  0.00     0.024 A 
ATOM     22  C   UNL     1       0.958   2.217   3.705  1.00  0.00     0.024 A 
ATOM     23  C   UNL     1       1.524  -0.390   4.559  1.00  0.00     0.030 A 
ATOM     24  C   UNL     1       1.383   1.995   5.015  1.00  0.00     0.030 A 
BRANCH  20  25
ATOM     25  S   UNL     1       0.256   1.469   1.182  1.00  0.00     0.238 S 
ATOM     26  O   UNL     1       1.015   2.606   0.704  1.00  0.00    -0.207 OA
ATOM     27  O   UNL     1      -1.181   1.412   1.154  1.00  0.00    -0.207 OA
BRANCH  25  28
ATOM     28  N   UNL     1       0.816   0.161   0.289  1.00  0.00    -0.225 NA
ATOM     29  H   UNL     1       0.551   0.278  -0.689  1.00  0.00     0.137 HD
ATOM     30  H   UNL     1       0.406  -0.700   0.652  1.00  0.00     0.137 HD
ENDBRANCH  25  28
ENDBRANCH  20  25
ENDBRANCH  15  19
BRANCH  17  31
ATOM     31  C   UNL     1       1.800   1.152  10.263  1.00  0.00     0.393 C 
ATOM     32  F   UNL     1       1.808   2.509  10.371  1.00  0.00    -0.203 F 
ATOM     33  F   UNL     1       0.555   0.738  10.628  1.00  0.00    -0.203 F 
ENDBRANCH  17  31
ENDBRANCH   9  14
ENDBRANCH   6   8
ENDBRANCH   5   6
ENDBRANCH   4   5
ENDBRANCH   3   4
ENDBRANCH   2   3
ENDBRANCH   1   2
BRANCH   1  34
ATOM     34  C   UNL     1       5.207  -3.506   2.143  1.00  0.00     0.188 C 
BRANCH  34  35
ATOM     35  O   UNL     1       5.205  -4.879   2.481  1.00  0.00    -0.376 OA
BRANCH  35  36
ATOM     36  C   UNL     1       5.397  -5.928   1.545  1.00  0.00     0.202 C 
BRANCH  36  37
ATOM     37  C   UNL     1       5.099  -5.854   0.050  1.00  0.00     0.261 C 
BRANCH  37  38
ATOM     38  O   UNL     1       5.278  -4.587  -0.540  1.00  0.00    -0.460 OA
BRANCH  38  39
ATOM     39  C   UNL     1       4.118  -3.910  -0.648  1.00  0.00     0.338 C 
ATOM     40  O   UNL     1       3.045  -4.197  -0.142  1.00  0.00    -0.246 OA
BRANCH  39  41
ATOM     41  C   UNL     1       4.300  -2.773  -1.543  1.00  0.00     0.060 A 
ATOM     42  C   UNL     1       3.257  -1.846  -1.544  1.00  0.00     0.016 A 
ATOM     43  C   UNL     1       5.227  -2.883  -2.586  1.00  0.00     0.016 A 
ATOM     44  C   UNL     1       2.961  -1.227  -2.730  1.00  0.00     0.010 A 
ATOM     45  C   UNL     1       4.925  -2.269  -3.773  1.00  0.00     0.010 A 
ATOM     46  C   UNL     1       3.734  -1.550  -3.849  1.00  0.00    -0.014 A 
BRANCH  46  47
ATOM     47  C   UNL     1       3.244  -1.106  -5.131  1.00  0.00     0.031 A 
ATOM     48  C   UNL     1       3.422   0.341  -5.346  1.00  0.00     0.074 A 
ATOM     49  C   UNL     1       2.758  -1.972  -6.037  1.00  0.00     0.049 A 
ATOM     50  N   UNL     1       2.508   1.243  -5.466  1.00  0.00    -0.248 NA
ATOM     51  C   UNL     1       4.792   0.867  -5.224  1.00  0.00     0.031 C 
ATOM     52  C   UNL     1       2.807  -3.438  -6.007  1.00  0.00     0.029 A 
ATOM     53  N   UNL     1       2.243  -1.709  -7.264  1.00  0.00    -0.354 N 
ATOM     54  C   UNL     1       3.199   2.432  -5.654  1.00  0.00     0.074 A 
ATOM     55  C   UNL     1       4.569   2.177  -5.287  1.00  0.00     0.031 C 
ATOM     56  C   UNL     1       2.607  -3.905  -7.260  1.00  0.00     0.029 A 
ATOM     57  C   UNL     1       2.302  -2.785  -8.137  1.00  0.00     0.049 A 
ATOM     58  H   UNL     1       1.864  -0.835  -7.512  1.00  0.00     0.167 HD
ATOM     59  C   UNL     1       2.670   3.466  -6.359  1.00  0.00     0.031 A 
ATOM     60  C   UNL     1       2.238  -2.717  -9.492  1.00  0.00     0.031 A 
ATOM     61  C   UNL     1       1.244   3.355  -6.504  1.00  0.00     0.049 A 
ATOM     62  C   UNL     1       1.636  -1.399  -9.836  1.00  0.00     0.074 A 
ATOM     63  C   UNL     1       0.195   3.268  -5.609  1.00  0.00     0.029 A 
ATOM     64  N   UNL     1       0.757   2.896  -7.706  1.00  0.00    -0.354 N 
ATOM     65  N   UNL     1       0.404  -1.074  -9.549  1.00  0.00    -0.248 NA
ATOM     66  C   UNL     1       2.534  -0.272 -10.057  1.00  0.00     0.031 C 
ATOM     67  C   UNL     1      -0.698   2.318  -6.182  1.00  0.00     0.029 A 
ATOM     68  C   UNL     1      -0.183   1.935  -7.422  1.00  0.00     0.049 A 
ATOM     69  H   UNL     1       1.030   3.199  -8.602  1.00  0.00     0.167 HD
ATOM     70  C   UNL     1       0.466   0.251  -9.136  1.00  0.00     0.074 A 
ATOM     71  C   UNL     1       1.788   0.716  -9.555  1.00  0.00     0.031 C 
ATOM     72  C   UNL     1      -0.433   0.767  -8.244  1.00  0.00     0.031 A 
BRANCH  59  73
ATOM     73  C   UNL     1       3.524   4.344  -7.229  1.00  0.00    -0.014 A 
ATOM     74  C   UNL     1       2.982   5.516  -7.783  1.00  0.00     0.010 A 
ATOM     75  C   UNL     1       4.781   3.921  -7.717  1.00  0.00     0.010 A 
ATOM     76  C   UNL     1       3.661   6.214  -8.791  1.00  0.00     0.020 A 
ATOM     77  C   UNL     1       5.488   4.634  -8.680  1.00  0.00     0.020 A 
ATOM     78  C   UNL     1       4.908   5.764  -9.233  1.00  0.00     0.054 A 
BRANCH  78  79
ATOM     79  S   UNL     1       5.746   6.628 -10.582  1.00  0.00     0.124 S 
ATOM     80  O   UNL     1       4.869   6.340 -11.712  1.00  0.00    -0.237 OA
ATOM     81  O   UNL     1       5.744   8.011 -10.111  1.00  0.00    -0.237 OA
ATOM     82  O   UNL     1       7.062   5.994 -10.630  1.00  0.00    -0.744 OA
ENDBRANCH  78  79
ENDBRANCH  59  73
BRANCH  60  83
ATOM     83  C   UNL     1       3.032  -3.530 -10.454  1.00  0.00    -0.014 A 
ATOM     84  C   UNL     1       2.768  -3.495 -11.836  1.00  0.00     0.010 A 
ATOM     85  C   UNL     1       4.228  -4.157 -10.040  1.00  0.00     0.010 A 
ATOM     86  C   UNL     1       3.688  -4.019 -12.764  1.00  0.00     0.020 A 
ATOM     87  C   UNL     1       5.141  -4.692 -10.954  1.00  0.00     0.020 A 
ATOM     88  C   UNL     1       4.878  -4.600 -12.316  1.00  0.00     0.054 A 
BRANCH  88  89
ATOM     89  S   UNL     1       6.140  -5.121 -13.517  1.00  0.00     0.124 S 
ATOM     90  O   UNL     1       5.520  -6.292 -14.130  1.00  0.00    -0.237 OA
ATOM     91  O   UNL     1       6.266  -3.947 -14.375  1.00  0.00    -0.237 OA
ATOM     92  O   UNL     1       7.309  -5.404 -12.685  1.00  0.00    -0.744 OA
ENDBRANCH  88  89
ENDBRANCH  60  83
BRANCH  72  93
ATOM     93  C   UNL     1      -1.661  -0.046  -7.891  1.00  0.00    -0.014 A 
ATOM     94  C   UNL     1      -1.610  -1.333  -7.316  1.00  0.00     0.010 A 
ATOM     95  C   UNL     1      -2.912   0.589  -7.986  1.00  0.00     0.010 A 
ATOM     96  C   UNL     1      -2.780  -1.971  -6.875  1.00  0.00     0.020 A 
ATOM     97  C   UNL     1      -4.078  -0.032  -7.531  1.00  0.00     0.020 A 
ATOM     98  C   UNL     1      -4.009  -1.314  -6.986  1.00  0.00     0.054 A 
BRANCH  98  99
ATOM     99  S   UNL     1      -5.513  -2.124  -6.371  1.00  0.00     0.124 S 
ATOM    100  O   UNL     1      -5.685  -3.228  -7.311  1.00  0.00    -0.237 OA
ATOM    101  O   UNL     1      -5.143  -2.507  -5.011  1.00  0.00    -0.237 OA
ATOM    102  O   UNL     1      -6.531  -1.077  -6.456  1.00  0.00    -0.744 OA
ENDBRANCH  98  99
ENDBRANCH  72  93
ENDBRANCH  46  47
ENDBRANCH  39  41
ENDBRANCH  38  39
ENDBRANCH  37  38
ENDBRANCH  36  37
ENDBRANCH  35  36
ENDBRANCH  34  35
ENDBRANCH   1  34
TORSDOF 25
