REMARK SMILES COc1ccc2cc([C@H](C)C(=O)OCCOCCOCCOC(=O)c3ccc(-c4c5nc(c(-c6ccc(S(=O)(=O)[O-])cc6)c6ccc([nH]6)c(-c6ccc(S(=O)(=O)[O-])cc6)c6nc(c(-c7ccc(S(=O)(=O)[O-])cc7)c7ccc4[nH]7)C=C6)C=C5)cc3)ccc2c1
REMARK SMILES IDX 18 1 17 2 16 3 15 4 14 5 13 6 11 7 12 8 9 9 10 10 8 11 3 12
REMARK SMILES IDX 4 13 88 14 5 15 87 16 6 17 86 18 7 19 85 20 2 21 1 22 19 23
REMARK SMILES IDX 20 24 21 25 22 26 23 27 24 28 25 29 26 30 84 31 27 32 83 33
REMARK SMILES IDX 28 34 29 35 30 36 77 37 31 38 82 39 76 40 78 41 32 42 81 43
REMARK SMILES IDX 75 44 74 45 33 47 63 48 44 49 62 50 45 51 48 52 61 53 79 54
REMARK SMILES IDX 46 55 47 56 60 58 80 59 49 60 34 61 35 62 43 63 36 64 42 65
REMARK SMILES IDX 37 66 38 67 39 68 40 69 41 70 64 71 65 72 73 73 66 74 72 75
REMARK SMILES IDX 67 76 68 77 69 78 70 79 71 80 50 81 51 82 59 83 52 84 58 85
REMARK SMILES IDX 53 86 54 87 55 88 56 89 57 90
REMARK H PARENT 78 46 48 57
REMARK Flexibility Score: inf
ROOT
ATOM      1  C   UNL     1       1.883   6.960  -5.032  1.00  0.00     0.188 C 
ENDROOT
BRANCH   1   2
ATOM      2  C   UNL     1       2.045   8.288  -5.782  1.00  0.00     0.188 C 
BRANCH   2   3
ATOM      3  O   UNL     1       3.318   8.634  -6.306  1.00  0.00    -0.376 OA
BRANCH   3   4
ATOM      4  C   UNL     1       4.492   8.373  -5.549  1.00  0.00     0.202 C 
BRANCH   4   5
ATOM      5  C   UNL     1       4.591   8.804  -4.072  1.00  0.00     0.261 C 
BRANCH   5   6
ATOM      6  O   UNL     1       3.554   8.326  -3.187  1.00  0.00    -0.463 OA
BRANCH   6   7
ATOM      7  C   UNL     1       2.674   9.266  -2.754  1.00  0.00     0.313 C 
ATOM      8  O   UNL     1       2.741  10.452  -3.067  1.00  0.00    -0.252 OA
BRANCH   7   9
ATOM      9  C   UNL     1       1.583   8.749  -1.797  1.00  0.00     0.126 C 
ATOM     10  C   UNL     1       1.209   7.265  -1.715  1.00  0.00     0.025 C 
BRANCH   9  11
ATOM     11  C   UNL     1       1.913   9.267  -0.420  1.00  0.00    -0.033 A 
ATOM     12  C   UNL     1       2.528  12.220   3.593  1.00  0.00     0.119 A 
ATOM     13  C   UNL     1       1.630  12.888   2.762  1.00  0.00     0.047 A 
ATOM     14  C   UNL     1       3.058  10.986   3.220  1.00  0.00     0.055 A 
ATOM     15  C   UNL     1       1.225  12.302   1.567  1.00  0.00     0.012 A 
ATOM     16  C   UNL     1       2.666  10.387   2.021  1.00  0.00    -0.015 A 
ATOM     17  C   UNL     1       1.736  11.057   1.192  1.00  0.00    -0.018 A 
ATOM     18  C   UNL     1       3.196   9.154   1.622  1.00  0.00     0.009 A 
ATOM     19  C   UNL     1       1.359  10.485  -0.016  1.00  0.00     0.013 A 
ATOM     20  C   UNL     1       2.832   8.602   0.401  1.00  0.00     0.005 A 
BRANCH  12  21
ATOM     21  O   UNL     1       2.983  12.735   4.776  1.00  0.00    -0.497 OA
ATOM     22  C   UNL     1       1.926  13.234   5.590  1.00  0.00     0.278 C 
ENDBRANCH  12  21
ENDBRANCH   9  11
ENDBRANCH   7   9
ENDBRANCH   6   7
ENDBRANCH   5   6
ENDBRANCH   4   5
ENDBRANCH   3   4
ENDBRANCH   2   3
ENDBRANCH   1   2
BRANCH   1  23
ATOM     23  O   UNL     1       3.035   6.162  -4.949  1.00  0.00    -0.376 OA
BRANCH  23  24
ATOM     24  C   UNL     1       3.130   5.009  -5.759  1.00  0.00     0.202 C 
BRANCH  24  25
ATOM     25  C   UNL     1       2.551   4.951  -7.187  1.00  0.00     0.261 C 
BRANCH  25  26
ATOM     26  O   UNL     1       1.401   5.756  -7.488  1.00  0.00    -0.460 OA
BRANCH  26  27
ATOM     27  C   UNL     1       0.187   5.272  -7.134  1.00  0.00     0.338 C 
ATOM     28  O   UNL     1      -0.037   4.209  -6.570  1.00  0.00    -0.246 OA
BRANCH  27  29
ATOM     29  C   UNL     1      -0.808   6.355  -7.318  1.00  0.00     0.060 A 
ATOM     30  C   UNL     1      -1.489   6.862  -6.199  1.00  0.00     0.016 A 
ATOM     31  C   UNL     1      -1.053   6.887  -8.585  1.00  0.00     0.016 A 
ATOM     32  C   UNL     1      -2.428   7.886  -6.348  1.00  0.00     0.010 A 
ATOM     33  C   UNL     1      -2.015   7.892  -8.736  1.00  0.00     0.010 A 
ATOM     34  C   UNL     1      -2.727   8.380  -7.624  1.00  0.00    -0.014 A 
BRANCH  34  35
ATOM     35  C   UNL     1      -3.897   9.272  -7.831  1.00  0.00     0.031 A 
ATOM     36  C   UNL     1      -5.180   8.664  -8.335  1.00  0.00     0.074 A 
ATOM     37  C   UNL     1      -3.829  10.595  -7.594  1.00  0.00     0.049 A 
ATOM     38  N   UNL     1      -6.296   9.249  -8.681  1.00  0.00    -0.248 NA
ATOM     39  C   UNL     1      -5.200   7.197  -8.470  1.00  0.00     0.031 C 
ATOM     40  C   UNL     1      -2.667  11.303  -7.062  1.00  0.00     0.029 A 
ATOM     41  N   UNL     1      -4.764  11.583  -7.791  1.00  0.00    -0.354 N 
ATOM     42  C   UNL     1      -7.144   8.228  -9.098  1.00  0.00     0.074 A 
ATOM     43  C   UNL     1      -6.407   6.989  -8.976  1.00  0.00     0.031 C 
ATOM     44  C   UNL     1      -2.950  12.617  -6.995  1.00  0.00     0.029 A 
ATOM     45  C   UNL     1      -4.296  12.848  -7.519  1.00  0.00     0.049 A 
ATOM     46  H   UNL     1      -5.682  11.403  -8.099  1.00  0.00     0.167 HD
ATOM     47  C   UNL     1      -8.419   8.314  -9.544  1.00  0.00     0.031 A 
ATOM     48  C   UNL     1      -4.873  14.054  -7.703  1.00  0.00     0.031 A 
ATOM     49  C   UNL     1      -9.147   9.549  -9.675  1.00  0.00     0.049 A 
ATOM     50  C   UNL     1      -6.269  14.130  -8.271  1.00  0.00     0.074 A 
ATOM     51  C   UNL     1     -10.455   9.733 -10.090  1.00  0.00     0.029 A 
ATOM     52  N   UNL     1      -8.631  10.807  -9.409  1.00  0.00    -0.354 N 
ATOM     53  N   UNL     1      -7.072  13.155  -8.626  1.00  0.00    -0.248 NA
ATOM     54  C   UNL     1      -6.839  15.473  -8.459  1.00  0.00     0.031 C 
ATOM     55  C   UNL     1     -10.705  11.107 -10.145  1.00  0.00     0.029 A 
ATOM     56  C   UNL     1      -9.581  11.776  -9.688  1.00  0.00     0.049 A 
ATOM     57  H   UNL     1      -7.723  10.986  -9.072  1.00  0.00     0.167 HD
ATOM     58  C   UNL     1      -8.250  13.765  -9.049  1.00  0.00     0.074 A 
ATOM     59  C   UNL     1      -8.061  15.192  -8.891  1.00  0.00     0.031 C 
ATOM     60  C   UNL     1      -9.385  13.195  -9.526  1.00  0.00     0.031 A 
BRANCH  47  61
ATOM     61  C   UNL     1      -9.099   7.039  -9.972  1.00  0.00    -0.014 A 
ATOM     62  C   UNL     1      -9.484   6.061  -9.037  1.00  0.00     0.010 A 
ATOM     63  C   UNL     1      -9.406   6.844 -11.331  1.00  0.00     0.010 A 
ATOM     64  C   UNL     1     -10.133   4.897  -9.459  1.00  0.00     0.020 A 
ATOM     65  C   UNL     1     -10.082   5.696 -11.753  1.00  0.00     0.020 A 
ATOM     66  C   UNL     1     -10.429   4.723 -10.815  1.00  0.00     0.054 A 
BRANCH  66  67
ATOM     67  S   UNL     1     -11.305   3.220 -11.327  1.00  0.00     0.124 S 
ATOM     68  O   UNL     1     -10.280   2.196 -11.137  1.00  0.00    -0.237 OA
ATOM     69  O   UNL     1     -12.425   3.169 -10.391  1.00  0.00    -0.237 OA
ATOM     70  O   UNL     1     -11.669   3.485 -12.717  1.00  0.00    -0.744 OA
ENDBRANCH  66  67
ENDBRANCH  47  61
BRANCH  48  71
ATOM     71  C   UNL     1      -4.118  15.300  -7.383  1.00  0.00    -0.014 A 
ATOM     72  C   UNL     1      -4.526  16.143  -6.334  1.00  0.00     0.010 A 
ATOM     73  C   UNL     1      -2.991  15.661  -8.145  1.00  0.00     0.010 A 
ATOM     74  C   UNL     1      -3.835  17.330  -6.067  1.00  0.00     0.020 A 
ATOM     75  C   UNL     1      -2.278  16.828  -7.860  1.00  0.00     0.020 A 
ATOM     76  C   UNL     1      -2.713  17.663  -6.830  1.00  0.00     0.054 A 
BRANCH  76  77
ATOM     77  S   UNL     1      -1.806  19.184  -6.434  1.00  0.00     0.124 S 
ATOM     78  O   UNL     1      -2.733  20.217  -6.887  1.00  0.00    -0.237 OA
ATOM     79  O   UNL     1      -1.633  19.079  -4.987  1.00  0.00    -0.237 OA
ATOM     80  O   UNL     1      -0.576  19.062  -7.212  1.00  0.00    -0.744 OA
ENDBRANCH  76  77
ENDBRANCH  48  71
BRANCH  60  81
ATOM     81  C   UNL     1     -10.537  14.105  -9.874  1.00  0.00    -0.014 A 
ATOM     82  C   UNL     1     -10.489  14.957 -10.992  1.00  0.00     0.010 A 
ATOM     83  C   UNL     1     -11.713  14.059  -9.102  1.00  0.00     0.010 A 
ATOM     84  C   UNL     1     -11.582  15.769 -11.310  1.00  0.00     0.020 A 
ATOM     85  C   UNL     1     -12.820  14.844  -9.436  1.00  0.00     0.020 A 
ATOM     86  C   UNL     1     -12.742  15.706 -10.531  1.00  0.00     0.054 A 
BRANCH  86  87
ATOM     87  S   UNL     1     -14.161  16.737 -10.992  1.00  0.00     0.124 S 
ATOM     88  O   UNL     1     -13.695  18.074 -10.637  1.00  0.00    -0.237 OA
ATOM     89  O   UNL     1     -14.294  16.477 -12.424  1.00  0.00    -0.237 OA
ATOM     90  O   UNL     1     -15.251  16.218 -10.168  1.00  0.00    -0.744 OA
ENDBRANCH  86  87
ENDBRANCH  60  81
ENDBRANCH  34  35
ENDBRANCH  27  29
ENDBRANCH  26  27
ENDBRANCH  25  26
ENDBRANCH  24  25
ENDBRANCH  23  24
ENDBRANCH   1  23
TORSDOF 22
