REMARK SMILES [NH3+]CCOCC(=O)Nc1cc(C(=O)OCCOCCOCCOC(=O)c2ccc(-c3c4nc(c(-c5ccc(S(=O)(=O)[O-])cc5)c5ccc([nH]5)c(-c5ccc(S(=O)(=O)[O-])cc5)c5nc(c(-c6ccc(S(=O)(=O)[O-])cc6)c6ccc3[nH]6)C=C5)C=C4)cc2)ccc1Cl
REMARK SMILES IDX 17 1 16 2 15 3 14 4 12 5 13 6 11 7 9 8 10 9 88 10 87 11
REMARK SMILES IDX 89 12 86 13 8 14 6 15 7 16 5 18 4 19 3 20 2 21 1 22 18 26
REMARK SMILES IDX 19 27 20 28 21 29 22 30 23 31 24 32 25 33 26 34 27 35 85 36
REMARK SMILES IDX 28 37 84 38 29 39 30 40 31 41 78 42 32 43 83 44 77 45 79 46
REMARK SMILES IDX 33 47 82 48 76 49 75 50 34 52 64 53 45 54 63 55 46 56 49 57
REMARK SMILES IDX 62 58 80 59 47 60 48 61 61 63 81 64 50 65 35 66 36 67 44 68
REMARK SMILES IDX 37 69 43 70 38 71 39 72 40 73 41 74 42 75 65 76 66 77 74 78
REMARK SMILES IDX 67 79 73 80 68 81 69 82 70 83 71 84 72 85 51 86 52 87 60 88
REMARK SMILES IDX 53 89 59 90 54 91 55 92 56 93 57 94 58 95
REMARK H PARENT 8 17 1 23 1 24 1 25 79 51 49 62
REMARK Flexibility Score: inf
ROOT
ATOM      1  O   UNL     1       4.411  -7.241   7.684  1.00  0.00    -0.376 OA
ENDROOT
BRANCH   1   2
ATOM      2  C   UNL     1       3.226  -7.768   8.276  1.00  0.00     0.202 C 
BRANCH   2   3
ATOM      3  C   UNL     1       1.968  -6.890   8.293  1.00  0.00     0.261 C 
BRANCH   3   4
ATOM      4  O   UNL     1       1.522  -6.530   6.977  1.00  0.00    -0.460 OA
BRANCH   4   5
ATOM      5  C   UNL     1       1.355  -5.199   6.755  1.00  0.00     0.338 C 
ATOM      6  O   UNL     1       1.419  -4.300   7.559  1.00  0.00    -0.246 OA
BRANCH   5   7
ATOM      7  C   UNL     1       1.296  -4.983   5.290  1.00  0.00     0.062 A 
ATOM      8  C   UNL     1       2.172  -3.809   3.364  1.00  0.00     0.060 A 
ATOM      9  C   UNL     1       2.113  -3.981   4.747  1.00  0.00     0.043 A 
ATOM     10  C   UNL     1       1.481  -4.705   2.527  1.00  0.00     0.064 A 
ATOM     11  C   UNL     1       0.641  -5.679   3.075  1.00  0.00     0.023 A 
ATOM     12  Cl  UNL     1       1.799  -4.806   0.832  1.00  0.00    -0.082 Cl
ATOM     13  C   UNL     1       0.535  -5.811   4.459  1.00  0.00     0.017 A 
BRANCH   8  14
ATOM     14  N   UNL     1       2.969  -2.763   2.874  1.00  0.00    -0.323 N 
ATOM     15  C   UNL     1       2.533  -1.694   2.130  1.00  0.00     0.250 C 
ATOM     16  O   UNL     1       3.352  -0.909   1.647  1.00  0.00    -0.272 OA
ATOM     17  H   UNL     1       3.930  -2.799   3.083  1.00  0.00     0.170 HD
BRANCH  15  18
ATOM     18  C   UNL     1       1.017  -1.429   2.012  1.00  0.00     0.260 C 
BRANCH  18  19
ATOM     19  O   UNL     1       0.270  -2.023   0.972  1.00  0.00    -0.366 OA
BRANCH  19  20
ATOM     20  C   UNL     1       0.802  -1.835  -0.340  1.00  0.00     0.222 C 
BRANCH  20  21
ATOM     21  C   UNL     1       0.343  -0.533  -1.010  1.00  0.00     0.287 C 
BRANCH  21  22
ATOM     22  N   UNL     1       0.990   0.679  -0.512  1.00  0.00    -0.356 N 
ATOM     23  H   UNL     1       0.625   1.490  -1.013  1.00  0.00     0.344 HD
ATOM     24  H   UNL     1       1.997   0.614  -0.661  1.00  0.00     0.344 HD
ATOM     25  H   UNL     1       0.799   0.781   0.485  1.00  0.00     0.344 HD
ENDBRANCH  21  22
ENDBRANCH  20  21
ENDBRANCH  19  20
ENDBRANCH  18  19
ENDBRANCH  15  18
ENDBRANCH   8  14
ENDBRANCH   5   7
ENDBRANCH   4   5
ENDBRANCH   3   4
ENDBRANCH   2   3
ENDBRANCH   1   2
BRANCH   1  26
ATOM     26  C   UNL     1       4.376  -6.764   6.342  1.00  0.00     0.188 C 
BRANCH  26  27
ATOM     27  C   UNL     1       3.769  -7.661   5.243  1.00  0.00     0.188 C 
BRANCH  27  28
ATOM     28  O   UNL     1       3.298  -8.899   5.726  1.00  0.00    -0.376 OA
BRANCH  28  29
ATOM     29  C   UNL     1       4.048 -10.066   5.441  1.00  0.00     0.202 C 
BRANCH  29  30
ATOM     30  C   UNL     1       5.575 -10.122   5.636  1.00  0.00     0.261 C 
BRANCH  30  31
ATOM     31  O   UNL     1       6.324  -8.923   5.407  1.00  0.00    -0.460 OA
BRANCH  31  32
ATOM     32  C   UNL     1       6.704  -8.665   4.134  1.00  0.00     0.338 C 
ATOM     33  O   UNL     1       6.410  -9.303   3.140  1.00  0.00    -0.246 OA
BRANCH  32  34
ATOM     34  C   UNL     1       7.409  -7.364   4.129  1.00  0.00     0.060 A 
ATOM     35  C   UNL     1       6.870  -6.302   3.392  1.00  0.00     0.016 A 
ATOM     36  C   UNL     1       8.600  -7.200   4.840  1.00  0.00     0.016 A 
ATOM     37  C   UNL     1       7.540  -5.076   3.346  1.00  0.00     0.010 A 
ATOM     38  C   UNL     1       9.277  -5.978   4.778  1.00  0.00     0.010 A 
ATOM     39  C   UNL     1       8.765  -4.918   4.010  1.00  0.00    -0.014 A 
BRANCH  39  40
ATOM     40  C   UNL     1       9.598  -3.713   3.767  1.00  0.00     0.031 A 
ATOM     41  C   UNL     1      10.683  -3.790   2.725  1.00  0.00     0.074 A 
ATOM     42  C   UNL     1       9.396  -2.569   4.447  1.00  0.00     0.049 A 
ATOM     43  N   UNL     1      11.572  -2.893   2.387  1.00  0.00    -0.248 NA
ATOM     44  C   UNL     1      10.775  -5.047   1.963  1.00  0.00     0.031 C 
ATOM     45  C   UNL     1       8.351  -2.348   5.447  1.00  0.00     0.029 A 
ATOM     46  N   UNL     1      10.072  -1.375   4.400  1.00  0.00    -0.354 N 
ATOM     47  C   UNL     1      12.324  -3.472   1.371  1.00  0.00     0.074 A 
ATOM     48  C   UNL     1      11.809  -4.809   1.170  1.00  0.00     0.031 C 
ATOM     49  C   UNL     1       8.463  -1.095   5.924  1.00  0.00     0.029 A 
ATOM     50  C   UNL     1       9.606  -0.438   5.292  1.00  0.00     0.049 A 
ATOM     51  H   UNL     1      10.822  -1.205   3.784  1.00  0.00     0.167 HD
ATOM     52  C   UNL     1      13.347  -2.939   0.662  1.00  0.00     0.031 A 
ATOM     53  C   UNL     1      10.065   0.797   5.581  1.00  0.00     0.031 A 
ATOM     54  C   UNL     1      13.878  -1.620   0.876  1.00  0.00     0.049 A 
ATOM     55  C   UNL     1      11.272   1.330   4.847  1.00  0.00     0.074 A 
ATOM     56  C   UNL     1      14.929  -1.000   0.222  1.00  0.00     0.029 A 
ATOM     57  N   UNL     1      13.402  -0.719   1.814  1.00  0.00    -0.354 N 
ATOM     58  N   UNL     1      11.971   0.769   3.888  1.00  0.00    -0.248 NA
ATOM     59  C   UNL     1      11.749   2.667   5.232  1.00  0.00     0.031 C 
ATOM     60  C   UNL     1      15.116   0.262   0.795  1.00  0.00     0.029 A 
ATOM     61  C   UNL     1      14.145   0.448   1.766  1.00  0.00     0.049 A 
ATOM     62  H   UNL     1      12.646  -0.883   2.423  1.00  0.00     0.167 HD
ATOM     63  C   UNL     1      12.943   1.700   3.533  1.00  0.00     0.074 A 
ATOM     64  C   UNL     1      12.738   2.862   4.371  1.00  0.00     0.031 C 
ATOM     65  C   UNL     1      13.917   1.604   2.595  1.00  0.00     0.031 A 
BRANCH  52  66
ATOM     66  C   UNL     1      13.973  -3.793  -0.406  1.00  0.00    -0.014 A 
ATOM     67  C   UNL     1      13.301  -4.040  -1.617  1.00  0.00     0.010 A 
ATOM     68  C   UNL     1      15.269  -4.308  -0.222  1.00  0.00     0.010 A 
ATOM     69  C   UNL     1      13.906  -4.805  -2.617  1.00  0.00     0.020 A 
ATOM     70  C   UNL     1      15.886  -5.054  -1.230  1.00  0.00     0.020 A 
ATOM     71  C   UNL     1      15.195  -5.307  -2.417  1.00  0.00     0.054 A 
BRANCH  71  72
ATOM     72  S   UNL     1      15.972  -6.261  -3.750  1.00  0.00     0.124 S 
ATOM     73  O   UNL     1      15.224  -7.515  -3.698  1.00  0.00    -0.237 OA
ATOM     74  O   UNL     1      15.724  -5.430  -4.925  1.00  0.00    -0.237 OA
ATOM     75  O   UNL     1      17.371  -6.354  -3.341  1.00  0.00    -0.744 OA
ENDBRANCH  71  72
ENDBRANCH  52  66
BRANCH  53  76
ATOM     76  C   UNL     1       9.414   1.621   6.639  1.00  0.00    -0.014 A 
ATOM     77  C   UNL     1       8.739   2.810   6.309  1.00  0.00     0.010 A 
ATOM     78  C   UNL     1       9.518   1.249   7.992  1.00  0.00     0.010 A 
ATOM     79  C   UNL     1       8.216   3.631   7.313  1.00  0.00     0.020 A 
ATOM     80  C   UNL     1       8.970   2.052   8.996  1.00  0.00     0.020 A 
ATOM     81  C   UNL     1       8.341   3.249   8.652  1.00  0.00     0.054 A 
BRANCH  81  82
ATOM     82  S   UNL     1       7.652   4.325   9.941  1.00  0.00     0.124 S 
ATOM     83  O   UNL     1       8.630   5.408   9.985  1.00  0.00    -0.237 OA
ATOM     84  O   UNL     1       6.343   4.674   9.397  1.00  0.00    -0.237 OA
ATOM     85  O   UNL     1       7.618   3.463  11.121  1.00  0.00    -0.744 OA
ENDBRANCH  81  82
ENDBRANCH  53  76
BRANCH  65  86
ATOM     86  C   UNL     1      14.803   2.803   2.378  1.00  0.00    -0.014 A 
ATOM     87  C   UNL     1      15.790   3.163   3.311  1.00  0.00     0.010 A 
ATOM     88  C   UNL     1      14.684   3.542   1.186  1.00  0.00     0.010 A 
ATOM     89  C   UNL     1      16.623   4.260   3.069  1.00  0.00     0.020 A 
ATOM     90  C   UNL     1      15.532   4.622   0.928  1.00  0.00     0.020 A 
ATOM     91  C   UNL     1      16.489   4.982   1.879  1.00  0.00     0.054 A 
BRANCH  91  92
ATOM     92  S   UNL     1      17.614   6.370   1.566  1.00  0.00     0.124 S 
ATOM     93  O   UNL     1      17.088   7.396   2.462  1.00  0.00    -0.237 OA
ATOM     94  O   UNL     1      18.915   5.819   1.936  1.00  0.00    -0.237 OA
ATOM     95  O   UNL     1      17.443   6.641   0.140  1.00  0.00    -0.744 OA
ENDBRANCH  91  92
ENDBRANCH  65  86
ENDBRANCH  39  40
ENDBRANCH  32  34
ENDBRANCH  31  32
ENDBRANCH  30  31
ENDBRANCH  29  30
ENDBRANCH  28  29
ENDBRANCH  27  28
ENDBRANCH  26  27
ENDBRANCH   1  26
TORSDOF 26
