REMARK SMILES CC(C)[C@H](Sc1ccncc1)C(=O)OCCOCCOCCOC(=O)c1ccc(-c2c3nc(c(-c4ccc(S(=O)(=O)[O-])cc4)c4ccc([nH]4)c(-c4ccc(S(=O)(=O)[O-])cc4)c4nc(c(-c5ccc(S(=O)(=O)[O-])cc5)c5ccc2[nH]5)C=C4)C=C3)cc1
REMARK SMILES IDX 19 1 18 2 17 3 16 4 15 5 14 6 12 7 13 8 4 9 2 10 1 11 3 12
REMARK SMILES IDX 5 13 6 14 7 15 11 16 8 17 10 18 9 19 20 20 21 21 22 22 23 23
REMARK SMILES IDX 24 24 25 25 26 26 27 27 85 28 28 29 84 30 29 31 30 32 31 33
REMARK SMILES IDX 78 34 32 35 83 36 77 37 79 38 33 39 82 40 76 41 75 42 34 44
REMARK SMILES IDX 64 45 45 46 63 47 46 48 49 49 62 50 80 51 47 52 48 53 61 55
REMARK SMILES IDX 81 56 50 57 35 58 36 59 44 60 37 61 43 62 38 63 39 64 40 65
REMARK SMILES IDX 41 66 42 67 65 68 66 69 74 70 67 71 73 72 68 73 69 74 70 75
REMARK SMILES IDX 71 76 72 77 51 78 52 79 60 80 53 81 59 82 54 83 55 84 56 85
REMARK SMILES IDX 57 86 58 87
REMARK H PARENT 79 43 49 54
REMARK Flexibility Score: inf
ROOT
ATOM      1  C   UNL     1       0.062  -3.905  -2.302  1.00  0.00     0.188 C 
ENDROOT
BRANCH   1   2
ATOM      2  C   UNL     1      -1.351  -4.462  -2.098  1.00  0.00     0.188 C 
BRANCH   2   3
ATOM      3  O   UNL     1      -2.246  -4.552  -3.202  1.00  0.00    -0.376 OA
BRANCH   3   4
ATOM      4  C   UNL     1      -2.082  -3.712  -4.333  1.00  0.00     0.202 C 
BRANCH   4   5
ATOM      5  C   UNL     1      -2.324  -2.205  -4.164  1.00  0.00     0.261 C 
BRANCH   5   6
ATOM      6  O   UNL     1      -1.482  -1.497  -3.226  1.00  0.00    -0.462 OA
BRANCH   6   7
ATOM      7  C   UNL     1      -2.054  -1.208  -2.026  1.00  0.00     0.319 C 
ATOM      8  O   UNL     1      -3.182  -1.587  -1.714  1.00  0.00    -0.251 OA
BRANCH   7   9
ATOM      9  C   UNL     1      -1.233  -0.326  -1.071  1.00  0.00     0.164 C 
BRANCH   9  10
ATOM     10  C   UNL     1      -1.684   1.157  -1.146  1.00  0.00     0.007 C 
ATOM     11  C   UNL     1      -3.170   1.298  -0.785  1.00  0.00     0.009 C 
ATOM     12  C   UNL     1      -0.884   2.076  -0.208  1.00  0.00     0.009 C 
ENDBRANCH   9  10
BRANCH   9  13
ATOM     13  S   UNL     1       0.602  -0.466  -1.288  1.00  0.00    -0.110 SA
BRANCH  13  14
ATOM     14  C   UNL     1       1.226  -1.214   0.224  1.00  0.00     0.011 A 
ATOM     15  C   UNL     1       0.520  -1.380   1.415  1.00  0.00     0.035 A 
ATOM     16  C   UNL     1       2.558  -1.648   0.193  1.00  0.00     0.035 A 
ATOM     17  C   UNL     1       1.152  -1.984   2.494  1.00  0.00     0.112 A 
ATOM     18  C   UNL     1       3.106  -2.239   1.322  1.00  0.00     0.112 A 
ATOM     19  N   UNL     1       2.424  -2.426   2.468  1.00  0.00    -0.265 NA
ENDBRANCH  13  14
ENDBRANCH   9  13
ENDBRANCH   7   9
ENDBRANCH   6   7
ENDBRANCH   5   6
ENDBRANCH   4   5
ENDBRANCH   3   4
ENDBRANCH   2   3
ENDBRANCH   1   2
BRANCH   1  20
ATOM     20  O   UNL     1       0.561  -4.051  -3.616  1.00  0.00    -0.376 OA
BRANCH  20  21
ATOM     21  C   UNL     1       1.743  -4.814  -3.764  1.00  0.00     0.202 C 
BRANCH  21  22
ATOM     22  C   UNL     1       1.559  -6.313  -3.500  1.00  0.00     0.261 C 
BRANCH  22  23
ATOM     23  O   UNL     1       1.033  -6.651  -2.202  1.00  0.00    -0.460 OA
BRANCH  23  24
ATOM     24  C   UNL     1       1.835  -6.427  -1.143  1.00  0.00     0.338 C 
ATOM     25  O   UNL     1       2.984  -5.984  -1.179  1.00  0.00    -0.246 OA
BRANCH  24  26
ATOM     26  C   UNL     1       1.042  -6.586   0.091  1.00  0.00     0.060 A 
ATOM     27  C   UNL     1       0.894  -5.485   0.942  1.00  0.00     0.016 A 
ATOM     28  C   UNL     1       0.462  -7.812   0.428  1.00  0.00     0.016 A 
ATOM     29  C   UNL     1       0.208  -5.613   2.150  1.00  0.00     0.010 A 
ATOM     30  C   UNL     1      -0.210  -7.944   1.651  1.00  0.00     0.010 A 
ATOM     31  C   UNL     1      -0.308  -6.854   2.536  1.00  0.00    -0.014 A 
BRANCH  31  32
ATOM     32  C   UNL     1      -0.727  -7.053   3.948  1.00  0.00     0.031 A 
ATOM     33  C   UNL     1       0.249  -7.707   4.892  1.00  0.00     0.074 A 
ATOM     34  C   UNL     1      -1.907  -6.603   4.415  1.00  0.00     0.049 A 
ATOM     35  N   UNL     1       0.100  -8.035   6.150  1.00  0.00    -0.248 NA
ATOM     36  C   UNL     1       1.575  -8.032   4.339  1.00  0.00     0.031 C 
ATOM     37  C   UNL     1      -2.909  -5.878   3.636  1.00  0.00     0.029 A 
ATOM     38  N   UNL     1      -2.457  -6.689   5.672  1.00  0.00    -0.354 N 
ATOM     39  C   UNL     1       1.300  -8.625   6.530  1.00  0.00     0.074 A 
ATOM     40  C   UNL     1       2.159  -8.629   5.367  1.00  0.00     0.031 C 
ATOM     41  C   UNL     1      -3.952  -5.585   4.434  1.00  0.00     0.029 A 
ATOM     42  C   UNL     1      -3.713  -6.138   5.766  1.00  0.00     0.049 A 
ATOM     43  H   UNL     1      -1.994  -7.107   6.434  1.00  0.00     0.167 HD
ATOM     44  C   UNL     1       1.661  -9.117   7.739  1.00  0.00     0.031 A 
ATOM     45  C   UNL     1      -4.579  -6.105   6.801  1.00  0.00     0.031 A 
ATOM     46  C   UNL     1       0.812  -9.110   8.900  1.00  0.00     0.049 A 
ATOM     47  C   UNL     1      -4.188  -6.732   8.117  1.00  0.00     0.074 A 
ATOM     48  C   UNL     1       1.085  -9.593  10.168  1.00  0.00     0.029 A 
ATOM     49  N   UNL     1      -0.472  -8.590   8.938  1.00  0.00    -0.354 N 
ATOM     50  N   UNL     1      -3.059  -7.311   8.454  1.00  0.00    -0.248 NA
ATOM     51  C   UNL     1      -5.189  -6.695   9.194  1.00  0.00     0.031 C 
ATOM     52  C   UNL     1      -0.055  -9.414  10.958  1.00  0.00     0.029 A 
ATOM     53  C   UNL     1      -1.013  -8.760  10.201  1.00  0.00     0.049 A 
ATOM     54  H   UNL     1      -0.932  -8.164   8.179  1.00  0.00     0.167 HD
ATOM     55  C   UNL     1      -3.206  -7.682   9.788  1.00  0.00     0.074 A 
ATOM     56  C   UNL     1      -4.524  -7.247  10.200  1.00  0.00     0.031 C 
ATOM     57  C   UNL     1      -2.327  -8.322  10.600  1.00  0.00     0.031 A 
BRANCH  44  58
ATOM     58  C   UNL     1       3.021  -9.753   7.848  1.00  0.00    -0.014 A 
ATOM     59  C   UNL     1       4.198  -8.984   7.815  1.00  0.00     0.010 A 
ATOM     60  C   UNL     1       3.119 -11.148   8.005  1.00  0.00     0.010 A 
ATOM     61  C   UNL     1       5.449  -9.603   7.896  1.00  0.00     0.020 A 
ATOM     62  C   UNL     1       4.366 -11.767   8.116  1.00  0.00     0.020 A 
ATOM     63  C   UNL     1       5.525 -10.991   8.043  1.00  0.00     0.054 A 
BRANCH  63  64
ATOM     64  S   UNL     1       7.159 -11.768   8.162  1.00  0.00     0.124 S 
ATOM     65  O   UNL     1       7.645 -11.662   6.789  1.00  0.00    -0.237 OA
ATOM     66  O   UNL     1       7.845 -10.924   9.138  1.00  0.00    -0.237 OA
ATOM     67  O   UNL     1       6.867 -13.126   8.615  1.00  0.00    -0.744 OA
ENDBRANCH  63  64
ENDBRANCH  44  58
BRANCH  45  68
ATOM     68  C   UNL     1      -5.924  -5.485   6.632  1.00  0.00    -0.014 A 
ATOM     69  C   UNL     1      -6.266  -4.305   7.316  1.00  0.00     0.010 A 
ATOM     70  C   UNL     1      -6.881  -6.088   5.794  1.00  0.00     0.010 A 
ATOM     71  C   UNL     1      -7.543  -3.750   7.179  1.00  0.00     0.020 A 
ATOM     72  C   UNL     1      -8.148  -5.520   5.631  1.00  0.00     0.020 A 
ATOM     73  C   UNL     1      -8.475  -4.359   6.334  1.00  0.00     0.054 A 
BRANCH  73  74
ATOM     74  S   UNL     1     -10.107  -3.593   6.129  1.00  0.00     0.124 S 
ATOM     75  O   UNL     1     -10.750  -3.902   7.402  1.00  0.00    -0.237 OA
ATOM     76  O   UNL     1      -9.770  -2.187   5.915  1.00  0.00    -0.237 OA
ATOM     77  O   UNL     1     -10.663  -4.277   4.964  1.00  0.00    -0.744 OA
ENDBRANCH  73  74
ENDBRANCH  45  68
BRANCH  57  78
ATOM     78  C   UNL     1      -2.740  -8.552  12.032  1.00  0.00    -0.014 A 
ATOM     79  C   UNL     1      -3.731  -9.491  12.369  1.00  0.00     0.010 A 
ATOM     80  C   UNL     1      -2.092  -7.844  13.061  1.00  0.00     0.010 A 
ATOM     81  C   UNL     1      -4.096  -9.686  13.705  1.00  0.00     0.020 A 
ATOM     82  C   UNL     1      -2.432  -8.057  14.399  1.00  0.00     0.020 A 
ATOM     83  C   UNL     1      -3.446  -8.964  14.712  1.00  0.00     0.054 A 
BRANCH  83  84
ATOM     84  S   UNL     1      -3.921  -9.249  16.439  1.00  0.00     0.124 S 
ATOM     85  O   UNL     1      -5.212  -8.570  16.515  1.00  0.00    -0.237 OA
ATOM     86  O   UNL     1      -3.972 -10.706  16.523  1.00  0.00    -0.237 OA
ATOM     87  O   UNL     1      -2.843  -8.624  17.203  1.00  0.00    -0.744 OA
ENDBRANCH  83  84
ENDBRANCH  57  78
ENDBRANCH  31  32
ENDBRANCH  24  26
ENDBRANCH  23  24
ENDBRANCH  22  23
ENDBRANCH  21  22
ENDBRANCH  20  21
ENDBRANCH   1  20
TORSDOF 23
