REMARK SMILES CC(C)C[C@H](C)NS(=O)(=O)c1cc(C(=O)OCCOCCOCCOC(=O)c2ccc(-c3c4nc(c(-c5ccc(S(=O)(=O)[O-])cc5)c5ccc([nH]5)c(-c5ccc(S(=O)(=O)[O-])cc5)c5nc(c(-c6ccc(S(=O)(=O)[O-])cc6)c6ccc3[nH]6)C=C5)C=C4)cc2)ccc1Cl
REMARK SMILES IDX 20 1 19 2 18 3 17 4 16 5 14 6 15 7 13 8 11 9 12 10 90 11
REMARK SMILES IDX 89 12 91 13 88 14 8 15 9 16 10 17 7 18 5 20 6 21 4 22 2 23
REMARK SMILES IDX 1 24 3 25 21 26 22 27 23 28 24 29 25 30 26 31 27 32 28 33
REMARK SMILES IDX 29 34 87 35 30 36 86 37 31 38 32 39 33 40 80 41 34 42 85 43
REMARK SMILES IDX 79 44 81 45 35 46 84 47 78 48 77 49 36 51 66 52 47 53 65 54
REMARK SMILES IDX 48 55 51 56 64 57 82 58 49 59 50 60 63 62 83 63 52 64 37 65
REMARK SMILES IDX 38 66 46 67 39 68 45 69 40 70 41 71 42 72 43 73 44 74 67 75
REMARK SMILES IDX 68 76 76 77 69 78 75 79 70 80 71 81 72 82 73 83 74 84 53 85
REMARK SMILES IDX 54 86 62 87 55 88 61 89 56 90 57 91 58 92 59 93 60 94
REMARK H PARENT 7 19 81 50 51 61
REMARK Flexibility Score: inf
ROOT
ATOM      1  C   UNL     1      -4.707  -2.235   4.810  1.00  0.00     0.188 C 
ENDROOT
BRANCH   1   2
ATOM      2  O   UNL     1      -4.440  -3.366   5.625  1.00  0.00    -0.376 OA
BRANCH   2   3
ATOM      3  C   UNL     1      -3.172  -3.976   5.444  1.00  0.00     0.202 C 
BRANCH   3   4
ATOM      4  C   UNL     1      -1.977  -3.193   6.007  1.00  0.00     0.261 C 
BRANCH   4   5
ATOM      5  O   UNL     1      -1.930  -1.803   5.646  1.00  0.00    -0.460 OA
BRANCH   5   6
ATOM      6  C   UNL     1      -1.425  -1.493   4.432  1.00  0.00     0.338 C 
ATOM      7  O   UNL     1      -0.992  -2.260   3.596  1.00  0.00    -0.246 OA
BRANCH   6   8
ATOM      8  C   UNL     1      -1.654  -0.046   4.209  1.00  0.00     0.061 A 
ATOM      9  C   UNL     1      -2.694   1.701   2.865  1.00  0.00     0.101 A 
ATOM     10  C   UNL     1      -2.342   0.349   3.058  1.00  0.00     0.039 A 
ATOM     11  C   UNL     1      -2.303   2.659   3.804  1.00  0.00     0.061 A 
ATOM     12  C   UNL     1      -1.617   2.248   4.959  1.00  0.00     0.023 A 
ATOM     13  Cl  UNL     1      -2.564   4.357   3.666  1.00  0.00    -0.083 Cl
ATOM     14  C   UNL     1      -1.309   0.901   5.173  1.00  0.00     0.017 A 
BRANCH   9  15
ATOM     15  S   UNL     1      -3.869   2.025   1.578  1.00  0.00     0.242 S 
ATOM     16  O   UNL     1      -4.451   3.336   1.739  1.00  0.00    -0.207 OA
ATOM     17  O   UNL     1      -4.740   0.867   1.560  1.00  0.00    -0.207 OA
BRANCH  15  18
ATOM     18  N   UNL     1      -3.084   1.981   0.098  1.00  0.00    -0.208 NA
ATOM     19  H   UNL     1      -3.517   1.216  -0.419  1.00  0.00     0.141 HD
BRANCH  18  20
ATOM     20  C   UNL     1      -1.636   1.803  -0.073  1.00  0.00     0.067 C 
ATOM     21  C   UNL     1      -1.408   0.861  -1.259  1.00  0.00     0.025 C 
BRANCH  20  22
ATOM     22  C   UNL     1      -0.894   3.140  -0.245  1.00  0.00     0.022 C 
BRANCH  22  23
ATOM     23  C   UNL     1      -1.503   4.206  -1.186  1.00  0.00    -0.016 C 
ATOM     24  C   UNL     1      -2.679   4.952  -0.546  1.00  0.00     0.007 C 
ATOM     25  C   UNL     1      -0.422   5.232  -1.554  1.00  0.00     0.007 C 
ENDBRANCH  22  23
ENDBRANCH  20  22
ENDBRANCH  18  20
ENDBRANCH  15  18
ENDBRANCH   9  15
ENDBRANCH   6   8
ENDBRANCH   5   6
ENDBRANCH   4   5
ENDBRANCH   3   4
ENDBRANCH   2   3
ENDBRANCH   1   2
BRANCH   1  26
ATOM     26  C   UNL     1      -4.919  -0.936   5.615  1.00  0.00     0.188 C 
BRANCH  26  27
ATOM     27  O   UNL     1      -4.989  -0.960   7.035  1.00  0.00    -0.376 OA
BRANCH  27  28
ATOM     28  C   UNL     1      -5.691  -2.010   7.681  1.00  0.00     0.202 C 
BRANCH  28  29
ATOM     29  C   UNL     1      -7.157  -2.298   7.314  1.00  0.00     0.261 C 
BRANCH  29  30
ATOM     30  O   UNL     1      -7.477  -2.267   5.916  1.00  0.00    -0.460 OA
BRANCH  30  31
ATOM     31  C   UNL     1      -8.191  -1.187   5.508  1.00  0.00     0.338 C 
ATOM     32  O   UNL     1      -8.585  -0.262   6.197  1.00  0.00    -0.246 OA
BRANCH  31  33
ATOM     33  C   UNL     1      -8.302  -1.199   4.035  1.00  0.00     0.060 A 
ATOM     34  C   UNL     1      -7.748  -0.132   3.317  1.00  0.00     0.016 A 
ATOM     35  C   UNL     1      -8.986  -2.218   3.369  1.00  0.00     0.016 A 
ATOM     36  C   UNL     1      -7.883  -0.076   1.930  1.00  0.00     0.010 A 
ATOM     37  C   UNL     1      -9.142  -2.146   1.979  1.00  0.00     0.010 A 
ATOM     38  C   UNL     1      -8.606  -1.065   1.255  1.00  0.00    -0.014 A 
BRANCH  38  39
ATOM     39  C   UNL     1      -8.939  -0.876  -0.177  1.00  0.00     0.031 A 
ATOM     40  C   UNL     1     -10.257  -0.247  -0.533  1.00  0.00     0.074 A 
ATOM     41  C   UNL     1      -8.075  -1.226  -1.148  1.00  0.00     0.049 A 
ATOM     42  N   UNL     1     -10.777  -0.020  -1.712  1.00  0.00    -0.248 NA
ATOM     43  C   UNL     1     -11.099   0.189   0.593  1.00  0.00     0.031 C 
ATOM     44  C   UNL     1      -6.738  -1.778  -0.934  1.00  0.00     0.029 A 
ATOM     45  N   UNL     1      -8.202  -1.169  -2.514  1.00  0.00    -0.354 N 
ATOM     46  C   UNL     1     -12.005   0.585  -1.470  1.00  0.00     0.074 A 
ATOM     47  C   UNL     1     -12.164   0.664  -0.035  1.00  0.00     0.031 C 
ATOM     48  C   UNL     1      -6.173  -2.023  -2.130  1.00  0.00     0.029 A 
ATOM     49  C   UNL     1      -7.118  -1.674  -3.191  1.00  0.00     0.049 A 
ATOM     50  H   UNL     1      -8.995  -0.800  -2.966  1.00  0.00     0.167 HD
ATOM     51  C   UNL     1     -12.917   1.036  -2.363  1.00  0.00     0.031 A 
ATOM     52  C   UNL     1      -6.921  -1.854  -4.513  1.00  0.00     0.031 A 
ATOM     53  C   UNL     1     -12.771   0.934  -3.790  1.00  0.00     0.049 A 
ATOM     54  C   UNL     1      -7.998  -1.442  -5.486  1.00  0.00     0.074 A 
ATOM     55  C   UNL     1     -13.647   1.353  -4.777  1.00  0.00     0.029 A 
ATOM     56  N   UNL     1     -11.684   0.365  -4.434  1.00  0.00    -0.354 N 
ATOM     57  N   UNL     1      -9.152  -0.867  -5.245  1.00  0.00    -0.248 NA
ATOM     58  C   UNL     1      -7.742  -1.701  -6.910  1.00  0.00     0.031 C 
ATOM     59  C   UNL     1     -13.113   0.986  -6.017  1.00  0.00     0.029 A 
ATOM     60  C   UNL     1     -11.878   0.395  -5.805  1.00  0.00     0.049 A 
ATOM     61  H   UNL     1     -10.891  -0.005  -3.984  1.00  0.00     0.167 HD
ATOM     62  C   UNL     1      -9.746  -0.669  -6.488  1.00  0.00     0.074 A 
ATOM     63  C   UNL     1      -8.819  -1.177  -7.479  1.00  0.00     0.031 C 
ATOM     64  C   UNL     1     -10.947  -0.113  -6.782  1.00  0.00     0.031 A 
BRANCH  51  65
ATOM     65  C   UNL     1     -14.179   1.641  -1.810  1.00  0.00    -0.014 A 
ATOM     66  C   UNL     1     -14.173   2.905  -1.192  1.00  0.00     0.010 A 
ATOM     67  C   UNL     1     -15.393   0.940  -1.925  1.00  0.00     0.010 A 
ATOM     68  C   UNL     1     -15.352   3.437  -0.662  1.00  0.00     0.020 A 
ATOM     69  C   UNL     1     -16.578   1.480  -1.419  1.00  0.00     0.020 A 
ATOM     70  C   UNL     1     -16.546   2.718  -0.774  1.00  0.00     0.054 A 
BRANCH  70  71
ATOM     71  S   UNL     1     -18.063   3.434  -0.085  1.00  0.00     0.124 S 
ATOM     72  O   UNL     1     -17.850   3.268   1.350  1.00  0.00    -0.237 OA
ATOM     73  O   UNL     1     -18.019   4.811  -0.571  1.00  0.00    -0.237 OA
ATOM     74  O   UNL     1     -19.126   2.610  -0.656  1.00  0.00    -0.744 OA
ENDBRANCH  70  71
ENDBRANCH  51  65
BRANCH  52  75
ATOM     75  C   UNL     1      -5.659  -2.477  -5.001  1.00  0.00    -0.014 A 
ATOM     76  C   UNL     1      -4.718  -1.722  -5.723  1.00  0.00     0.010 A 
ATOM     77  C   UNL     1      -5.399  -3.837  -4.753  1.00  0.00     0.010 A 
ATOM     78  C   UNL     1      -3.547  -2.319  -6.199  1.00  0.00     0.020 A 
ATOM     79  C   UNL     1      -4.216  -4.431  -5.203  1.00  0.00     0.020 A 
ATOM     80  C   UNL     1      -3.301  -3.670  -5.932  1.00  0.00     0.054 A 
BRANCH  80  81
ATOM     81  S   UNL     1      -1.747  -4.407  -6.508  1.00  0.00     0.124 S 
ATOM     82  O   UNL     1      -1.977  -4.521  -7.944  1.00  0.00    -0.237 OA
ATOM     83  O   UNL     1      -0.758  -3.411  -6.101  1.00  0.00    -0.237 OA
ATOM     84  O   UNL     1      -1.679  -5.673  -5.780  1.00  0.00    -0.744 OA
ENDBRANCH  80  81
ENDBRANCH  52  75
BRANCH  64  85
ATOM     85  C   UNL     1     -11.323   0.013  -8.236  1.00  0.00    -0.014 A 
ATOM     86  C   UNL     1     -11.698  -1.109  -8.995  1.00  0.00     0.010 A 
ATOM     87  C   UNL     1     -11.368   1.288  -8.831  1.00  0.00     0.010 A 
ATOM     88  C   UNL     1     -12.085  -0.962 -10.330  1.00  0.00     0.020 A 
ATOM     89  C   UNL     1     -11.780   1.442 -10.157  1.00  0.00     0.020 A 
ATOM     90  C   UNL     1     -12.124   0.314 -10.903  1.00  0.00     0.054 A 
BRANCH  90  91
ATOM     91  S   UNL     1     -12.680   0.484 -12.621  1.00  0.00     0.124 S 
ATOM     92  O   UNL     1     -11.528  -0.021 -13.364  1.00  0.00    -0.237 OA
ATOM     93  O   UNL     1     -13.871  -0.360 -12.660  1.00  0.00    -0.237 OA
ATOM     94  O   UNL     1     -12.934   1.916 -12.764  1.00  0.00    -0.744 OA
ENDBRANCH  90  91
ENDBRANCH  64  85
ENDBRANCH  38  39
ENDBRANCH  31  33
ENDBRANCH  30  31
ENDBRANCH  29  30
ENDBRANCH  28  29
ENDBRANCH  27  28
ENDBRANCH  26  27
ENDBRANCH   1  26
TORSDOF 25
