REMARK SMILES O=C(OCCOCCOCCOC(=O)c1ccc(-c2c3nc(c(-c4ccc(S(=O)(=O)[O-])cc4)c4ccc([nH]4)c(-c4ccc(S(=O)(=O)[O-])cc4)c4nc(c(-c5ccc(S(=O)(=O)[O-])cc5)c5ccc2[nH]5)C=C4)C=C3)cc1)C1=Cc2ccc(Cl)c(Cl)c2O[C@@H]1C(F)(F)F
REMARK SMILES IDX 8 1 7 2 6 3 5 4 4 5 3 6 2 7 1 8 75 9 76 10 86 11 77 12 85 13
REMARK SMILES IDX 78 14 84 15 79 16 82 17 80 18 83 19 81 20 87 21 88 22 89 23
REMARK SMILES IDX 90 24 9 25 10 26 11 27 12 28 13 29 14 30 15 31 16 32 74 33
REMARK SMILES IDX 17 34 73 35 18 36 19 37 20 38 67 39 21 40 72 41 66 42 68 43
REMARK SMILES IDX 22 44 71 45 65 46 64 47 23 49 53 50 34 51 52 52 35 53 38 54
REMARK SMILES IDX 51 55 69 56 36 57 37 58 50 60 70 61 39 62 24 63 25 64 33 65
REMARK SMILES IDX 26 66 32 67 27 68 28 69 29 70 30 71 31 72 54 73 55 74 63 75
REMARK SMILES IDX 56 76 62 77 57 78 58 79 59 80 60 81 61 82 40 83 41 84 49 85
REMARK SMILES IDX 42 86 48 87 43 88 44 89 45 90 46 91 47 92
REMARK H PARENT 68 48 38 59
REMARK Flexibility Score: inf
ROOT
ATOM      1  C   UNL     1       1.984  -3.166  -1.339  1.00  0.00     0.188 C 
ENDROOT
BRANCH   1   2
ATOM      2  C   UNL     1       2.305  -1.664  -1.397  1.00  0.00     0.188 C 
BRANCH   2   3
ATOM      3  O   UNL     1       3.713  -1.177  -1.517  1.00  0.00    -0.376 OA
BRANCH   3   4
ATOM      4  C   UNL     1       4.446   0.165  -0.703  1.00  0.00     0.202 C 
BRANCH   4   5
ATOM      5  C   UNL     1       3.830   0.879   1.256  1.00  0.00     0.261 C 
BRANCH   5   6
ATOM      6  O   UNL     1       2.841   1.992   1.537  1.00  0.00    -0.460 OA
BRANCH   6   7
ATOM      7  C   UNL     1       2.940   2.985   0.638  1.00  0.00     0.338 C 
ATOM      8  O   UNL     1       2.162   3.890   0.465  1.00  0.00    -0.246 OA
BRANCH   7   9
ATOM      9  C   UNL     1       3.824   2.291  -0.291  1.00  0.00     0.087 C 
ATOM     10  C   UNL     1       5.232   2.199   0.071  1.00  0.00     0.027 C 
ATOM     11  C   UNL     1       2.630   0.800  -0.430  1.00  0.00     0.316 C 
ATOM     12  C   UNL     1       6.002   0.726   0.755  1.00  0.00     0.019 A 
ATOM     13  O   UNL     1       3.367  -0.761   0.488  1.00  0.00    -0.474 OA
ATOM     14  C   UNL     1       7.312   0.780   1.139  1.00  0.00     0.013 A 
ATOM     15  C   UNL     1       5.115  -0.735   1.045  1.00  0.00     0.148 A 
ATOM     16  C   UNL     1       7.811  -0.406   1.706  1.00  0.00     0.023 A 
ATOM     17  C   UNL     1       5.675  -1.839   1.638  1.00  0.00     0.102 A 
ATOM     18  C   UNL     1       7.050  -1.637   1.942  1.00  0.00     0.063 A 
ATOM     19  Cl  UNL     1       4.809  -3.251   2.036  1.00  0.00    -0.079 Cl
ATOM     20  Cl  UNL     1       7.990  -2.915   2.671  1.00  0.00    -0.083 Cl
BRANCH  11  21
ATOM     21  C   UNL     1       2.318   1.099  -2.069  1.00  0.00     0.430 C 
ATOM     22  F   UNL     1       2.691   0.221  -3.010  1.00  0.00    -0.167 F 
ATOM     23  F   UNL     1       1.002   1.355  -2.248  1.00  0.00    -0.167 F 
ATOM     24  F   UNL     1       2.961   2.241  -2.473  1.00  0.00    -0.167 F 
ENDBRANCH  11  21
ENDBRANCH   7   9
ENDBRANCH   6   7
ENDBRANCH   5   6
ENDBRANCH   4   5
ENDBRANCH   3   4
ENDBRANCH   2   3
ENDBRANCH   1   2
BRANCH   1  25
ATOM     25  O   UNL     1       2.911  -4.034  -0.734  1.00  0.00    -0.376 OA
BRANCH  25  26
ATOM     26  C   UNL     1       4.223  -3.996  -1.277  1.00  0.00     0.202 C 
BRANCH  26  27
ATOM     27  C   UNL     1       4.377  -4.210  -2.792  1.00  0.00     0.261 C 
BRANCH  27  28
ATOM     28  O   UNL     1       3.871  -3.130  -3.609  1.00  0.00    -0.460 OA
BRANCH  28  29
ATOM     29  C   UNL     1       2.827  -3.403  -4.435  1.00  0.00     0.338 C 
ATOM     30  O   UNL     1       2.234  -4.461  -4.549  1.00  0.00    -0.246 OA
BRANCH  29  31
ATOM     31  C   UNL     1       2.408  -2.160  -5.117  1.00  0.00     0.060 A 
ATOM     32  C   UNL     1       1.167  -1.570  -4.830  1.00  0.00     0.016 A 
ATOM     33  C   UNL     1       3.246  -1.597  -6.077  1.00  0.00     0.016 A 
ATOM     34  C   UNL     1       0.793  -0.375  -5.459  1.00  0.00     0.010 A 
ATOM     35  C   UNL     1       2.849  -0.434  -6.741  1.00  0.00     0.010 A 
ATOM     36  C   UNL     1       1.625   0.189  -6.435  1.00  0.00    -0.014 A 
BRANCH  36  37
ATOM     37  C   UNL     1       1.171   1.327  -7.274  1.00  0.00     0.031 A 
ATOM     38  C   UNL     1       0.487   1.015  -8.575  1.00  0.00     0.074 A 
ATOM     39  C   UNL     1       1.437   2.604  -6.936  1.00  0.00     0.049 A 
ATOM     40  N   UNL     1       0.153   1.821  -9.547  1.00  0.00    -0.248 NA
ATOM     41  C   UNL     1       0.149  -0.398  -8.818  1.00  0.00     0.031 C 
ATOM     42  C   UNL     1       2.067   3.031  -5.689  1.00  0.00     0.029 A 
ATOM     43  N   UNL     1       1.235   3.777  -7.626  1.00  0.00    -0.354 N 
ATOM     44  C   UNL     1      -0.401   1.012 -10.531  1.00  0.00     0.074 A 
ATOM     45  C   UNL     1      -0.366  -0.346 -10.038  1.00  0.00     0.031 C 
ATOM     46  C   UNL     1       2.218   4.368  -5.709  1.00  0.00     0.029 A 
ATOM     47  C   UNL     1       1.748   4.888  -6.992  1.00  0.00     0.049 A 
ATOM     48  H   UNL     1       0.767   3.818  -8.491  1.00  0.00     0.167 HD
ATOM     49  C   UNL     1      -0.875   1.372 -11.745  1.00  0.00     0.031 A 
ATOM     50  C   UNL     1       1.870   6.164  -7.419  1.00  0.00     0.031 A 
ATOM     51  C   UNL     1      -0.888   2.724 -12.235  1.00  0.00     0.049 A 
ATOM     52  C   UNL     1       1.385   6.521  -8.806  1.00  0.00     0.074 A 
ATOM     53  C   UNL     1      -1.390   3.191 -13.437  1.00  0.00     0.029 A 
ATOM     54  N   UNL     1      -0.359   3.817 -11.568  1.00  0.00    -0.354 N 
ATOM     55  N   UNL     1       0.799   5.758  -9.698  1.00  0.00    -0.248 NA
ATOM     56  C   UNL     1       1.587   7.910  -9.250  1.00  0.00     0.031 C 
ATOM     57  C   UNL     1      -1.083   4.550 -13.536  1.00  0.00     0.029 A 
ATOM     58  C   UNL     1      -0.472   4.948 -12.358  1.00  0.00     0.049 A 
ATOM     59  H   UNL     1       0.039   3.792 -10.668  1.00  0.00     0.167 HD
ATOM     60  C   UNL     1       0.546   6.578 -10.795  1.00  0.00     0.074 A 
ATOM     61  C   UNL     1       1.011   7.902 -10.445  1.00  0.00     0.031 C 
ATOM     62  C   UNL     1      -0.011   6.262 -11.990  1.00  0.00     0.031 A 
BRANCH  49  63
ATOM     63  C   UNL     1      -1.369   0.288 -12.665  1.00  0.00    -0.014 A 
ATOM     64  C   UNL     1      -2.578  -0.387 -12.425  1.00  0.00     0.010 A 
ATOM     65  C   UNL     1      -0.654   0.019 -13.847  1.00  0.00     0.010 A 
ATOM     66  C   UNL     1      -3.062  -1.314 -13.353  1.00  0.00     0.020 A 
ATOM     67  C   UNL     1      -1.149  -0.884 -14.790  1.00  0.00     0.020 A 
ATOM     68  C   UNL     1      -2.351  -1.546 -14.535  1.00  0.00     0.054 A 
BRANCH  68  69
ATOM     69  S   UNL     1      -3.053  -2.682 -15.761  1.00  0.00     0.124 S 
ATOM     70  O   UNL     1      -2.951  -3.968 -15.076  1.00  0.00    -0.237 OA
ATOM     71  O   UNL     1      -4.409  -2.166 -15.930  1.00  0.00    -0.237 OA
ATOM     72  O   UNL     1      -2.181  -2.526 -16.922  1.00  0.00    -0.744 OA
ENDBRANCH  68  69
ENDBRANCH  49  63
BRANCH  50  73
ATOM     73  C   UNL     1       2.547   7.195  -6.573  1.00  0.00    -0.014 A 
ATOM     74  C   UNL     1       1.863   8.345  -6.137  1.00  0.00     0.010 A 
ATOM     75  C   UNL     1       3.911   7.061  -6.253  1.00  0.00     0.010 A 
ATOM     76  C   UNL     1       2.537   9.354  -5.437  1.00  0.00     0.020 A 
ATOM     77  C   UNL     1       4.578   8.045  -5.517  1.00  0.00     0.020 A 
ATOM     78  C   UNL     1       3.891   9.196  -5.131  1.00  0.00     0.054 A 
BRANCH  78  79
ATOM     79  S   UNL     1       4.745  10.507  -4.210  1.00  0.00     0.124 S 
ATOM     80  O   UNL     1       4.809  11.581  -5.197  1.00  0.00    -0.237 OA
ATOM     81  O   UNL     1       3.846  10.736  -3.083  1.00  0.00    -0.237 OA
ATOM     82  O   UNL     1       6.028   9.901  -3.861  1.00  0.00    -0.744 OA
ENDBRANCH  78  79
ENDBRANCH  50  73
BRANCH  62  83
ATOM     83  C   UNL     1      -0.181   7.366 -13.004  1.00  0.00    -0.014 A 
ATOM     84  C   UNL     1       0.927   7.931 -13.660  1.00  0.00     0.010 A 
ATOM     85  C   UNL     1      -1.476   7.779 -13.368  1.00  0.00     0.010 A 
ATOM     86  C   UNL     1       0.743   8.903 -14.648  1.00  0.00     0.020 A 
ATOM     87  C   UNL     1      -1.666   8.723 -14.380  1.00  0.00     0.020 A 
ATOM     88  C   UNL     1      -0.553   9.286 -15.008  1.00  0.00     0.054 A 
BRANCH  88  89
ATOM     89  S   UNL     1      -0.762  10.494 -16.344  1.00  0.00     0.124 S 
ATOM     90  O   UNL     1      -0.242  11.716 -15.736  1.00  0.00    -0.237 OA
ATOM     91  O   UNL     1       0.054   9.928 -17.415  1.00  0.00    -0.237 OA
ATOM     92  O   UNL     1      -2.201  10.490 -16.596  1.00  0.00    -0.744 OA
ENDBRANCH  88  89
ENDBRANCH  62  83
ENDBRANCH  36  37
ENDBRANCH  29  31
ENDBRANCH  28  29
ENDBRANCH  27  28
ENDBRANCH  26  27
ENDBRANCH  25  26
ENDBRANCH   1  25
TORSDOF 21
