REMARK SMILES C[C@H]([C@@H](C)C(=O)OCCOCCOCCOC(=O)c1ccc(-c2c3nc(c(-c4ccc(S(=O)(=O)[O-])cc4)c4ccc([nH]4)c(-c4ccc(S(=O)(=O)[O-])cc4)c4nc(c(-c5ccc(S(=O)(=O)[O-])cc5)c5ccc2[nH]5)C=C4)C=C3)cc1)[N@@H+]1CCC[C@@H]1C1CCCC1
REMARK SMILES IDX 11 1 10 2 9 3 8 4 7 5 5 6 6 7 3 8 4 9 2 10 1 11 79 12 80 13
REMARK SMILES IDX 83 14 81 16 82 17 84 18 85 19 88 20 86 21 87 22 12 23 13 24
REMARK SMILES IDX 14 25 15 26 16 27 17 28 18 29 19 30 20 31 78 32 21 33 77 34
REMARK SMILES IDX 22 35 23 36 24 37 71 38 25 39 76 40 70 41 72 42 26 43 75 44
REMARK SMILES IDX 69 45 68 46 27 48 57 49 38 50 56 51 39 52 42 53 55 54 73 55
REMARK SMILES IDX 40 56 41 57 54 59 74 60 43 61 28 62 29 63 37 64 30 65 36 66
REMARK SMILES IDX 31 67 32 68 33 69 34 70 35 71 58 72 59 73 67 74 60 75 66 76
REMARK SMILES IDX 61 77 62 78 63 79 64 80 65 81 44 82 45 83 53 84 46 85 52 86
REMARK SMILES IDX 47 87 48 88 49 89 50 90 51 91
REMARK H PARENT 79 15 72 47 42 58
REMARK Flexibility Score: inf
ROOT
ATOM      1  C   UNL     1       1.079  -1.429   4.502  1.00  0.00     0.188 C 
ENDROOT
BRANCH   1   2
ATOM      2  O   UNL     1       2.175  -0.912   5.242  1.00  0.00    -0.376 OA
BRANCH   2   3
ATOM      3  C   UNL     1       2.621   0.402   4.907  1.00  0.00     0.202 C 
BRANCH   3   4
ATOM      4  C   UNL     1       3.360   0.526   3.566  1.00  0.00     0.261 C 
BRANCH   4   5
ATOM      5  O   UNL     1       2.532   0.931   2.440  1.00  0.00    -0.463 OA
BRANCH   5   6
ATOM      6  C   UNL     1       3.266   1.057   1.282  1.00  0.00     0.314 C 
ATOM      7  O   UNL     1       4.496   1.022   1.299  1.00  0.00    -0.252 OA
BRANCH   6   8
ATOM      8  C   UNL     1       2.456   1.097  -0.052  1.00  0.00     0.154 C 
ATOM      9  C   UNL     1       3.505   1.389  -1.151  1.00  0.00     0.026 C 
BRANCH   8  10
ATOM     10  C   UNL     1       1.188   2.031  -0.058  1.00  0.00     0.195 C 
ATOM     11  C   UNL     1       1.286   3.056  -1.225  1.00  0.00     0.076 C 
BRANCH  10  12
ATOM     12  N   UNL     1      -0.216   1.565  -0.203  1.00  0.00    -0.329 N 
ATOM     13  C   UNL     1      -1.193   2.535   0.332  1.00  0.00     0.262 C 
ATOM     14  C   UNL     1      -0.855   0.244  -0.055  1.00  0.00     0.187 C 
ATOM     15  H   UNL     1       0.047   1.435  -1.180  1.00  0.00     0.348 HD
ATOM     16  C   UNL     1      -1.696   1.845   1.575  1.00  0.00     0.067 C 
ATOM     17  C   UNL     1      -1.843   0.405   1.118  1.00  0.00     0.071 C 
BRANCH  14  18
ATOM     18  C   UNL     1      -0.049  -1.054  -0.114  1.00  0.00     0.047 C 
ATOM     19  C   UNL     1       0.807  -1.368   1.093  1.00  0.00     0.010 C 
ATOM     20  C   UNL     1      -0.797  -2.392  -0.152  1.00  0.00     0.010 C 
ATOM     21  C   UNL     1       1.490  -2.643   0.662  1.00  0.00     0.001 C 
ATOM     22  C   UNL     1       0.277  -3.440   0.221  1.00  0.00     0.001 C 
ENDBRANCH  14  18
ENDBRANCH  10  12
ENDBRANCH   8  10
ENDBRANCH   6   8
ENDBRANCH   5   6
ENDBRANCH   4   5
ENDBRANCH   3   4
ENDBRANCH   2   3
ENDBRANCH   1   2
BRANCH   1  23
ATOM     23  C   UNL     1      -0.074  -0.457   4.258  1.00  0.00     0.188 C 
BRANCH  23  24
ATOM     24  O   UNL     1      -0.510   0.111   5.490  1.00  0.00    -0.376 OA
BRANCH  24  25
ATOM     25  C   UNL     1      -1.885   0.497   5.472  1.00  0.00     0.202 C 
BRANCH  25  26
ATOM     26  C   UNL     1      -2.778  -0.672   5.900  1.00  0.00     0.261 C 
BRANCH  26  27
ATOM     27  O   UNL     1      -2.810  -1.771   4.965  1.00  0.00    -0.460 OA
BRANCH  27  28
ATOM     28  C   UNL     1      -3.596  -1.623   3.871  1.00  0.00     0.338 C 
ATOM     29  O   UNL     1      -4.214  -0.611   3.573  1.00  0.00    -0.246 OA
BRANCH  28  30
ATOM     30  C   UNL     1      -3.528  -2.848   3.021  1.00  0.00     0.060 A 
ATOM     31  C   UNL     1      -3.837  -2.744   1.660  1.00  0.00     0.016 A 
ATOM     32  C   UNL     1      -3.163  -4.099   3.537  1.00  0.00     0.016 A 
ATOM     33  C   UNL     1      -3.724  -3.861   0.816  1.00  0.00     0.010 A 
ATOM     34  C   UNL     1      -3.090  -5.226   2.698  1.00  0.00     0.010 A 
ATOM     35  C   UNL     1      -3.360  -5.119   1.326  1.00  0.00    -0.014 A 
BRANCH  35  36
ATOM     36  C   UNL     1      -3.465  -6.337   0.465  1.00  0.00     0.031 A 
ATOM     37  C   UNL     1      -4.840  -6.833   0.118  1.00  0.00     0.074 A 
ATOM     38  C   UNL     1      -2.393  -7.006  -0.009  1.00  0.00     0.049 A 
ATOM     39  N   UNL     1      -5.189  -7.846  -0.631  1.00  0.00    -0.248 NA
ATOM     40  C   UNL     1      -5.971  -6.092   0.700  1.00  0.00     0.031 C 
ATOM     41  C   UNL     1      -1.005  -6.649   0.237  1.00  0.00     0.029 A 
ATOM     42  N   UNL     1      -2.297  -8.126  -0.806  1.00  0.00    -0.354 N 
ATOM     43  C   UNL     1      -6.576  -7.858  -0.619  1.00  0.00     0.074 A 
ATOM     44  C   UNL     1      -7.006  -6.755   0.213  1.00  0.00     0.031 C 
ATOM     45  C   UNL     1      -0.193  -7.481  -0.435  1.00  0.00     0.029 A 
ATOM     46  C   UNL     1      -1.001  -8.502  -1.093  1.00  0.00     0.049 A 
ATOM     47  H   UNL     1      -3.084  -8.613  -1.142  1.00  0.00     0.167 HD
ATOM     48  C   UNL     1      -7.425  -8.722  -1.222  1.00  0.00     0.031 A 
ATOM     49  C   UNL     1      -0.514  -9.565  -1.771  1.00  0.00     0.031 A 
ATOM     50  C   UNL     1      -7.012  -9.879  -1.965  1.00  0.00     0.049 A 
ATOM     51  C   UNL     1      -1.482 -10.576  -2.336  1.00  0.00     0.074 A 
ATOM     52  C   UNL     1      -7.807 -10.833  -2.574  1.00  0.00     0.029 A 
ATOM     53  N   UNL     1      -5.696 -10.262  -2.170  1.00  0.00    -0.354 N 
ATOM     54  N   UNL     1      -2.794 -10.548  -2.342  1.00  0.00    -0.248 NA
ATOM     55  C   UNL     1      -0.905 -11.770  -2.972  1.00  0.00     0.031 C 
ATOM     56  C   UNL     1      -6.973 -11.831  -3.088  1.00  0.00     0.029 A 
ATOM     57  C   UNL     1      -5.656 -11.457  -2.869  1.00  0.00     0.049 A 
ATOM     58  H   UNL     1      -4.906  -9.759  -1.865  1.00  0.00     0.167 HD
ATOM     59  C   UNL     1      -3.196 -11.704  -3.004  1.00  0.00     0.074 A 
ATOM     60  C   UNL     1      -1.991 -12.402  -3.398  1.00  0.00     0.031 C 
ATOM     61  C   UNL     1      -4.452 -12.145  -3.262  1.00  0.00     0.031 A 
BRANCH  48  62
ATOM     62  C   UNL     1      -8.892  -8.475  -1.018  1.00  0.00    -0.014 A 
ATOM     63  C   UNL     1      -9.538  -7.386  -1.631  1.00  0.00     0.010 A 
ATOM     64  C   UNL     1      -9.630  -9.335  -0.185  1.00  0.00     0.010 A 
ATOM     65  C   UNL     1     -10.888  -7.137  -1.379  1.00  0.00     0.020 A 
ATOM     66  C   UNL     1     -10.987  -9.105   0.046  1.00  0.00     0.020 A 
ATOM     67  C   UNL     1     -11.602  -7.996  -0.537  1.00  0.00     0.054 A 
BRANCH  67  68
ATOM     68  S   UNL     1     -13.354  -7.648  -0.229  1.00  0.00     0.124 S 
ATOM     69  O   UNL     1     -13.279  -6.463   0.623  1.00  0.00    -0.237 OA
ATOM     70  O   UNL     1     -13.876  -7.423  -1.574  1.00  0.00    -0.237 OA
ATOM     71  O   UNL     1     -13.837  -8.859   0.431  1.00  0.00    -0.744 OA
ENDBRANCH  67  68
ENDBRANCH  48  62
BRANCH  49  72
ATOM     72  C   UNL     1       0.959  -9.778  -1.919  1.00  0.00    -0.014 A 
ATOM     73  C   UNL     1       1.568  -9.754  -3.189  1.00  0.00     0.010 A 
ATOM     74  C   UNL     1       1.759 -10.058  -0.795  1.00  0.00     0.010 A 
ATOM     75  C   UNL     1       2.934 -10.026  -3.333  1.00  0.00     0.020 A 
ATOM     76  C   UNL     1       3.132 -10.298  -0.930  1.00  0.00     0.020 A 
ATOM     77  C   UNL     1       3.709 -10.293  -2.201  1.00  0.00     0.054 A 
BRANCH  77  78
ATOM     78  S   UNL     1       5.486 -10.605  -2.406  1.00  0.00     0.124 S 
ATOM     79  O   UNL     1       5.495 -11.925  -3.029  1.00  0.00    -0.237 OA
ATOM     80  O   UNL     1       5.902  -9.497  -3.263  1.00  0.00    -0.237 OA
ATOM     81  O   UNL     1       6.002 -10.553  -1.040  1.00  0.00    -0.744 OA
ENDBRANCH  77  78
ENDBRANCH  49  72
BRANCH  61  82
ATOM     82  C   UNL     1      -4.605 -13.421  -4.050  1.00  0.00    -0.014 A 
ATOM     83  C   UNL     1      -4.297 -14.675  -3.493  1.00  0.00     0.010 A 
ATOM     84  C   UNL     1      -5.144 -13.364  -5.349  1.00  0.00     0.010 A 
ATOM     85  C   UNL     1      -4.503 -15.845  -4.230  1.00  0.00     0.020 A 
ATOM     86  C   UNL     1      -5.381 -14.533  -6.077  1.00  0.00     0.020 A 
ATOM     87  C   UNL     1      -5.048 -15.767  -5.516  1.00  0.00     0.054 A 
BRANCH  87  88
ATOM     88  S   UNL     1      -5.361 -17.303  -6.429  1.00  0.00     0.124 S 
ATOM     89  O   UNL     1      -4.009 -17.730  -6.779  1.00  0.00    -0.237 OA
ATOM     90  O   UNL     1      -6.045 -18.130  -5.438  1.00  0.00    -0.237 OA
ATOM     91  O   UNL     1      -6.189 -16.876  -7.554  1.00  0.00    -0.744 OA
ENDBRANCH  87  88
ENDBRANCH  61  82
ENDBRANCH  35  36
ENDBRANCH  28  30
ENDBRANCH  27  28
ENDBRANCH  26  27
ENDBRANCH  25  26
ENDBRANCH  24  25
ENDBRANCH  23  24
ENDBRANCH   1  23
TORSDOF 23
