REMARK SMILES CC[C@H](C)[C@H](NC(=O)[C@H](C(C)C)n1c(=O)[nH]c2ccccc2c1=O)C(=O)OCCOCCOCCOC(=O)c1ccc(-c2c3nc(c(-c4ccc(S(=O)(=O)[O-])cc4)c4ccc([nH]4)c(-c4ccc(S(=O)(=O)[O-])cc4)c4nc(c(-c5ccc(S(=O)(=O)[O-])cc5)c5ccc2[nH]5)C=C4)C=C3)cc1
REMARK SMILES IDX 31 1 30 2 29 3 28 4 27 5 25 6 26 7 5 8 3 9 4 10 2 11 1 12
REMARK SMILES IDX 6 13 7 14 8 16 9 17 13 18 14 19 23 20 15 21 16 22 22 23
REMARK SMILES IDX 24 24 17 25 21 27 18 28 20 29 19 30 10 31 11 32 12 33 32 34
REMARK SMILES IDX 33 35 34 36 35 37 36 38 37 39 38 40 39 41 40 42 98 43 41 44
REMARK SMILES IDX 97 45 42 46 43 47 44 48 91 49 45 50 96 51 90 52 92 53 46 54
REMARK SMILES IDX 95 55 89 56 88 57 47 59 77 60 58 61 76 62 59 63 62 64 75 65
REMARK SMILES IDX 93 66 60 67 61 68 74 70 94 71 63 72 48 73 49 74 57 75 50 76
REMARK SMILES IDX 56 77 51 78 52 79 53 80 54 81 55 82 78 83 79 84 87 85 80 86
REMARK SMILES IDX 86 87 81 88 82 89 83 90 84 91 85 92 64 93 65 94 73 95 66 96
REMARK SMILES IDX 72 97 67 98 68 99 69 100 70 101 71 102
REMARK H PARENT 6 15 16 26 92 58 62 69
REMARK Flexibility Score: inf
ROOT
ATOM      1  C   UNL     1       0.872  -2.263  -5.883  1.00  0.00     0.188 C 
ENDROOT
BRANCH   1   2
ATOM      2  O   UNL     1       0.835  -3.651  -6.210  1.00  0.00    -0.376 OA
BRANCH   2   3
ATOM      3  C   UNL     1      -0.338  -4.132  -6.851  1.00  0.00     0.202 C 
BRANCH   3   4
ATOM      4  C   UNL     1      -1.580  -4.227  -5.961  1.00  0.00     0.261 C 
BRANCH   4   5
ATOM      5  O   UNL     1      -1.889  -3.012  -5.242  1.00  0.00    -0.462 OA
BRANCH   5   6
ATOM      6  C   UNL     1      -1.591  -3.057  -3.911  1.00  0.00     0.328 C 
ATOM      7  O   UNL     1      -1.037  -4.003  -3.360  1.00  0.00    -0.250 OA
BRANCH   6   8
ATOM      8  C   UNL     1      -2.191  -1.889  -3.100  1.00  0.00     0.195 C 
BRANCH   8   9
ATOM      9  C   UNL     1      -3.419  -2.506  -2.347  1.00  0.00     0.019 C 
ATOM     10  C   UNL     1      -3.974  -1.569  -1.275  1.00  0.00     0.010 C 
BRANCH   9  11
ATOM     11  C   UNL     1      -4.538  -3.108  -3.239  1.00  0.00     0.002 C 
ATOM     12  C   UNL     1      -5.517  -2.147  -3.895  1.00  0.00     0.004 C 
ENDBRANCH   9  11
ENDBRANCH   8   9
BRANCH   8  13
ATOM     13  N   UNL     1      -2.521  -0.612  -3.754  1.00  0.00    -0.341 N 
ATOM     14  C   UNL     1      -2.001   0.642  -3.868  1.00  0.00     0.244 C 
ATOM     15  H   UNL     1      -3.365  -0.686  -4.256  1.00  0.00     0.164 HD
ATOM     16  O   UNL     1      -2.792   1.410  -4.436  1.00  0.00    -0.273 OA
BRANCH  14  17
ATOM     17  C   UNL     1      -0.542   1.113  -3.522  1.00  0.00     0.187 C 
BRANCH  17  18
ATOM     18  N   UNL     1      -0.196   2.503  -4.074  1.00  0.00    -0.247 N 
ATOM     19  C   UNL     1       1.117   2.863  -4.214  1.00  0.00     0.329 A 
ATOM     20  C   UNL     1      -1.018   3.612  -4.168  1.00  0.00     0.264 A 
ATOM     21  O   UNL     1       1.955   2.850  -3.320  1.00  0.00    -0.248 OA
ATOM     22  N   UNL     1       1.439   3.422  -5.417  1.00  0.00    -0.307 N 
ATOM     23  C   UNL     1      -0.616   4.592  -5.261  1.00  0.00     0.064 A 
ATOM     24  O   UNL     1      -1.966   3.864  -3.434  1.00  0.00    -0.268 OA
ATOM     25  C   UNL     1       0.555   4.323  -5.980  1.00  0.00     0.055 A 
ATOM     26  H   UNL     1       2.281   3.189  -5.872  1.00  0.00     0.171 HD
ATOM     27  C   UNL     1      -1.294   5.773  -5.549  1.00  0.00     0.016 A 
ATOM     28  C   UNL     1       0.976   5.092  -7.064  1.00  0.00     0.027 A 
ATOM     29  C   UNL     1      -0.834   6.607  -6.586  1.00  0.00     0.001 A 
ATOM     30  C   UNL     1       0.270   6.247  -7.368  1.00  0.00     0.002 A 
ENDBRANCH  17  18
BRANCH  17  31
ATOM     31  C   UNL     1       0.168   0.711  -2.186  1.00  0.00     0.016 C 
ATOM     32  C   UNL     1      -0.685   0.648  -0.929  1.00  0.00     0.010 C 
ATOM     33  C   UNL     1       1.014  -0.581  -2.310  1.00  0.00     0.010 C 
ENDBRANCH  17  31
ENDBRANCH  14  17
ENDBRANCH   8  13
ENDBRANCH   6   8
ENDBRANCH   5   6
ENDBRANCH   4   5
ENDBRANCH   3   4
ENDBRANCH   2   3
ENDBRANCH   1   2
BRANCH   1  34
ATOM     34  C   UNL     1       0.249  -1.305  -6.899  1.00  0.00     0.188 C 
BRANCH  34  35
ATOM     35  O   UNL     1       1.067  -1.298  -8.073  1.00  0.00    -0.376 OA
BRANCH  35  36
ATOM     36  C   UNL     1       1.282   0.007  -8.589  1.00  0.00     0.202 C 
BRANCH  36  37
ATOM     37  C   UNL     1       2.758   0.462  -8.521  1.00  0.00     0.261 C 
BRANCH  37  38
ATOM     38  O   UNL     1       3.602   0.013  -7.432  1.00  0.00    -0.460 OA
BRANCH  38  39
ATOM     39  C   UNL     1       3.167   0.389  -6.211  1.00  0.00     0.338 C 
ATOM     40  O   UNL     1       2.061   0.849  -6.012  1.00  0.00    -0.246 OA
BRANCH  39  41
ATOM     41  C   UNL     1       4.157   0.292  -5.098  1.00  0.00     0.060 A 
ATOM     42  C   UNL     1       5.492  -0.085  -5.147  1.00  0.00     0.016 A 
ATOM     43  C   UNL     1       3.651   0.697  -3.865  1.00  0.00     0.016 A 
ATOM     44  C   UNL     1       6.268  -0.048  -3.961  1.00  0.00     0.010 A 
ATOM     45  C   UNL     1       4.402   0.809  -2.712  1.00  0.00     0.010 A 
ATOM     46  C   UNL     1       5.720   0.399  -2.740  1.00  0.00    -0.014 A 
BRANCH  46  47
ATOM     47  C   UNL     1       6.413   0.334  -1.438  1.00  0.00     0.031 A 
ATOM     48  C   UNL     1       6.320  -0.929  -0.637  1.00  0.00     0.074 A 
ATOM     49  C   UNL     1       6.936   1.437  -0.871  1.00  0.00     0.049 A 
ATOM     50  N   UNL     1       7.043  -1.312   0.378  1.00  0.00    -0.248 NA
ATOM     51  C   UNL     1       5.253  -1.877  -1.010  1.00  0.00     0.031 C 
ATOM     52  C   UNL     1       6.853   2.791  -1.419  1.00  0.00     0.029 A 
ATOM     53  N   UNL     1       7.624   1.593   0.306  1.00  0.00    -0.354 N 
ATOM     54  C   UNL     1       6.583  -2.581   0.705  1.00  0.00     0.074 A 
ATOM     55  C   UNL     1       5.446  -2.859  -0.141  1.00  0.00     0.031 C 
ATOM     56  C   UNL     1       7.498   3.636  -0.596  1.00  0.00     0.029 A 
ATOM     57  C   UNL     1       8.082   2.873   0.506  1.00  0.00     0.049 A 
ATOM     58  H   UNL     1       7.775   0.859   0.945  1.00  0.00     0.167 HD
ATOM     59  C   UNL     1       7.115  -3.447   1.597  1.00  0.00     0.031 A 
ATOM     60  C   UNL     1       8.943   3.355   1.426  1.00  0.00     0.031 A 
ATOM     61  C   UNL     1       8.200  -3.087   2.471  1.00  0.00     0.049 A 
ATOM     62  C   UNL     1       9.607   2.379   2.359  1.00  0.00     0.074 A 
ATOM     63  C   UNL     1       8.912  -3.887   3.345  1.00  0.00     0.029 A 
ATOM     64  N   UNL     1       8.710  -1.802   2.594  1.00  0.00    -0.354 N 
ATOM     65  N   UNL     1       9.380   1.092   2.496  1.00  0.00    -0.248 NA
ATOM     66  C   UNL     1      10.686   2.894   3.212  1.00  0.00     0.031 C 
ATOM     67  C   UNL     1       9.815  -3.072   4.035  1.00  0.00     0.029 A 
ATOM     68  C   UNL     1       9.711  -1.778   3.545  1.00  0.00     0.049 A 
ATOM     69  H   UNL     1       8.403  -1.021   2.079  1.00  0.00     0.167 HD
ATOM     70  C   UNL     1      10.303   0.638   3.431  1.00  0.00     0.074 A 
ATOM     71  C   UNL     1      11.100   1.786   3.817  1.00  0.00     0.031 C 
ATOM     72  C   UNL     1      10.478  -0.615   3.920  1.00  0.00     0.031 A 
BRANCH  59  73
ATOM     73  C   UNL     1       6.607  -4.866   1.609  1.00  0.00    -0.014 A 
ATOM     74  C   UNL     1       6.046  -5.428   2.769  1.00  0.00     0.010 A 
ATOM     75  C   UNL     1       6.818  -5.693   0.488  1.00  0.00     0.010 A 
ATOM     76  C   UNL     1       5.734  -6.792   2.818  1.00  0.00     0.020 A 
ATOM     77  C   UNL     1       6.484  -7.049   0.523  1.00  0.00     0.020 A 
ATOM     78  C   UNL     1       5.968  -7.596   1.698  1.00  0.00     0.054 A 
BRANCH  78  79
ATOM     79  S   UNL     1       5.605  -9.372   1.793  1.00  0.00     0.124 S 
ATOM     80  O   UNL     1       6.704  -9.868   2.616  1.00  0.00    -0.237 OA
ATOM     81  O   UNL     1       4.286  -9.396   2.419  1.00  0.00    -0.237 OA
ATOM     82  O   UNL     1       5.629  -9.802   0.396  1.00  0.00    -0.744 OA
ENDBRANCH  78  79
ENDBRANCH  59  73
BRANCH  60  83
ATOM     83  C   UNL     1       9.353   4.784   1.337  1.00  0.00    -0.014 A 
ATOM     84  C   UNL     1       8.474   5.813   1.720  1.00  0.00     0.010 A 
ATOM     85  C   UNL     1      10.572   5.122   0.722  1.00  0.00     0.010 A 
ATOM     86  C   UNL     1       8.782   7.150   1.439  1.00  0.00     0.020 A 
ATOM     87  C   UNL     1      10.891   6.457   0.455  1.00  0.00     0.020 A 
ATOM     88  C   UNL     1       9.978   7.460   0.785  1.00  0.00     0.054 A 
BRANCH  88  89
ATOM     89  S   UNL     1      10.312   9.186   0.332  1.00  0.00     0.124 S 
ATOM     90  O   UNL     1       9.438   9.366  -0.824  1.00  0.00    -0.237 OA
ATOM     91  O   UNL     1       9.923   9.916   1.535  1.00  0.00    -0.237 OA
ATOM     92  O   UNL     1      11.744   9.192   0.039  1.00  0.00    -0.744 OA
ENDBRANCH  88  89
ENDBRANCH  60  83
BRANCH  72  93
ATOM     93  C   UNL     1      11.554  -0.826   4.950  1.00  0.00    -0.014 A 
ATOM     94  C   UNL     1      12.685  -1.599   4.629  1.00  0.00     0.010 A 
ATOM     95  C   UNL     1      11.369  -0.390   6.273  1.00  0.00     0.010 A 
ATOM     96  C   UNL     1      13.596  -1.964   5.622  1.00  0.00     0.020 A 
ATOM     97  C   UNL     1      12.293  -0.731   7.263  1.00  0.00     0.020 A 
ATOM     98  C   UNL     1      13.386  -1.538   6.936  1.00  0.00     0.054 A 
BRANCH  98  99
ATOM     99  S   UNL     1      14.555  -2.054   8.222  1.00  0.00     0.124 S 
ATOM    100  O   UNL     1      14.141  -3.431   8.478  1.00  0.00    -0.237 OA
ATOM    101  O   UNL     1      15.850  -1.897   7.563  1.00  0.00    -0.237 OA
ATOM    102  O   UNL     1      14.302  -1.113   9.311  1.00  0.00    -0.744 OA
ENDBRANCH  98  99
ENDBRANCH  72  93
ENDBRANCH  46  47
ENDBRANCH  39  41
ENDBRANCH  38  39
ENDBRANCH  37  38
ENDBRANCH  36  37
ENDBRANCH  35  36
ENDBRANCH  34  35
ENDBRANCH   1  34
TORSDOF 26
