REMARK SMILES Cc1ccnc(C(=O)c2[nH]c3ccc(C(C)(C)C)cc3c2CC(=O)OCCOCCOCCOC(=O)c2ccc(-c3c4nc(c(-c5ccc(S(=O)(=O)[O-])cc5)c5ccc([nH]5)c(-c5ccc(S(=O)(=O)[O-])cc5)c5nc(c(-c6ccc(S(=O)(=O)[O-])cc6)c6ccc3[nH]6)C=C5)C=C4)cc2)c1
REMARK SMILES IDX 29 1 28 2 27 3 26 4 25 5 23 6 24 7 22 8 21 9 9 10 10 11
REMARK SMILES IDX 11 12 20 14 12 15 19 16 13 17 14 18 7 19 8 20 6 21 1 22 2 23
REMARK SMILES IDX 3 24 97 25 4 26 5 27 15 28 16 29 17 30 18 31 30 32 31 33
REMARK SMILES IDX 32 34 33 35 34 36 35 37 36 38 37 39 38 40 96 41 39 42 95 43
REMARK SMILES IDX 40 44 41 45 42 46 89 47 43 48 94 49 88 50 90 51 44 52 93 53
REMARK SMILES IDX 87 54 86 55 45 57 75 58 56 59 74 60 57 61 60 62 73 63 91 64
REMARK SMILES IDX 58 65 59 66 72 68 92 69 61 70 46 71 47 72 55 73 48 74 54 75
REMARK SMILES IDX 49 76 50 77 51 78 52 79 53 80 76 81 77 82 85 83 78 84 84 85
REMARK SMILES IDX 79 86 80 87 81 88 82 89 83 90 62 91 63 92 71 93 64 94 70 95
REMARK SMILES IDX 65 96 66 97 67 98 68 99 69 100
REMARK H PARENT 10 13 90 56 60 67
REMARK Flexibility Score: inf
ROOT
ATOM      1  C   UNL     1       4.850  -3.237   0.388  1.00  0.00     0.188 C 
ENDROOT
BRANCH   1   2
ATOM      2  O   UNL     1       6.074  -3.956   0.489  1.00  0.00    -0.376 OA
BRANCH   2   3
ATOM      3  C   UNL     1       6.022  -5.373   0.403  1.00  0.00     0.202 C 
BRANCH   3   4
ATOM      4  C   UNL     1       5.186  -6.081   1.471  1.00  0.00     0.261 C 
BRANCH   4   5
ATOM      5  O   UNL     1       3.785  -5.741   1.378  1.00  0.00    -0.463 OA
BRANCH   5   6
ATOM      6  C   UNL     1       3.124  -5.658   2.560  1.00  0.00     0.310 C 
ATOM      7  O   UNL     1       3.624  -5.997   3.631  1.00  0.00    -0.252 OA
BRANCH   6   8
ATOM      8  C   UNL     1       1.749  -5.015   2.507  1.00  0.00     0.161 C 
BRANCH   8   9
ATOM      9  C   UNL     1       0.953  -5.022   1.220  1.00  0.00     0.000 A 
ATOM     10  C   UNL     1       0.528  -3.926   0.458  1.00  0.00     0.093 A 
ATOM     11  N   UNL     1      -0.134  -4.428  -0.642  1.00  0.00    -0.352 N 
ATOM     12  C   UNL     1      -0.507  -5.725  -0.397  1.00  0.00     0.046 A 
ATOM     13  H   UNL     1      -0.312  -3.933  -1.474  1.00  0.00     0.167 HD
ATOM     14  C   UNL     1       0.181  -6.130   0.740  1.00  0.00     0.004 A 
ATOM     15  C   UNL     1      -1.424  -6.542  -1.060  1.00  0.00     0.027 A 
ATOM     16  C   UNL     1      -0.084  -7.407   1.261  1.00  0.00     0.015 A 
ATOM     17  C   UNL     1      -1.737  -7.770  -0.461  1.00  0.00     0.006 A 
ATOM     18  C   UNL     1      -1.112  -8.206   0.718  1.00  0.00    -0.042 A 
BRANCH  10  19
ATOM     19  C   UNL     1       0.703  -2.514   0.735  1.00  0.00     0.227 C 
ATOM     20  O   UNL     1       1.472  -2.103   1.601  1.00  0.00    -0.285 OA
BRANCH  19  21
ATOM     21  C   UNL     1      -0.114  -1.508   0.002  1.00  0.00     0.113 A 
ATOM     22  C   UNL     1      -3.501   0.152   0.228  1.00  0.00     0.044 C 
ATOM     23  C   UNL     1      -2.089  -0.171  -0.161  1.00  0.00    -0.047 A 
ATOM     24  C   UNL     1      -1.361   0.716  -0.960  1.00  0.00     0.023 A 
ATOM     25  C   UNL     1      -1.443  -1.301   0.351  1.00  0.00     0.036 A 
ATOM     26  C   UNL     1      -0.058   0.391  -1.296  1.00  0.00     0.112 A 
ATOM     27  N   UNL     1       0.569  -0.723  -0.863  1.00  0.00    -0.253 NA
ENDBRANCH  19  21
ENDBRANCH  10  19
BRANCH  18  28
ATOM     28  C   UNL     1      -1.562  -9.451   1.498  1.00  0.00    -0.013 C 
ATOM     29  C   UNL     1      -0.378 -10.426   1.649  1.00  0.00     0.016 C 
ATOM     30  C   UNL     1      -2.049  -9.011   2.900  1.00  0.00     0.016 C 
ATOM     31  C   UNL     1      -2.726 -10.217   0.837  1.00  0.00     0.016 C 
ENDBRANCH  18  28
ENDBRANCH   8   9
ENDBRANCH   6   8
ENDBRANCH   5   6
ENDBRANCH   4   5
ENDBRANCH   3   4
ENDBRANCH   2   3
ENDBRANCH   1   2
BRANCH   1  32
ATOM     32  C   UNL     1       3.832  -3.640  -0.702  1.00  0.00     0.188 C 
BRANCH  32  33
ATOM     33  O   UNL     1       4.291  -4.275  -1.888  1.00  0.00    -0.376 OA
BRANCH  33  34
ATOM     34  C   UNL     1       5.313  -3.613  -2.620  1.00  0.00     0.202 C 
BRANCH  34  35
ATOM     35  C   UNL     1       4.951  -2.208  -3.093  1.00  0.00     0.261 C 
BRANCH  35  36
ATOM     36  O   UNL     1       4.859  -1.290  -1.986  1.00  0.00    -0.460 OA
BRANCH  36  37
ATOM     37  C   UNL     1       4.039  -0.237  -2.215  1.00  0.00     0.338 C 
ATOM     38  O   UNL     1       3.488   0.029  -3.270  1.00  0.00    -0.246 OA
BRANCH  37  39
ATOM     39  C   UNL     1       3.861   0.604  -1.011  1.00  0.00     0.060 A 
ATOM     40  C   UNL     1       3.240   0.092   0.122  1.00  0.00     0.016 A 
ATOM     41  C   UNL     1       4.045   1.980  -1.123  1.00  0.00     0.016 A 
ATOM     42  C   UNL     1       2.636   0.955   1.042  1.00  0.00     0.010 A 
ATOM     43  C   UNL     1       3.534   2.840  -0.139  1.00  0.00     0.010 A 
ATOM     44  C   UNL     1       2.744   2.346   0.913  1.00  0.00    -0.014 A 
BRANCH  44  45
ATOM     45  C   UNL     1       1.953   3.265   1.794  1.00  0.00     0.031 A 
ATOM     46  C   UNL     1       1.003   4.282   1.186  1.00  0.00     0.074 A 
ATOM     47  C   UNL     1       2.015   3.166   3.140  1.00  0.00     0.049 A 
ATOM     48  N   UNL     1       0.339   5.251   1.770  1.00  0.00    -0.248 NA
ATOM     49  C   UNL     1       0.762   4.197  -0.265  1.00  0.00     0.031 C 
ATOM     50  C   UNL     1       2.801   2.182   3.887  1.00  0.00     0.029 A 
ATOM     51  N   UNL     1       1.393   3.900   4.125  1.00  0.00    -0.354 N 
ATOM     52  C   UNL     1      -0.362   5.906   0.760  1.00  0.00     0.074 A 
ATOM     53  C   UNL     1      -0.040   5.231  -0.478  1.00  0.00     0.031 C 
ATOM     54  C   UNL     1       2.582   2.344   5.200  1.00  0.00     0.029 A 
ATOM     55  C   UNL     1       1.733   3.511   5.401  1.00  0.00     0.049 A 
ATOM     56  H   UNL     1       0.765   4.634   3.934  1.00  0.00     0.167 HD
ATOM     57  C   UNL     1      -1.192   6.974   0.848  1.00  0.00     0.031 A 
ATOM     58  C   UNL     1       1.452   4.058   6.601  1.00  0.00     0.031 A 
ATOM     59  C   UNL     1      -1.513   7.657   2.076  1.00  0.00     0.049 A 
ATOM     60  C   UNL     1       0.634   5.319   6.659  1.00  0.00     0.074 A 
ATOM     61  C   UNL     1      -2.302   8.782   2.256  1.00  0.00     0.029 A 
ATOM     62  N   UNL     1      -1.068   7.281   3.333  1.00  0.00    -0.354 N 
ATOM     63  N   UNL     1       0.049   5.971   5.683  1.00  0.00    -0.248 NA
ATOM     64  C   UNL     1       0.456   5.928   7.984  1.00  0.00     0.031 C 
ATOM     65  C   UNL     1      -2.285   9.119   3.614  1.00  0.00     0.029 A 
ATOM     66  C   UNL     1      -1.543   8.165   4.288  1.00  0.00     0.049 A 
ATOM     67  H   UNL     1      -0.498   6.500   3.520  1.00  0.00     0.167 HD
ATOM     68  C   UNL     1      -0.574   7.061   6.279  1.00  0.00     0.074 A 
ATOM     69  C   UNL     1      -0.327   6.959   7.702  1.00  0.00     0.031 C 
ATOM     70  C   UNL     1      -1.280   8.065   5.700  1.00  0.00     0.031 A 
BRANCH  57  71
ATOM     71  C   UNL     1      -1.785   7.519  -0.428  1.00  0.00    -0.014 A 
ATOM     72  C   UNL     1      -2.839   6.862  -1.087  1.00  0.00     0.010 A 
ATOM     73  C   UNL     1      -1.331   8.754  -0.928  1.00  0.00     0.010 A 
ATOM     74  C   UNL     1      -3.417   7.424  -2.230  1.00  0.00     0.020 A 
ATOM     75  C   UNL     1      -1.922   9.330  -2.057  1.00  0.00     0.020 A 
ATOM     76  C   UNL     1      -2.957   8.656  -2.707  1.00  0.00     0.054 A 
BRANCH  76  77
ATOM     77  S   UNL     1      -3.760   9.383  -4.163  1.00  0.00     0.124 S 
ATOM     78  O   UNL     1      -3.309   8.495  -5.231  1.00  0.00    -0.237 OA
ATOM     79  O   UNL     1      -5.178   9.289  -3.825  1.00  0.00    -0.237 OA
ATOM     80  O   UNL     1      -3.224  10.741  -4.215  1.00  0.00    -0.744 OA
ENDBRANCH  76  77
ENDBRANCH  57  71
BRANCH  58  81
ATOM     81  C   UNL     1       2.034   3.477   7.846  1.00  0.00    -0.014 A 
ATOM     82  C   UNL     1       1.213   2.948   8.857  1.00  0.00     0.010 A 
ATOM     83  C   UNL     1       3.429   3.486   8.040  1.00  0.00     0.010 A 
ATOM     84  C   UNL     1       1.773   2.466  10.046  1.00  0.00     0.020 A 
ATOM     85  C   UNL     1       3.995   2.968   9.207  1.00  0.00     0.020 A 
ATOM     86  C   UNL     1       3.161   2.479  10.212  1.00  0.00     0.054 A 
BRANCH  86  87
ATOM     87  S   UNL     1       3.873   1.828  11.748  1.00  0.00     0.124 S 
ATOM     88  O   UNL     1       3.599   2.908  12.690  1.00  0.00    -0.237 OA
ATOM     89  O   UNL     1       3.113   0.598  11.955  1.00  0.00    -0.237 OA
ATOM     90  O   UNL     1       5.282   1.631  11.413  1.00  0.00    -0.744 OA
ENDBRANCH  86  87
ENDBRANCH  58  81
BRANCH  70  91
ATOM     91  C   UNL     1      -1.859   9.108   6.619  1.00  0.00    -0.014 A 
ATOM     92  C   UNL     1      -1.034  10.027   7.294  1.00  0.00     0.010 A 
ATOM     93  C   UNL     1      -3.250   9.158   6.823  1.00  0.00     0.010 A 
ATOM     94  C   UNL     1      -1.583  10.929   8.209  1.00  0.00     0.020 A 
ATOM     95  C   UNL     1      -3.806  10.080   7.713  1.00  0.00     0.020 A 
ATOM     96  C   UNL     1      -2.965  10.941   8.422  1.00  0.00     0.054 A 
BRANCH  96  97
ATOM     97  S   UNL     1      -3.655  12.104   9.630  1.00  0.00     0.124 S 
ATOM     98  O   UNL     1      -3.291  11.475  10.897  1.00  0.00    -0.237 OA
ATOM     99  O   UNL     1      -2.952  13.347   9.320  1.00  0.00    -0.237 OA
ATOM    100  O   UNL     1      -5.084  12.111   9.327  1.00  0.00    -0.744 OA
ENDBRANCH  96  97
ENDBRANCH  70  91
ENDBRANCH  44  45
ENDBRANCH  37  39
ENDBRANCH  36  37
ENDBRANCH  35  36
ENDBRANCH  34  35
ENDBRANCH  33  34
ENDBRANCH  32  33
ENDBRANCH   1  32
TORSDOF 24
