REMARK SMILES Cc1cc(N(C)[C@H]2CC[C@@H](C)CC2)cc(C(=O)OCCOCCOCCOC(=O)c2ccc(-c3c4nc(c(-c5ccc(S(=O)(=O)[O-])cc5)c5ccc([nH]5)c(-c5ccc(S(=O)(=O)[O-])cc5)c5nc(c(-c6ccc(S(=O)(=O)[O-])cc6)c6ccc3[nH]6)C=C5)C=C4)cc2)c1N
REMARK SMILES IDX 23 1 22 2 21 3 20 4 19 5 18 6 16 7 17 8 15 9 1 10 2 11 3 12
REMARK SMILES IDX 90 13 4 14 14 15 91 16 5 19 6 20 7 21 8 22 13 23 9 24 12 25
REMARK SMILES IDX 10 26 11 27 24 28 25 29 26 30 27 31 28 32 29 33 30 34 31 35
REMARK SMILES IDX 89 36 32 37 88 38 33 39 34 40 35 41 82 42 36 43 87 44 81 45
REMARK SMILES IDX 83 46 37 47 86 48 80 49 79 50 38 52 68 53 49 54 67 55 50 56
REMARK SMILES IDX 53 57 66 58 84 59 51 60 52 61 65 63 85 64 54 65 39 66 40 67
REMARK SMILES IDX 48 68 41 69 47 70 42 71 43 72 44 73 45 74 46 75 69 76 70 77
REMARK SMILES IDX 78 78 71 79 77 80 72 81 73 82 74 83 75 84 76 85 55 86 56 87
REMARK SMILES IDX 64 88 57 89 63 90 58 91 59 92 60 93 61 94 62 95
REMARK H PARENT 91 17 91 18 83 51 53 62
REMARK Flexibility Score: inf
ROOT
ATOM      1  C   UNL     1      -0.884  -3.137  -2.191  1.00  0.00     0.188 C 
ENDROOT
BRANCH   1   2
ATOM      2  C   UNL     1       0.110  -4.144  -1.573  1.00  0.00     0.188 C 
BRANCH   2   3
ATOM      3  O   UNL     1      -0.388  -5.470  -1.497  1.00  0.00    -0.376 OA
BRANCH   3   4
ATOM      4  C   UNL     1      -0.691  -5.947  -0.195  1.00  0.00     0.202 C 
BRANCH   4   5
ATOM      5  C   UNL     1      -1.827  -5.241   0.569  1.00  0.00     0.261 C 
BRANCH   5   6
ATOM      6  O   UNL     1      -1.788  -3.803   0.589  1.00  0.00    -0.460 OA
BRANCH   6   7
ATOM      7  C   UNL     1      -0.849  -3.250   1.391  1.00  0.00     0.340 C 
ATOM      8  O   UNL     1      -0.082  -3.879   2.104  1.00  0.00    -0.246 OA
BRANCH   7   9
ATOM      9  C   UNL     1      -0.767  -1.776   1.188  1.00  0.00     0.085 A 
ATOM     10  C   UNL     1       1.824   0.994   1.153  1.00  0.00     0.047 C 
ATOM     11  C   UNL     1       0.549   0.204   1.278  1.00  0.00    -0.025 A 
ATOM     12  C   UNL     1      -0.654   0.914   1.377  1.00  0.00     0.031 A 
ATOM     13  C   UNL     1       0.507  -1.181   1.193  1.00  0.00     0.049 A 
ATOM     14  C   UNL     1      -1.858   0.419   0.894  1.00  0.00     0.038 A 
ATOM     15  C   UNL     1      -1.923  -0.985   0.946  1.00  0.00     0.043 A 
BRANCH  13  16
ATOM     16  N   UNL     1       1.671  -1.905   0.936  1.00  0.00    -0.398 N 
ATOM     17  H   UNL     1       2.545  -1.451   0.949  1.00  0.00     0.156 HD
ATOM     18  H   UNL     1       1.619  -2.869   0.743  1.00  0.00     0.156 HD
ENDBRANCH  13  16
BRANCH  14  19
ATOM     19  N   UNL     1      -2.834   1.259   0.326  1.00  0.00    -0.372 N 
ATOM     20  C   UNL     1      -4.202   0.722   0.287  1.00  0.00     0.144 C 
BRANCH  19  21
ATOM     21  C   UNL     1      -2.696   2.753   0.037  1.00  0.00     0.082 C 
ATOM     22  C   UNL     1      -3.362   3.235  -1.292  1.00  0.00     0.025 C 
ATOM     23  C   UNL     1      -1.295   3.377  -0.054  1.00  0.00     0.025 C 
ATOM     24  C   UNL     1      -2.536   3.129  -2.599  1.00  0.00     0.005 C 
ATOM     25  C   UNL     1      -0.489   2.708  -1.158  1.00  0.00     0.005 C 
ATOM     26  C   UNL     1      -0.998   3.201  -2.500  1.00  0.00    -0.014 C 
ATOM     27  C   UNL     1      -0.317   2.423  -3.630  1.00  0.00     0.007 C 
ENDBRANCH  19  21
ENDBRANCH  14  19
ENDBRANCH   7   9
ENDBRANCH   6   7
ENDBRANCH   5   6
ENDBRANCH   4   5
ENDBRANCH   3   4
ENDBRANCH   2   3
ENDBRANCH   1   2
BRANCH   1  28
ATOM     28  O   UNL     1      -2.146  -3.578  -2.676  1.00  0.00    -0.376 OA
BRANCH  28  29
ATOM     29  C   UNL     1      -2.223  -4.799  -3.395  1.00  0.00     0.202 C 
BRANCH  29  30
ATOM     30  C   UNL     1      -1.277  -5.075  -4.581  1.00  0.00     0.261 C 
BRANCH  30  31
ATOM     31  O   UNL     1       0.095  -4.676  -4.427  1.00  0.00    -0.460 OA
BRANCH  31  32
ATOM     32  C   UNL     1       0.468  -3.567  -5.117  1.00  0.00     0.338 C 
ATOM     33  O   UNL     1      -0.225  -2.897  -5.858  1.00  0.00    -0.246 OA
BRANCH  32  34
ATOM     34  C   UNL     1       1.840  -3.171  -4.723  1.00  0.00     0.060 A 
ATOM     35  C   UNL     1       2.027  -1.937  -4.084  1.00  0.00     0.016 A 
ATOM     36  C   UNL     1       2.939  -3.969  -5.044  1.00  0.00     0.016 A 
ATOM     37  C   UNL     1       3.314  -1.488  -3.782  1.00  0.00     0.010 A 
ATOM     38  C   UNL     1       4.230  -3.505  -4.763  1.00  0.00     0.010 A 
ATOM     39  C   UNL     1       4.427  -2.250  -4.157  1.00  0.00    -0.014 A 
BRANCH  39  40
ATOM     40  C   UNL     1       5.791  -1.665  -4.071  1.00  0.00     0.031 A 
ATOM     41  C   UNL     1       6.419  -1.105  -5.321  1.00  0.00     0.074 A 
ATOM     42  C   UNL     1       6.459  -1.616  -2.904  1.00  0.00     0.049 A 
ATOM     43  N   UNL     1       7.617  -0.610  -5.496  1.00  0.00    -0.248 NA
ATOM     44  C   UNL     1       5.584  -1.107  -6.534  1.00  0.00     0.031 C 
ATOM     45  C   UNL     1       5.948  -2.077  -1.613  1.00  0.00     0.029 A 
ATOM     46  N   UNL     1       7.725  -1.163  -2.621  1.00  0.00    -0.354 N 
ATOM     47  C   UNL     1       7.684  -0.250  -6.838  1.00  0.00     0.074 A 
ATOM     48  C   UNL     1       6.417  -0.610  -7.437  1.00  0.00     0.031 C 
ATOM     49  C   UNL     1       6.899  -1.898  -0.679  1.00  0.00     0.029 A 
ATOM     50  C   UNL     1       8.098  -1.346  -1.310  1.00  0.00     0.049 A 
ATOM     51  H   UNL     1       8.311  -0.746  -3.293  1.00  0.00     0.167 HD
ATOM     52  C   UNL     1       8.705   0.333  -7.511  1.00  0.00     0.031 A 
ATOM     53  C   UNL     1       9.278  -1.122  -0.695  1.00  0.00     0.031 A 
ATOM     54  C   UNL     1       9.971   0.678  -6.920  1.00  0.00     0.049 A 
ATOM     55  C   UNL     1      10.430  -0.552  -1.486  1.00  0.00     0.074 A 
ATOM     56  C   UNL     1      11.064   1.279  -7.520  1.00  0.00     0.029 A 
ATOM     57  N   UNL     1      10.318   0.448  -5.598  1.00  0.00    -0.354 N 
ATOM     58  N   UNL     1      10.471  -0.198  -2.749  1.00  0.00    -0.248 NA
ATOM     59  C   UNL     1      11.695  -0.345  -0.765  1.00  0.00     0.031 C 
ATOM     60  C   UNL     1      12.093   1.356  -6.577  1.00  0.00     0.029 A 
ATOM     61  C   UNL     1      11.617   0.871  -5.370  1.00  0.00     0.049 A 
ATOM     62  H   UNL     1       9.728   0.045  -4.921  1.00  0.00     0.167 HD
ATOM     63  C   UNL     1      11.752   0.305  -2.962  1.00  0.00     0.074 A 
ATOM     64  C   UNL     1      12.449   0.223  -1.696  1.00  0.00     0.031 C 
ATOM     65  C   UNL     1      12.300   0.792  -4.103  1.00  0.00     0.031 A 
BRANCH  52  66
ATOM     66  C   UNL     1       8.507   0.611  -8.979  1.00  0.00    -0.014 A 
ATOM     67  C   UNL     1       7.633   1.622  -9.418  1.00  0.00     0.010 A 
ATOM     68  C   UNL     1       9.252  -0.109  -9.931  1.00  0.00     0.010 A 
ATOM     69  C   UNL     1       7.486   1.887 -10.783  1.00  0.00     0.020 A 
ATOM     70  C   UNL     1       9.131   0.173 -11.294  1.00  0.00     0.020 A 
ATOM     71  C   UNL     1       8.238   1.162 -11.712  1.00  0.00     0.054 A 
BRANCH  71  72
ATOM     72  S   UNL     1       8.058   1.557 -13.473  1.00  0.00     0.124 S 
ATOM     73  O   UNL     1       6.716   1.056 -13.759  1.00  0.00    -0.237 OA
ATOM     74  O   UNL     1       8.201   3.011 -13.489  1.00  0.00    -0.237 OA
ATOM     75  O   UNL     1       9.146   0.819 -14.109  1.00  0.00    -0.744 OA
ENDBRANCH  71  72
ENDBRANCH  52  66
BRANCH  53  76
ATOM     76  C   UNL     1       9.451  -1.467   0.745  1.00  0.00    -0.014 A 
ATOM     77  C   UNL     1       9.662  -0.463   1.707  1.00  0.00     0.010 A 
ATOM     78  C   UNL     1       9.435  -2.812   1.157  1.00  0.00     0.010 A 
ATOM     79  C   UNL     1       9.882  -0.800   3.047  1.00  0.00     0.020 A 
ATOM     80  C   UNL     1       9.620  -3.151   2.501  1.00  0.00     0.020 A 
ATOM     81  C   UNL     1       9.858  -2.142   3.435  1.00  0.00     0.054 A 
BRANCH  81  82
ATOM     82  S   UNL     1      10.112  -2.552   5.184  1.00  0.00     0.124 S 
ATOM     83  O   UNL     1      11.534  -2.278   5.358  1.00  0.00    -0.237 OA
ATOM     84  O   UNL     1       9.202  -1.629   5.858  1.00  0.00    -0.237 OA
ATOM     85  O   UNL     1       9.731  -3.961   5.264  1.00  0.00    -0.744 OA
ENDBRANCH  81  82
ENDBRANCH  53  76
BRANCH  65  86
ATOM     86  C   UNL     1      13.710   1.326  -4.033  1.00  0.00    -0.014 A 
ATOM     87  C   UNL     1      14.813   0.470  -3.868  1.00  0.00     0.010 A 
ATOM     88  C   UNL     1      13.935   2.706  -4.198  1.00  0.00     0.010 A 
ATOM     89  C   UNL     1      16.112   0.989  -3.835  1.00  0.00     0.020 A 
ATOM     90  C   UNL     1      15.233   3.224  -4.198  1.00  0.00     0.020 A 
ATOM     91  C   UNL     1      16.313   2.363  -4.002  1.00  0.00     0.054 A 
BRANCH  91  92
ATOM     92  S   UNL     1      18.010   3.004  -3.998  1.00  0.00     0.124 S 
ATOM     93  O   UNL     1      18.382   2.876  -2.592  1.00  0.00    -0.237 OA
ATOM     94  O   UNL     1      18.697   2.097  -4.915  1.00  0.00    -0.237 OA
ATOM     95  O   UNL     1      17.865   4.375  -4.481  1.00  0.00    -0.744 OA
ENDBRANCH  91  92
ENDBRANCH  65  86
ENDBRANCH  39  40
ENDBRANCH  32  34
ENDBRANCH  31  32
ENDBRANCH  30  31
ENDBRANCH  29  30
ENDBRANCH  28  29
ENDBRANCH   1  28
TORSDOF 23
