REMARK SMILES Cc1ccn2c([C@@H]3CCCC[C@@H]3C(=O)OCCOCCOCCOC(=O)c3ccc(-c4c5nc(c(-c6ccc(S(=O)(=O)[O-])cc6)c6ccc([nH]6)c(-c6ccc(S(=O)(=O)[O-])cc6)c6nc(c(-c7ccc(S(=O)(=O)[O-])cc7)c7ccc4[nH]7)C=C6)C=C5)cc3)nnc2c1
REMARK SMILES IDX 20 1 19 2 18 3 17 4 16 5 15 6 13 7 14 8 12 9 7 10 8 11 9 12
REMARK SMILES IDX 11 13 10 14 6 15 1 16 2 17 3 18 90 19 4 20 89 21 5 22 88 23
REMARK SMILES IDX 87 24 21 25 22 26 23 27 24 28 25 29 26 30 27 31 28 32 86 33
REMARK SMILES IDX 29 34 85 35 30 36 31 37 32 38 79 39 33 40 84 41 78 42 80 43
REMARK SMILES IDX 34 44 83 45 77 46 76 47 35 49 65 50 46 51 64 52 47 53 50 54
REMARK SMILES IDX 63 55 81 56 48 57 49 58 62 60 82 61 51 62 36 63 37 64 45 65
REMARK SMILES IDX 38 66 44 67 39 68 40 69 41 70 42 71 43 72 66 73 67 74 75 75
REMARK SMILES IDX 68 76 74 77 69 78 70 79 71 80 72 81 73 82 52 83 53 84 61 85
REMARK SMILES IDX 54 86 60 87 55 88 56 89 57 90 58 91 59 92
REMARK H PARENT 80 48 50 59
REMARK Flexibility Score: inf
ROOT
ATOM      1  C   UNL     1      -4.803   2.915   2.517  1.00  0.00     0.188 C 
ENDROOT
BRANCH   1   2
ATOM      2  C   UNL     1      -3.599   1.976   2.192  1.00  0.00     0.188 C 
BRANCH   2   3
ATOM      3  O   UNL     1      -3.988   0.659   1.817  1.00  0.00    -0.376 OA
BRANCH   3   4
ATOM      4  C   UNL     1      -3.564  -0.417   2.643  1.00  0.00     0.202 C 
BRANCH   4   5
ATOM      5  C   UNL     1      -3.733  -0.368   4.178  1.00  0.00     0.261 C 
BRANCH   5   6
ATOM      6  O   UNL     1      -4.046   0.925   4.685  1.00  0.00    -0.463 OA
BRANCH   6   7
ATOM      7  C   UNL     1      -3.145   1.422   5.576  1.00  0.00     0.309 C 
ATOM      8  O   UNL     1      -2.419   0.760   6.285  1.00  0.00    -0.252 OA
BRANCH   7   9
ATOM      9  C   UNL     1      -3.043   2.912   5.401  1.00  0.00     0.110 C 
ATOM     10  C   UNL     1      -1.592   3.298   5.294  1.00  0.00     0.072 C 
ATOM     11  C   UNL     1      -0.907   3.468   6.637  1.00  0.00     0.012 C 
ATOM     12  C   UNL     1      -1.790   3.695   7.885  1.00  0.00     0.001 C 
ATOM     13  C   UNL     1      -3.817   3.758   6.392  1.00  0.00     0.016 C 
ATOM     14  C   UNL     1      -3.296   3.487   7.778  1.00  0.00     0.001 C 
BRANCH  10  15
ATOM     15  C   UNL     1      -0.876   2.813   4.022  1.00  0.00     0.141 A 
ATOM     16  C   UNL     1       1.197  -0.844   0.329  1.00  0.00     0.044 C 
ATOM     17  C   UNL     1       0.910   0.015   1.528  1.00  0.00    -0.046 A 
ATOM     18  C   UNL     1       0.380  -0.510   2.796  1.00  0.00     0.022 A 
ATOM     19  C   UNL     1       1.029   1.341   1.379  1.00  0.00     0.053 A 
ATOM     20  C   UNL     1      -0.113   0.324   3.753  1.00  0.00     0.095 A 
ATOM     21  C   UNL     1       0.329   2.164   2.277  1.00  0.00     0.161 A 
ATOM     22  N   UNL     1      -0.195   1.692   3.486  1.00  0.00    -0.286 N 
ATOM     23  N   UNL     1      -0.213   3.299   1.991  1.00  0.00    -0.130 NA
ATOM     24  N   UNL     1      -1.071   3.603   2.980  1.00  0.00    -0.134 NA
ENDBRANCH  10  15
ENDBRANCH   7   9
ENDBRANCH   6   7
ENDBRANCH   5   6
ENDBRANCH   4   5
ENDBRANCH   3   4
ENDBRANCH   2   3
ENDBRANCH   1   2
BRANCH   1  25
ATOM     25  O   UNL     1      -6.050   2.298   2.767  1.00  0.00    -0.376 OA
BRANCH  25  26
ATOM     26  C   UNL     1      -6.490   1.494   1.675  1.00  0.00     0.202 C 
BRANCH  26  27
ATOM     27  C   UNL     1      -6.211   1.947   0.188  1.00  0.00     0.261 C 
BRANCH  27  28
ATOM     28  O   UNL     1      -4.926   2.595  -0.138  1.00  0.00    -0.460 OA
BRANCH  28  29
ATOM     29  C   UNL     1      -4.923   3.920  -0.526  1.00  0.00     0.338 C 
ATOM     30  O   UNL     1      -5.898   4.508  -0.958  1.00  0.00    -0.246 OA
BRANCH  29  31
ATOM     31  C   UNL     1      -3.689   4.666  -0.013  1.00  0.00     0.060 A 
ATOM     32  C   UNL     1      -2.372   4.358  -0.333  1.00  0.00     0.016 A 
ATOM     33  C   UNL     1      -3.888   5.671   0.959  1.00  0.00     0.016 A 
ATOM     34  C   UNL     1      -1.303   5.000   0.366  1.00  0.00     0.010 A 
ATOM     35  C   UNL     1      -2.822   6.210   1.730  1.00  0.00     0.010 A 
ATOM     36  C   UNL     1      -1.494   5.842   1.504  1.00  0.00    -0.014 A 
BRANCH  36  37
ATOM     37  C   UNL     1      -0.379   6.553   2.322  1.00  0.00     0.031 A 
ATOM     38  C   UNL     1       0.587   7.038   1.317  1.00  0.00     0.074 A 
ATOM     39  C   UNL     1       0.336   6.355   3.490  1.00  0.00     0.049 A 
ATOM     40  N   UNL     1       1.698   6.459   0.990  1.00  0.00    -0.248 NA
ATOM     41  C   UNL     1       0.154   8.107   0.417  1.00  0.00     0.031 C 
ATOM     42  C   UNL     1       0.920   5.144   4.032  1.00  0.00     0.029 A 
ATOM     43  N   UNL     1       0.724   7.302   4.494  1.00  0.00    -0.354 N 
ATOM     44  C   UNL     1       2.258   7.300   0.056  1.00  0.00     0.074 A 
ATOM     45  C   UNL     1       1.183   8.133  -0.431  1.00  0.00     0.031 C 
ATOM     46  C   UNL     1       1.268   5.301   5.312  1.00  0.00     0.029 A 
ATOM     47  C   UNL     1       1.075   6.670   5.729  1.00  0.00     0.049 A 
ATOM     48  H   UNL     1       0.748   8.276   4.350  1.00  0.00     0.167 HD
ATOM     49  C   UNL     1       3.589   7.546   0.137  1.00  0.00     0.031 A 
ATOM     50  C   UNL     1       1.826   7.056   6.807  1.00  0.00     0.031 A 
ATOM     51  C   UNL     1       4.322   6.464   0.746  1.00  0.00     0.049 A 
ATOM     52  C   UNL     1       3.261   6.980   6.391  1.00  0.00     0.074 A 
ATOM     53  C   UNL     1       4.668   5.181   0.382  1.00  0.00     0.029 A 
ATOM     54  N   UNL     1       4.478   6.557   2.106  1.00  0.00    -0.354 N 
ATOM     55  N   UNL     1       3.939   5.879   6.202  1.00  0.00    -0.248 NA
ATOM     56  C   UNL     1       3.791   8.163   5.717  1.00  0.00     0.031 C 
ATOM     57  C   UNL     1       4.973   4.485   1.584  1.00  0.00     0.029 A 
ATOM     58  C   UNL     1       4.862   5.363   2.661  1.00  0.00     0.049 A 
ATOM     59  H   UNL     1       4.331   7.382   2.622  1.00  0.00     0.167 HD
ATOM     60  C   UNL     1       4.613   6.119   5.011  1.00  0.00     0.074 A 
ATOM     61  C   UNL     1       4.600   7.569   4.840  1.00  0.00     0.031 C 
ATOM     62  C   UNL     1       4.851   5.132   4.098  1.00  0.00     0.031 A 
BRANCH  49  63
ATOM     63  C   UNL     1       4.079   8.972   0.171  1.00  0.00    -0.014 A 
ATOM     64  C   UNL     1       3.226  10.057   0.477  1.00  0.00     0.010 A 
ATOM     65  C   UNL     1       5.457   9.238   0.137  1.00  0.00     0.010 A 
ATOM     66  C   UNL     1       3.691  11.354   0.639  1.00  0.00     0.020 A 
ATOM     67  C   UNL     1       5.946  10.537   0.344  1.00  0.00     0.020 A 
ATOM     68  C   UNL     1       5.054  11.588   0.562  1.00  0.00     0.054 A 
BRANCH  68  69
ATOM     69  S   UNL     1       5.612  13.291   0.771  1.00  0.00     0.124 S 
ATOM     70  O   UNL     1       5.052  13.933  -0.416  1.00  0.00    -0.237 OA
ATOM     71  O   UNL     1       4.997  13.667   2.040  1.00  0.00    -0.237 OA
ATOM     72  O   UNL     1       7.067  13.173   0.790  1.00  0.00    -0.744 OA
ENDBRANCH  68  69
ENDBRANCH  49  63
BRANCH  50  73
ATOM     73  C   UNL     1       1.339   7.932   7.899  1.00  0.00    -0.014 A 
ATOM     74  C   UNL     1      -0.013   8.312   7.920  1.00  0.00     0.010 A 
ATOM     75  C   UNL     1       2.158   8.366   8.964  1.00  0.00     0.010 A 
ATOM     76  C   UNL     1      -0.482   9.261   8.826  1.00  0.00     0.020 A 
ATOM     77  C   UNL     1       1.690   9.315   9.892  1.00  0.00     0.020 A 
ATOM     78  C   UNL     1       0.392   9.810   9.760  1.00  0.00     0.054 A 
BRANCH  78  79
ATOM     79  S   UNL     1      -0.171  11.267  10.681  1.00  0.00     0.124 S 
ATOM     80  O   UNL     1      -0.249  12.270   9.621  1.00  0.00    -0.237 OA
ATOM     81  O   UNL     1      -1.456  10.829  11.222  1.00  0.00    -0.237 OA
ATOM     82  O   UNL     1       0.879  11.484  11.671  1.00  0.00    -0.744 OA
ENDBRANCH  78  79
ENDBRANCH  50  73
BRANCH  62  83
ATOM     83  C   UNL     1       4.994   3.697   4.547  1.00  0.00    -0.014 A 
ATOM     84  C   UNL     1       6.232   3.077   4.302  1.00  0.00     0.010 A 
ATOM     85  C   UNL     1       3.938   2.889   4.994  1.00  0.00     0.010 A 
ATOM     86  C   UNL     1       6.391   1.695   4.444  1.00  0.00     0.020 A 
ATOM     87  C   UNL     1       4.091   1.508   5.171  1.00  0.00     0.020 A 
ATOM     88  C   UNL     1       5.313   0.915   4.864  1.00  0.00     0.054 A 
BRANCH  88  89
ATOM     89  S   UNL     1       5.522  -0.882   4.963  1.00  0.00     0.124 S 
ATOM     90  O   UNL     1       5.618  -1.260   3.554  1.00  0.00    -0.237 OA
ATOM     91  O   UNL     1       6.755  -1.020   5.733  1.00  0.00    -0.237 OA
ATOM     92  O   UNL     1       4.313  -1.341   5.643  1.00  0.00    -0.744 OA
ENDBRANCH  88  89
ENDBRANCH  62  83
ENDBRANCH  36  37
ENDBRANCH  29  31
ENDBRANCH  28  29
ENDBRANCH  27  28
ENDBRANCH  26  27
ENDBRANCH  25  26
ENDBRANCH   1  25
TORSDOF 21
