REMARK SMILES Cc1ccccc1OC1(C(=O)OCCOCCOCCOC(=O)c2ccc(-c3c4nc(c(-c5ccc(S(=O)(=O)[O-])cc5)c5ccc([nH]5)c(-c5ccc(S(=O)(=O)[O-])cc5)c5nc(c(-c6ccc(S(=O)(=O)[O-])cc6)c6ccc3[nH]6)C=C5)C=C4)cc2)CCN(C(=O)[C@H]2CCCCO2)CC1
REMARK SMILES IDX 17 1 16 2 15 3 14 4 13 5 12 6 10 7 11 8 9 9 84 10 96 11
REMARK SMILES IDX 85 12 95 13 86 14 87 15 88 16 8 17 7 18 1 19 2 20 3 21 4 22
REMARK SMILES IDX 6 23 5 24 89 25 90 26 94 27 91 28 93 29 92 30 18 31 19 32
REMARK SMILES IDX 20 33 21 34 22 35 23 36 24 37 25 38 83 39 26 40 82 41 27 42
REMARK SMILES IDX 28 43 29 44 76 45 30 46 81 47 75 48 77 49 31 50 80 51 74 52
REMARK SMILES IDX 73 53 32 55 62 56 43 57 61 58 44 59 47 60 60 61 78 62 45 63
REMARK SMILES IDX 46 64 59 66 79 67 48 68 33 69 34 70 42 71 35 72 41 73 36 74
REMARK SMILES IDX 37 75 38 76 39 77 40 78 63 79 64 80 72 81 65 82 71 83 66 84
REMARK SMILES IDX 67 85 68 86 69 87 70 88 49 89 50 90 58 91 51 92 57 93 52 94
REMARK SMILES IDX 53 95 54 96 55 97 56 98
REMARK H PARENT 77 54 47 65
REMARK Flexibility Score: inf
ROOT
ATOM      1  C   UNL     1      10.777  -8.716  -4.753  1.00  0.00     0.188 C 
ENDROOT
BRANCH   1   2
ATOM      2  C   UNL     1       9.547  -8.131  -5.465  1.00  0.00     0.188 C 
BRANCH   2   3
ATOM      3  O   UNL     1       9.358  -6.720  -5.712  1.00  0.00    -0.376 OA
BRANCH   3   4
ATOM      4  C   UNL     1       9.837  -5.647  -4.883  1.00  0.00     0.202 C 
BRANCH   4   5
ATOM      5  C   UNL     1       8.967  -4.597  -3.811  1.00  0.00     0.261 C 
BRANCH   5   6
ATOM      6  O   UNL     1       7.895  -4.872  -2.403  1.00  0.00    -0.460 OA
BRANCH   6   7
ATOM      7  C   UNL     1       6.496  -5.257  -2.034  1.00  0.00     0.350 C 
ATOM      8  O   UNL     1       5.580  -5.580  -2.804  1.00  0.00    -0.247 OA
BRANCH   7   9
ATOM      9  C   UNL     1       5.960  -5.136  -0.596  1.00  0.00     0.209 C 
ATOM     10  C   UNL     1       7.142  -4.902   0.302  1.00  0.00     0.082 C 
ATOM     11  C   UNL     1       4.858  -4.052  -0.716  1.00  0.00     0.082 C 
ATOM     12  C   UNL     1       6.918  -3.883   1.377  1.00  0.00     0.124 C 
ATOM     13  C   UNL     1       5.277  -2.715  -0.162  1.00  0.00     0.124 C 
ATOM     14  N   UNL     1       5.992  -2.793   1.106  1.00  0.00    -0.340 N 
ATOM     15  C   UNL     1       5.913  -1.839   2.118  1.00  0.00     0.251 C 
ATOM     16  O   UNL     1       6.708  -1.866   3.065  1.00  0.00    -0.272 OA
BRANCH   9  17
ATOM     17  O   UNL     1       5.397  -6.465  -0.317  1.00  0.00    -0.475 OA
BRANCH  17  18
ATOM     18  C   UNL     1       4.203  -6.856   0.237  1.00  0.00     0.123 A 
ATOM     19  C   UNL     1       3.975  -5.281   2.281  1.00  0.00     0.048 C 
ATOM     20  C   UNL     1       3.564  -6.422   1.412  1.00  0.00    -0.009 A 
ATOM     21  C   UNL     1       2.461  -7.158   1.928  1.00  0.00     0.007 A 
ATOM     22  C   UNL     1       1.965  -8.290   1.295  1.00  0.00     0.001 A 
ATOM     23  C   UNL     1       3.655  -7.991  -0.402  1.00  0.00     0.047 A 
ATOM     24  C   UNL     1       2.555  -8.698   0.113  1.00  0.00     0.004 A 
ENDBRANCH  17  18
ENDBRANCH   9  17
BRANCH  15  25
ATOM     25  C   UNL     1       4.745  -0.842   2.094  1.00  0.00     0.207 C 
ATOM     26  C   UNL     1       3.530  -1.566   2.698  1.00  0.00     0.042 C 
ATOM     27  O   UNL     1       5.114   0.298   2.875  1.00  0.00    -0.368 OA
ATOM     28  C   UNL     1       2.392  -0.617   3.041  1.00  0.00     0.006 C 
ATOM     29  C   UNL     1       4.056   1.234   3.014  1.00  0.00     0.161 C 
ATOM     30  C   UNL     1       2.916   0.599   3.792  1.00  0.00     0.029 C 
ENDBRANCH  15  25
ENDBRANCH   7   9
ENDBRANCH   6   7
ENDBRANCH   5   6
ENDBRANCH   4   5
ENDBRANCH   3   4
ENDBRANCH   2   3
ENDBRANCH   1   2
BRANCH   1  31
ATOM     31  O   UNL     1      11.179  -7.913  -3.658  1.00  0.00    -0.376 OA
BRANCH  31  32
ATOM     32  C   UNL     1      12.213  -8.428  -2.836  1.00  0.00     0.202 C 
BRANCH  32  33
ATOM     33  C   UNL     1      11.820  -9.630  -1.946  1.00  0.00     0.261 C 
BRANCH  33  34
ATOM     34  O   UNL     1      10.969  -9.298  -0.816  1.00  0.00    -0.460 OA
BRANCH  34  35
ATOM     35  C   UNL     1       9.679  -9.828  -0.756  1.00  0.00     0.338 C 
ATOM     36  O   UNL     1       9.388 -10.717  -0.011  1.00  0.00    -0.246 OA
BRANCH  35  37
ATOM     37  C   UNL     1       8.714  -8.955  -1.516  1.00  0.00     0.060 A 
ATOM     38  C   UNL     1       7.475  -9.230  -2.107  1.00  0.00     0.016 A 
ATOM     39  C   UNL     1       9.161  -7.706  -1.710  1.00  0.00     0.016 A 
ATOM     40  C   UNL     1       6.829  -8.321  -3.072  1.00  0.00     0.010 A 
ATOM     41  C   UNL     1       8.639  -7.006  -2.783  1.00  0.00     0.010 A 
ATOM     42  C   UNL     1       7.432  -7.145  -3.533  1.00  0.00    -0.014 A 
BRANCH  42  43
ATOM     43  C   UNL     1       6.829  -6.038  -4.743  1.00  0.00     0.031 A 
ATOM     44  C   UNL     1       6.331  -4.320  -4.685  1.00  0.00     0.074 A 
ATOM     45  C   UNL     1       6.468  -6.606  -5.913  1.00  0.00     0.049 A 
ATOM     46  N   UNL     1       5.445  -3.724  -5.471  1.00  0.00    -0.248 NA
ATOM     47  C   UNL     1       6.718  -3.235  -3.687  1.00  0.00     0.031 C 
ATOM     48  C   UNL     1       6.075  -5.941  -7.149  1.00  0.00     0.029 A 
ATOM     49  N   UNL     1       6.212  -7.955  -6.149  1.00  0.00    -0.354 N 
ATOM     50  C   UNL     1       5.340  -2.350  -5.129  1.00  0.00     0.074 A 
ATOM     51  C   UNL     1       5.981  -2.178  -3.906  1.00  0.00     0.031 C 
ATOM     52  C   UNL     1       5.380  -6.812  -7.897  1.00  0.00     0.029 A 
ATOM     53  C   UNL     1       5.187  -8.009  -7.098  1.00  0.00     0.049 A 
ATOM     54  H   UNL     1       6.666  -8.722  -5.729  1.00  0.00     0.167 HD
ATOM     55  C   UNL     1       4.845  -1.349  -5.908  1.00  0.00     0.031 A 
ATOM     56  C   UNL     1       3.990  -8.583  -6.794  1.00  0.00     0.031 A 
ATOM     57  C   UNL     1       4.084  -1.946  -6.966  1.00  0.00     0.049 A 
ATOM     58  C   UNL     1       2.822  -7.636  -6.965  1.00  0.00     0.074 A 
ATOM     59  C   UNL     1       4.410  -2.360  -8.240  1.00  0.00     0.029 A 
ATOM     60  N   UNL     1       2.933  -2.618  -6.594  1.00  0.00    -0.354 N 
ATOM     61  N   UNL     1       2.928  -6.338  -7.091  1.00  0.00    -0.248 NA
ATOM     62  C   UNL     1       1.434  -8.084  -7.024  1.00  0.00     0.031 C 
ATOM     63  C   UNL     1       3.523  -3.426  -8.567  1.00  0.00     0.029 A 
ATOM     64  C   UNL     1       2.622  -3.586  -7.526  1.00  0.00     0.049 A 
ATOM     65  H   UNL     1       2.410  -2.433  -5.781  1.00  0.00     0.167 HD
ATOM     66  C   UNL     1       1.681  -5.781  -7.203  1.00  0.00     0.074 A 
ATOM     67  C   UNL     1       0.782  -6.921  -7.190  1.00  0.00     0.031 C 
ATOM     68  C   UNL     1       1.467  -4.435  -7.282  1.00  0.00     0.031 A 
BRANCH  55  69
ATOM     69  C   UNL     1       5.260   0.140  -5.793  1.00  0.00    -0.014 A 
ATOM     70  C   UNL     1       5.116   0.985  -6.911  1.00  0.00     0.010 A 
ATOM     71  C   UNL     1       5.907   0.757  -4.690  1.00  0.00     0.010 A 
ATOM     72  C   UNL     1       5.660   2.295  -6.952  1.00  0.00     0.020 A 
ATOM     73  C   UNL     1       6.481   2.041  -4.720  1.00  0.00     0.020 A 
ATOM     74  C   UNL     1       6.368   2.805  -5.864  1.00  0.00     0.054 A 
BRANCH  74  75
ATOM     75  S   UNL     1       7.162   4.435  -5.946  1.00  0.00     0.124 S 
ATOM     76  O   UNL     1       8.003   4.318  -7.135  1.00  0.00    -0.237 OA
ATOM     77  O   UNL     1       6.020   5.335  -6.063  1.00  0.00    -0.237 OA
ATOM     78  O   UNL     1       7.897   4.530  -4.685  1.00  0.00    -0.744 OA
ENDBRANCH  74  75
ENDBRANCH  55  69
BRANCH  56  79
ATOM     79  C   UNL     1       4.090  -9.766  -5.876  1.00  0.00    -0.014 A 
ATOM     80  C   UNL     1       4.892 -10.848  -6.318  1.00  0.00     0.010 A 
ATOM     81  C   UNL     1       3.741  -9.723  -4.515  1.00  0.00     0.010 A 
ATOM     82  C   UNL     1       5.455 -11.759  -5.420  1.00  0.00     0.020 A 
ATOM     83  C   UNL     1       4.282 -10.665  -3.607  1.00  0.00     0.020 A 
ATOM     84  C   UNL     1       5.182 -11.637  -4.062  1.00  0.00     0.054 A 
BRANCH  84  85
ATOM     85  S   UNL     1       6.176 -12.651  -2.917  1.00  0.00     0.124 S 
ATOM     86  O   UNL     1       5.835 -14.011  -3.320  1.00  0.00    -0.237 OA
ATOM     87  O   UNL     1       7.538 -12.228  -3.244  1.00  0.00    -0.237 OA
ATOM     88  O   UNL     1       5.692 -12.247  -1.600  1.00  0.00    -0.744 OA
ENDBRANCH  84  85
ENDBRANCH  56  79
BRANCH  68  89
ATOM     89  C   UNL     1       0.122  -3.759  -7.142  1.00  0.00    -0.014 A 
ATOM     90  C   UNL     1      -0.964  -4.316  -6.454  1.00  0.00     0.010 A 
ATOM     91  C   UNL     1      -0.021  -2.423  -7.594  1.00  0.00     0.010 A 
ATOM     92  C   UNL     1      -2.166  -3.613  -6.302  1.00  0.00     0.020 A 
ATOM     93  C   UNL     1      -1.191  -1.690  -7.392  1.00  0.00     0.020 A 
ATOM     94  C   UNL     1      -2.274  -2.307  -6.780  1.00  0.00     0.054 A 
BRANCH  94  95
ATOM     95  S   UNL     1      -3.814  -1.384  -6.564  1.00  0.00     0.124 S 
ATOM     96  O   UNL     1      -4.485  -1.623  -7.840  1.00  0.00    -0.237 OA
ATOM     97  O   UNL     1      -4.430  -2.026  -5.405  1.00  0.00    -0.237 OA
ATOM     98  O   UNL     1      -3.357  -0.016  -6.340  1.00  0.00    -0.744 OA
ENDBRANCH  94  95
ENDBRANCH  68  89
ENDBRANCH  42  43
ENDBRANCH  35  37
ENDBRANCH  34  35
ENDBRANCH  33  34
ENDBRANCH  32  33
ENDBRANCH  31  32
ENDBRANCH   1  31
TORSDOF 23
