REMARK SMILES Cn1ccc(C(=O)NCc2ccc(C(=O)OCCOCCOCCOC(=O)c3ccc(-c4c5nc(c(-c6ccc(S(=O)(=O)[O-])cc6)c6ccc([nH]6)c(-c6ccc(S(=O)(=O)[O-])cc6)c6nc(c(-c7ccc(S(=O)(=O)[O-])cc7)c7ccc4[nH]7)C=C6)C=C5)cc3)cc2)cc1=O
REMARK SMILES IDX 20 1 19 2 18 3 17 4 16 5 14 6 15 7 13 8 10 9 11 10 89 11
REMARK SMILES IDX 12 12 88 13 9 14 8 15 6 16 7 17 5 19 1 20 2 21 3 22 91 23
REMARK SMILES IDX 4 24 90 25 92 26 21 27 22 28 23 29 24 30 25 31 26 32 27 33
REMARK SMILES IDX 28 34 29 35 87 36 30 37 86 38 31 39 32 40 33 41 80 42 34 43
REMARK SMILES IDX 85 44 79 45 81 46 35 47 84 48 78 49 77 50 36 52 66 53 47 54
REMARK SMILES IDX 65 55 48 56 51 57 64 58 82 59 49 60 50 61 63 63 83 64 52 65
REMARK SMILES IDX 37 66 38 67 46 68 39 69 45 70 40 71 41 72 42 73 43 74 44 75
REMARK SMILES IDX 67 76 68 77 76 78 69 79 75 80 70 81 71 82 72 83 73 84 74 85
REMARK SMILES IDX 53 86 54 87 62 88 55 89 61 90 56 91 57 92 58 93 59 94 60 95
REMARK H PARENT 8 18 81 51 51 62
REMARK Flexibility Score: inf
ROOT
ATOM      1  C   UNL     1       1.701   9.305   4.208  1.00  0.00     0.188 C 
ENDROOT
BRANCH   1   2
ATOM      2  O   UNL     1       1.754   9.874   5.497  1.00  0.00    -0.376 OA
BRANCH   2   3
ATOM      3  C   UNL     1       2.130   9.103   6.624  1.00  0.00     0.202 C 
BRANCH   3   4
ATOM      4  C   UNL     1       2.023   7.572   6.722  1.00  0.00     0.261 C 
BRANCH   4   5
ATOM      5  O   UNL     1       2.217   6.835   5.513  1.00  0.00    -0.460 OA
BRANCH   5   6
ATOM      6  C   UNL     1       1.118   6.162   5.070  1.00  0.00     0.338 C 
ATOM      7  O   UNL     1       0.033   6.111   5.600  1.00  0.00    -0.246 OA
BRANCH   6   8
ATOM      8  C   UNL     1       1.388   5.619   3.717  1.00  0.00     0.060 A 
ATOM      9  C   UNL     1       1.818   4.633   1.118  1.00  0.00    -0.029 A 
ATOM     10  C   UNL     1       0.623   5.292   1.440  1.00  0.00     0.006 A 
ATOM     11  C   UNL     1       2.812   4.521   2.109  1.00  0.00     0.006 A 
ATOM     12  C   UNL     1       0.402   5.770   2.736  1.00  0.00     0.016 A 
ATOM     13  C   UNL     1       2.600   5.006   3.402  1.00  0.00     0.016 A 
BRANCH   9  14
ATOM     14  C   UNL     1       2.026   4.108  -0.287  1.00  0.00     0.152 C 
BRANCH  14  15
ATOM     15  N   UNL     1       2.994   3.030  -0.330  1.00  0.00    -0.348 N 
ATOM     16  C   UNL     1       2.935   1.691  -0.137  1.00  0.00     0.251 C 
ATOM     17  O   UNL     1       4.024   1.103  -0.119  1.00  0.00    -0.269 OA
ATOM     18  H   UNL     1       3.901   3.342  -0.550  1.00  0.00     0.164 HD
BRANCH  16  19
ATOM     19  C   UNL     1       1.669   0.887  -0.017  1.00  0.00     0.046 A 
ATOM     20  C   UNL     1      -1.665  -1.766   0.019  1.00  0.00     0.153 C 
ATOM     21  N   UNL     1      -0.532  -0.854   0.048  1.00  0.00    -0.319 N 
ATOM     22  C   UNL     1       0.731  -1.359  -0.175  1.00  0.00     0.089 A 
ATOM     23  C   UNL     1      -0.747   0.494   0.307  1.00  0.00     0.251 A 
ATOM     24  C   UNL     1       1.796  -0.554  -0.211  1.00  0.00     0.032 A 
ATOM     25  C   UNL     1       0.458   1.371   0.297  1.00  0.00     0.085 A 
ATOM     26  O   UNL     1      -1.844   1.000   0.527  1.00  0.00    -0.269 OA
ENDBRANCH  16  19
ENDBRANCH  14  15
ENDBRANCH   9  14
ENDBRANCH   6   8
ENDBRANCH   5   6
ENDBRANCH   4   5
ENDBRANCH   3   4
ENDBRANCH   2   3
ENDBRANCH   1   2
BRANCH   1  27
ATOM     27  C   UNL     1       3.012   8.887   3.511  1.00  0.00     0.188 C 
BRANCH  27  28
ATOM     28  O   UNL     1       4.243   8.946   4.199  1.00  0.00    -0.376 OA
BRANCH  28  29
ATOM     29  C   UNL     1       4.734  10.184   4.682  1.00  0.00     0.202 C 
BRANCH  29  30
ATOM     30  C   UNL     1       4.498  11.541   3.997  1.00  0.00     0.261 C 
BRANCH  30  31
ATOM     31  O   UNL     1       3.248  11.730   3.330  1.00  0.00    -0.460 OA
BRANCH  31  32
ATOM     32  C   UNL     1       3.319  11.774   1.976  1.00  0.00     0.338 C 
ATOM     33  O   UNL     1       4.314  11.643   1.284  1.00  0.00    -0.246 OA
BRANCH  32  34
ATOM     34  C   UNL     1       1.954  11.835   1.424  1.00  0.00     0.060 A 
ATOM     35  C   UNL     1       1.479  10.741   0.689  1.00  0.00     0.016 A 
ATOM     36  C   UNL     1       1.172  12.978   1.587  1.00  0.00     0.016 A 
ATOM     37  C   UNL     1       0.216  10.793   0.100  1.00  0.00     0.010 A 
ATOM     38  C   UNL     1      -0.084  13.037   0.977  1.00  0.00     0.010 A 
ATOM     39  C   UNL     1      -0.557  11.956   0.211  1.00  0.00    -0.014 A 
BRANCH  39  40
ATOM     40  C   UNL     1      -1.791  12.103  -0.598  1.00  0.00     0.031 A 
ATOM     41  C   UNL     1      -1.722  12.883  -1.883  1.00  0.00     0.074 A 
ATOM     42  C   UNL     1      -2.954  11.556  -0.198  1.00  0.00     0.049 A 
ATOM     43  N   UNL     1      -2.684  13.200  -2.710  1.00  0.00    -0.248 NA
ATOM     44  C   UNL     1      -0.393  13.374  -2.287  1.00  0.00     0.031 C 
ATOM     45  C   UNL     1      -3.139  10.747   1.007  1.00  0.00     0.029 A 
ATOM     46  N   UNL     1      -4.205  11.615  -0.759  1.00  0.00    -0.354 N 
ATOM     47  C   UNL     1      -2.083  13.942  -3.720  1.00  0.00     0.074 A 
ATOM     48  C   UNL     1      -0.677  14.040  -3.397  1.00  0.00     0.031 C 
ATOM     49  C   UNL     1      -4.436  10.404   1.105  1.00  0.00     0.029 A 
ATOM     50  C   UNL     1      -5.177  10.999  -0.006  1.00  0.00     0.049 A 
ATOM     51  H   UNL     1      -4.389  12.057  -1.620  1.00  0.00     0.167 HD
ATOM     52  C   UNL     1      -2.653  14.495  -4.816  1.00  0.00     0.031 A 
ATOM     53  C   UNL     1      -6.514  10.951  -0.176  1.00  0.00     0.031 A 
ATOM     54  C   UNL     1      -4.053  14.399  -5.132  1.00  0.00     0.049 A 
ATOM     55  C   UNL     1      -7.132  11.629  -1.374  1.00  0.00     0.074 A 
ATOM     56  C   UNL     1      -4.717  14.897  -6.240  1.00  0.00     0.029 A 
ATOM     57  N   UNL     1      -5.006  13.779  -4.340  1.00  0.00    -0.354 N 
ATOM     58  N   UNL     1      -6.544  12.288  -2.345  1.00  0.00    -0.248 NA
ATOM     59  C   UNL     1      -8.595  11.551  -1.503  1.00  0.00     0.031 C 
ATOM     60  C   UNL     1      -6.081  14.634  -6.085  1.00  0.00     0.029 A 
ATOM     61  C   UNL     1      -6.257  13.911  -4.917  1.00  0.00     0.049 A 
ATOM     62  H   UNL     1      -4.820  13.313  -3.492  1.00  0.00     0.167 HD
ATOM     63  C   UNL     1      -7.562  12.674  -3.213  1.00  0.00     0.074 A 
ATOM     64  C   UNL     1      -8.799  12.162  -2.662  1.00  0.00     0.031 C 
ATOM     65  C   UNL     1      -7.480  13.388  -4.363  1.00  0.00     0.031 A 
BRANCH  52  66
ATOM     66  C   UNL     1      -1.774  15.288  -5.745  1.00  0.00    -0.014 A 
ATOM     67  C   UNL     1      -0.844  14.658  -6.589  1.00  0.00     0.010 A 
ATOM     68  C   UNL     1      -1.942  16.683  -5.828  1.00  0.00     0.010 A 
ATOM     69  C   UNL     1      -0.086  15.411  -7.491  1.00  0.00     0.020 A 
ATOM     70  C   UNL     1      -1.205  17.436  -6.746  1.00  0.00     0.020 A 
ATOM     71  C   UNL     1      -0.276  16.795  -7.567  1.00  0.00     0.054 A 
BRANCH  71  72
ATOM     72  S   UNL     1       0.677  17.736  -8.789  1.00  0.00     0.124 S 
ATOM     73  O   UNL     1       2.023  17.692  -8.222  1.00  0.00    -0.237 OA
ATOM     74  O   UNL     1       0.484  16.959 -10.011  1.00  0.00    -0.237 OA
ATOM     75  O   UNL     1       0.044  19.053  -8.785  1.00  0.00    -0.744 OA
ENDBRANCH  71  72
ENDBRANCH  52  66
BRANCH  53  76
ATOM     76  C   UNL     1      -7.376  10.277   0.837  1.00  0.00    -0.014 A 
ATOM     77  C   UNL     1      -8.097   9.114   0.515  1.00  0.00     0.010 A 
ATOM     78  C   UNL     1      -7.510  10.826   2.126  1.00  0.00     0.010 A 
ATOM     79  C   UNL     1      -8.961   8.533   1.450  1.00  0.00     0.020 A 
ATOM     80  C   UNL     1      -8.347  10.231   3.073  1.00  0.00     0.020 A 
ATOM     81  C   UNL     1      -9.082   9.098   2.723  1.00  0.00     0.054 A 
BRANCH  81  82
ATOM     82  S   UNL     1     -10.197   8.321   3.925  1.00  0.00     0.124 S 
ATOM     83  O   UNL     1     -11.509   8.686   3.402  1.00  0.00    -0.237 OA
ATOM     84  O   UNL     1      -9.843   6.908   3.817  1.00  0.00    -0.237 OA
ATOM     85  O   UNL     1      -9.829   8.953   5.190  1.00  0.00    -0.744 OA
ENDBRANCH  81  82
ENDBRANCH  53  76
BRANCH  65  86
ATOM     86  C   UNL     1      -8.753  13.622  -5.137  1.00  0.00    -0.014 A 
ATOM     87  C   UNL     1      -9.742  14.507  -4.673  1.00  0.00     0.010 A 
ATOM     88  C   UNL     1      -8.927  12.995  -6.385  1.00  0.00     0.010 A 
ATOM     89  C   UNL     1     -10.895  14.737  -5.429  1.00  0.00     0.020 A 
ATOM     90  C   UNL     1     -10.064  13.246  -7.157  1.00  0.00     0.020 A 
ATOM     91  C   UNL     1     -11.048  14.106  -6.667  1.00  0.00     0.054 A 
BRANCH  91  92
ATOM     92  S   UNL     1     -12.532  14.457  -7.650  1.00  0.00     0.124 S 
ATOM     93  O   UNL     1     -13.566  13.743  -6.907  1.00  0.00    -0.237 OA
ATOM     94  O   UNL     1     -12.613  15.915  -7.598  1.00  0.00    -0.237 OA
ATOM     95  O   UNL     1     -12.217  13.904  -8.965  1.00  0.00    -0.744 OA
ENDBRANCH  91  92
ENDBRANCH  65  86
ENDBRANCH  39  40
ENDBRANCH  32  34
ENDBRANCH  31  32
ENDBRANCH  30  31
ENDBRANCH  29  30
ENDBRANCH  28  29
ENDBRANCH  27  28
ENDBRANCH   1  27
TORSDOF 23
