REMARK SMILES COc1ccc(/C=C(\CCC(=O)OCCOCCOCCOC(=O)c2ccc(-c3c4nc(c(-c5ccc(S(=O)(=O)[O-])cc5)c5ccc([nH]5)c(-c5ccc(S(=O)(=O)[O-])cc5)c5nc(c(-c6ccc(S(=O)(=O)[O-])cc6)c6ccc3[nH]6)C=C5)C=C4)cc2)c2nc3ccccc3s2)cc1F
REMARK SMILES IDX 17 1 16 2 15 3 14 4 13 5 11 6 12 7 10 8 9 9 8 10 7 11 6 12
REMARK SMILES IDX 3 13 4 14 95 15 5 16 94 17 96 18 2 19 1 20 85 21 86 22 93 23
REMARK SMILES IDX 87 24 92 25 88 26 91 27 89 28 90 29 18 30 19 31 20 32 21 33
REMARK SMILES IDX 22 34 23 35 24 36 25 37 26 38 84 39 27 40 83 41 28 42 29 43
REMARK SMILES IDX 30 44 77 45 31 46 82 47 76 48 78 49 32 50 81 51 75 52 74 53
REMARK SMILES IDX 33 55 63 56 44 57 62 58 45 59 48 60 61 61 79 62 46 63 47 64
REMARK SMILES IDX 60 66 80 67 49 68 34 69 35 70 43 71 36 72 42 73 37 74 38 75
REMARK SMILES IDX 39 76 40 77 41 78 64 79 65 80 73 81 66 82 72 83 67 84 68 85
REMARK SMILES IDX 69 86 70 87 71 88 50 89 51 90 59 91 52 92 58 93 53 94 54 95
REMARK SMILES IDX 55 96 56 97 57 98
REMARK H PARENT 78 54 48 65
REMARK Flexibility Score: inf
ROOT
ATOM      1  C   UNL     1      -2.099  -4.111   9.097  1.00  0.00     0.188 C 
ENDROOT
BRANCH   1   2
ATOM      2  O   UNL     1      -2.567  -5.285   9.752  1.00  0.00    -0.376 OA
BRANCH   2   3
ATOM      3  C   UNL     1      -1.624  -6.352   9.686  1.00  0.00     0.202 C 
BRANCH   3   4
ATOM      4  C   UNL     1      -1.664  -7.116   8.352  1.00  0.00     0.261 C 
BRANCH   4   5
ATOM      5  O   UNL     1      -0.969  -6.412   7.303  1.00  0.00    -0.463 OA
BRANCH   5   6
ATOM      6  C   UNL     1      -1.714  -5.723   6.410  1.00  0.00     0.306 C 
ATOM      7  O   UNL     1      -2.936  -5.742   6.352  1.00  0.00    -0.252 OA
BRANCH   6   8
ATOM      8  C   UNL     1      -0.855  -4.896   5.481  1.00  0.00     0.127 C 
BRANCH   8   9
ATOM      9  C   UNL     1      -0.201  -3.642   6.077  1.00  0.00     0.050 C 
BRANCH   9  10
ATOM     10  C   UNL     1       1.294  -3.605   6.470  1.00  0.00    -0.011 C 
ATOM     11  C   UNL     1       2.148  -2.741   5.852  1.00  0.00     0.015 C 
BRANCH  11  12
ATOM     12  C   UNL     1       1.876  -1.766   4.775  1.00  0.00    -0.022 A 
ATOM     13  C   UNL     1       1.334  -0.116   2.556  1.00  0.00     0.154 A 
ATOM     14  C   UNL     1       0.487  -0.103   3.660  1.00  0.00     0.050 A 
ATOM     15  C   UNL     1       2.513  -0.858   2.622  1.00  0.00     0.165 A 
ATOM     16  C   UNL     1       0.778  -0.893   4.778  1.00  0.00     0.012 A 
ATOM     17  C   UNL     1       2.782  -1.682   3.714  1.00  0.00     0.051 A 
ATOM     18  F   UNL     1       3.422  -0.802   1.637  1.00  0.00    -0.203 F 
BRANCH  13  19
ATOM     19  O   UNL     1       0.946   0.655   1.494  1.00  0.00    -0.494 OA
ATOM     20  C   UNL     1       1.187   0.049   0.225  1.00  0.00     0.278 C 
ENDBRANCH  13  19
ENDBRANCH  11  12
BRANCH  10  21
ATOM     21  C   UNL     1       1.843  -4.383   7.584  1.00  0.00     0.120 A 
ATOM     22  N   UNL     1       1.524  -5.622   7.910  1.00  0.00    -0.236 NA
ATOM     23  S   UNL     1       3.007  -3.691   8.697  1.00  0.00    -0.114 S 
ATOM     24  C   UNL     1       2.009  -5.967   9.169  1.00  0.00     0.082 A 
ATOM     25  C   UNL     1       2.826  -5.018   9.771  1.00  0.00     0.055 A 
ATOM     26  C   UNL     1       1.694  -7.136   9.901  1.00  0.00     0.030 A 
ATOM     27  C   UNL     1       3.333  -5.187  11.075  1.00  0.00     0.021 A 
ATOM     28  C   UNL     1       2.099  -7.264  11.236  1.00  0.00     0.002 A 
ATOM     29  C   UNL     1       2.911  -6.297  11.814  1.00  0.00     0.002 A 
ENDBRANCH  10  21
ENDBRANCH   9  10
ENDBRANCH   8   9
ENDBRANCH   6   8
ENDBRANCH   5   6
ENDBRANCH   4   5
ENDBRANCH   3   4
ENDBRANCH   2   3
ENDBRANCH   1   2
BRANCH   1  30
ATOM     30  C   UNL     1      -1.536  -3.096  10.069  1.00  0.00     0.188 C 
BRANCH  30  31
ATOM     31  O   UNL     1      -0.124  -3.205  10.258  1.00  0.00    -0.376 OA
BRANCH  31  32
ATOM     32  C   UNL     1       0.284  -3.234  11.625  1.00  0.00     0.202 C 
BRANCH  32  33
ATOM     33  C   UNL     1       0.082  -1.958  12.461  1.00  0.00     0.261 C 
BRANCH  33  34
ATOM     34  O   UNL     1      -1.257  -1.448  12.395  1.00  0.00    -0.460 OA
BRANCH  34  35
ATOM     35  C   UNL     1      -1.429  -0.414  11.532  1.00  0.00     0.338 C 
ATOM     36  O   UNL     1      -0.547   0.234  10.988  1.00  0.00    -0.246 OA
BRANCH  35  37
ATOM     37  C   UNL     1      -2.855  -0.339  11.131  1.00  0.00     0.060 A 
ATOM     38  C   UNL     1      -3.130  -0.009   9.795  1.00  0.00     0.016 A 
ATOM     39  C   UNL     1      -3.900  -0.657  12.004  1.00  0.00     0.016 A 
ATOM     40  C   UNL     1      -4.444   0.055   9.342  1.00  0.00     0.010 A 
ATOM     41  C   UNL     1      -5.222  -0.570  11.556  1.00  0.00     0.010 A 
ATOM     42  C   UNL     1      -5.496  -0.168  10.237  1.00  0.00    -0.014 A 
BRANCH  42  43
ATOM     43  C   UNL     1      -6.851   0.285   9.849  1.00  0.00     0.031 A 
ATOM     44  C   UNL     1      -7.263   1.673  10.267  1.00  0.00     0.074 A 
ATOM     45  C   UNL     1      -7.653  -0.470   9.078  1.00  0.00     0.049 A 
ATOM     46  N   UNL     1      -8.353   2.335   9.985  1.00  0.00    -0.248 NA
ATOM     47  C   UNL     1      -6.311   2.416  11.113  1.00  0.00     0.031 C 
ATOM     48  C   UNL     1      -7.337  -1.806   8.574  1.00  0.00     0.029 A 
ATOM     49  N   UNL     1      -8.899  -0.204   8.569  1.00  0.00    -0.354 N 
ATOM     50  C   UNL     1      -8.221   3.564  10.622  1.00  0.00     0.074 A 
ATOM     51  C   UNL     1      -6.961   3.549  11.328  1.00  0.00     0.031 C 
ATOM     52  C   UNL     1      -8.363  -2.240   7.818  1.00  0.00     0.029 A 
ATOM     53  C   UNL     1      -9.413  -1.224   7.803  1.00  0.00     0.049 A 
ATOM     54  H   UNL     1      -9.380   0.638   8.737  1.00  0.00     0.167 HD
ATOM     55  C   UNL     1      -9.072   4.615  10.615  1.00  0.00     0.031 A 
ATOM     56  C   UNL     1     -10.599  -1.320   7.169  1.00  0.00     0.031 A 
ATOM     57  C   UNL     1     -10.328   4.622   9.916  1.00  0.00     0.049 A 
ATOM     58  C   UNL     1     -11.555  -0.153   7.232  1.00  0.00     0.074 A 
ATOM     59  C   UNL     1     -11.254   5.645   9.822  1.00  0.00     0.029 A 
ATOM     60  N   UNL     1     -10.838   3.550   9.200  1.00  0.00    -0.354 N 
ATOM     61  N   UNL     1     -11.397   1.019   7.802  1.00  0.00    -0.248 NA
ATOM     62  C   UNL     1     -12.847  -0.322   6.551  1.00  0.00     0.031 C 
ATOM     63  C   UNL     1     -12.356   5.168   9.107  1.00  0.00     0.029 A 
ATOM     64  C   UNL     1     -12.085   3.873   8.693  1.00  0.00     0.049 A 
ATOM     65  H   UNL     1     -10.382   2.687   9.071  1.00  0.00     0.167 HD
ATOM     66  C   UNL     1     -12.556   1.738   7.519  1.00  0.00     0.074 A 
ATOM     67  C   UNL     1     -13.391   0.876   6.707  1.00  0.00     0.031 C 
ATOM     68  C   UNL     1     -12.902   2.996   7.894  1.00  0.00     0.031 A 
BRANCH  55  69
ATOM     69  C   UNL     1      -8.694   5.827  11.424  1.00  0.00    -0.014 A 
ATOM     70  C   UNL     1      -7.651   6.683  11.026  1.00  0.00     0.010 A 
ATOM     71  C   UNL     1      -9.433   6.140  12.579  1.00  0.00     0.010 A 
ATOM     72  C   UNL     1      -7.342   7.818  11.781  1.00  0.00     0.020 A 
ATOM     73  C   UNL     1      -9.145   7.288  13.321  1.00  0.00     0.020 A 
ATOM     74  C   UNL     1      -8.094   8.115  12.922  1.00  0.00     0.054 A 
BRANCH  74  75
ATOM     75  S   UNL     1      -7.707   9.623  13.852  1.00  0.00     0.124 S 
ATOM     76  O   UNL     1      -6.429   9.278  14.470  1.00  0.00    -0.237 OA
ATOM     77  O   UNL     1      -7.643  10.637  12.803  1.00  0.00    -0.237 OA
ATOM     78  O   UNL     1      -8.829   9.759  14.778  1.00  0.00    -0.744 OA
ENDBRANCH  74  75
ENDBRANCH  55  69
BRANCH  56  79
ATOM     79  C   UNL     1     -10.966  -2.559   6.425  1.00  0.00    -0.014 A 
ATOM     80  C   UNL     1     -11.143  -2.539   5.030  1.00  0.00     0.010 A 
ATOM     81  C   UNL     1     -11.189  -3.762   7.120  1.00  0.00     0.010 A 
ATOM     82  C   UNL     1     -11.573  -3.684   4.350  1.00  0.00     0.020 A 
ATOM     83  C   UNL     1     -11.587  -4.918   6.441  1.00  0.00     0.020 A 
ATOM     84  C   UNL     1     -11.796  -4.866   5.061  1.00  0.00     0.054 A 
BRANCH  84  85
ATOM     85  S   UNL     1     -12.343  -6.342   4.159  1.00  0.00     0.124 S 
ATOM     86  O   UNL     1     -13.727  -6.007   3.839  1.00  0.00    -0.237 OA
ATOM     87  O   UNL     1     -11.423  -6.380   3.026  1.00  0.00    -0.237 OA
ATOM     88  O   UNL     1     -12.169  -7.421   5.130  1.00  0.00    -0.744 OA
ENDBRANCH  84  85
ENDBRANCH  56  79
BRANCH  68  89
ATOM     89  C   UNL     1     -14.224   3.522   7.397  1.00  0.00    -0.014 A 
ATOM     90  C   UNL     1     -15.444   2.995   7.858  1.00  0.00     0.010 A 
ATOM     91  C   UNL     1     -14.244   4.571   6.459  1.00  0.00     0.010 A 
ATOM     92  C   UNL     1     -16.655   3.460   7.341  1.00  0.00     0.020 A 
ATOM     93  C   UNL     1     -15.454   5.065   5.967  1.00  0.00     0.020 A 
ATOM     94  C   UNL     1     -16.651   4.487   6.391  1.00  0.00     0.054 A 
BRANCH  94  95
ATOM     95  S   UNL     1     -18.235   5.067   5.725  1.00  0.00     0.124 S 
ATOM     96  O   UNL     1     -18.607   3.974   4.832  1.00  0.00    -0.237 OA
ATOM     97  O   UNL     1     -19.057   5.207   6.925  1.00  0.00    -0.237 OA
ATOM     98  O   UNL     1     -17.892   6.324   5.063  1.00  0.00    -0.744 OA
ENDBRANCH  94  95
ENDBRANCH  68  89
ENDBRANCH  42  43
ENDBRANCH  35  37
ENDBRANCH  34  35
ENDBRANCH  33  34
ENDBRANCH  32  33
ENDBRANCH  31  32
ENDBRANCH  30  31
ENDBRANCH   1  30
TORSDOF 25
