REMARK SMILES CN1C(=O)Cc2cc([C@@H](O)CCCCC(=O)OCCOCCOCCOC(=O)c3ccc(-c4c5nc(c(-c6ccc(S(=O)(=O)[O-])cc6)c6ccc([nH]6)c(-c6ccc(S(=O)(=O)[O-])cc6)c6nc(c(-c7ccc(S(=O)(=O)[O-])cc7)c7ccc4[nH]7)C=C6)C=C5)cc3)ccc21
REMARK SMILES IDX 21 1 20 2 19 3 18 4 17 5 15 6 16 7 14 8 13 9 12 10 11 11
REMARK SMILES IDX 9 12 8 13 1 14 2 15 3 16 91 17 4 18 5 19 6 20 90 21 7 22
REMARK SMILES IDX 89 23 10 24 22 26 23 27 24 28 25 29 26 30 27 31 28 32 29 33
REMARK SMILES IDX 30 34 88 35 31 36 87 37 32 38 33 39 34 40 81 41 35 42 86 43
REMARK SMILES IDX 80 44 82 45 36 46 85 47 79 48 78 49 37 51 67 52 48 53 66 54
REMARK SMILES IDX 49 55 52 56 65 57 83 58 50 59 51 60 64 62 84 63 53 64 38 65
REMARK SMILES IDX 39 66 47 67 40 68 46 69 41 70 42 71 43 72 44 73 45 74 68 75
REMARK SMILES IDX 69 76 77 77 70 78 76 79 71 80 72 81 73 82 74 83 75 84 54 85
REMARK SMILES IDX 55 86 63 87 56 88 62 89 57 90 58 91 59 92 60 93 61 94
REMARK H PARENT 10 25 82 50 52 61
REMARK Flexibility Score: inf
ROOT
ATOM      1  C   UNL     1       7.530   0.548   5.805  1.00  0.00     0.188 C 
ENDROOT
BRANCH   1   2
ATOM      2  O   UNL     1       8.052   1.736   6.392  1.00  0.00    -0.376 OA
BRANCH   2   3
ATOM      3  C   UNL     1       7.328   2.942   6.150  1.00  0.00     0.202 C 
BRANCH   3   4
ATOM      4  C   UNL     1       7.247   3.402   4.688  1.00  0.00     0.261 C 
BRANCH   4   5
ATOM      5  O   UNL     1       6.717   2.391   3.810  1.00  0.00    -0.463 OA
BRANCH   5   6
ATOM      6  C   UNL     1       7.456   2.106   2.706  1.00  0.00     0.305 C 
ATOM      7  O   UNL     1       8.439   2.740   2.340  1.00  0.00    -0.252 OA
BRANCH   6   8
ATOM      8  C   UNL     1       7.013   0.841   1.994  1.00  0.00     0.123 C 
BRANCH   8   9
ATOM      9  C   UNL     1       5.619   0.280   2.280  1.00  0.00     0.012 C 
BRANCH   9  10
ATOM     10  C   UNL     1       4.455   1.262   2.142  1.00  0.00     0.004 C 
BRANCH  10  11
ATOM     11  C   UNL     1       4.434   2.051   0.831  1.00  0.00     0.037 C 
BRANCH  11  12
ATOM     12  C   UNL     1       4.128   1.199  -0.408  1.00  0.00     0.144 C 
BRANCH  12  13
ATOM     13  C   UNL     1       2.730   0.616  -0.376  1.00  0.00    -0.019 A 
ATOM     14  C   UNL     1      -1.720  -2.085   0.051  1.00  0.00     0.153 C 
ATOM     15  N   UNL     1      -1.179  -0.755  -0.032  1.00  0.00    -0.315 N 
ATOM     16  C   UNL     1      -1.942   0.415  -0.002  1.00  0.00     0.231 C 
ATOM     17  C   UNL     1       0.184  -0.468  -0.152  1.00  0.00     0.047 A 
ATOM     18  O   UNL     1      -3.157   0.507   0.090  1.00  0.00    -0.274 OA
ATOM     19  C   UNL     1      -0.971   1.594  -0.106  1.00  0.00     0.138 C 
ATOM     20  C   UNL     1       0.355   0.911  -0.219  1.00  0.00    -0.014 A 
ATOM     21  C   UNL     1       1.258  -1.335  -0.200  1.00  0.00     0.027 A 
ATOM     22  C   UNL     1       1.613   1.470  -0.346  1.00  0.00     0.012 A 
ATOM     23  C   UNL     1       2.540  -0.783  -0.310  1.00  0.00     0.008 A 
ENDBRANCH  12  13
BRANCH  12  24
ATOM     24  O   UNL     1       4.256   2.029  -1.563  1.00  0.00    -0.388 OA
ATOM     25  H   UNL     1       3.618   2.757  -1.511  1.00  0.00     0.211 HD
ENDBRANCH  12  24
ENDBRANCH  11  12
ENDBRANCH  10  11
ENDBRANCH   9  10
ENDBRANCH   8   9
ENDBRANCH   6   8
ENDBRANCH   5   6
ENDBRANCH   4   5
ENDBRANCH   3   4
ENDBRANCH   2   3
ENDBRANCH   1   2
BRANCH   1  26
ATOM     26  C   UNL     1       6.116   0.153   6.233  1.00  0.00     0.188 C 
BRANCH  26  27
ATOM     27  O   UNL     1       5.131   1.177   6.177  1.00  0.00    -0.376 OA
BRANCH  27  28
ATOM     28  C   UNL     1       3.818   0.803   6.611  1.00  0.00     0.202 C 
BRANCH  28  29
ATOM     29  C   UNL     1       3.708   0.120   7.992  1.00  0.00     0.261 C 
BRANCH  29  30
ATOM     30  O   UNL     1       4.407  -1.137   8.133  1.00  0.00    -0.460 OA
BRANCH  30  31
ATOM     31  C   UNL     1       4.193  -2.093   7.198  1.00  0.00     0.338 C 
ATOM     32  O   UNL     1       3.286  -2.111   6.382  1.00  0.00    -0.246 OA
BRANCH  31  33
ATOM     33  C   UNL     1       5.394  -2.975   7.132  1.00  0.00     0.060 A 
ATOM     34  C   UNL     1       5.822  -3.416   5.870  1.00  0.00     0.016 A 
ATOM     35  C   UNL     1       6.141  -3.307   8.267  1.00  0.00     0.016 A 
ATOM     36  C   UNL     1       6.959  -4.222   5.746  1.00  0.00     0.010 A 
ATOM     37  C   UNL     1       7.273  -4.125   8.143  1.00  0.00     0.010 A 
ATOM     38  C   UNL     1       7.668  -4.619   6.887  1.00  0.00    -0.014 A 
BRANCH  38  39
ATOM     39  C   UNL     1       8.678  -5.708   6.794  1.00  0.00     0.031 A 
ATOM     40  C   UNL     1       8.246  -7.107   7.156  1.00  0.00     0.074 A 
ATOM     41  C   UNL     1       9.942  -5.491   6.384  1.00  0.00     0.049 A 
ATOM     42  N   UNL     1       8.946  -8.211   7.192  1.00  0.00    -0.248 NA
ATOM     43  C   UNL     1       6.832  -7.279   7.528  1.00  0.00     0.031 C 
ATOM     44  C   UNL     1      10.489  -4.205   5.958  1.00  0.00     0.029 A 
ATOM     45  N   UNL     1      11.001  -6.361   6.268  1.00  0.00    -0.354 N 
ATOM     46  C   UNL     1       8.064  -9.204   7.603  1.00  0.00     0.074 A 
ATOM     47  C   UNL     1       6.785  -8.568   7.828  1.00  0.00     0.031 C 
ATOM     48  C   UNL     1      11.786  -4.368   5.638  1.00  0.00     0.029 A 
ATOM     49  C   UNL     1      12.172  -5.761   5.868  1.00  0.00     0.049 A 
ATOM     50  H   UNL     1      10.927  -7.325   6.453  1.00  0.00     0.167 HD
ATOM     51  C   UNL     1       8.291 -10.528   7.777  1.00  0.00     0.031 A 
ATOM     52  C   UNL     1      13.416  -6.266   5.727  1.00  0.00     0.031 A 
ATOM     53  C   UNL     1       9.562 -11.168   7.570  1.00  0.00     0.049 A 
ATOM     54  C   UNL     1      13.665  -7.731   6.000  1.00  0.00     0.074 A 
ATOM     55  C   UNL     1       9.879 -12.508   7.704  1.00  0.00     0.029 A 
ATOM     56  N   UNL     1      10.728 -10.516   7.200  1.00  0.00    -0.354 N 
ATOM     57  N   UNL     1      12.813  -8.662   6.359  1.00  0.00    -0.248 NA
ATOM     58  C   UNL     1      15.046  -8.213   5.842  1.00  0.00     0.031 C 
ATOM     59  C   UNL     1      11.251 -12.657   7.478  1.00  0.00     0.029 A 
ATOM     60  C   UNL     1      11.774 -11.421   7.133  1.00  0.00     0.049 A 
ATOM     61  H   UNL     1      10.801  -9.552   7.013  1.00  0.00     0.167 HD
ATOM     62  C   UNL     1      13.549  -9.842   6.438  1.00  0.00     0.074 A 
ATOM     63  C   UNL     1      14.911  -9.511   6.080  1.00  0.00     0.031 C 
ATOM     64  C   UNL     1      13.130 -11.088   6.773  1.00  0.00     0.031 A 
BRANCH  51  65
ATOM     65  C   UNL     1       7.139 -11.370   8.260  1.00  0.00    -0.014 A 
ATOM     66  C   UNL     1       6.041 -11.655   7.429  1.00  0.00     0.010 A 
ATOM     67  C   UNL     1       7.173 -11.907   9.559  1.00  0.00     0.010 A 
ATOM     68  C   UNL     1       4.978 -12.427   7.905  1.00  0.00     0.020 A 
ATOM     69  C   UNL     1       6.127 -12.705  10.028  1.00  0.00     0.020 A 
ATOM     70  C   UNL     1       5.027 -12.944   9.203  1.00  0.00     0.054 A 
BRANCH  70  71
ATOM     71  S   UNL     1       3.640 -13.955   9.789  1.00  0.00     0.124 S 
ATOM     72  O   UNL     1       2.591 -12.953   9.965  1.00  0.00    -0.237 OA
ATOM     73  O   UNL     1       3.436 -14.889   8.685  1.00  0.00    -0.237 OA
ATOM     74  O   UNL     1       4.142 -14.553  11.024  1.00  0.00    -0.744 OA
ENDBRANCH  70  71
ENDBRANCH  51  65
BRANCH  52  75
ATOM     75  C   UNL     1      14.543  -5.374   5.331  1.00  0.00    -0.014 A 
ATOM     76  C   UNL     1      15.168  -5.510   4.078  1.00  0.00     0.010 A 
ATOM     77  C   UNL     1      15.008  -4.385   6.219  1.00  0.00     0.010 A 
ATOM     78  C   UNL     1      16.240  -4.683   3.726  1.00  0.00     0.020 A 
ATOM     79  C   UNL     1      16.060  -3.538   5.859  1.00  0.00     0.020 A 
ATOM     80  C   UNL     1      16.676  -3.698   4.617  1.00  0.00     0.054 A 
BRANCH  80  81
ATOM     81  S   UNL     1      18.029  -2.598   4.114  1.00  0.00     0.124 S 
ATOM     82  O   UNL     1      19.184  -3.488   4.175  1.00  0.00    -0.237 OA
ATOM     83  O   UNL     1      17.616  -2.187   2.774  1.00  0.00    -0.237 OA
ATOM     84  O   UNL     1      18.000  -1.538   5.120  1.00  0.00    -0.744 OA
ENDBRANCH  80  81
ENDBRANCH  52  75
BRANCH  64  85
ATOM     85  C   UNL     1      14.138 -12.210   6.731  1.00  0.00    -0.014 A 
ATOM     86  C   UNL     1      15.162 -12.316   7.688  1.00  0.00     0.010 A 
ATOM     87  C   UNL     1      14.011 -13.216   5.753  1.00  0.00     0.010 A 
ATOM     88  C   UNL     1      16.059 -13.389   7.649  1.00  0.00     0.020 A 
ATOM     89  C   UNL     1      14.886 -14.305   5.730  1.00  0.00     0.020 A 
ATOM     90  C   UNL     1      15.914 -14.378   6.671  1.00  0.00     0.054 A 
BRANCH  90  91
ATOM     91  S   UNL     1      17.061 -15.784   6.671  1.00  0.00     0.124 S 
ATOM     92  O   UNL     1      18.295 -15.171   6.188  1.00  0.00    -0.237 OA
ATOM     93  O   UNL     1      17.069 -16.191   8.074  1.00  0.00    -0.237 OA
ATOM     94  O   UNL     1      16.440 -16.739   5.756  1.00  0.00    -0.744 OA
ENDBRANCH  90  91
ENDBRANCH  64  85
ENDBRANCH  38  39
ENDBRANCH  31  33
ENDBRANCH  30  31
ENDBRANCH  29  30
ENDBRANCH  28  29
ENDBRANCH  27  28
ENDBRANCH  26  27
ENDBRANCH   1  26
TORSDOF 26
