REMARK SMILES O=C(OCCOCCOCCOC(=O)c1ccc(N2C(=O)[C@@H]3N=NC(c4ccccc4)=C3[C@H]2c2cccc(Br)c2)cc1)c1ccc(-c2c3nc(c(-c4ccc(S(=O)(=O)[O-])cc4)c4ccc([nH]4)c(-c4ccc(S(=O)(=O)[O-])cc4)c4nc(c(-c5ccc(S(=O)(=O)[O-])cc5)c5ccc2[nH]5)C=C4)C=C3)cc1
REMARK SMILES IDX 7 1 6 2 5 3 4 4 3 5 2 6 1 7 43 8 44 9 102 10 45 11 101 12
REMARK SMILES IDX 46 13 47 14 48 15 95 16 49 17 100 18 94 19 96 20 50 21 99 22
REMARK SMILES IDX 93 23 92 24 51 26 81 27 62 28 80 29 63 30 66 31 79 32 97 33
REMARK SMILES IDX 64 34 65 35 78 37 98 38 67 39 52 40 53 41 61 42 54 43 60 44
REMARK SMILES IDX 55 45 56 46 57 47 58 48 59 49 82 50 83 51 91 52 84 53 90 54
REMARK SMILES IDX 85 55 86 56 87 57 88 58 89 59 68 60 69 61 77 62 70 63 76 64
REMARK SMILES IDX 71 65 72 66 73 67 74 68 75 69 8 70 9 71 10 72 11 73 12 74
REMARK SMILES IDX 13 75 14 76 15 77 16 78 42 79 17 80 41 81 18 82 19 83 20 84
REMARK SMILES IDX 33 85 22 86 21 87 32 88 23 89 25 90 24 91 34 92 35 93 40 94
REMARK SMILES IDX 36 95 38 96 37 97 39 98 26 99 27 100 31 101 28 102 30 103
REMARK SMILES IDX 29 104
REMARK H PARENT 96 25 66 36
REMARK Flexibility Score: inf
ROOT
ATOM      1  C   UNL     1       3.562   1.853  -0.211  1.00  0.00     0.188 C 
ENDROOT
BRANCH   1   2
ATOM      2  O   UNL     1       4.856   1.563  -0.718  1.00  0.00    -0.376 OA
BRANCH   2   3
ATOM      3  C   UNL     1       5.356   0.258  -0.486  1.00  0.00     0.202 C 
BRANCH   3   4
ATOM      4  C   UNL     1       4.739  -0.845  -1.351  1.00  0.00     0.261 C 
BRANCH   4   5
ATOM      5  O   UNL     1       3.331  -0.722  -1.604  1.00  0.00    -0.460 OA
BRANCH   5   6
ATOM      6  C   UNL     1       2.278  -1.228  -0.934  1.00  0.00     0.338 C 
ATOM      7  O   UNL     1       1.215  -1.403  -1.525  1.00  0.00    -0.246 OA
BRANCH   6   8
ATOM      8  C   UNL     1       2.282  -1.362   0.544  1.00  0.00     0.060 A 
ATOM      9  C   UNL     1       3.373  -1.788   1.302  1.00  0.00     0.016 A 
ATOM     10  C   UNL     1       1.050  -1.115   1.181  1.00  0.00     0.016 A 
ATOM     11  C   UNL     1       3.212  -2.076   2.648  1.00  0.00     0.010 A 
ATOM     12  C   UNL     1       0.880  -1.411   2.525  1.00  0.00     0.010 A 
ATOM     13  C   UNL     1       1.945  -1.978   3.220  1.00  0.00    -0.014 A 
BRANCH  13  14
ATOM     14  C   UNL     1       1.739  -2.697   4.470  1.00  0.00     0.031 A 
ATOM     15  C   UNL     1       2.342  -2.133   5.701  1.00  0.00     0.074 A 
ATOM     16  C   UNL     1       1.003  -3.827   4.471  1.00  0.00     0.049 A 
ATOM     17  N   UNL     1       3.196  -2.686   6.502  1.00  0.00    -0.248 NA
ATOM     18  C   UNL     1       1.993  -0.749   6.050  1.00  0.00     0.031 C 
ATOM     19  C   UNL     1       0.169  -4.347   3.378  1.00  0.00     0.029 A 
ATOM     20  N   UNL     1       0.738  -4.681   5.496  1.00  0.00    -0.354 N 
ATOM     21  C   UNL     1       3.355  -1.796   7.562  1.00  0.00     0.074 A 
ATOM     22  C   UNL     1       2.693  -0.575   7.171  1.00  0.00     0.031 C 
ATOM     23  C   UNL     1      -0.697  -5.252   3.878  1.00  0.00     0.029 A 
ATOM     24  C   UNL     1      -0.384  -5.469   5.278  1.00  0.00     0.049 A 
ATOM     25  H   UNL     1       1.287  -4.735   6.311  1.00  0.00     0.167 HD
ATOM     26  C   UNL     1       3.834  -2.174   8.779  1.00  0.00     0.031 A 
ATOM     27  C   UNL     1      -1.080  -6.162   6.209  1.00  0.00     0.031 A 
ATOM     28  C   UNL     1       4.533  -3.428   8.742  1.00  0.00     0.049 A 
ATOM     29  C   UNL     1      -0.187  -6.371   7.373  1.00  0.00     0.074 A 
ATOM     30  C   UNL     1       5.668  -3.894   8.111  1.00  0.00     0.029 A 
ATOM     31  N   UNL     1       3.871  -4.543   9.197  1.00  0.00    -0.354 N 
ATOM     32  N   UNL     1       0.887  -7.110   7.333  1.00  0.00    -0.248 NA
ATOM     33  C   UNL     1      -0.248  -5.428   8.479  1.00  0.00     0.031 C 
ATOM     34  C   UNL     1       5.397  -5.261   7.816  1.00  0.00     0.029 A 
ATOM     35  C   UNL     1       4.123  -5.556   8.307  1.00  0.00     0.049 A 
ATOM     36  H   UNL     1       3.319  -4.603  10.010  1.00  0.00     0.167 HD
ATOM     37  C   UNL     1       1.806  -6.454   8.139  1.00  0.00     0.074 A 
ATOM     38  C   UNL     1       1.015  -5.499   8.909  1.00  0.00     0.031 C 
ATOM     39  C   UNL     1       3.150  -6.553   7.907  1.00  0.00     0.031 A 
BRANCH  26  40
ATOM     40  C   UNL     1       3.346  -1.562  10.069  1.00  0.00    -0.014 A 
ATOM     41  C   UNL     1       3.998  -1.866  11.281  1.00  0.00     0.010 A 
ATOM     42  C   UNL     1       2.094  -0.917  10.158  1.00  0.00     0.010 A 
ATOM     43  C   UNL     1       3.397  -1.583  12.517  1.00  0.00     0.020 A 
ATOM     44  C   UNL     1       1.508  -0.591  11.381  1.00  0.00     0.020 A 
ATOM     45  C   UNL     1       2.147  -0.961  12.556  1.00  0.00     0.054 A 
BRANCH  45  46
ATOM     46  S   UNL     1       1.316  -0.720  14.146  1.00  0.00     0.124 S 
ATOM     47  O   UNL     1       1.010  -2.093  14.535  1.00  0.00    -0.237 OA
ATOM     48  O   UNL     1       2.345  -0.050  14.938  1.00  0.00    -0.237 OA
ATOM     49  O   UNL     1       0.162   0.109  13.808  1.00  0.00    -0.744 OA
ENDBRANCH  45  46
ENDBRANCH  26  40
BRANCH  27  50
ATOM     50  C   UNL     1      -2.558  -6.281   6.261  1.00  0.00    -0.014 A 
ATOM     51  C   UNL     1      -3.191  -7.223   7.087  1.00  0.00     0.010 A 
ATOM     52  C   UNL     1      -3.364  -5.286   5.662  1.00  0.00     0.010 A 
ATOM     53  C   UNL     1      -4.574  -7.147   7.334  1.00  0.00     0.020 A 
ATOM     54  C   UNL     1      -4.739  -5.212   5.891  1.00  0.00     0.020 A 
ATOM     55  C   UNL     1      -5.336  -6.133   6.745  1.00  0.00     0.054 A 
BRANCH  55  56
ATOM     56  S   UNL     1      -7.087  -5.949   7.189  1.00  0.00     0.124 S 
ATOM     57  O   UNL     1      -7.692  -7.115   6.553  1.00  0.00    -0.237 OA
ATOM     58  O   UNL     1      -7.047  -5.974   8.648  1.00  0.00    -0.237 OA
ATOM     59  O   UNL     1      -7.458  -4.662   6.604  1.00  0.00    -0.744 OA
ENDBRANCH  55  56
ENDBRANCH  27  50
BRANCH  39  60
ATOM     60  C   UNL     1       3.627  -7.597   6.920  1.00  0.00    -0.014 A 
ATOM     61  C   UNL     1       3.281  -7.566   5.554  1.00  0.00     0.010 A 
ATOM     62  C   UNL     1       4.584  -8.535   7.345  1.00  0.00     0.010 A 
ATOM     63  C   UNL     1       3.859  -8.462   4.643  1.00  0.00     0.020 A 
ATOM     64  C   UNL     1       5.177  -9.421   6.438  1.00  0.00     0.020 A 
ATOM     65  C   UNL     1       4.808  -9.383   5.092  1.00  0.00     0.054 A 
BRANCH  65  66
ATOM     66  S   UNL     1       5.607 -10.488   3.892  1.00  0.00     0.124 S 
ATOM     67  O   UNL     1       4.525 -11.399   3.529  1.00  0.00    -0.237 OA
ATOM     68  O   UNL     1       6.036  -9.569   2.840  1.00  0.00    -0.237 OA
ATOM     69  O   UNL     1       6.699 -11.096   4.652  1.00  0.00    -0.744 OA
ENDBRANCH  65  66
ENDBRANCH  39  60
ENDBRANCH  13  14
ENDBRANCH   6   8
ENDBRANCH   5   6
ENDBRANCH   4   5
ENDBRANCH   3   4
ENDBRANCH   2   3
ENDBRANCH   1   2
BRANCH   1  70
ATOM     70  C   UNL     1       2.516   2.205  -1.295  1.00  0.00     0.188 C 
BRANCH  70  71
ATOM     71  O   UNL     1       2.878   2.732  -2.567  1.00  0.00    -0.376 OA
BRANCH  71  72
ATOM     72  C   UNL     1       4.178   3.244  -2.777  1.00  0.00     0.202 C 
BRANCH  72  73
ATOM     73  C   UNL     1       4.514   4.572  -2.087  1.00  0.00     0.261 C 
BRANCH  73  74
ATOM     74  O   UNL     1       4.058   4.713  -0.729  1.00  0.00    -0.460 OA
BRANCH  74  75
ATOM     75  C   UNL     1       2.938   5.449  -0.559  1.00  0.00     0.338 C 
ATOM     76  O   UNL     1       2.270   6.003  -1.431  1.00  0.00    -0.246 OA
BRANCH  75  77
ATOM     77  C   UNL     1       2.576   5.537   0.866  1.00  0.00     0.060 A 
ATOM     78  C   UNL     1       1.489   4.810   1.357  1.00  0.00     0.018 A 
ATOM     79  C   UNL     1       3.222   6.460   1.691  1.00  0.00     0.018 A 
ATOM     80  C   UNL     1       1.037   5.019   2.664  1.00  0.00     0.027 A 
ATOM     81  C   UNL     1       2.743   6.690   2.989  1.00  0.00     0.027 A 
ATOM     82  C   UNL     1       1.630   5.997   3.475  1.00  0.00     0.045 A 
BRANCH  82  83
ATOM     83  N   UNL     1       1.080   6.279   4.756  1.00  0.00    -0.299 N 
ATOM     84  C   UNL     1       0.755   5.197   5.631  1.00  0.00     0.259 C 
ATOM     85  C   UNL     1       0.145   7.415   4.943  1.00  0.00     0.152 C 
ATOM     86  C   UNL     1      -0.372   5.654   6.521  1.00  0.00     0.248 C 
ATOM     87  O   UNL     1       1.278   4.091   5.639  1.00  0.00    -0.271 OA
ATOM     88  C   UNL     1      -0.954   6.642   5.578  1.00  0.00     0.021 C 
ATOM     89  N   UNL     1      -1.465   4.692   6.694  1.00  0.00    -0.170 NA
ATOM     90  C   UNL     1      -2.225   6.275   5.400  1.00  0.00     0.097 C 
ATOM     91  N   UNL     1      -2.511   5.152   6.154  1.00  0.00    -0.154 NA
BRANCH  85  92
ATOM     92  C   UNL     1       0.707   8.497   5.889  1.00  0.00    -0.020 A 
ATOM     93  C   UNL     1       0.024   8.902   7.058  1.00  0.00     0.006 A 
ATOM     94  C   UNL     1       1.940   9.119   5.634  1.00  0.00     0.022 A 
ATOM     95  C   UNL     1       0.593   9.792   7.975  1.00  0.00     0.002 A 
ATOM     96  C   UNL     1       2.507  10.013   6.551  1.00  0.00     0.018 A 
ATOM     97  C   UNL     1       1.847  10.337   7.731  1.00  0.00     0.016 A 
ATOM     98  Br  UNL     1       4.199  10.779   6.193  1.00  0.00    -0.051 Br
ENDBRANCH  85  92
BRANCH  90  99
ATOM     99  C   UNL     1      -3.211   6.646   4.381  1.00  0.00     0.002 A 
ATOM    100  C   UNL     1      -4.199   7.603   4.643  1.00  0.00     0.010 A 
ATOM    101  C   UNL     1      -3.345   5.822   3.252  1.00  0.00     0.010 A 
ATOM    102  C   UNL     1      -5.331   7.688   3.823  1.00  0.00     0.001 A 
ATOM    103  C   UNL     1      -4.477   5.906   2.438  1.00  0.00     0.001 A 
ATOM    104  C   UNL     1      -5.479   6.826   2.736  1.00  0.00     0.000 A 
ENDBRANCH  90  99
ENDBRANCH  82  83
ENDBRANCH  75  77
ENDBRANCH  74  75
ENDBRANCH  73  74
ENDBRANCH  72  73
ENDBRANCH  71  72
ENDBRANCH  70  71
ENDBRANCH   1  70
TORSDOF 23
