REMARK SMILES O=C(OCCOCCOCCOC(=O)[C@]1(CCCCO)CCc2ccccc2C1)c1ccc(-c2c3nc(c(-c4ccc(S(=O)(=O)[O-])cc4)c4ccc([nH]4)c(-c4ccc(S(=O)(=O)[O-])cc4)c4nc(c(-c5ccc(S(=O)(=O)[O-])cc5)c5ccc2[nH]5)C=C4)C=C3)cc1
REMARK SMILES IDX 8 1 7 2 6 3 5 4 4 5 3 6 2 7 1 8 30 9 31 10 89 11 32 12 88 13
REMARK SMILES IDX 33 14 34 15 35 16 82 17 36 18 87 19 81 20 83 21 37 22 86 23
REMARK SMILES IDX 80 24 79 25 38 27 68 28 49 29 67 30 50 31 53 32 66 33 84 34
REMARK SMILES IDX 51 35 52 36 65 38 85 39 54 40 39 41 40 42 48 43 41 44 47 45
REMARK SMILES IDX 42 46 43 47 44 48 45 49 46 50 69 51 70 52 78 53 71 54 77 55
REMARK SMILES IDX 72 56 73 57 74 58 75 59 76 60 55 61 56 62 64 63 57 64 63 65
REMARK SMILES IDX 58 66 59 67 60 68 61 69 62 70 9 71 10 72 11 73 12 74 13 75
REMARK SMILES IDX 14 76 15 77 21 78 29 79 22 80 28 81 23 82 27 83 24 84 26 85
REMARK SMILES IDX 25 86 16 87 17 88 18 89 19 90 20 91
REMARK H PARENT 83 26 53 37 20 92
REMARK Flexibility Score: inf
ROOT
ATOM      1  C   UNL     1       2.188   2.811   1.218  1.00  0.00     0.188 C 
ENDROOT
BRANCH   1   2
ATOM      2  C   UNL     1       2.748   1.989   0.060  1.00  0.00     0.188 C 
BRANCH   2   3
ATOM      3  O   UNL     1       4.086   1.548   0.298  1.00  0.00    -0.376 OA
BRANCH   3   4
ATOM      4  C   UNL     1       4.874   1.429  -0.892  1.00  0.00     0.202 C 
BRANCH   4   5
ATOM      5  C   UNL     1       4.568   0.201  -1.772  1.00  0.00     0.261 C 
BRANCH   5   6
ATOM      6  O   UNL     1       3.205  -0.252  -1.680  1.00  0.00    -0.460 OA
BRANCH   6   7
ATOM      7  C   UNL     1       2.698  -1.235  -0.891  1.00  0.00     0.338 C 
ATOM      8  O   UNL     1       1.523  -1.566  -1.048  1.00  0.00    -0.246 OA
BRANCH   7   9
ATOM      9  C   UNL     1       3.485  -1.930   0.175  1.00  0.00     0.060 A 
ATOM     10  C   UNL     1       4.641  -1.421   0.760  1.00  0.00     0.016 A 
ATOM     11  C   UNL     1       2.999  -3.154   0.662  1.00  0.00     0.016 A 
ATOM     12  C   UNL     1       5.363  -2.128   1.706  1.00  0.00     0.010 A 
ATOM     13  C   UNL     1       3.684  -3.845   1.672  1.00  0.00     0.010 A 
ATOM     14  C   UNL     1       4.890  -3.340   2.183  1.00  0.00    -0.014 A 
BRANCH  14  15
ATOM     15  C   UNL     1       5.767  -4.102   3.099  1.00  0.00     0.031 A 
ATOM     16  C   UNL     1       6.385  -5.361   2.576  1.00  0.00     0.074 A 
ATOM     17  C   UNL     1       6.139  -3.592   4.292  1.00  0.00     0.049 A 
ATOM     18  N   UNL     1       7.212  -6.175   3.170  1.00  0.00    -0.248 NA
ATOM     19  C   UNL     1       6.070  -5.729   1.183  1.00  0.00     0.031 C 
ATOM     20  C   UNL     1       5.735  -2.288   4.811  1.00  0.00     0.029 A 
ATOM     21  N   UNL     1       6.947  -4.084   5.283  1.00  0.00    -0.354 N 
ATOM     22  C   UNL     1       7.540  -7.125   2.215  1.00  0.00     0.074 A 
ATOM     23  C   UNL     1       6.768  -6.841   1.030  1.00  0.00     0.031 C 
ATOM     24  C   UNL     1       6.226  -2.106   6.043  1.00  0.00     0.029 A 
ATOM     25  C   UNL     1       6.987  -3.285   6.406  1.00  0.00     0.049 A 
ATOM     26  H   UNL     1       7.451  -4.926   5.201  1.00  0.00     0.167 HD
ATOM     27  C   UNL     1       8.448  -8.120   2.308  1.00  0.00     0.031 A 
ATOM     28  C   UNL     1       7.559  -3.490   7.606  1.00  0.00     0.031 A 
ATOM     29  C   UNL     1       9.191  -8.392   3.503  1.00  0.00     0.049 A 
ATOM     30  C   UNL     1       8.399  -4.721   7.755  1.00  0.00     0.074 A 
ATOM     31  C   UNL     1      10.084  -9.416   3.750  1.00  0.00     0.029 A 
ATOM     32  N   UNL     1       9.121  -7.625   4.660  1.00  0.00    -0.354 N 
ATOM     33  N   UNL     1       8.662  -5.641   6.857  1.00  0.00    -0.248 NA
ATOM     34  C   UNL     1       9.050  -4.926   9.052  1.00  0.00     0.031 C 
ATOM     35  C   UNL     1      10.514  -9.299   5.076  1.00  0.00     0.029 A 
ATOM     36  C   UNL     1       9.937  -8.167   5.635  1.00  0.00     0.049 A 
ATOM     37  H   UNL     1       8.572  -6.816   4.769  1.00  0.00     0.167 HD
ATOM     38  C   UNL     1       9.545  -6.516   7.465  1.00  0.00     0.074 A 
ATOM     39  C   UNL     1       9.775  -6.007   8.805  1.00  0.00     0.031 C 
ATOM     40  C   UNL     1      10.124  -7.633   6.960  1.00  0.00     0.031 A 
BRANCH  27  41
ATOM     41  C   UNL     1       8.637  -8.976   1.089  1.00  0.00    -0.014 A 
ATOM     42  C   UNL     1       9.291  -8.474  -0.053  1.00  0.00     0.010 A 
ATOM     43  C   UNL     1       8.120 -10.281   1.068  1.00  0.00     0.010 A 
ATOM     44  C   UNL     1       9.394  -9.254  -1.207  1.00  0.00     0.020 A 
ATOM     45  C   UNL     1       8.244 -11.073  -0.076  1.00  0.00     0.020 A 
ATOM     46  C   UNL     1       8.868 -10.550  -1.210  1.00  0.00     0.054 A 
BRANCH  46  47
ATOM     47  S   UNL     1       9.034 -11.548  -2.715  1.00  0.00     0.124 S 
ATOM     48  O   UNL     1       8.093 -10.890  -3.619  1.00  0.00    -0.237 OA
ATOM     49  O   UNL     1      10.445 -11.386  -3.051  1.00  0.00    -0.237 OA
ATOM     50  O   UNL     1       8.648 -12.890  -2.284  1.00  0.00    -0.744 OA
ENDBRANCH  46  47
ENDBRANCH  27  41
BRANCH  28  51
ATOM     51  C   UNL     1       7.319  -2.555   8.740  1.00  0.00    -0.014 A 
ATOM     52  C   UNL     1       8.341  -1.755   9.277  1.00  0.00     0.010 A 
ATOM     53  C   UNL     1       6.035  -2.489   9.316  1.00  0.00     0.010 A 
ATOM     54  C   UNL     1       8.094  -0.940  10.390  1.00  0.00     0.020 A 
ATOM     55  C   UNL     1       5.776  -1.657  10.409  1.00  0.00     0.020 A 
ATOM     56  C   UNL     1       6.815  -0.902  10.953  1.00  0.00     0.054 A 
BRANCH  56  57
ATOM     57  S   UNL     1       6.517   0.153  12.400  1.00  0.00     0.124 S 
ATOM     58  O   UNL     1       7.207  -0.580  13.457  1.00  0.00    -0.237 OA
ATOM     59  O   UNL     1       7.130   1.417  12.001  1.00  0.00    -0.237 OA
ATOM     60  O   UNL     1       5.060   0.182  12.507  1.00  0.00    -0.744 OA
ENDBRANCH  56  57
ENDBRANCH  28  51
BRANCH  40  61
ATOM     61  C   UNL     1      11.085  -8.345   7.863  1.00  0.00    -0.014 A 
ATOM     62  C   UNL     1      10.632  -9.065   8.980  1.00  0.00     0.010 A 
ATOM     63  C   UNL     1      12.460  -8.305   7.569  1.00  0.00     0.010 A 
ATOM     64  C   UNL     1      11.546  -9.700   9.818  1.00  0.00     0.020 A 
ATOM     65  C   UNL     1      13.373  -8.969   8.385  1.00  0.00     0.020 A 
ATOM     66  C   UNL     1      12.911  -9.646   9.515  1.00  0.00     0.054 A 
BRANCH  66  67
ATOM     67  S   UNL     1      14.076 -10.505  10.603  1.00  0.00     0.124 S 
ATOM     68  O   UNL     1      14.119  -9.616  11.760  1.00  0.00    -0.237 OA
ATOM     69  O   UNL     1      13.421 -11.792  10.821  1.00  0.00    -0.237 OA
ATOM     70  O   UNL     1      15.305 -10.563   9.814  1.00  0.00    -0.744 OA
ENDBRANCH  66  67
ENDBRANCH  40  61
ENDBRANCH  14  15
ENDBRANCH   7   9
ENDBRANCH   6   7
ENDBRANCH   5   6
ENDBRANCH   4   5
ENDBRANCH   3   4
ENDBRANCH   2   3
ENDBRANCH   1   2
BRANCH   1  71
ATOM     71  O   UNL     1       2.831   4.045   1.523  1.00  0.00    -0.376 OA
BRANCH  71  72
ATOM     72  C   UNL     1       4.243   4.017   1.696  1.00  0.00     0.202 C 
BRANCH  72  73
ATOM     73  C   UNL     1       4.826   3.221   2.877  1.00  0.00     0.261 C 
BRANCH  73  74
ATOM     74  O   UNL     1       4.028   2.123   3.354  1.00  0.00    -0.463 OA
BRANCH  74  75
ATOM     75  C   UNL     1       3.314   2.399   4.481  1.00  0.00     0.312 C 
ATOM     76  O   UNL     1       3.323   3.494   5.015  1.00  0.00    -0.252 OA
BRANCH  75  77
ATOM     77  C   UNL     1       2.592   1.188   5.102  1.00  0.00     0.072 C 
ATOM     78  C   UNL     1       3.353   1.010   6.441  1.00  0.00     0.024 C 
ATOM     79  C   UNL     1       2.720  -0.135   4.296  1.00  0.00     0.054 C 
ATOM     80  C   UNL     1       2.872  -0.147   7.296  1.00  0.00     0.037 C 
ATOM     81  C   UNL     1       2.500  -1.398   5.121  1.00  0.00    -0.044 A 
ATOM     82  C   UNL     1       2.692  -1.414   6.512  1.00  0.00    -0.045 A 
ATOM     83  C   UNL     1       2.223  -2.611   4.475  1.00  0.00     0.004 A 
ATOM     84  C   UNL     1       2.672  -2.632   7.212  1.00  0.00     0.004 A 
ATOM     85  C   UNL     1       2.233  -3.823   5.174  1.00  0.00     0.000 A 
ATOM     86  C   UNL     1       2.478  -3.835   6.542  1.00  0.00     0.000 A 
BRANCH  77  87
ATOM     87  C   UNL     1       1.058   1.440   5.234  1.00  0.00     0.019 C 
BRANCH  87  88
ATOM     88  C   UNL     1       0.524   2.690   5.943  1.00  0.00     0.004 C 
BRANCH  88  89
ATOM     89  C   UNL     1       0.369   3.986   5.126  1.00  0.00     0.028 C 
BRANCH  89  90
ATOM     90  C   UNL     1      -0.254   3.861   3.741  1.00  0.00     0.156 C 
BRANCH  90  91
ATOM     91  O   UNL     1      -1.650   3.611   3.822  1.00  0.00    -0.396 OA
ATOM     92  H   UNL     1      -1.803   2.777   4.293  1.00  0.00     0.210 HD
ENDBRANCH  90  91
ENDBRANCH  89  90
ENDBRANCH  88  89
ENDBRANCH  87  88
ENDBRANCH  77  87
ENDBRANCH  75  77
ENDBRANCH  74  75
ENDBRANCH  73  74
ENDBRANCH  72  73
ENDBRANCH  71  72
ENDBRANCH   1  71
TORSDOF 25
