REMARK SMILES O=C(CCCC[C@@H]1CCSS1)OCCOCCOCCOC(=O)c1ccc(-c2c3nc(c(-c4ccc(S(=O)(=O)[O-])cc4)c4ccc([nH]4)c(-c4ccc(S(=O)(=O)[O-])cc4)c4nc(c(-c5ccc(S(=O)(=O)[O-])cc5)c5ccc2[nH]5)C=C4)C=C3)cc1
REMARK SMILES IDX 16 1 15 2 14 3 13 4 12 5 2 6 1 7 3 8 4 9 5 10 6 11 7 12 8 13
REMARK SMILES IDX 11 14 9 15 10 16 17 17 18 18 19 19 20 20 21 21 22 22 23 23
REMARK SMILES IDX 24 24 25 25 83 26 26 27 82 28 27 29 28 30 29 31 76 32 30 33
REMARK SMILES IDX 81 34 75 35 77 36 31 37 80 38 74 39 73 40 32 42 62 43 43 44
REMARK SMILES IDX 61 45 44 46 47 47 60 48 78 49 45 50 46 51 59 53 79 54 48 55
REMARK SMILES IDX 33 56 34 57 42 58 35 59 41 60 36 61 37 62 38 63 39 64 40 65
REMARK SMILES IDX 63 66 64 67 72 68 65 69 71 70 66 71 67 72 68 73 69 74 70 75
REMARK SMILES IDX 49 76 50 77 58 78 51 79 57 80 52 81 53 82 54 83 55 84 56 85
REMARK H PARENT 77 41 47 52
REMARK Flexibility Score: inf
ROOT
ATOM      1  C   UNL     1       3.037  -1.683  -1.141  1.00  0.00     0.188 C 
ENDROOT
BRANCH   1   2
ATOM      2  O   UNL     1       4.221  -1.431  -0.386  1.00  0.00    -0.376 OA
BRANCH   2   3
ATOM      3  C   UNL     1       4.137  -1.706   1.006  1.00  0.00     0.202 C 
BRANCH   3   4
ATOM      4  C   UNL     1       3.774  -0.460   1.797  1.00  0.00     0.261 C 
BRANCH   4   5
ATOM      5  O   UNL     1       2.441  -0.013   1.510  1.00  0.00    -0.463 OA
BRANCH   5   6
ATOM      6  C   UNL     1       2.224   1.268   1.114  1.00  0.00     0.305 C 
ATOM      7  O   UNL     1       1.308   1.919   1.606  1.00  0.00    -0.252 OA
BRANCH   6   8
ATOM      8  C   UNL     1       3.019   1.774  -0.074  1.00  0.00     0.123 C 
BRANCH   8   9
ATOM      9  C   UNL     1       3.975   2.934   0.209  1.00  0.00     0.012 C 
BRANCH   9  10
ATOM     10  C   UNL     1       5.379   2.574   0.720  1.00  0.00     0.002 C 
BRANCH  10  11
ATOM     11  C   UNL     1       6.168   1.550  -0.117  1.00  0.00     0.015 C 
BRANCH  11  12
ATOM     12  C   UNL     1       7.090   2.030  -1.259  1.00  0.00     0.059 C 
ATOM     13  C   UNL     1       8.564   1.717  -0.926  1.00  0.00     0.027 C 
ATOM     14  S   UNL     1       6.974   3.784  -1.731  1.00  0.00    -0.091 SA
ATOM     15  C   UNL     1       9.523   2.521  -1.794  1.00  0.00     0.083 C 
ATOM     16  S   UNL     1       8.968   4.224  -1.631  1.00  0.00    -0.094 SA
ENDBRANCH  11  12
ENDBRANCH  10  11
ENDBRANCH   9  10
ENDBRANCH   8   9
ENDBRANCH   6   8
ENDBRANCH   5   6
ENDBRANCH   4   5
ENDBRANCH   3   4
ENDBRANCH   2   3
ENDBRANCH   1   2
BRANCH   1  17
ATOM     17  C   UNL     1       2.508  -3.121  -1.085  1.00  0.00     0.188 C 
BRANCH  17  18
ATOM     18  O   UNL     1       3.461  -4.171  -0.953  1.00  0.00    -0.376 OA
BRANCH  18  19
ATOM     19  C   UNL     1       4.659  -4.113  -1.722  1.00  0.00     0.202 C 
BRANCH  19  20
ATOM     20  C   UNL     1       4.505  -4.333  -3.225  1.00  0.00     0.261 C 
BRANCH  20  21
ATOM     21  O   UNL     1       4.083  -3.138  -3.905  1.00  0.00    -0.460 OA
BRANCH  21  22
ATOM     22  C   UNL     1       2.837  -3.169  -4.434  1.00  0.00     0.338 C 
ATOM     23  O   UNL     1       2.019  -4.066  -4.348  1.00  0.00    -0.246 OA
BRANCH  22  24
ATOM     24  C   UNL     1       2.546  -1.872  -5.070  1.00  0.00     0.060 A 
ATOM     25  C   UNL     1       1.398  -1.172  -4.677  1.00  0.00     0.016 A 
ATOM     26  C   UNL     1       3.350  -1.398  -6.108  1.00  0.00     0.016 A 
ATOM     27  C   UNL     1       1.033  -0.004  -5.349  1.00  0.00     0.010 A 
ATOM     28  C   UNL     1       2.975  -0.237  -6.786  1.00  0.00     0.010 A 
ATOM     29  C   UNL     1       1.802   0.450  -6.429  1.00  0.00    -0.014 A 
BRANCH  29  30
ATOM     30  C   UNL     1       1.348   1.583  -7.270  1.00  0.00     0.031 A 
ATOM     31  C   UNL     1       0.680   1.293  -8.586  1.00  0.00     0.074 A 
ATOM     32  C   UNL     1       1.596   2.851  -6.895  1.00  0.00     0.049 A 
ATOM     33  N   UNL     1       0.355   2.119  -9.546  1.00  0.00    -0.248 NA
ATOM     34  C   UNL     1       0.341  -0.114  -8.861  1.00  0.00     0.031 C 
ATOM     35  C   UNL     1       2.213   3.255  -5.631  1.00  0.00     0.029 A 
ATOM     36  N   UNL     1       1.391   4.033  -7.563  1.00  0.00    -0.354 N 
ATOM     37  C   UNL     1      -0.201   1.333 -10.549  1.00  0.00     0.074 A 
ATOM     38  C   UNL     1      -0.169  -0.036 -10.082  1.00  0.00     0.031 C 
ATOM     39  C   UNL     1       2.372   4.590  -5.631  1.00  0.00     0.029 A 
ATOM     40  C   UNL     1       1.907   5.127  -6.909  1.00  0.00     0.049 A 
ATOM     41  H   UNL     1       0.921   4.091  -8.425  1.00  0.00     0.167 HD
ATOM     42  C   UNL     1      -0.686   1.720 -11.751  1.00  0.00     0.031 A 
ATOM     43  C   UNL     1       2.035   6.406  -7.315  1.00  0.00     0.031 A 
ATOM     44  C   UNL     1      -0.716   3.084 -12.207  1.00  0.00     0.049 A 
ATOM     45  C   UNL     1       1.549   6.798  -8.687  1.00  0.00     0.074 A 
ATOM     46  C   UNL     1      -1.244   3.583 -13.386  1.00  0.00     0.029 A 
ATOM     47  N   UNL     1      -0.184   4.162 -11.518  1.00  0.00    -0.354 N 
ATOM     48  N   UNL     1       0.968   6.054  -9.599  1.00  0.00    -0.248 NA
ATOM     49  C   UNL     1       1.742   8.199  -9.088  1.00  0.00     0.031 C 
ATOM     50  C   UNL     1      -0.974   4.954 -13.437  1.00  0.00     0.029 A 
ATOM     51  C   UNL     1      -0.329   5.317 -12.266  1.00  0.00     0.049 A 
ATOM     52  H   UNL     1       0.234   4.113 -10.628  1.00  0.00     0.167 HD
ATOM     53  C   UNL     1       0.712   6.902 -10.672  1.00  0.00     0.074 A 
ATOM     54  C   UNL     1       1.181   8.217 -10.290  1.00  0.00     0.031 C 
ATOM     55  C   UNL     1       0.142   6.618 -11.869  1.00  0.00     0.031 A 
BRANCH  42  56
ATOM     56  C   UNL     1      -1.196   0.659 -12.687  1.00  0.00    -0.014 A 
ATOM     57  C   UNL     1      -2.441   0.041 -12.480  1.00  0.00     0.010 A 
ATOM     58  C   UNL     1      -0.459   0.348 -13.845  1.00  0.00     0.010 A 
ATOM     59  C   UNL     1      -2.935  -0.878 -13.411  1.00  0.00     0.020 A 
ATOM     60  C   UNL     1      -0.958  -0.554 -14.787  1.00  0.00     0.020 A 
ATOM     61  C   UNL     1      -2.192  -1.167 -14.561  1.00  0.00     0.054 A 
BRANCH  61  62
ATOM     62  S   UNL     1      -2.889  -2.312 -15.784  1.00  0.00     0.124 S 
ATOM     63  O   UNL     1      -2.755  -3.597 -15.103  1.00  0.00    -0.237 OA
ATOM     64  O   UNL     1      -4.256  -1.822 -15.938  1.00  0.00    -0.237 OA
ATOM     65  O   UNL     1      -2.031  -2.135 -16.953  1.00  0.00    -0.744 OA
ENDBRANCH  61  62
ENDBRANCH  42  56
BRANCH  43  66
ATOM     66  C   UNL     1       2.715   7.405  -6.444  1.00  0.00    -0.014 A 
ATOM     67  C   UNL     1       1.996   8.473  -5.879  1.00  0.00     0.010 A 
ATOM     68  C   UNL     1       4.099   7.312  -6.207  1.00  0.00     0.010 A 
ATOM     69  C   UNL     1       2.656   9.448  -5.124  1.00  0.00     0.020 A 
ATOM     70  C   UNL     1       4.757   8.268  -5.429  1.00  0.00     0.020 A 
ATOM     71  C   UNL     1       4.033   9.342  -4.909  1.00  0.00     0.054 A 
BRANCH  71  72
ATOM     72  S   UNL     1       4.867  10.617  -3.922  1.00  0.00     0.124 S 
ATOM     73  O   UNL     1       4.917  11.737  -4.857  1.00  0.00    -0.237 OA
ATOM     74  O   UNL     1       3.963  10.781  -2.787  1.00  0.00    -0.237 OA
ATOM     75  O   UNL     1       6.157  10.012  -3.601  1.00  0.00    -0.744 OA
ENDBRANCH  71  72
ENDBRANCH  43  66
BRANCH  55  76
ATOM     76  C   UNL     1      -0.025   7.748 -12.850  1.00  0.00    -0.014 A 
ATOM     77  C   UNL     1       1.077   8.262 -13.555  1.00  0.00     0.010 A 
ATOM     78  C   UNL     1      -1.311   8.248 -13.125  1.00  0.00     0.010 A 
ATOM     79  C   UNL     1       0.898   9.269 -14.507  1.00  0.00     0.020 A 
ATOM     80  C   UNL     1      -1.497   9.237 -14.094  1.00  0.00     0.020 A 
ATOM     81  C   UNL     1      -0.389   9.748 -14.773  1.00  0.00     0.054 A 
BRANCH  81  82
ATOM     82  S   UNL     1      -0.602  11.010 -16.059  1.00  0.00     0.124 S 
ATOM     83  O   UNL     1      -0.093  12.208 -15.397  1.00  0.00    -0.237 OA
ATOM     84  O   UNL     1       0.220  10.498 -17.152  1.00  0.00    -0.237 OA
ATOM     85  O   UNL     1      -2.041  11.004 -16.314  1.00  0.00    -0.744 OA
ENDBRANCH  81  82
ENDBRANCH  55  76
ENDBRANCH  29  30
ENDBRANCH  22  24
ENDBRANCH  21  22
ENDBRANCH  20  21
ENDBRANCH  19  20
ENDBRANCH  18  19
ENDBRANCH  17  18
ENDBRANCH   1  17
TORSDOF 24
