REMARK SMILES O=C(OCCOCCOCCOC(=O)c1ccc(S(=O)(=O)Cc2cccs2)c(F)c1)c1ccc(-c2c3nc(c(-c4ccc(S(=O)(=O)[O-])cc4)c4ccc([nH]4)c(-c4ccc(S(=O)(=O)[O-])cc4)c4nc(c(-c5ccc(S(=O)(=O)[O-])cc5)c5ccc2[nH]5)C=C4)C=C3)cc1
REMARK SMILES IDX 7 1 6 2 5 3 4 4 3 5 2 6 1 7 31 8 32 9 90 10 33 11 89 12
REMARK SMILES IDX 34 13 35 14 36 15 83 16 37 17 88 18 82 19 84 20 38 21 87 22
REMARK SMILES IDX 81 23 80 24 39 26 69 27 50 28 68 29 51 30 54 31 67 32 85 33
REMARK SMILES IDX 52 34 53 35 66 37 86 38 55 39 40 40 41 41 49 42 42 43 48 44
REMARK SMILES IDX 43 45 44 46 45 47 46 48 47 49 70 50 71 51 79 52 72 53 78 54
REMARK SMILES IDX 73 55 74 56 75 57 76 58 77 59 56 60 57 61 65 62 58 63 64 64
REMARK SMILES IDX 59 65 60 66 61 67 62 68 63 69 8 70 9 71 10 72 11 73 12 74
REMARK SMILES IDX 13 75 14 76 15 77 16 78 30 79 17 80 28 81 18 82 29 83 19 84
REMARK SMILES IDX 20 85 21 86 22 87 23 88 24 89 27 90 25 91 26 92
REMARK H PARENT 84 25 54 36
REMARK Flexibility Score: inf
ROOT
ATOM      1  C   UNL     1       2.435  -1.806   0.868  1.00  0.00     0.188 C 
ENDROOT
BRANCH   1   2
ATOM      2  O   UNL     1       3.736  -1.537   0.330  1.00  0.00    -0.376 OA
BRANCH   2   3
ATOM      3  C   UNL     1       4.606  -0.855   1.242  1.00  0.00     0.202 C 
BRANCH   3   4
ATOM      4  C   UNL     1       4.419   0.670   1.295  1.00  0.00     0.261 C 
BRANCH   4   5
ATOM      5  O   UNL     1       3.051   1.062   1.107  1.00  0.00    -0.460 OA
BRANCH   5   6
ATOM      6  C   UNL     1       2.435   1.426  -0.047  1.00  0.00     0.338 C 
ATOM      7  O   UNL     1       1.261   1.790   0.014  1.00  0.00    -0.246 OA
BRANCH   6   8
ATOM      8  C   UNL     1       3.097   1.419  -1.392  1.00  0.00     0.060 A 
ATOM      9  C   UNL     1       4.233   0.681  -1.729  1.00  0.00     0.016 A 
ATOM     10  C   UNL     1       2.497   2.186  -2.406  1.00  0.00     0.016 A 
ATOM     11  C   UNL     1       4.833   0.792  -2.976  1.00  0.00     0.010 A 
ATOM     12  C   UNL     1       3.059   2.256  -3.686  1.00  0.00     0.010 A 
ATOM     13  C   UNL     1       4.260   1.590  -3.958  1.00  0.00    -0.014 A 
BRANCH  13  14
ATOM     14  C   UNL     1       5.017   1.821  -5.203  1.00  0.00     0.031 A 
ATOM     15  C   UNL     1       5.667   3.157  -5.401  1.00  0.00     0.074 A 
ATOM     16  C   UNL     1       5.222   0.819  -6.076  1.00  0.00     0.049 A 
ATOM     17  N   UNL     1       6.331   3.607  -6.429  1.00  0.00    -0.248 NA
ATOM     18  C   UNL     1       5.592   4.098  -4.269  1.00  0.00     0.031 C 
ATOM     19  C   UNL     1       4.785  -0.565  -5.889  1.00  0.00     0.029 A 
ATOM     20  N   UNL     1       5.841   0.808  -7.298  1.00  0.00    -0.354 N 
ATOM     21  C   UNL     1       6.755   4.879  -6.070  1.00  0.00     0.074 A 
ATOM     22  C   UNL     1       6.248   5.144  -4.743  1.00  0.00     0.031 C 
ATOM     23  C   UNL     1       5.078  -1.273  -6.991  1.00  0.00     0.029 A 
ATOM     24  C   UNL     1       5.680  -0.381  -7.970  1.00  0.00     0.049 A 
ATOM     25  H   UNL     1       6.348   1.571  -7.657  1.00  0.00     0.167 HD
ATOM     26  C   UNL     1       7.511   5.741  -6.788  1.00  0.00     0.031 A 
ATOM     27  C   UNL     1       5.931  -0.695  -9.254  1.00  0.00     0.031 A 
ATOM     28  C   UNL     1       7.969   5.460  -8.120  1.00  0.00     0.049 A 
ATOM     29  C   UNL     1       6.590   0.343 -10.111  1.00  0.00     0.074 A 
ATOM     30  C   UNL     1       8.706   6.263  -8.969  1.00  0.00     0.029 A 
ATOM     31  N   UNL     1       7.712   4.277  -8.803  1.00  0.00    -0.354 N 
ATOM     32  N   UNL     1       6.968   1.556  -9.779  1.00  0.00    -0.248 NA
ATOM     33  C   UNL     1       6.889  -0.031 -11.497  1.00  0.00     0.031 C 
ATOM     34  C   UNL     1       8.845   5.587 -10.187  1.00  0.00     0.029 A 
ATOM     35  C   UNL     1       8.246   4.339 -10.076  1.00  0.00     0.049 A 
ATOM     36  H   UNL     1       7.220   3.508  -8.434  1.00  0.00     0.167 HD
ATOM     37  C   UNL     1       7.584   2.081 -10.905  1.00  0.00     0.074 A 
ATOM     38  C   UNL     1       7.522   1.053 -11.928  1.00  0.00     0.031 C 
ATOM     39  C   UNL     1       8.164   3.295 -11.069  1.00  0.00     0.031 A 
BRANCH  26  40
ATOM     40  C   UNL     1       7.801   7.075  -6.156  1.00  0.00    -0.014 A 
ATOM     41  C   UNL     1       8.677   7.195  -5.062  1.00  0.00     0.010 A 
ATOM     42  C   UNL     1       7.133   8.219  -6.627  1.00  0.00     0.010 A 
ATOM     43  C   UNL     1       8.830   8.422  -4.410  1.00  0.00     0.020 A 
ATOM     44  C   UNL     1       7.303   9.453  -5.994  1.00  0.00     0.020 A 
ATOM     45  C   UNL     1       8.129   9.541  -4.871  1.00  0.00     0.054 A 
BRANCH  45  46
ATOM     46  S   UNL     1       8.306  11.111  -3.982  1.00  0.00     0.124 S 
ATOM     47  O   UNL     1       7.522  10.862  -2.774  1.00  0.00    -0.237 OA
ATOM     48  O   UNL     1       9.750  11.208  -3.782  1.00  0.00    -0.237 OA
ATOM     49  O   UNL     1       7.740  12.096  -4.899  1.00  0.00    -0.744 OA
ENDBRANCH  45  46
ENDBRANCH  26  40
BRANCH  27  50
ATOM     50  C   UNL     1       5.490  -2.010  -9.793  1.00  0.00    -0.014 A 
ATOM     51  C   UNL     1       6.406  -3.043 -10.046  1.00  0.00     0.010 A 
ATOM     52  C   UNL     1       4.118  -2.249 -10.002  1.00  0.00     0.010 A 
ATOM     53  C   UNL     1       5.956  -4.291 -10.494  1.00  0.00     0.020 A 
ATOM     54  C   UNL     1       3.661  -3.500 -10.428  1.00  0.00     0.020 A 
ATOM     55  C   UNL     1       4.586  -4.514 -10.676  1.00  0.00     0.054 A 
BRANCH  55  56
ATOM     56  S   UNL     1       4.027  -6.167 -11.178  1.00  0.00     0.124 S 
ATOM     57  O   UNL     1       4.414  -6.208 -12.584  1.00  0.00    -0.237 OA
ATOM     58  O   UNL     1       4.788  -7.039 -10.286  1.00  0.00    -0.237 OA
ATOM     59  O   UNL     1       2.589  -6.138 -10.922  1.00  0.00    -0.744 OA
ENDBRANCH  55  56
ENDBRANCH  27  50
BRANCH  39  60
ATOM     60  C   UNL     1       8.822   3.559 -12.392  1.00  0.00    -0.014 A 
ATOM     61  C   UNL     1       8.063   3.845 -13.538  1.00  0.00     0.010 A 
ATOM     62  C   UNL     1      10.227   3.595 -12.461  1.00  0.00     0.010 A 
ATOM     63  C   UNL     1       8.701   4.152 -14.741  1.00  0.00     0.020 A 
ATOM     64  C   UNL     1      10.867   3.928 -13.654  1.00  0.00     0.020 A 
ATOM     65  C   UNL     1      10.099   4.197 -14.789  1.00  0.00     0.054 A 
BRANCH  65  66
ATOM     66  S   UNL     1      10.904   4.673 -16.341  1.00  0.00     0.124 S 
ATOM     67  O   UNL     1      10.748   3.466 -17.147  1.00  0.00    -0.237 OA
ATOM     68  O   UNL     1      10.113   5.824 -16.772  1.00  0.00    -0.237 OA
ATOM     69  O   UNL     1      12.274   4.983 -15.939  1.00  0.00    -0.744 OA
ENDBRANCH  65  66
ENDBRANCH  39  60
ENDBRANCH  13  14
ENDBRANCH   6   8
ENDBRANCH   5   6
ENDBRANCH   4   5
ENDBRANCH   3   4
ENDBRANCH   2   3
ENDBRANCH   1   2
BRANCH   1  70
ATOM     70  C   UNL     1       1.882  -3.151   0.389  1.00  0.00     0.188 C 
BRANCH  70  71
ATOM     71  O   UNL     1       2.558  -4.309   0.878  1.00  0.00    -0.376 OA
BRANCH  71  72
ATOM     72  C   UNL     1       3.940  -4.429   0.553  1.00  0.00     0.202 C 
BRANCH  72  73
ATOM     73  C   UNL     1       4.300  -4.724  -0.910  1.00  0.00     0.261 C 
BRANCH  73  74
ATOM     74  O   UNL     1       3.717  -3.837  -1.884  1.00  0.00    -0.460 OA
BRANCH  74  75
ATOM     75  C   UNL     1       2.887  -4.443  -2.768  1.00  0.00     0.338 C 
ATOM     76  O   UNL     1       2.524  -5.614  -2.747  1.00  0.00    -0.246 OA
BRANCH  75  77
ATOM     77  C   UNL     1       2.500  -3.543  -3.873  1.00  0.00     0.063 A 
ATOM     78  C   UNL     1       2.671  -4.022  -5.178  1.00  0.00     0.017 A 
ATOM     79  C   UNL     1       1.883  -2.305  -3.659  1.00  0.00     0.056 A 
ATOM     80  C   UNL     1       2.217  -3.274  -6.266  1.00  0.00     0.024 A 
ATOM     81  C   UNL     1       1.427  -1.563  -4.757  1.00  0.00     0.142 A 
ATOM     82  C   UNL     1       1.587  -2.042  -6.052  1.00  0.00     0.103 A 
ATOM     83  F   UNL     1       0.843  -0.383  -4.521  1.00  0.00    -0.206 F 
BRANCH  82  84
ATOM     84  S   UNL     1       1.032  -1.137  -7.468  1.00  0.00     0.186 S 
ATOM     85  O   UNL     1       2.111  -0.237  -7.820  1.00  0.00    -0.223 OA
ATOM     86  O   UNL     1       0.579  -2.128  -8.433  1.00  0.00    -0.223 OA
BRANCH  84  87
ATOM     87  C   UNL     1      -0.357  -0.125  -7.064  1.00  0.00     0.188 C 
BRANCH  87  88
ATOM     88  C   UNL     1      -1.506  -0.840  -6.420  1.00  0.00     0.020 A 
ATOM     89  C   UNL     1      -1.872  -2.172  -6.398  1.00  0.00     0.016 A 
ATOM     90  S   UNL     1      -2.661   0.128  -5.584  1.00  0.00    -0.148 S 
ATOM     91  C   UNL     1      -3.073  -2.397  -5.662  1.00  0.00     0.012 A 
ATOM     92  C   UNL     1      -3.609  -1.228  -5.177  1.00  0.00     0.065 A 
ENDBRANCH  87  88
ENDBRANCH  84  87
ENDBRANCH  82  84
ENDBRANCH  75  77
ENDBRANCH  74  75
ENDBRANCH  73  74
ENDBRANCH  72  73
ENDBRANCH  71  72
ENDBRANCH  70  71
ENDBRANCH   1  70
TORSDOF 23
