REMARK SMILES C[C@@H](C(=O)OCCOCCOCCOC(=O)c1ccc(-c2c3nc(c(-c4ccc(S(=O)(=O)[O-])cc4)c4ccc([nH]4)c(-c4ccc(S(=O)(=O)[O-])cc4)c4nc(c(-c5ccc(S(=O)(=O)[O-])cc5)c5ccc2[nH]5)C=C4)C=C3)cc1)c1ccc(-c2ccc3[nH]ccc3c2)cc1
REMARK SMILES IDX 10 1 9 2 8 3 7 4 6 5 5 6 3 7 4 8 2 9 1 10 77 11 78 12 91 13
REMARK SMILES IDX 79 14 90 15 80 16 81 17 82 18 89 19 83 20 88 21 84 22 87 23
REMARK SMILES IDX 85 24 86 25 11 27 12 28 13 29 14 30 15 31 16 32 17 33 18 34
REMARK SMILES IDX 76 35 19 36 75 37 20 38 21 39 22 40 69 41 23 42 74 43 68 44
REMARK SMILES IDX 70 45 24 46 73 47 67 48 66 49 25 51 55 52 36 53 54 54 37 55
REMARK SMILES IDX 40 56 53 57 71 58 38 59 39 60 52 62 72 63 41 64 26 65 27 66
REMARK SMILES IDX 35 67 28 68 34 69 29 70 30 71 31 72 32 73 33 74 56 75 57 76
REMARK SMILES IDX 65 77 58 78 64 79 59 80 60 81 61 82 62 83 63 84 42 85 43 86
REMARK SMILES IDX 51 87 44 88 50 89 45 90 46 91 47 92 48 93 49 94
REMARK H PARENT 85 26 70 50 40 61
REMARK Flexibility Score: inf
ROOT
ATOM      1  C   UNL     1       0.911   0.318  -2.718  1.00  0.00     0.188 C 
ENDROOT
BRANCH   1   2
ATOM      2  C   UNL     1       0.284   1.569  -3.346  1.00  0.00     0.188 C 
BRANCH   2   3
ATOM      3  O   UNL     1       1.080   2.331  -4.233  1.00  0.00    -0.376 OA
BRANCH   3   4
ATOM      4  C   UNL     1       2.265   2.946  -3.746  1.00  0.00     0.202 C 
BRANCH   4   5
ATOM      5  C   UNL     1       2.459   3.358  -2.272  1.00  0.00     0.261 C 
BRANCH   5   6
ATOM      6  O   UNL     1       2.019   2.413  -1.278  1.00  0.00    -0.463 OA
BRANCH   6   7
ATOM      7  C   UNL     1       1.273   2.917  -0.258  1.00  0.00     0.313 C 
ATOM      8  O   UNL     1       1.037   4.116  -0.131  1.00  0.00    -0.252 OA
BRANCH   7   9
ATOM      9  C   UNL     1       0.729   1.859   0.727  1.00  0.00     0.126 C 
ATOM     10  C   UNL     1       1.584   0.590   0.846  1.00  0.00     0.025 C 
BRANCH   9  11
ATOM     11  C   UNL     1      -0.791   1.655   0.638  1.00  0.00    -0.034 A 
ATOM     12  C   UNL     1      -1.617   2.789   0.662  1.00  0.00     0.005 A 
ATOM     13  C   UNL     1      -1.430   0.401   0.633  1.00  0.00     0.005 A 
ATOM     14  C   UNL     1      -3.007   2.682   0.683  1.00  0.00     0.009 A 
ATOM     15  C   UNL     1      -2.837   0.294   0.660  1.00  0.00     0.009 A 
ATOM     16  C   UNL     1      -3.646   1.436   0.691  1.00  0.00    -0.018 A 
BRANCH  16  17
ATOM     17  C   UNL     1      -5.115   1.389   0.648  1.00  0.00    -0.018 A 
ATOM     18  C   UNL     1      -5.757   2.025  -0.418  1.00  0.00     0.011 A 
ATOM     19  C   UNL     1      -5.908   0.829   1.674  1.00  0.00     0.019 A 
ATOM     20  C   UNL     1      -7.142   2.072  -0.518  1.00  0.00     0.027 A 
ATOM     21  C   UNL     1      -7.324   0.902   1.601  1.00  0.00    -0.000 A 
ATOM     22  C   UNL     1      -7.901   1.470   0.472  1.00  0.00     0.045 A 
ATOM     23  C   UNL     1      -8.408   0.581   2.471  1.00  0.00     0.028 A 
ATOM     24  N   UNL     1      -9.262   1.319   0.565  1.00  0.00    -0.361 N 
ATOM     25  C   UNL     1      -9.586   0.878   1.818  1.00  0.00     0.083 A 
ATOM     26  H   UNL     1      -9.906   1.498  -0.159  1.00  0.00     0.166 HD
ENDBRANCH  16  17
ENDBRANCH   9  11
ENDBRANCH   7   9
ENDBRANCH   6   7
ENDBRANCH   5   6
ENDBRANCH   4   5
ENDBRANCH   3   4
ENDBRANCH   2   3
ENDBRANCH   1   2
BRANCH   1  27
ATOM     27  O   UNL     1       2.297   0.126  -2.866  1.00  0.00    -0.376 OA
BRANCH  27  28
ATOM     28  C   UNL     1       2.820  -0.452  -4.050  1.00  0.00     0.202 C 
BRANCH  28  29
ATOM     29  C   UNL     1       2.004  -0.936  -5.269  1.00  0.00     0.261 C 
BRANCH  29  30
ATOM     30  O   UNL     1       0.579  -0.848  -5.231  1.00  0.00    -0.460 OA
BRANCH  30  31
ATOM     31  C   UNL     1      -0.080  -1.932  -4.756  1.00  0.00     0.338 C 
ATOM     32  O   UNL     1       0.413  -2.964  -4.328  1.00  0.00    -0.246 OA
BRANCH  31  33
ATOM     33  C   UNL     1      -1.509  -1.571  -4.643  1.00  0.00     0.060 A 
ATOM     34  C   UNL     1      -2.100  -1.466  -3.374  1.00  0.00     0.016 A 
ATOM     35  C   UNL     1      -2.258  -1.326  -5.794  1.00  0.00     0.016 A 
ATOM     36  C   UNL     1      -3.449  -1.124  -3.255  1.00  0.00     0.010 A 
ATOM     37  C   UNL     1      -3.614  -1.017  -5.674  1.00  0.00     0.010 A 
ATOM     38  C   UNL     1      -4.223  -0.939  -4.408  1.00  0.00    -0.014 A 
BRANCH  38  39
ATOM     39  C   UNL     1      -5.701  -0.853  -4.315  1.00  0.00     0.031 A 
ATOM     40  C   UNL     1      -6.492  -2.123  -4.460  1.00  0.00     0.074 A 
ATOM     41  C   UNL     1      -6.327   0.329  -4.168  1.00  0.00     0.049 A 
ATOM     42  N   UNL     1      -7.786  -2.301  -4.429  1.00  0.00    -0.248 NA
ATOM     43  C   UNL     1      -5.719  -3.354  -4.704  1.00  0.00     0.031 C 
ATOM     44  C   UNL     1      -5.655   1.617  -4.027  1.00  0.00     0.029 A 
ATOM     45  N   UNL     1      -7.666   0.638  -4.096  1.00  0.00    -0.354 N 
ATOM     46  C   UNL     1      -7.986  -3.647  -4.711  1.00  0.00     0.074 A 
ATOM     47  C   UNL     1      -6.682  -4.243  -4.897  1.00  0.00     0.031 C 
ATOM     48  C   UNL     1      -6.582   2.574  -3.844  1.00  0.00     0.029 A 
ATOM     49  C   UNL     1      -7.917   1.972  -3.852  1.00  0.00     0.049 A 
ATOM     50  H   UNL     1      -8.380  -0.031  -4.208  1.00  0.00     0.167 HD
ATOM     51  C   UNL     1      -9.156  -4.318  -4.830  1.00  0.00     0.031 A 
ATOM     52  C   UNL     1      -9.081   2.610  -3.582  1.00  0.00     0.031 A 
ATOM     53  C   UNL     1     -10.447  -3.713  -4.645  1.00  0.00     0.049 A 
ATOM     54  C   UNL     1     -10.361   1.806  -3.598  1.00  0.00     0.074 A 
ATOM     55  C   UNL     1     -11.695  -4.304  -4.742  1.00  0.00     0.029 A 
ATOM     56  N   UNL     1     -10.658  -2.380  -4.328  1.00  0.00    -0.354 N 
ATOM     57  N   UNL     1     -10.527   0.515  -3.773  1.00  0.00    -0.248 NA
ATOM     58  C   UNL     1     -11.613   2.544  -3.371  1.00  0.00     0.031 C 
ATOM     59  C   UNL     1     -12.661  -3.313  -4.544  1.00  0.00     0.029 A 
ATOM     60  C   UNL     1     -12.016  -2.122  -4.252  1.00  0.00     0.049 A 
ATOM     61  H   UNL     1      -9.947  -1.715  -4.179  1.00  0.00     0.167 HD
ATOM     62  C   UNL     1     -11.899   0.294  -3.701  1.00  0.00     0.074 A 
ATOM     63  C   UNL     1     -12.509   1.567  -3.377  1.00  0.00     0.031 C 
ATOM     64  C   UNL     1     -12.600  -0.846  -3.924  1.00  0.00     0.031 A 
BRANCH  51  65
ATOM     65  C   UNL     1      -9.092  -5.763  -5.251  1.00  0.00    -0.014 A 
ATOM     66  C   UNL     1      -8.602  -6.764  -4.395  1.00  0.00     0.010 A 
ATOM     67  C   UNL     1      -9.567  -6.126  -6.526  1.00  0.00     0.010 A 
ATOM     68  C   UNL     1      -8.555  -8.095  -4.819  1.00  0.00     0.020 A 
ATOM     69  C   UNL     1      -9.552  -7.459  -6.941  1.00  0.00     0.020 A 
ATOM     70  C   UNL     1      -9.032  -8.434  -6.090  1.00  0.00     0.054 A 
BRANCH  70  71
ATOM     71  S   UNL     1      -8.988 -10.174  -6.601  1.00  0.00     0.124 S 
ATOM     72  O   UNL     1      -7.557 -10.396  -6.790  1.00  0.00    -0.237 OA
ATOM     73  O   UNL     1      -9.584 -10.857  -5.456  1.00  0.00    -0.237 OA
ATOM     74  O   UNL     1      -9.787 -10.197  -7.823  1.00  0.00    -0.744 OA
ENDBRANCH  70  71
ENDBRANCH  51  65
BRANCH  52  75
ATOM     75  C   UNL     1      -9.095   4.048  -3.149  1.00  0.00    -0.014 A 
ATOM     76  C   UNL     1      -9.599   4.404  -1.879  1.00  0.00     0.010 A 
ATOM     77  C   UNL     1      -8.586   5.071  -3.966  1.00  0.00     0.010 A 
ATOM     78  C   UNL     1      -9.600   5.732  -1.440  1.00  0.00     0.020 A 
ATOM     79  C   UNL     1      -8.552   6.399  -3.520  1.00  0.00     0.020 A 
ATOM     80  C   UNL     1      -9.069   6.722  -2.264  1.00  0.00     0.054 A 
BRANCH  80  81
ATOM     81  S   UNL     1      -9.040   8.432  -1.658  1.00  0.00     0.124 S 
ATOM     82  O   UNL     1     -10.456   8.784  -1.676  1.00  0.00    -0.237 OA
ATOM     83  O   UNL     1      -8.440   8.288  -0.335  1.00  0.00    -0.237 OA
ATOM     84  O   UNL     1      -8.210   9.127  -2.640  1.00  0.00    -0.744 OA
ENDBRANCH  80  81
ENDBRANCH  52  75
BRANCH  64  85
ATOM     85  C   UNL     1     -14.104  -0.766  -3.842  1.00  0.00    -0.014 A 
ATOM     86  C   UNL     1     -14.843  -0.053  -4.805  1.00  0.00     0.010 A 
ATOM     87  C   UNL     1     -14.792  -1.468  -2.835  1.00  0.00     0.010 A 
ATOM     88  C   UNL     1     -16.237  -0.009  -4.739  1.00  0.00     0.020 A 
ATOM     89  C   UNL     1     -16.189  -1.454  -2.785  1.00  0.00     0.020 A 
ATOM     90  C   UNL     1     -16.902  -0.711  -3.729  1.00  0.00     0.054 A 
BRANCH  90  91
ATOM     91  S   UNL     1     -18.715  -0.671  -3.692  1.00  0.00     0.124 S 
ATOM     92  O   UNL     1     -18.979   0.698  -3.256  1.00  0.00    -0.237 OA
ATOM     93  O   UNL     1     -19.069  -0.968  -5.078  1.00  0.00    -0.237 OA
ATOM     94  O   UNL     1     -19.066  -1.711  -2.728  1.00  0.00    -0.744 OA
ENDBRANCH  90  91
ENDBRANCH  64  85
ENDBRANCH  38  39
ENDBRANCH  31  33
ENDBRANCH  30  31
ENDBRANCH  29  30
ENDBRANCH  28  29
ENDBRANCH  27  28
ENDBRANCH   1  27
TORSDOF 22
