REMARK SMILES CC(=O)Nc1ccc2sc(C(=O)OCCOCCOCCOC(=O)c3ccc(-c4c5nc(c(-c6ccc(S(=O)(=O)[O-])cc6)c6ccc([nH]6)c(-c6ccc(S(=O)(=O)[O-])cc6)c6nc(c(-c7ccc(S(=O)(=O)[O-])cc7)c7ccc4[nH]7)C=C6)C=C5)cc3)cc2c1
REMARK SMILES IDX 18 1 17 2 16 3 15 4 14 5 13 6 11 7 12 8 10 9 5 10 6 11 87 12
REMARK SMILES IDX 7 13 86 14 8 15 85 16 9 17 4 18 1 19 2 20 3 21 19 23 20 24
REMARK SMILES IDX 21 25 22 26 23 27 24 28 25 29 26 30 84 31 27 32 83 33 28 34
REMARK SMILES IDX 29 35 30 36 77 37 31 38 82 39 76 40 78 41 32 42 81 43 75 44
REMARK SMILES IDX 74 45 33 47 63 48 44 49 62 50 45 51 48 52 61 53 79 54 46 55
REMARK SMILES IDX 47 56 60 58 80 59 49 60 34 61 35 62 43 63 36 64 42 65 37 66
REMARK SMILES IDX 38 67 39 68 40 69 41 70 64 71 65 72 73 73 66 74 72 75 67 76
REMARK SMILES IDX 68 77 69 78 70 79 71 80 50 81 51 82 59 83 52 84 58 85 53 86
REMARK SMILES IDX 54 87 55 88 56 89 57 90
REMARK H PARENT 4 22 78 46 48 57
REMARK Flexibility Score: inf
ROOT
ATOM      1  C   UNL     1       4.417  -3.530  -8.324  1.00  0.00     0.188 C 
ENDROOT
BRANCH   1   2
ATOM      2  C   UNL     1       3.018  -3.661  -8.960  1.00  0.00     0.188 C 
BRANCH   2   3
ATOM      3  O   UNL     1       2.790  -3.249 -10.305  1.00  0.00    -0.376 OA
BRANCH   3   4
ATOM      4  C   UNL     1       3.470  -2.124 -10.839  1.00  0.00     0.202 C 
BRANCH   4   5
ATOM      5  C   UNL     1       3.186  -0.753 -10.218  1.00  0.00     0.261 C 
BRANCH   5   6
ATOM      6  O   UNL     1       3.354  -0.716  -8.794  1.00  0.00    -0.459 OA
BRANCH   6   7
ATOM      7  C   UNL     1       2.205  -0.540  -8.079  1.00  0.00     0.348 C 
ATOM      8  O   UNL     1       1.107  -0.309  -8.570  1.00  0.00    -0.245 OA
BRANCH   7   9
ATOM      9  C   UNL     1       2.415  -0.810  -6.673  1.00  0.00     0.113 A 
ATOM     10  C   UNL     1       1.777  -1.776  -2.071  1.00  0.00     0.041 A 
ATOM     11  C   UNL     1       2.985  -1.103  -1.913  1.00  0.00     0.027 A 
ATOM     12  C   UNL     1       1.304  -2.064  -3.352  1.00  0.00     0.035 A 
ATOM     13  C   UNL     1       3.703  -0.644  -3.024  1.00  0.00     0.022 A 
ATOM     14  C   UNL     1       1.954  -1.521  -4.485  1.00  0.00    -0.005 A 
ATOM     15  C   UNL     1       3.150  -0.823  -4.305  1.00  0.00     0.035 A 
ATOM     16  C   UNL     1       1.551  -1.507  -5.855  1.00  0.00     0.036 A 
ATOM     17  S   UNL     1       3.774  -0.251  -5.810  1.00  0.00    -0.128 S 
BRANCH  10  18
ATOM     18  N   UNL     1       0.991  -2.183  -0.984  1.00  0.00    -0.326 N 
ATOM     19  C   UNL     1       1.083  -0.048   0.278  1.00  0.00     0.114 C 
ATOM     20  C   UNL     1       0.724  -1.509   0.177  1.00  0.00     0.221 C 
ATOM     21  O   UNL     1       0.127  -2.075   1.093  1.00  0.00    -0.275 OA
ATOM     22  H   UNL     1       0.575  -3.072  -1.067  1.00  0.00     0.169 HD
ENDBRANCH  10  18
ENDBRANCH   7   9
ENDBRANCH   6   7
ENDBRANCH   5   6
ENDBRANCH   4   5
ENDBRANCH   3   4
ENDBRANCH   2   3
ENDBRANCH   1   2
BRANCH   1  23
ATOM     23  O   UNL     1       5.459  -3.327  -9.264  1.00  0.00    -0.376 OA
BRANCH  23  24
ATOM     24  C   UNL     1       6.401  -4.378  -9.405  1.00  0.00     0.202 C 
BRANCH  24  25
ATOM     25  C   UNL     1       5.881  -5.645 -10.094  1.00  0.00     0.261 C 
BRANCH  25  26
ATOM     26  O   UNL     1       4.709  -6.237  -9.512  1.00  0.00    -0.460 OA
BRANCH  26  27
ATOM     27  C   UNL     1       4.856  -6.840  -8.311  1.00  0.00     0.338 C 
ATOM     28  O   UNL     1       5.873  -6.903  -7.645  1.00  0.00    -0.246 OA
BRANCH  27  29
ATOM     29  C   UNL     1       3.518  -7.282  -7.859  1.00  0.00     0.060 A 
ATOM     30  C   UNL     1       3.034  -6.832  -6.625  1.00  0.00     0.016 A 
ATOM     31  C   UNL     1       2.750  -8.142  -8.649  1.00  0.00     0.016 A 
ATOM     32  C   UNL     1       1.791  -7.273  -6.163  1.00  0.00     0.010 A 
ATOM     33  C   UNL     1       1.514  -8.594  -8.178  1.00  0.00     0.010 A 
ATOM     34  C   UNL     1       1.041  -8.186  -6.919  1.00  0.00    -0.014 A 
BRANCH  34  35
ATOM     35  C   UNL     1      -0.139  -8.860  -6.319  1.00  0.00     0.031 A 
ATOM     36  C   UNL     1       0.057 -10.204  -5.670  1.00  0.00     0.074 A 
ATOM     37  C   UNL     1      -1.359  -8.294  -6.340  1.00  0.00     0.049 A 
ATOM     38  N   UNL     1      -0.822 -10.988  -5.103  1.00  0.00    -0.248 NA
ATOM     39  C   UNL     1       1.432 -10.732  -5.659  1.00  0.00     0.031 C 
ATOM     40  C   UNL     1      -1.679  -6.985  -6.905  1.00  0.00     0.029 A 
ATOM     41  N   UNL     1      -2.563  -8.763  -5.872  1.00  0.00    -0.354 N 
ATOM     42  C   UNL     1      -0.110 -12.099  -4.666  1.00  0.00     0.074 A 
ATOM     43  C   UNL     1       1.268 -11.902  -5.061  1.00  0.00     0.031 C 
ATOM     44  C   UNL     1      -2.997  -6.756  -6.753  1.00  0.00     0.029 A 
ATOM     45  C   UNL     1      -3.617  -7.912  -6.108  1.00  0.00     0.049 A 
ATOM     46  H   UNL     1      -2.661  -9.627  -5.410  1.00  0.00     0.167 HD
ATOM     47  C   UNL     1      -0.557 -13.186  -3.993  1.00  0.00     0.031 A 
ATOM     48  C   UNL     1      -4.932  -8.058  -5.846  1.00  0.00     0.031 A 
ATOM     49  C   UNL     1      -1.930 -13.403  -3.626  1.00  0.00     0.049 A 
ATOM     50  C   UNL     1      -5.421  -9.312  -5.167  1.00  0.00     0.074 A 
ATOM     51  C   UNL     1      -2.482 -14.476  -2.949  1.00  0.00     0.029 A 
ATOM     52  N   UNL     1      -2.970 -12.533  -3.915  1.00  0.00    -0.354 N 
ATOM     53  N   UNL     1      -4.731 -10.345  -4.744  1.00  0.00    -0.248 NA
ATOM     54  C   UNL     1      -6.868  -9.416  -4.924  1.00  0.00     0.031 C 
ATOM     55  C   UNL     1      -3.865 -14.276  -2.868  1.00  0.00     0.029 A 
ATOM     56  C   UNL     1      -4.165 -13.053  -3.446  1.00  0.00     0.049 A 
ATOM     57  H   UNL     1      -2.874 -11.673  -4.384  1.00  0.00     0.167 HD
ATOM     58  C   UNL     1      -5.655 -11.204  -4.155  1.00  0.00     0.074 A 
ATOM     59  C   UNL     1      -6.951 -10.568  -4.272  1.00  0.00     0.031 C 
ATOM     60  C   UNL     1      -5.447 -12.407  -3.565  1.00  0.00     0.031 A 
BRANCH  47  61
ATOM     61  C   UNL     1       0.459 -14.239  -3.642  1.00  0.00    -0.014 A 
ATOM     62  C   UNL     1       1.417 -14.015  -2.636  1.00  0.00     0.010 A 
ATOM     63  C   UNL     1       0.451 -15.471  -4.320  1.00  0.00     0.010 A 
ATOM     64  C   UNL     1       2.379 -14.986  -2.348  1.00  0.00     0.020 A 
ATOM     65  C   UNL     1       1.396 -16.455  -4.017  1.00  0.00     0.020 A 
ATOM     66  C   UNL     1       2.367 -16.197  -3.047  1.00  0.00     0.054 A 
BRANCH  66  67
ATOM     67  S   UNL     1       3.627 -17.442  -2.656  1.00  0.00     0.124 S 
ATOM     68  O   UNL     1       4.814 -16.877  -3.293  1.00  0.00    -0.237 OA
ATOM     69  O   UNL     1       3.639 -17.441  -1.195  1.00  0.00    -0.237 OA
ATOM     70  O   UNL     1       3.112 -18.662  -3.271  1.00  0.00    -0.744 OA
ENDBRANCH  66  67
ENDBRANCH  47  61
BRANCH  48  71
ATOM     71  C   UNL     1      -5.892  -6.987  -6.231  1.00  0.00    -0.014 A 
ATOM     72  C   UNL     1      -6.514  -6.196  -5.249  1.00  0.00     0.010 A 
ATOM     73  C   UNL     1      -6.197  -6.758  -7.585  1.00  0.00     0.010 A 
ATOM     74  C   UNL     1      -7.434  -5.208  -5.612  1.00  0.00     0.020 A 
ATOM     75  C   UNL     1      -7.097  -5.755  -7.954  1.00  0.00     0.020 A 
ATOM     76  C   UNL     1      -7.719  -4.993  -6.963  1.00  0.00     0.054 A 
BRANCH  76  77
ATOM     77  S   UNL     1      -8.877  -3.670  -7.416  1.00  0.00     0.124 S 
ATOM     78  O   UNL     1     -10.164  -4.260  -7.063  1.00  0.00    -0.237 OA
ATOM     79  O   UNL     1      -8.436  -2.562  -6.573  1.00  0.00    -0.237 OA
ATOM     80  O   UNL     1      -8.642  -3.487  -8.846  1.00  0.00    -0.744 OA
ENDBRANCH  76  77
ENDBRANCH  48  71
BRANCH  60  81
ATOM     81  C   UNL     1      -6.637 -13.099  -2.954  1.00  0.00    -0.014 A 
ATOM     82  C   UNL     1      -7.617 -13.715  -3.753  1.00  0.00     0.010 A 
ATOM     83  C   UNL     1      -6.742 -13.184  -1.553  1.00  0.00     0.010 A 
ATOM     84  C   UNL     1      -8.697 -14.377  -3.161  1.00  0.00     0.020 A 
ATOM     85  C   UNL     1      -7.806 -13.866  -0.958  1.00  0.00     0.020 A 
ATOM     86  C   UNL     1      -8.786 -14.446  -1.766  1.00  0.00     0.054 A 
BRANCH  86  87
ATOM     87  S   UNL     1     -10.172 -15.348  -1.020  1.00  0.00     0.124 S 
ATOM     88  O   UNL     1     -11.275 -14.407  -1.193  1.00  0.00    -0.237 OA
ATOM     89  O   UNL     1     -10.245 -16.559  -1.834  1.00  0.00    -0.237 OA
ATOM     90  O   UNL     1      -9.744 -15.559   0.361  1.00  0.00    -0.744 OA
ENDBRANCH  86  87
ENDBRANCH  60  81
ENDBRANCH  34  35
ENDBRANCH  27  29
ENDBRANCH  26  27
ENDBRANCH  25  26
ENDBRANCH  24  25
ENDBRANCH  23  24
ENDBRANCH   1  23
TORSDOF 21
