REMARK SMILES Cc1cccc(OCC(=O)Nc2cc(C(=O)OCCOCCOCCOC(=O)c3ccc(-c4c5nc(c(-c6ccc(S(=O)(=O)[O-])cc6)c6ccc([nH]6)c(-c6ccc(S(=O)(=O)[O-])cc6)c6nc(c(-c7ccc(S(=O)(=O)[O-])cc7)c7ccc4[nH]7)C=C6)C=C5)cc3)c(Cl)cc2Cl)c1
REMARK SMILES IDX 21 1 20 2 19 3 18 4 17 5 15 6 16 7 14 8 12 9 13 10 92 11
REMARK SMILES IDX 91 12 93 13 89 14 90 15 11 16 9 17 10 18 8 20 7 21 6 22 1 23
REMARK SMILES IDX 2 24 3 25 94 26 4 27 5 28 22 29 23 30 24 31 25 32 26 33
REMARK SMILES IDX 27 34 28 35 29 36 30 37 88 38 31 39 87 40 32 41 33 42 34 43
REMARK SMILES IDX 81 44 35 45 86 46 80 47 82 48 36 49 85 50 79 51 78 52 37 54
REMARK SMILES IDX 67 55 48 56 66 57 49 58 52 59 65 60 83 61 50 62 51 63 64 65
REMARK SMILES IDX 84 66 53 67 38 68 39 69 47 70 40 71 46 72 41 73 42 74 43 75
REMARK SMILES IDX 44 76 45 77 68 78 69 79 77 80 70 81 76 82 71 83 72 84 73 85
REMARK SMILES IDX 74 86 75 87 54 88 55 89 63 90 56 91 62 92 57 93 58 94 59 95
REMARK SMILES IDX 60 96 61 97
REMARK H PARENT 11 19 82 53 52 64
REMARK Flexibility Score: inf
ROOT
ATOM      1  C   UNL     1      -7.182  -1.541   1.308  1.00  0.00     0.188 C 
ENDROOT
BRANCH   1   2
ATOM      2  O   UNL     1      -7.000  -1.252  -0.082  1.00  0.00    -0.376 OA
BRANCH   2   3
ATOM      3  C   UNL     1      -5.750  -1.578  -0.682  1.00  0.00     0.202 C 
BRANCH   3   4
ATOM      4  C   UNL     1      -4.530  -0.588  -0.773  1.00  0.00     0.261 C 
BRANCH   4   5
ATOM      5  O   UNL     1      -3.850   0.173   0.395  1.00  0.00    -0.460 OA
BRANCH   5   6
ATOM      6  C   UNL     1      -2.751   0.692   1.143  1.00  0.00     0.339 C 
ATOM      7  O   UNL     1      -1.700   0.048   1.175  1.00  0.00    -0.246 OA
BRANCH   6   8
ATOM      8  C   UNL     1      -2.902   2.143   2.378  1.00  0.00     0.080 A 
ATOM      9  C   UNL     1      -1.333   3.665   3.267  1.00  0.00     0.061 A 
ATOM     10  C   UNL     1      -1.671   2.344   2.965  1.00  0.00     0.045 A 
ATOM     11  C   UNL     1      -2.175   4.381   4.100  1.00  0.00     0.066 A 
ATOM     12  C   UNL     1      -3.499   4.176   3.893  1.00  0.00     0.044 A 
ATOM     13  Cl  UNL     1      -1.669   5.806   4.920  1.00  0.00    -0.082 Cl
ATOM     14  C   UNL     1      -3.850   3.257   2.878  1.00  0.00     0.057 A 
ATOM     15  Cl  UNL     1      -5.388   4.011   2.313  1.00  0.00    -0.083 Cl
BRANCH   9  16
ATOM     16  N   UNL     1      -0.790   4.488   2.228  1.00  0.00    -0.322 N 
ATOM     17  C   UNL     1      -1.268   4.940   0.991  1.00  0.00     0.262 C 
ATOM     18  O   UNL     1      -0.631   5.925   0.568  1.00  0.00    -0.271 OA
ATOM     19  H   UNL     1       0.120   4.807   2.427  1.00  0.00     0.170 HD
BRANCH  17  20
ATOM     20  C   UNL     1      -2.591   4.243  -0.116  1.00  0.00     0.329 C 
BRANCH  20  21
ATOM     21  O   UNL     1      -2.419   2.469  -1.270  1.00  0.00    -0.484 OA
BRANCH  21  22
ATOM     22  C   UNL     1      -1.266   1.293  -1.583  1.00  0.00     0.120 A 
ATOM     23  C   UNL     1       2.203   0.143  -0.222  1.00  0.00     0.044 C 
ATOM     24  C   UNL     1       0.802   0.099  -0.776  1.00  0.00    -0.047 A 
ATOM     25  C   UNL     1       0.122  -1.105  -0.875  1.00  0.00     0.003 A 
ATOM     26  C   UNL     1       0.119   1.280  -1.149  1.00  0.00     0.049 A 
ATOM     27  C   UNL     1      -1.147  -1.125  -1.473  1.00  0.00     0.004 A 
ATOM     28  C   UNL     1      -1.805   0.064  -1.902  1.00  0.00     0.046 A 
ENDBRANCH  21  22
ENDBRANCH  20  21
ENDBRANCH  17  20
ENDBRANCH   9  16
ENDBRANCH   6   8
ENDBRANCH   5   6
ENDBRANCH   4   5
ENDBRANCH   3   4
ENDBRANCH   2   3
ENDBRANCH   1   2
BRANCH   1  29
ATOM     29  C   UNL     1      -6.466  -2.714   1.907  1.00  0.00     0.188 C 
BRANCH  29  30
ATOM     30  O   UNL     1      -5.064  -2.505   1.773  1.00  0.00    -0.376 OA
BRANCH  30  31
ATOM     31  C   UNL     1      -4.258  -3.582   2.201  1.00  0.00     0.202 C 
BRANCH  31  32
ATOM     32  C   UNL     1      -4.638  -4.154   3.584  1.00  0.00     0.261 C 
BRANCH  32  33
ATOM     33  O   UNL     1      -4.183  -3.464   4.795  1.00  0.00    -0.460 OA
BRANCH  33  34
ATOM     34  C   UNL     1      -4.877  -2.473   5.493  1.00  0.00     0.338 C 
ATOM     35  O   UNL     1      -4.926  -2.484   6.715  1.00  0.00    -0.246 OA
BRANCH  34  36
ATOM     36  C   UNL     1      -5.082  -1.230   4.703  1.00  0.00     0.060 A 
ATOM     37  C   UNL     1      -5.903  -0.094   4.727  1.00  0.00     0.016 A 
ATOM     38  C   UNL     1      -4.019  -1.038   3.933  1.00  0.00     0.016 A 
ATOM     39  C   UNL     1      -5.954   0.901   3.617  1.00  0.00     0.010 A 
ATOM     40  C   UNL     1      -4.098  -0.081   2.957  1.00  0.00     0.010 A 
ATOM     41  C   UNL     1      -5.107   0.831   2.511  1.00  0.00    -0.014 A 
BRANCH  41  42
ATOM     42  C   UNL     1      -5.101   1.794   0.974  1.00  0.00     0.031 A 
ATOM     43  C   UNL     1      -3.662   2.553   0.023  1.00  0.00     0.074 A 
ATOM     44  C   UNL     1      -6.288   1.777   0.297  1.00  0.00     0.049 A 
ATOM     45  N   UNL     1      -4.025   3.413  -1.264  1.00  0.00    -0.248 NA
ATOM     46  C   UNL     1      -1.610   2.718   0.259  1.00  0.00     0.031 C 
ATOM     47  C   UNL     1      -6.598   2.157  -1.082  1.00  0.00     0.029 A 
ATOM     48  N   UNL     1      -7.533   1.341   0.764  1.00  0.00    -0.354 N 
ATOM     49  C   UNL     1      -2.601   4.043  -2.169  1.00  0.00     0.074 A 
ATOM     50  C   UNL     1      -1.056   3.658  -1.090  1.00  0.00     0.031 C 
ATOM     51  C   UNL     1      -7.933   2.177  -1.261  1.00  0.00     0.029 A 
ATOM     52  C   UNL     1      -8.534   1.992   0.044  1.00  0.00     0.049 A 
ATOM     53  H   UNL     1      -7.678   0.682   1.482  1.00  0.00     0.167 HD
ATOM     54  C   UNL     1      -2.838   4.514  -3.416  1.00  0.00     0.031 A 
ATOM     55  C   UNL     1      -9.398   2.819   0.688  1.00  0.00     0.031 A 
ATOM     56  C   UNL     1      -4.286   4.700  -3.577  1.00  0.00     0.049 A 
ATOM     57  C   UNL     1      -9.153   4.216   0.157  1.00  0.00     0.074 A 
ATOM     58  C   UNL     1      -5.277   3.999  -4.242  1.00  0.00     0.029 A 
ATOM     59  N   UNL     1      -4.970   5.544  -2.682  1.00  0.00    -0.354 N 
ATOM     60  N   UNL     1      -8.021   4.575  -0.408  1.00  0.00    -0.248 NA
ATOM     61  C   UNL     1     -10.182   5.238   0.020  1.00  0.00     0.031 C 
ATOM     62  C   UNL     1      -6.546   4.402  -3.709  1.00  0.00     0.029 A 
ATOM     63  C   UNL     1      -6.350   5.361  -2.722  1.00  0.00     0.049 A 
ATOM     64  H   UNL     1      -4.522   6.193  -2.092  1.00  0.00     0.167 HD
ATOM     65  C   UNL     1      -8.194   5.728  -1.114  1.00  0.00     0.074 A 
ATOM     66  C   UNL     1      -9.553   6.137  -0.762  1.00  0.00     0.031 C 
ATOM     67  C   UNL     1      -7.273   6.254  -1.985  1.00  0.00     0.031 A 
BRANCH  54  68
ATOM     68  C   UNL     1      -1.753   4.531  -4.463  1.00  0.00    -0.014 A 
ATOM     69  C   UNL     1      -2.062   4.547  -5.833  1.00  0.00     0.010 A 
ATOM     70  C   UNL     1      -0.380   4.445  -4.154  1.00  0.00     0.010 A 
ATOM     71  C   UNL     1      -1.058   4.455  -6.823  1.00  0.00     0.020 A 
ATOM     72  C   UNL     1       0.628   4.312  -5.117  1.00  0.00     0.020 A 
ATOM     73  C   UNL     1       0.284   4.331  -6.457  1.00  0.00     0.054 A 
BRANCH  73  74
ATOM     74  S   UNL     1       1.577   4.225  -7.725  1.00  0.00     0.124 S 
ATOM     75  O   UNL     1       1.118   3.120  -8.562  1.00  0.00    -0.237 OA
ATOM     76  O   UNL     1       1.517   5.549  -8.338  1.00  0.00    -0.237 OA
ATOM     77  O   UNL     1       2.795   3.952  -6.963  1.00  0.00    -0.744 OA
ENDBRANCH  73  74
ENDBRANCH  54  68
BRANCH  55  78
ATOM     78  C   UNL     1      -9.820   2.246   2.021  1.00  0.00    -0.014 A 
ATOM     79  C   UNL     1     -10.541   1.019   1.957  1.00  0.00     0.010 A 
ATOM     80  C   UNL     1      -9.167   2.526   3.234  1.00  0.00     0.010 A 
ATOM     81  C   UNL     1     -10.446   0.040   2.961  1.00  0.00     0.020 A 
ATOM     82  C   UNL     1      -9.112   1.555   4.275  1.00  0.00     0.020 A 
ATOM     83  C   UNL     1      -9.687   0.291   4.098  1.00  0.00     0.054 A 
BRANCH  83  84
ATOM     84  S   UNL     1      -9.339  -1.125   5.206  1.00  0.00     0.124 S 
ATOM     85  O   UNL     1     -10.664  -1.483   5.696  1.00  0.00    -0.237 OA
ATOM     86  O   UNL     1      -8.726  -2.092   4.293  1.00  0.00    -0.237 OA
ATOM     87  O   UNL     1      -8.448  -0.575   6.219  1.00  0.00    -0.744 OA
ENDBRANCH  83  84
ENDBRANCH  55  78
BRANCH  67  88
ATOM     88  C   UNL     1      -7.245   7.733  -2.302  1.00  0.00    -0.014 A 
ATOM     89  C   UNL     1      -7.929   8.695  -1.540  1.00  0.00     0.010 A 
ATOM     90  C   UNL     1      -6.369   8.218  -3.300  1.00  0.00     0.010 A 
ATOM     91  C   UNL     1      -7.817  10.058  -1.814  1.00  0.00     0.020 A 
ATOM     92  C   UNL     1      -6.182   9.582  -3.525  1.00  0.00     0.020 A 
ATOM     93  C   UNL     1      -6.938  10.493  -2.801  1.00  0.00     0.054 A 
BRANCH  93  94
ATOM     94  S   UNL     1      -6.765  12.264  -3.089  1.00  0.00     0.124 S 
ATOM     95  O   UNL     1      -7.968  12.557  -3.864  1.00  0.00    -0.237 OA
ATOM     96  O   UNL     1      -6.745  12.808  -1.733  1.00  0.00    -0.237 OA
ATOM     97  O   UNL     1      -5.504  12.375  -3.817  1.00  0.00    -0.744 OA
ENDBRANCH  93  94
ENDBRANCH  67  88
ENDBRANCH  41  42
ENDBRANCH  34  36
ENDBRANCH  33  34
ENDBRANCH  32  33
ENDBRANCH  31  32
ENDBRANCH  30  31
ENDBRANCH  29  30
ENDBRANCH   1  29
TORSDOF 24
