REMARK SMILES CC/C=C/C/C=C/C/C=C/C/C=C/CCSCCCC(=O)OCCOCCOCCOC(=O)c1ccc(-c2c3nc(c(-c4ccc(S(=O)(=O)[O-])cc4)c4ccc([nH]4)c(-c4ccc(S(=O)(=O)[O-])cc4)c4nc(c(-c5ccc(S(=O)(=O)[O-])cc5)c5ccc2[nH]5)C=C4)C=C3)cc1
REMARK SMILES IDX 20 1 21 2 19 3 18 4 17 5 16 6 15 7 14 8 13 9 12 10 11 11
REMARK SMILES IDX 10 12 9 13 8 14 7 15 6 16 5 17 4 18 3 19 2 20 1 21 22 22
REMARK SMILES IDX 23 23 24 24 25 25 26 26 27 27 28 28 29 29 30 30 31 31 32 32
REMARK SMILES IDX 33 33 34 34 35 35 93 36 36 37 92 38 37 39 38 40 39 41 86 42
REMARK SMILES IDX 40 43 91 44 85 45 87 46 41 47 90 48 84 49 83 50 42 52 72 53
REMARK SMILES IDX 53 54 71 55 54 56 57 57 70 58 88 59 55 60 56 61 69 63 89 64
REMARK SMILES IDX 58 65 43 66 44 67 52 68 45 69 51 70 46 71 47 72 48 73 49 74
REMARK SMILES IDX 50 75 73 76 74 77 82 78 75 79 81 80 76 81 77 82 78 83 79 84
REMARK SMILES IDX 80 85 59 86 60 87 68 88 61 89 67 90 62 91 63 92 64 93 65 94
REMARK SMILES IDX 66 95
REMARK H PARENT 87 51 57 62
REMARK Flexibility Score: inf
ROOT
ATOM      1  C   UNL     1      -4.851  10.532  -1.700  1.00  0.00     0.305 C 
ATOM      2  O   UNL     1      -4.113   9.795  -1.076  1.00  0.00    -0.252 OA
ENDROOT
BRANCH   1   3
ATOM      3  C   UNL     1      -4.417  11.940  -2.048  1.00  0.00     0.123 C 
BRANCH   3   4
ATOM      4  C   UNL     1      -5.453  12.892  -2.632  1.00  0.00     0.023 C 
BRANCH   4   5
ATOM      5  C   UNL     1      -6.939  12.742  -2.297  1.00  0.00     0.070 C 
BRANCH   5   6
ATOM      6  S   UNL     1      -7.692  12.720  -0.618  1.00  0.00    -0.162 SA
BRANCH   6   7
ATOM      7  C   UNL     1      -6.355  12.488   0.610  1.00  0.00     0.073 C 
BRANCH   7   8
ATOM      8  C   UNL     1      -6.611  11.344   1.618  1.00  0.00     0.038 C 
BRANCH   8   9
ATOM      9  C   UNL     1      -6.221   9.948   1.188  1.00  0.00    -0.030 C 
ATOM     10  C   UNL     1      -5.129   9.256   1.577  1.00  0.00    -0.027 C 
BRANCH  10  11
ATOM     11  C   UNL     1      -4.758   7.848   1.121  1.00  0.00     0.054 C 
BRANCH  11  12
ATOM     12  C   UNL     1      -3.358   7.750   0.549  1.00  0.00    -0.027 C 
ATOM     13  C   UNL     1      -2.956   6.990  -0.493  1.00  0.00    -0.027 C 
BRANCH  13  14
ATOM     14  C   UNL     1      -1.565   7.022  -1.084  1.00  0.00     0.054 C 
BRANCH  14  15
ATOM     15  C   UNL     1      -0.578   6.461  -0.110  1.00  0.00    -0.027 C 
ATOM     16  C   UNL     1       0.144   5.346  -0.294  1.00  0.00    -0.027 C 
BRANCH  16  17
ATOM     17  C   UNL     1       0.909   4.694   0.823  1.00  0.00     0.054 C 
BRANCH  17  18
ATOM     18  C   UNL     1       0.361   3.312   1.050  1.00  0.00    -0.027 C 
ATOM     19  C   UNL     1       1.113   2.203   1.108  1.00  0.00    -0.031 C 
BRANCH  19  20
ATOM     20  C   UNL     1       0.548   0.822   1.255  1.00  0.00     0.023 C 
ATOM     21  C   UNL     1       0.970  -0.054   0.085  1.00  0.00     0.008 C 
ENDBRANCH  19  20
ENDBRANCH  17  18
ENDBRANCH  16  17
ENDBRANCH  14  15
ENDBRANCH  13  14
ENDBRANCH  11  12
ENDBRANCH  10  11
ENDBRANCH   8   9
ENDBRANCH   7   8
ENDBRANCH   6   7
ENDBRANCH   5   6
ENDBRANCH   4   5
ENDBRANCH   3   4
ENDBRANCH   1   3
BRANCH   1  22
ATOM     22  O   UNL     1      -6.020  10.185  -2.264  1.00  0.00    -0.463 OA
BRANCH  22  23
ATOM     23  C   UNL     1      -6.748   8.932  -2.221  1.00  0.00     0.261 C 
BRANCH  23  24
ATOM     24  C   UNL     1      -6.055   7.586  -2.416  1.00  0.00     0.202 C 
BRANCH  24  25
ATOM     25  O   UNL     1      -5.328   7.363  -3.608  1.00  0.00    -0.376 OA
BRANCH  25  26
ATOM     26  C   UNL     1      -4.333   8.325  -3.891  1.00  0.00     0.188 C 
BRANCH  26  27
ATOM     27  C   UNL     1      -4.845   9.505  -4.746  1.00  0.00     0.188 C 
BRANCH  27  28
ATOM     28  O   UNL     1      -6.146   9.465  -5.311  1.00  0.00    -0.376 OA
BRANCH  28  29
ATOM     29  C   UNL     1      -6.587   8.252  -5.903  1.00  0.00     0.202 C 
BRANCH  29  30
ATOM     30  C   UNL     1      -5.697   7.526  -6.931  1.00  0.00     0.261 C 
BRANCH  30  31
ATOM     31  O   UNL     1      -4.295   7.414  -6.620  1.00  0.00    -0.460 OA
BRANCH  31  32
ATOM     32  C   UNL     1      -3.470   8.303  -7.232  1.00  0.00     0.338 C 
ATOM     33  O   UNL     1      -3.796   9.147  -8.056  1.00  0.00    -0.246 OA
BRANCH  32  34
ATOM     34  C   UNL     1      -2.135   8.295  -6.576  1.00  0.00     0.060 A 
ATOM     35  C   UNL     1      -1.637   9.491  -6.023  1.00  0.00     0.016 A 
ATOM     36  C   UNL     1      -1.372   7.130  -6.513  1.00  0.00     0.016 A 
ATOM     37  C   UNL     1      -0.367   9.538  -5.449  1.00  0.00     0.010 A 
ATOM     38  C   UNL     1      -0.077   7.189  -5.983  1.00  0.00     0.010 A 
ATOM     39  C   UNL     1       0.446   8.403  -5.495  1.00  0.00    -0.014 A 
BRANCH  39  40
ATOM     40  C   UNL     1       1.914   8.554  -5.334  1.00  0.00     0.031 A 
ATOM     41  C   UNL     1       2.730   8.740  -6.588  1.00  0.00     0.074 A 
ATOM     42  C   UNL     1       2.515   8.539  -4.132  1.00  0.00     0.049 A 
ATOM     43  N   UNL     1       4.027   8.787  -6.737  1.00  0.00    -0.248 NA
ATOM     44  C   UNL     1       1.974   8.887  -7.845  1.00  0.00     0.031 C 
ATOM     45  C   UNL     1       1.834   8.449  -2.843  1.00  0.00     0.029 A 
ATOM     46  N   UNL     1       3.848   8.583  -3.807  1.00  0.00    -0.354 N 
ATOM     47  C   UNL     1       4.242   8.948  -8.102  1.00  0.00     0.074 A 
ATOM     48  C   UNL     1       2.945   8.969  -8.740  1.00  0.00     0.031 C 
ATOM     49  C   UNL     1       2.757   8.412  -1.864  1.00  0.00     0.029 A 
ATOM     50  C   UNL     1       4.092   8.441  -2.461  1.00  0.00     0.049 A 
ATOM     51  H   UNL     1       4.562   8.705  -4.473  1.00  0.00     0.167 HD
ATOM     52  C   UNL     1       5.414   9.068  -8.766  1.00  0.00     0.031 A 
ATOM     53  C   UNL     1       5.259   8.315  -1.795  1.00  0.00     0.031 A 
ATOM     54  C   UNL     1       6.702   9.033  -8.129  1.00  0.00     0.049 A 
ATOM     55  C   UNL     1       6.556   8.356  -2.567  1.00  0.00     0.074 A 
ATOM     56  C   UNL     1       7.951   9.155  -8.710  1.00  0.00     0.029 A 
ATOM     57  N   UNL     1       6.907   8.853  -6.770  1.00  0.00    -0.354 N 
ATOM     58  N   UNL     1       6.747   8.521  -3.855  1.00  0.00    -0.248 NA
ATOM     59  C   UNL     1       7.796   8.201  -1.793  1.00  0.00     0.031 C 
ATOM     60  C   UNL     1       8.913   8.984  -7.711  1.00  0.00     0.029 A 
ATOM     61  C   UNL     1       8.263   8.830  -6.497  1.00  0.00     0.049 A 
ATOM     62  H   UNL     1       6.193   8.755  -6.099  1.00  0.00     0.167 HD
ATOM     63  C   UNL     1       8.127   8.529  -4.038  1.00  0.00     0.074 A 
ATOM     64  C   UNL     1       8.722   8.362  -2.729  1.00  0.00     0.031 C 
ATOM     65  C   UNL     1       8.839   8.668  -5.185  1.00  0.00     0.031 A 
BRANCH  52  66
ATOM     66  C   UNL     1       5.355   9.202 -10.265  1.00  0.00    -0.014 A 
ATOM     67  C   UNL     1       4.869  10.370 -10.879  1.00  0.00     0.010 A 
ATOM     68  C   UNL     1       5.825   8.150 -11.072  1.00  0.00     0.010 A 
ATOM     69  C   UNL     1       4.825  10.471 -12.272  1.00  0.00     0.020 A 
ATOM     70  C   UNL     1       5.812   8.258 -12.465  1.00  0.00     0.020 A 
ATOM     71  C   UNL     1       5.298   9.414 -13.056  1.00  0.00     0.054 A 
BRANCH  71  72
ATOM     72  S   UNL     1       5.262   9.587 -14.861  1.00  0.00     0.124 S 
ATOM     73  O   UNL     1       3.831   9.505 -15.143  1.00  0.00    -0.237 OA
ATOM     74  O   UNL     1       5.868  10.900 -15.067  1.00  0.00    -0.237 OA
ATOM     75  O   UNL     1       6.055   8.456 -15.335  1.00  0.00    -0.744 OA
ENDBRANCH  71  72
ENDBRANCH  52  66
BRANCH  53  76
ATOM     76  C   UNL     1       5.261   8.114  -0.318  1.00  0.00    -0.014 A 
ATOM     77  C   UNL     1       5.776   9.101   0.541  1.00  0.00     0.010 A 
ATOM     78  C   UNL     1       4.761   6.922   0.239  1.00  0.00     0.010 A 
ATOM     79  C   UNL     1       5.812   8.892   1.923  1.00  0.00     0.020 A 
ATOM     80  C   UNL     1       4.766   6.721   1.623  1.00  0.00     0.020 A 
ATOM     81  C   UNL     1       5.303   7.704   2.456  1.00  0.00     0.054 A 
BRANCH  81  82
ATOM     82  S   UNL     1       5.322   7.476   4.256  1.00  0.00     0.124 S 
ATOM     83  O   UNL     1       6.744   7.292   4.525  1.00  0.00    -0.237 OA
ATOM     84  O   UNL     1       4.742   8.728   4.736  1.00  0.00    -0.237 OA
ATOM     85  O   UNL     1       4.487   6.293   4.459  1.00  0.00    -0.744 OA
ENDBRANCH  81  82
ENDBRANCH  53  76
BRANCH  65  86
ATOM     86  C   UNL     1      10.343   8.697  -5.079  1.00  0.00    -0.014 A 
ATOM     87  C   UNL     1      11.081   7.543  -4.766  1.00  0.00     0.010 A 
ATOM     88  C   UNL     1      11.030   9.893  -5.363  1.00  0.00     0.010 A 
ATOM     89  C   UNL     1      12.477   7.592  -4.707  1.00  0.00     0.020 A 
ATOM     90  C   UNL     1      12.426   9.938  -5.338  1.00  0.00     0.020 A 
ATOM     91  C   UNL     1      13.141   8.789  -4.995  1.00  0.00     0.054 A 
BRANCH  91  92
ATOM     92  S   UNL     1      14.954   8.814  -4.955  1.00  0.00     0.124 S 
ATOM     93  O   UNL     1      15.228   8.729  -3.523  1.00  0.00    -0.237 OA
ATOM     94  O   UNL     1      15.307   7.629  -5.733  1.00  0.00    -0.237 OA
ATOM     95  O   UNL     1      15.298  10.089  -5.580  1.00  0.00    -0.744 OA
ENDBRANCH  91  92
ENDBRANCH  65  86
ENDBRANCH  39  40
ENDBRANCH  32  34
ENDBRANCH  31  32
ENDBRANCH  30  31
ENDBRANCH  29  30
ENDBRANCH  28  29
ENDBRANCH  27  28
ENDBRANCH  26  27
ENDBRANCH  25  26
ENDBRANCH  24  25
ENDBRANCH  23  24
ENDBRANCH  22  23
ENDBRANCH   1  22
TORSDOF 33
