REMARK SMILES CCCN1C(=O)/C(=C\c2ccc(OC)c(OC)c2C(=O)OCCOCCOCCOC(=O)c2ccc(-c3c4nc(c(-c5ccc(S(=O)(=O)[O-])cc5)c5ccc([nH]5)c(-c5ccc(S(=O)(=O)[O-])cc5)c5nc(c(-c6ccc(S(=O)(=O)[O-])cc6)c6ccc3[nH]6)C=C5)C=C4)cc2)S/C1=[NH+]\c1nccs1
REMARK SMILES IDX 25 1 24 2 23 3 22 4 21 5 19 6 20 7 18 8 9 9 10 10 11 11
REMARK SMILES IDX 15 12 12 13 8 14 4 15 5 16 94 17 6 18 7 19 93 20 95 21 3 23
REMARK SMILES IDX 2 24 1 25 96 26 97 27 100 28 98 29 99 30 16 31 17 32 13 33
REMARK SMILES IDX 14 34 26 35 27 36 28 37 29 38 30 39 31 40 32 41 33 42 34 43
REMARK SMILES IDX 92 44 35 45 91 46 36 47 37 48 38 49 85 50 39 51 90 52 84 53
REMARK SMILES IDX 86 54 40 55 89 56 83 57 82 58 41 60 71 61 52 62 70 63 53 64
REMARK SMILES IDX 56 65 69 66 87 67 54 68 55 69 68 71 88 72 57 73 42 74 43 75
REMARK SMILES IDX 51 76 44 77 50 78 45 79 46 80 47 81 48 82 49 83 72 84 73 85
REMARK SMILES IDX 81 86 74 87 80 88 75 89 76 90 77 91 78 92 79 93 58 94 59 95
REMARK SMILES IDX 67 96 60 97 66 98 61 99 62 100 63 101 64 102 65 103
REMARK H PARENT 95 22 86 59 56 70
REMARK Flexibility Score: inf
ROOT
ATOM      1  C   UNL     1      -4.869  -2.666  -2.890  1.00  0.00     0.188 C 
ENDROOT
BRANCH   1   2
ATOM      2  O   UNL     1      -4.135  -2.733  -4.106  1.00  0.00    -0.376 OA
BRANCH   2   3
ATOM      3  C   UNL     1      -3.088  -1.779  -4.234  1.00  0.00     0.202 C 
BRANCH   3   4
ATOM      4  C   UNL     1      -1.850  -2.158  -3.430  1.00  0.00     0.261 C 
BRANCH   4   5
ATOM      5  O   UNL     1      -2.129  -2.350  -2.033  1.00  0.00    -0.460 OA
BRANCH   5   6
ATOM      6  C   UNL     1      -2.198  -1.264  -1.222  1.00  0.00     0.342 C 
ATOM      7  O   UNL     1      -2.074  -0.125  -1.614  1.00  0.00    -0.246 OA
BRANCH   6   8
ATOM      8  C   UNL     1      -2.516  -1.724   0.181  1.00  0.00     0.113 A 
ATOM      9  C   UNL     1      -2.002  -2.955   0.699  1.00  0.00    -0.006 A 
ATOM     10  C   UNL     1      -2.342  -3.348   1.998  1.00  0.00     0.013 A 
ATOM     11  C   UNL     1      -3.141  -2.532   2.792  1.00  0.00     0.051 A 
ATOM     12  C   UNL     1      -3.340  -0.910   1.001  1.00  0.00     0.175 A 
ATOM     13  C   UNL     1      -3.640  -1.314   2.316  1.00  0.00     0.161 A 
BRANCH   9  14
ATOM     14  C   UNL     1      -1.113  -3.896  -0.022  1.00  0.00     0.032 C 
ATOM     15  N   UNL     1       1.293  -1.919  -1.667  1.00  0.00    -0.219 N 
ATOM     16  C   UNL     1       0.663  -2.201  -0.475  1.00  0.00     0.321 C 
ATOM     17  C   UNL     1       1.536  -3.010  -2.480  1.00  0.00     0.271 C 
ATOM     18  O   UNL     1       0.560  -1.504   0.515  1.00  0.00    -0.250 OA
ATOM     19  C   UNL     1       0.069  -3.558  -0.555  1.00  0.00     0.100 C 
ATOM     20  S   UNL     1       0.927  -4.480  -1.719  1.00  0.00    -0.012 SA
ATOM     21  N   UNL     1       2.135  -2.884  -3.618  1.00  0.00    -0.228 N 
ATOM     22  H   UNL     1       2.449  -2.005  -3.931  1.00  0.00     0.268 HD
BRANCH  15  23
ATOM     23  C   UNL     1       1.655  -0.569  -2.106  1.00  0.00     0.206 C 
BRANCH  23  24
ATOM     24  C   UNL     1       1.243   0.623  -1.240  1.00  0.00     0.035 C 
ATOM     25  C   UNL     1       2.204   0.890  -0.091  1.00  0.00     0.007 C 
ENDBRANCH  23  24
ENDBRANCH  15  23
BRANCH  21  26
ATOM     26  C   UNL     1       2.318  -3.995  -4.367  1.00  0.00     0.319 A 
ATOM     27  N   UNL     1       1.390  -4.737  -4.936  1.00  0.00    -0.101 NA
ATOM     28  S   UNL     1       3.939  -4.500  -4.705  1.00  0.00    -0.070 S 
ATOM     29  C   UNL     1       1.965  -5.788  -5.622  1.00  0.00     0.219 A 
ATOM     30  C   UNL     1       3.340  -5.825  -5.607  1.00  0.00     0.110 A 
ENDBRANCH  21  26
ENDBRANCH   9  14
BRANCH  12  31
ATOM     31  O   UNL     1      -3.749   0.328   0.578  1.00  0.00    -0.492 OA
ATOM     32  C   UNL     1      -4.848   0.284  -0.332  1.00  0.00     0.278 C 
ENDBRANCH  12  31
BRANCH  13  33
ATOM     33  O   UNL     1      -4.361  -0.663   3.281  1.00  0.00    -0.493 OA
ATOM     34  C   UNL     1      -5.207   0.416   2.920  1.00  0.00     0.278 C 
ENDBRANCH  13  33
ENDBRANCH   6   8
ENDBRANCH   5   6
ENDBRANCH   4   5
ENDBRANCH   3   4
ENDBRANCH   2   3
ENDBRANCH   1   2
BRANCH   1  35
ATOM     35  C   UNL     1      -4.669  -3.880  -1.958  1.00  0.00     0.188 C 
BRANCH  35  36
ATOM     36  O   UNL     1      -4.295  -5.146  -2.482  1.00  0.00    -0.376 OA
BRANCH  36  37
ATOM     37  C   UNL     1      -4.798  -5.536  -3.749  1.00  0.00     0.202 C 
BRANCH  37  38
ATOM     38  C   UNL     1      -6.312  -5.742  -3.880  1.00  0.00     0.261 C 
BRANCH  38  39
ATOM     39  O   UNL     1      -7.111  -4.637  -3.420  1.00  0.00    -0.460 OA
BRANCH  39  40
ATOM     40  C   UNL     1      -7.743  -4.832  -2.235  1.00  0.00     0.338 C 
ATOM     41  O   UNL     1      -7.739  -5.850  -1.563  1.00  0.00    -0.246 OA
BRANCH  40  42
ATOM     42  C   UNL     1      -8.313  -3.556  -1.740  1.00  0.00     0.060 A 
ATOM     43  C   UNL     1      -8.013  -3.168  -0.426  1.00  0.00     0.016 A 
ATOM     44  C   UNL     1      -9.180  -2.785  -2.517  1.00  0.00     0.016 A 
ATOM     45  C   UNL     1      -8.614  -2.039   0.132  1.00  0.00     0.010 A 
ATOM     46  C   UNL     1      -9.802  -1.665  -1.948  1.00  0.00     0.010 A 
ATOM     47  C   UNL     1      -9.552  -1.310  -0.610  1.00  0.00    -0.014 A 
BRANCH  47  48
ATOM     48  C   UNL     1     -10.417  -0.318   0.080  1.00  0.00     0.031 A 
ATOM     49  C   UNL     1     -11.768  -0.765   0.575  1.00  0.00     0.074 A 
ATOM     50  C   UNL     1     -10.012   0.946   0.298  1.00  0.00     0.049 A 
ATOM     51  N   UNL     1     -12.696  -0.076   1.187  1.00  0.00    -0.248 NA
ATOM     52  C   UNL     1     -12.116  -2.177   0.346  1.00  0.00     0.031 C 
ATOM     53  C   UNL     1      -8.717   1.497  -0.090  1.00  0.00     0.029 A 
ATOM     54  N   UNL     1     -10.660   1.997   0.900  1.00  0.00    -0.354 N 
ATOM     55  C   UNL     1     -13.741  -0.967   1.410  1.00  0.00     0.074 A 
ATOM     56  C   UNL     1     -13.341  -2.237   0.843  1.00  0.00     0.031 C 
ATOM     57  C   UNL     1      -8.663   2.788   0.284  1.00  0.00     0.029 A 
ATOM     58  C   UNL     1      -9.934   3.164   0.904  1.00  0.00     0.049 A 
ATOM     59  H   UNL     1     -11.560   1.922   1.292  1.00  0.00     0.167 HD
ATOM     60  C   UNL     1     -14.925  -0.752   2.030  1.00  0.00     0.031 A 
ATOM     61  C   UNL     1     -10.264   4.398   1.337  1.00  0.00     0.031 A 
ATOM     62  C   UNL     1     -15.338   0.513   2.575  1.00  0.00     0.049 A 
ATOM     63  C   UNL     1     -11.620   4.636   1.953  1.00  0.00     0.074 A 
ATOM     64  C   UNL     1     -16.517   0.824   3.230  1.00  0.00     0.029 A 
ATOM     65  N   UNL     1     -14.591   1.680   2.520  1.00  0.00    -0.354 N 
ATOM     66  N   UNL     1     -12.587   3.778   2.175  1.00  0.00    -0.248 NA
ATOM     67  C   UNL     1     -11.926   6.010   2.379  1.00  0.00     0.031 C 
ATOM     68  C   UNL     1     -16.507   2.193   3.522  1.00  0.00     0.029 A 
ATOM     69  C   UNL     1     -15.295   2.720   3.103  1.00  0.00     0.049 A 
ATOM     70  H   UNL     1     -13.693   1.758   2.124  1.00  0.00     0.167 HD
ATOM     71  C   UNL     1     -13.604   4.502   2.792  1.00  0.00     0.074 A 
ATOM     72  C   UNL     1     -13.130   5.865   2.916  1.00  0.00     0.031 C 
ATOM     73  C   UNL     1     -14.817   4.075   3.222  1.00  0.00     0.031 A 
BRANCH  60  74
ATOM     74  C   UNL     1     -15.878  -1.914   2.111  1.00  0.00    -0.014 A 
ATOM     75  C   UNL     1     -15.626  -3.005   2.962  1.00  0.00     0.010 A 
ATOM     76  C   UNL     1     -17.049  -1.908   1.332  1.00  0.00     0.010 A 
ATOM     77  C   UNL     1     -16.504  -4.091   2.996  1.00  0.00     0.020 A 
ATOM     78  C   UNL     1     -17.943  -2.980   1.384  1.00  0.00     0.020 A 
ATOM     79  C   UNL     1     -17.654  -4.075   2.200  1.00  0.00     0.054 A 
BRANCH  79  80
ATOM     80  S   UNL     1     -18.778  -5.497   2.263  1.00  0.00     0.124 S 
ATOM     81  O   UNL     1     -18.029  -6.503   1.514  1.00  0.00    -0.237 OA
ATOM     82  O   UNL     1     -18.902  -5.745   3.697  1.00  0.00    -0.237 OA
ATOM     83  O   UNL     1     -19.991  -5.009   1.610  1.00  0.00    -0.744 OA
ENDBRANCH  79  80
ENDBRANCH  60  74
BRANCH  61  84
ATOM     84  C   UNL     1      -9.296   5.520   1.189  1.00  0.00    -0.014 A 
ATOM     85  C   UNL     1      -8.669   6.080   2.316  1.00  0.00     0.010 A 
ATOM     86  C   UNL     1      -9.000   6.037  -0.085  1.00  0.00     0.010 A 
ATOM     87  C   UNL     1      -7.771   7.143   2.172  1.00  0.00     0.020 A 
ATOM     88  C   UNL     1      -8.084   7.082  -0.235  1.00  0.00     0.020 A 
ATOM     89  C   UNL     1      -7.482   7.635   0.896  1.00  0.00     0.054 A 
BRANCH  89  90
ATOM     90  S   UNL     1      -6.269   8.975   0.728  1.00  0.00     0.124 S 
ATOM     91  O   UNL     1      -7.023  10.128   1.208  1.00  0.00    -0.237 OA
ATOM     92  O   UNL     1      -5.181   8.525   1.591  1.00  0.00    -0.237 OA
ATOM     93  O   UNL     1      -5.961   8.977  -0.701  1.00  0.00    -0.744 OA
ENDBRANCH  89  90
ENDBRANCH  61  84
BRANCH  73  94
ATOM     94  C   UNL     1     -15.714   5.077   3.902  1.00  0.00    -0.014 A 
ATOM     95  C   UNL     1     -16.367   6.087   3.175  1.00  0.00     0.010 A 
ATOM     96  C   UNL     1     -15.956   4.963   5.284  1.00  0.00     0.010 A 
ATOM     97  C   UNL     1     -17.226   6.982   3.823  1.00  0.00     0.020 A 
ATOM     98  C   UNL     1     -16.833   5.838   5.930  1.00  0.00     0.020 A 
ATOM     99  C   UNL     1     -17.453   6.851   5.197  1.00  0.00     0.054 A 
BRANCH  99 100
ATOM    100  S   UNL     1     -18.608   7.994   6.005  1.00  0.00     0.124 S 
ATOM    101  O   UNL     1     -17.825   9.225   6.066  1.00  0.00    -0.237 OA
ATOM    102  O   UNL     1     -19.740   8.014   5.083  1.00  0.00    -0.237 OA
ATOM    103  O   UNL     1     -18.875   7.361   7.295  1.00  0.00    -0.744 OA
ENDBRANCH  99 100
ENDBRANCH  73  94
ENDBRANCH  47  48
ENDBRANCH  40  42
ENDBRANCH  39  40
ENDBRANCH  38  39
ENDBRANCH  37  38
ENDBRANCH  36  37
ENDBRANCH  35  36
ENDBRANCH   1  35
TORSDOF 26
