REMARK SMILES O=C(OCCOCCOCCOC(=O)[C@H](NC(=O)[C@H]1CC[C@@H](CNC(=O)[C@@H]2Cc3ccccc3C[NH2+]2)CC1)c1ccccc1)c1ccc(-c2c3nc(c(-c4ccc(S(=O)(=O)[O-])cc4)c4ccc([nH]4)c(-c4ccc(S(=O)(=O)[O-])cc4)c4nc(c(-c5ccc(S(=O)(=O)[O-])cc5)c5ccc2[nH]5)C=C4)C=C3)cc1
REMARK SMILES IDX 8 1 7 2 6 3 5 4 4 5 3 6 2 7 1 8 45 9 46 10 104 11 47 12
REMARK SMILES IDX 103 13 48 14 49 15 50 16 97 17 51 18 102 19 96 20 98 21
REMARK SMILES IDX 52 22 101 23 95 24 94 25 53 27 83 28 64 29 82 30 65 31 68 32
REMARK SMILES IDX 81 33 99 34 66 35 67 36 80 38 100 39 69 40 54 41 55 42 63 43
REMARK SMILES IDX 56 44 62 45 57 46 58 47 59 48 60 49 61 50 84 51 85 52 93 53
REMARK SMILES IDX 86 54 92 55 87 56 88 57 89 58 90 59 91 60 70 61 71 62 79 63
REMARK SMILES IDX 72 64 78 65 73 66 74 67 75 68 76 69 77 70 9 71 10 72 11 73
REMARK SMILES IDX 12 74 13 75 14 76 15 77 39 78 40 79 44 80 41 81 43 82 42 83
REMARK SMILES IDX 16 84 17 85 18 87 19 88 38 89 20 90 37 91 21 92 22 93 23 94
REMARK SMILES IDX 24 95 25 96 26 98 27 99 28 100 36 101 29 102 35 103 30 106
REMARK SMILES IDX 34 107 31 108 33 109 32 110
REMARK H PARENT 98 26 68 37 16 86 24 97 36 104 36 105
REMARK Flexibility Score: inf
ROOT
ATOM      1  C   UNL     1      11.053  -2.854   4.607  1.00  0.00     0.188 C 
ENDROOT
BRANCH   1   2
ATOM      2  C   UNL     1      12.181  -3.706   4.037  1.00  0.00     0.188 C 
BRANCH   2   3
ATOM      3  O   UNL     1      12.376  -4.949   4.713  1.00  0.00    -0.376 OA
BRANCH   3   4
ATOM      4  C   UNL     1      13.755  -5.311   4.861  1.00  0.00     0.202 C 
BRANCH   4   5
ATOM      5  C   UNL     1      14.537  -5.576   3.553  1.00  0.00     0.261 C 
BRANCH   5   6
ATOM      6  O   UNL     1      13.935  -5.034   2.355  1.00  0.00    -0.460 OA
BRANCH   6   7
ATOM      7  C   UNL     1      13.075  -5.611   1.475  1.00  0.00     0.338 C 
ATOM      8  O   UNL     1      12.781  -5.007   0.447  1.00  0.00    -0.246 OA
BRANCH   7   9
ATOM      9  C   UNL     1      12.456  -6.946   1.710  1.00  0.00     0.060 A 
ATOM     10  C   UNL     1      12.357  -7.521   2.967  1.00  0.00     0.016 A 
ATOM     11  C   UNL     1      11.880  -7.634   0.630  1.00  0.00     0.016 A 
ATOM     12  C   UNL     1      11.852  -8.784   3.159  1.00  0.00     0.010 A 
ATOM     13  C   UNL     1      11.241  -8.865   0.832  1.00  0.00     0.010 A 
ATOM     14  C   UNL     1      11.234  -9.439   2.108  1.00  0.00    -0.014 A 
BRANCH  14  15
ATOM     15  C   UNL     1      10.612 -10.734   2.408  1.00  0.00     0.031 A 
ATOM     16  C   UNL     1      11.241 -11.972   1.885  1.00  0.00     0.074 A 
ATOM     17  C   UNL     1       9.624 -10.798   3.318  1.00  0.00     0.049 A 
ATOM     18  N   UNL     1      10.797 -13.193   1.931  1.00  0.00    -0.248 NA
ATOM     19  C   UNL     1      12.579 -11.822   1.290  1.00  0.00     0.031 C 
ATOM     20  C   UNL     1       9.154  -9.664   4.114  1.00  0.00     0.029 A 
ATOM     21  N   UNL     1       8.854 -11.842   3.749  1.00  0.00    -0.354 N 
ATOM     22  C   UNL     1      11.811 -13.966   1.391  1.00  0.00     0.074 A 
ATOM     23  C   UNL     1      12.877 -13.077   0.992  1.00  0.00     0.031 C 
ATOM     24  C   UNL     1       8.165 -10.067   4.914  1.00  0.00     0.029 A 
ATOM     25  C   UNL     1       7.856 -11.446   4.604  1.00  0.00     0.049 A 
ATOM     26  H   UNL     1       8.999 -12.777   3.475  1.00  0.00     0.167 HD
ATOM     27  C   UNL     1      11.841 -15.307   1.262  1.00  0.00     0.031 A 
ATOM     28  C   UNL     1       6.733 -12.068   5.000  1.00  0.00     0.031 A 
ATOM     29  C   UNL     1      10.755 -16.153   1.646  1.00  0.00     0.049 A 
ATOM     30  C   UNL     1       6.573 -13.492   4.408  1.00  0.00     0.074 A 
ATOM     31  C   UNL     1      10.642 -17.525   1.539  1.00  0.00     0.029 A 
ATOM     32  N   UNL     1       9.576 -15.683   2.194  1.00  0.00    -0.354 N 
ATOM     33  N   UNL     1       7.455 -14.200   3.709  1.00  0.00    -0.248 NA
ATOM     34  C   UNL     1       5.346 -14.247   4.595  1.00  0.00     0.031 C 
ATOM     35  C   UNL     1       9.351 -17.875   1.943  1.00  0.00     0.029 A 
ATOM     36  C   UNL     1       8.703 -16.729   2.378  1.00  0.00     0.049 A 
ATOM     37  H   UNL     1       9.390 -14.743   2.418  1.00  0.00     0.167 HD
ATOM     38  C   UNL     1       6.876 -15.456   3.459  1.00  0.00     0.074 A 
ATOM     39  C   UNL     1       5.558 -15.411   4.009  1.00  0.00     0.031 C 
ATOM     40  C   UNL     1       7.377 -16.588   2.902  1.00  0.00     0.031 A 
BRANCH  27  41
ATOM     41  C   UNL     1      13.042 -15.912   0.620  1.00  0.00    -0.014 A 
ATOM     42  C   UNL     1      14.257 -16.028   1.315  1.00  0.00     0.010 A 
ATOM     43  C   UNL     1      12.935 -16.396  -0.694  1.00  0.00     0.010 A 
ATOM     44  C   UNL     1      15.359 -16.611   0.691  1.00  0.00     0.020 A 
ATOM     45  C   UNL     1      14.029 -16.998  -1.311  1.00  0.00     0.020 A 
ATOM     46  C   UNL     1      15.236 -17.094  -0.616  1.00  0.00     0.054 A 
BRANCH  46  47
ATOM     47  S   UNL     1      16.670 -17.892  -1.381  1.00  0.00     0.124 S 
ATOM     48  O   UNL     1      17.563 -16.756  -1.599  1.00  0.00    -0.237 OA
ATOM     49  O   UNL     1      17.093 -18.837  -0.352  1.00  0.00    -0.237 OA
ATOM     50  O   UNL     1      16.125 -18.496  -2.594  1.00  0.00    -0.744 OA
ENDBRANCH  46  47
ENDBRANCH  27  41
BRANCH  28  51
ATOM     51  C   UNL     1       5.748 -11.167   5.752  1.00  0.00    -0.014 A 
ATOM     52  C   UNL     1       5.719 -10.969   7.151  1.00  0.00     0.010 A 
ATOM     53  C   UNL     1       4.889 -10.313   5.040  1.00  0.00     0.010 A 
ATOM     54  C   UNL     1       4.688 -10.209   7.789  1.00  0.00     0.020 A 
ATOM     55  C   UNL     1       3.949  -9.446   5.657  1.00  0.00     0.020 A 
ATOM     56  C   UNL     1       3.763  -9.502   7.025  1.00  0.00     0.054 A 
BRANCH  56  57
ATOM     57  S   UNL     1       2.192  -8.842   7.703  1.00  0.00     0.124 S 
ATOM     58  O   UNL     1       1.371 -10.040   7.806  1.00  0.00    -0.237 OA
ATOM     59  O   UNL     1       2.591  -8.243   8.977  1.00  0.00    -0.237 OA
ATOM     60  O   UNL     1       1.754  -7.889   6.685  1.00  0.00    -0.744 OA
ENDBRANCH  56  57
ENDBRANCH  28  51
BRANCH  40  61
ATOM     61  C   UNL     1       6.530 -17.842   2.936  1.00  0.00    -0.014 A 
ATOM     62  C   UNL     1       5.467 -18.056   2.042  1.00  0.00     0.010 A 
ATOM     63  C   UNL     1       6.883 -18.867   3.836  1.00  0.00     0.010 A 
ATOM     64  C   UNL     1       4.777 -19.275   2.047  1.00  0.00     0.020 A 
ATOM     65  C   UNL     1       6.217 -20.094   3.823  1.00  0.00     0.020 A 
ATOM     66  C   UNL     1       5.164 -20.290   2.930  1.00  0.00     0.054 A 
BRANCH  66  67
ATOM     67  S   UNL     1       4.319 -21.895   2.853  1.00  0.00     0.124 S 
ATOM     68  O   UNL     1       3.014 -21.584   3.428  1.00  0.00    -0.237 OA
ATOM     69  O   UNL     1       4.322 -22.191   1.423  1.00  0.00    -0.237 OA
ATOM     70  O   UNL     1       5.163 -22.771   3.665  1.00  0.00    -0.744 OA
ENDBRANCH  66  67
ENDBRANCH  40  61
ENDBRANCH  14  15
ENDBRANCH   7   9
ENDBRANCH   6   7
ENDBRANCH   5   6
ENDBRANCH   4   5
ENDBRANCH   3   4
ENDBRANCH   2   3
ENDBRANCH   1   2
BRANCH   1  71
ATOM     71  O   UNL     1      11.155  -2.454   5.967  1.00  0.00    -0.376 OA
BRANCH  71  72
ATOM     72  C   UNL     1      11.380  -3.462   6.943  1.00  0.00     0.202 C 
BRANCH  72  73
ATOM     73  C   UNL     1      10.278  -4.502   7.205  1.00  0.00     0.261 C 
BRANCH  73  74
ATOM     74  O   UNL     1       9.786  -5.238   6.070  1.00  0.00    -0.461 OA
BRANCH  74  75
ATOM     75  C   UNL     1       8.634  -4.744   5.519  1.00  0.00     0.333 C 
ATOM     76  O   UNL     1       8.182  -3.624   5.749  1.00  0.00    -0.249 OA
BRANCH  75  77
ATOM     77  C   UNL     1       7.890  -5.808   4.647  1.00  0.00     0.223 C 
BRANCH  77  78
ATOM     78  C   UNL     1       6.825  -6.318   5.592  1.00  0.00    -0.014 A 
ATOM     79  C   UNL     1       7.243  -7.082   6.699  1.00  0.00     0.006 A 
ATOM     80  C   UNL     1       5.510  -5.838   5.549  1.00  0.00     0.006 A 
ATOM     81  C   UNL     1       6.391  -7.289   7.772  1.00  0.00     0.000 A 
ATOM     82  C   UNL     1       4.653  -6.064   6.617  1.00  0.00     0.000 A 
ATOM     83  C   UNL     1       5.114  -6.742   7.742  1.00  0.00     0.000 A 
ENDBRANCH  77  78
BRANCH  77  84
ATOM     84  N   UNL     1       7.372  -5.127   3.448  1.00  0.00    -0.339 N 
ATOM     85  C   UNL     1       6.775  -5.460   2.283  1.00  0.00     0.224 C 
ATOM     86  H   UNL     1       7.497  -4.152   3.514  1.00  0.00     0.164 HD
ATOM     87  O   UNL     1       6.551  -4.484   1.547  1.00  0.00    -0.275 OA
BRANCH  85  88
ATOM     88  C   UNL     1       6.434  -6.874   1.752  1.00  0.00     0.078 C 
ATOM     89  C   UNL     1       6.315  -8.027   2.731  1.00  0.00     0.014 C 
ATOM     90  C   UNL     1       5.118  -6.799   0.930  1.00  0.00     0.014 C 
ATOM     91  C   UNL     1       5.926  -9.334   2.015  1.00  0.00     0.006 C 
ATOM     92  C   UNL     1       4.586  -8.137   0.374  1.00  0.00     0.006 C 
ATOM     93  C   UNL     1       4.510  -9.312   1.385  1.00  0.00     0.008 C 
BRANCH  93  94
ATOM     94  C   UNL     1       3.236  -9.273   2.350  1.00  0.00     0.119 C 
BRANCH  94  95
ATOM     95  N   UNL     1       2.430 -10.576   2.447  1.00  0.00    -0.351 N 
ATOM     96  C   UNL     1       1.538 -11.309   3.206  1.00  0.00     0.278 C 
ATOM     97  H   UNL     1       2.631 -11.104   1.641  1.00  0.00     0.163 HD
ATOM     98  O   UNL     1       0.595 -11.694   2.473  1.00  0.00    -0.268 OA
BRANCH  96  99
ATOM     99  C   UNL     1       1.462 -11.803   4.773  1.00  0.00     0.277 C 
ATOM    100  C   UNL     1       2.748 -12.351   5.355  1.00  0.00     0.111 C 
ATOM    101  N   UNL     1       0.526 -12.980   4.858  1.00  0.00    -0.332 N 
ATOM    102  C   UNL     1       2.768 -13.250   6.583  1.00  0.00    -0.033 A 
ATOM    103  C   UNL     1       0.337 -13.548   6.217  1.00  0.00     0.298 C 
ATOM    104  H   UNL     1       0.893 -13.717   4.256  1.00  0.00     0.347 HD
ATOM    105  H   UNL     1      -0.388 -12.632   4.570  1.00  0.00     0.347 HD
ATOM    106  C   UNL     1       3.941 -13.499   7.337  1.00  0.00     0.004 A 
ATOM    107  C   UNL     1       1.578 -13.764   7.045  1.00  0.00     0.010 A 
ATOM    108  C   UNL     1       3.948 -14.142   8.565  1.00  0.00     0.000 A 
ATOM    109  C   UNL     1       1.575 -14.427   8.295  1.00  0.00     0.010 A 
ATOM    110  C   UNL     1       2.744 -14.591   9.061  1.00  0.00     0.001 A 
ENDBRANCH  96  99
ENDBRANCH  94  95
ENDBRANCH  93  94
ENDBRANCH  85  88
ENDBRANCH  77  84
ENDBRANCH  75  77
ENDBRANCH  74  75
ENDBRANCH  73  74
ENDBRANCH  72  73
ENDBRANCH  71  72
ENDBRANCH   1  71
TORSDOF 26
