REMARK SMILES O=C(OCCOCCOCCOC(=O)C1(Cc2nc(-c3ncc[nH]3)no2)CCCCC1)c1ccc(-c2c3nc(c(-c4ccc(S(=O)(=O)[O-])cc4)c4ccc([nH]4)c(-c4ccc(S(=O)(=O)[O-])cc4)c4nc(c(-c5ccc(S(=O)(=O)[O-])cc5)c5ccc2[nH]5)C=C4)C=C3)cc1
REMARK SMILES IDX 7 1 6 2 5 3 4 4 3 5 2 6 1 7 32 8 33 9 91 10 34 11 90 12
REMARK SMILES IDX 35 13 36 14 37 15 84 16 38 17 89 18 83 19 85 20 39 21 88 22
REMARK SMILES IDX 82 23 81 24 40 26 70 27 51 28 69 29 52 30 55 31 68 32 86 33
REMARK SMILES IDX 53 34 54 35 67 37 87 38 56 39 41 40 42 41 50 42 43 43 49 44
REMARK SMILES IDX 44 45 45 46 46 47 47 48 48 49 71 50 72 51 80 52 73 53 79 54
REMARK SMILES IDX 74 55 75 56 76 57 77 58 78 59 57 60 58 61 66 62 59 63 65 64
REMARK SMILES IDX 60 65 61 66 62 67 63 68 64 69 8 70 9 71 10 72 11 73 12 74
REMARK SMILES IDX 13 75 14 76 15 77 27 78 31 79 28 80 30 81 29 82 16 83 17 84
REMARK SMILES IDX 18 85 26 86 19 87 25 88 20 89 21 90 24 91 22 92 23 93
REMARK H PARENT 85 25 55 36 24 94
REMARK Flexibility Score: inf
ROOT
ATOM      1  C   UNL     1       2.657  -1.490  -1.308  1.00  0.00     0.188 C 
ENDROOT
BRANCH   1   2
ATOM      2  O   UNL     1       3.949  -0.879  -1.311  1.00  0.00    -0.376 OA
BRANCH   2   3
ATOM      3  C   UNL     1       4.857  -1.481  -0.384  1.00  0.00     0.202 C 
BRANCH   3   4
ATOM      4  C   UNL     1       4.579  -1.167   1.097  1.00  0.00     0.261 C 
BRANCH   4   5
ATOM      5  O   UNL     1       3.209  -0.824   1.384  1.00  0.00    -0.460 OA
BRANCH   5   6
ATOM      6  C   UNL     1       2.606   0.393   1.374  1.00  0.00     0.338 C 
ATOM      7  O   UNL     1       1.428   0.462   1.729  1.00  0.00    -0.246 OA
BRANCH   6   8
ATOM      8  C   UNL     1       3.280   1.658   0.948  1.00  0.00     0.060 A 
ATOM      9  C   UNL     1       4.438   1.720   0.177  1.00  0.00     0.016 A 
ATOM     10  C   UNL     1       2.683   2.876   1.316  1.00  0.00     0.016 A 
ATOM     11  C   UNL     1       5.059   2.919  -0.123  1.00  0.00     0.010 A 
ATOM     12  C   UNL     1       3.270   4.100   0.968  1.00  0.00     0.010 A 
ATOM     13  C   UNL     1       4.490   4.117   0.279  1.00  0.00    -0.014 A 
BRANCH  13  14
ATOM     14  C   UNL     1       5.290   5.346   0.116  1.00  0.00     0.031 A 
ATOM     15  C   UNL     1       5.921   5.933   1.333  1.00  0.00     0.074 A 
ATOM     16  C   UNL     1       5.604   5.816  -1.106  1.00  0.00     0.049 A 
ATOM     17  N   UNL     1       6.649   7.007   1.436  1.00  0.00    -0.248 NA
ATOM     18  C   UNL     1       5.766   5.177   2.589  1.00  0.00     0.031 C 
ATOM     19  C   UNL     1       5.274   5.146  -2.357  1.00  0.00     0.029 A 
ATOM     20  N   UNL     1       6.272   6.939  -1.512  1.00  0.00    -0.354 N 
ATOM     21  C   UNL     1       7.058   7.047   2.759  1.00  0.00     0.074 A 
ATOM     22  C   UNL     1       6.459   5.920   3.436  1.00  0.00     0.031 C 
ATOM     23  C   UNL     1       5.668   5.899  -3.393  1.00  0.00     0.029 A 
ATOM     24  C   UNL     1       6.226   7.130  -2.875  1.00  0.00     0.049 A 
ATOM     25  H   UNL     1       6.738   7.547  -0.893  1.00  0.00     0.167 HD
ATOM     26  C   UNL     1       7.884   7.943   3.340  1.00  0.00     0.031 A 
ATOM     27  C   UNL     1       6.547   8.202  -3.619  1.00  0.00     0.031 A 
ATOM     28  C   UNL     1       8.432   9.068   2.636  1.00  0.00     0.049 A 
ATOM     29  C   UNL     1       7.223   9.330  -2.907  1.00  0.00     0.074 A 
ATOM     30  C   UNL     1       9.223  10.089   3.124  1.00  0.00     0.029 A 
ATOM     31  N   UNL     1       8.226   9.325   1.285  1.00  0.00    -0.354 N 
ATOM     32  N   UNL     1       7.550   9.402  -1.638  1.00  0.00    -0.248 NA
ATOM     33  C   UNL     1       7.619  10.487  -3.711  1.00  0.00     0.031 C 
ATOM     34  C   UNL     1       9.436  11.000   2.083  1.00  0.00     0.029 A 
ATOM     35  C   UNL     1       8.840  10.511   0.929  1.00  0.00     0.049 A 
ATOM     36  H   UNL     1       7.718   8.746   0.672  1.00  0.00     0.167 HD
ATOM     37  C   UNL     1       8.251  10.585  -1.498  1.00  0.00     0.074 A 
ATOM     38  C   UNL     1       8.284  11.203  -2.813  1.00  0.00     0.031 C 
ATOM     39  C   UNL     1       8.839  11.098  -0.390  1.00  0.00     0.031 A 
BRANCH  26  40
ATOM     40  C   UNL     1       8.148   7.764   4.807  1.00  0.00    -0.014 A 
ATOM     41  C   UNL     1       8.934   6.701   5.290  1.00  0.00     0.010 A 
ATOM     42  C   UNL     1       7.550   8.647   5.722  1.00  0.00     0.010 A 
ATOM     43  C   UNL     1       9.082   6.502   6.666  1.00  0.00     0.020 A 
ATOM     44  C   UNL     1       7.718   8.467   7.096  1.00  0.00     0.020 A 
ATOM     45  C   UNL     1       8.469   7.385   7.560  1.00  0.00     0.054 A 
BRANCH  45  46
ATOM     46  S   UNL     1       8.678   7.105   9.339  1.00  0.00     0.124 S 
ATOM     47  O   UNL     1       7.864   5.912   9.555  1.00  0.00    -0.237 OA
ATOM     48  O   UNL     1      10.119   6.915   9.464  1.00  0.00    -0.237 OA
ATOM     49  O   UNL     1       8.158   8.331   9.945  1.00  0.00    -0.744 OA
ENDBRANCH  45  46
ENDBRANCH  26  40
BRANCH  27  50
ATOM     50  C   UNL     1       6.193   8.261  -5.065  1.00  0.00    -0.014 A 
ATOM     51  C   UNL     1       7.177   8.230  -6.065  1.00  0.00     0.010 A 
ATOM     52  C   UNL     1       4.839   8.349  -5.449  1.00  0.00     0.010 A 
ATOM     53  C   UNL     1       6.818   8.315  -7.417  1.00  0.00     0.020 A 
ATOM     54  C   UNL     1       4.474   8.413  -6.798  1.00  0.00     0.020 A 
ATOM     55  C   UNL     1       5.469   8.409  -7.774  1.00  0.00     0.054 A 
BRANCH  55  56
ATOM     56  S   UNL     1       5.036   8.513  -9.535  1.00  0.00     0.124 S 
ATOM     57  O   UNL     1       5.560   9.826  -9.900  1.00  0.00    -0.237 OA
ATOM     58  O   UNL     1       5.748   7.369 -10.098  1.00  0.00    -0.237 OA
ATOM     59  O   UNL     1       3.579   8.399  -9.537  1.00  0.00    -0.744 OA
ENDBRANCH  55  56
ENDBRANCH  27  50
BRANCH  39  60
ATOM     60  C   UNL     1       9.606  12.371  -0.574  1.00  0.00    -0.014 A 
ATOM     61  C   UNL     1       8.949  13.592  -0.797  1.00  0.00     0.010 A 
ATOM     62  C   UNL     1      11.009  12.342  -0.473  1.00  0.00     0.010 A 
ATOM     63  C   UNL     1       9.688  14.764  -0.945  1.00  0.00     0.020 A 
ATOM     64  C   UNL     1      11.748  13.517  -0.583  1.00  0.00     0.020 A 
ATOM     65  C   UNL     1      11.082  14.719  -0.831  1.00  0.00     0.054 A 
BRANCH  65  66
ATOM     66  S   UNL     1      12.012  16.266  -0.964  1.00  0.00     0.124 S 
ATOM     67  O   UNL     1      11.923  16.550  -2.394  1.00  0.00    -0.237 OA
ATOM     68  O   UNL     1      11.259  17.166  -0.095  1.00  0.00    -0.237 OA
ATOM     69  O   UNL     1      13.345  15.911  -0.481  1.00  0.00    -0.744 OA
ENDBRANCH  65  66
ENDBRANCH  39  60
ENDBRANCH  13  14
ENDBRANCH   6   8
ENDBRANCH   5   6
ENDBRANCH   4   5
ENDBRANCH   3   4
ENDBRANCH   2   3
ENDBRANCH   1   2
BRANCH   1  70
ATOM     70  C   UNL     1       2.046  -1.566  -2.697  1.00  0.00     0.188 C 
BRANCH  70  71
ATOM     71  O   UNL     1       2.748  -2.334  -3.665  1.00  0.00    -0.376 OA
BRANCH  71  72
ATOM     72  C   UNL     1       4.109  -2.013  -3.919  1.00  0.00     0.202 C 
BRANCH  72  73
ATOM     73  C   UNL     1       4.508  -0.683  -4.599  1.00  0.00     0.261 C 
BRANCH  73  74
ATOM     74  O   UNL     1       3.889   0.551  -4.193  1.00  0.00    -0.463 OA
BRANCH  74  75
ATOM     75  C   UNL     1       2.703   0.778  -4.813  1.00  0.00     0.312 C 
ATOM     76  O   UNL     1       2.054  -0.121  -5.348  1.00  0.00    -0.252 OA
BRANCH  75  77
ATOM     77  C   UNL     1       2.166   2.214  -4.704  1.00  0.00     0.077 C 
ATOM     78  C   UNL     1       1.464   2.317  -3.325  1.00  0.00     0.019 C 
ATOM     79  C   UNL     1       3.249   3.314  -4.732  1.00  0.00     0.019 C 
ATOM     80  C   UNL     1       0.868   3.692  -3.029  1.00  0.00     0.001 C 
ATOM     81  C   UNL     1       2.628   4.710  -4.547  1.00  0.00     0.001 C 
ATOM     82  C   UNL     1       1.864   4.827  -3.232  1.00  0.00     0.000 C 
BRANCH  77  83
ATOM     83  C   UNL     1       1.170   2.392  -5.909  1.00  0.00     0.119 C 
BRANCH  83  84
ATOM     84  C   UNL     1       1.856   2.123  -7.218  1.00  0.00     0.228 A 
ATOM     85  N   UNL     1       2.019   0.963  -7.810  1.00  0.00    -0.188 NA
ATOM     86  O   UNL     1       2.704   3.082  -7.692  1.00  0.00    -0.339 OA
ATOM     87  C   UNL     1       3.199   1.144  -8.479  1.00  0.00     0.238 A 
ATOM     88  N   UNL     1       3.628   2.415  -8.508  1.00  0.00    -0.054 NA
BRANCH  87  89
ATOM     89  C   UNL     1       4.042   0.004  -8.952  1.00  0.00     0.179 A 
ATOM     90  N   UNL     1       3.720  -1.277  -8.921  1.00  0.00    -0.234 NA
ATOM     91  N   UNL     1       5.336   0.162  -9.386  1.00  0.00    -0.342 N 
ATOM     92  C   UNL     1       4.835  -1.955  -9.333  1.00  0.00     0.131 A 
ATOM     93  C   UNL     1       5.860  -1.083  -9.613  1.00  0.00     0.104 A 
ATOM     94  H   UNL     1       5.804   1.018  -9.512  1.00  0.00     0.168 HD
ENDBRANCH  87  89
ENDBRANCH  83  84
ENDBRANCH  77  83
ENDBRANCH  75  77
ENDBRANCH  74  75
ENDBRANCH  73  74
ENDBRANCH  72  73
ENDBRANCH  71  72
ENDBRANCH  70  71
ENDBRANCH   1  70
TORSDOF 23
