REMARK SMILES CN(C)C(=O)c1cccc(NCc2cc(C(=O)OCCOCCOCCOC(=O)c3ccc(-c4c5nc(c(-c6ccc(S(=O)(=O)[O-])cc6)c6ccc([nH]6)c(-c6ccc(S(=O)(=O)[O-])cc6)c6nc(c(-c7ccc(S(=O)(=O)[O-])cc7)c7ccc4[nH]7)C=C6)C=C5)cc3)cs2)c1
REMARK SMILES IDX 22 1 21 2 20 3 19 4 18 5 16 6 17 7 15 8 13 9 14 10 91 11
REMARK SMILES IDX 90 12 12 13 11 14 10 16 6 17 7 18 92 19 8 20 9 21 4 22 1 23
REMARK SMILES IDX 2 24 3 25 5 26 23 27 24 28 25 29 26 30 27 31 28 32 29 33
REMARK SMILES IDX 30 34 31 35 89 36 32 37 88 38 33 39 34 40 35 41 82 42 36 43
REMARK SMILES IDX 87 44 81 45 83 46 37 47 86 48 80 49 79 50 38 52 68 53 49 54
REMARK SMILES IDX 67 55 50 56 53 57 66 58 84 59 51 60 52 61 65 63 85 64 54 65
REMARK SMILES IDX 39 66 40 67 48 68 41 69 47 70 42 71 43 72 44 73 45 74 46 75
REMARK SMILES IDX 69 76 70 77 78 78 71 79 77 80 72 81 73 82 74 83 75 84 76 85
REMARK SMILES IDX 55 86 56 87 64 88 57 89 63 90 58 91 59 92 60 93 61 94 62 95
REMARK H PARENT 11 15 83 51 53 62
REMARK Flexibility Score: inf
ROOT
ATOM      1  C   UNL     1      -5.323  -0.464  11.750  1.00  0.00     0.188 C 
ENDROOT
BRANCH   1   2
ATOM      2  O   UNL     1      -6.465  -0.487  12.601  1.00  0.00    -0.376 OA
BRANCH   2   3
ATOM      3  C   UNL     1      -7.402  -1.553  12.501  1.00  0.00     0.202 C 
BRANCH   3   4
ATOM      4  C   UNL     1      -8.141  -1.719  11.171  1.00  0.00     0.261 C 
BRANCH   4   5
ATOM      5  O   UNL     1      -7.263  -1.993  10.065  1.00  0.00    -0.460 OA
BRANCH   5   6
ATOM      6  C   UNL     1      -7.284  -1.066   9.062  1.00  0.00     0.339 C 
ATOM      7  O   UNL     1      -8.075  -0.134   8.991  1.00  0.00    -0.246 OA
BRANCH   6   8
ATOM      8  C   UNL     1      -6.176  -1.221   8.124  1.00  0.00     0.071 A 
ATOM      9  C   UNL     1      -4.507  -2.204   6.782  1.00  0.00     0.025 A 
ATOM     10  C   UNL     1      -5.540  -2.432   7.679  1.00  0.00     0.033 A 
ATOM     11  S   UNL     1      -4.261  -0.525   6.543  1.00  0.00    -0.146 S 
ATOM     12  C   UNL     1      -5.570  -0.119   7.551  1.00  0.00     0.080 A 
BRANCH   9  13
ATOM     13  C   UNL     1      -3.629  -3.223   6.090  1.00  0.00     0.159 C 
BRANCH  13  14
ATOM     14  N   UNL     1      -2.954  -2.758   4.886  1.00  0.00    -0.380 N 
ATOM     15  H   UNL     1      -3.522  -2.343   4.198  1.00  0.00     0.160 HD
BRANCH  14  16
ATOM     16  C   UNL     1      -1.604  -2.836   4.605  1.00  0.00     0.035 A 
ATOM     17  C   UNL     1       0.226  -2.317   3.063  1.00  0.00     0.042 A 
ATOM     18  C   UNL     1       1.134  -2.981   3.887  1.00  0.00     0.014 A 
ATOM     19  C   UNL     1      -1.133  -2.268   3.409  1.00  0.00     0.039 A 
ATOM     20  C   UNL     1       0.684  -3.567   5.065  1.00  0.00     0.003 A 
ATOM     21  C   UNL     1      -0.671  -3.496   5.413  1.00  0.00     0.026 A 
BRANCH  17  22
ATOM     22  C   UNL     1       0.720  -1.761   1.780  1.00  0.00     0.253 C 
ATOM     23  C   UNL     1       0.814   0.011   0.110  1.00  0.00     0.146 C 
ATOM     24  N   UNL     1       0.405  -0.451   1.425  1.00  0.00    -0.345 N 
ATOM     25  C   UNL     1      -0.162   0.548   2.320  1.00  0.00     0.146 C 
ATOM     26  O   UNL     1       1.403  -2.500   1.071  1.00  0.00    -0.269 OA
ENDBRANCH  17  22
ENDBRANCH  14  16
ENDBRANCH  13  14
ENDBRANCH   9  13
ENDBRANCH   6   8
ENDBRANCH   5   6
ENDBRANCH   4   5
ENDBRANCH   3   4
ENDBRANCH   2   3
ENDBRANCH   1   2
BRANCH   1  27
ATOM     27  C   UNL     1      -4.529  -1.765  11.520  1.00  0.00     0.188 C 
BRANCH  27  28
ATOM     28  O   UNL     1      -4.862  -2.798  12.432  1.00  0.00    -0.376 OA
BRANCH  28  29
ATOM     29  C   UNL     1      -3.869  -3.173  13.372  1.00  0.00     0.202 C 
BRANCH  29  30
ATOM     30  C   UNL     1      -3.523  -2.142  14.454  1.00  0.00     0.261 C 
BRANCH  30  31
ATOM     31  O   UNL     1      -3.172  -0.832  13.990  1.00  0.00    -0.460 OA
BRANCH  31  32
ATOM     32  C   UNL     1      -1.974  -0.692  13.380  1.00  0.00     0.338 C 
ATOM     33  O   UNL     1      -1.178  -1.576  13.123  1.00  0.00    -0.246 OA
BRANCH  32  34
ATOM     34  C   UNL     1      -1.857   0.715  12.939  1.00  0.00     0.060 A 
ATOM     35  C   UNL     1      -1.607   0.990  11.590  1.00  0.00     0.016 A 
ATOM     36  C   UNL     1      -1.988   1.758  13.861  1.00  0.00     0.016 A 
ATOM     37  C   UNL     1      -1.456   2.313  11.166  1.00  0.00     0.010 A 
ATOM     38  C   UNL     1      -1.821   3.079  13.438  1.00  0.00     0.010 A 
ATOM     39  C   UNL     1      -1.526   3.362  12.094  1.00  0.00    -0.014 A 
BRANCH  39  40
ATOM     40  C   UNL     1      -1.117   4.735  11.710  1.00  0.00     0.031 A 
ATOM     41  C   UNL     1       0.306   5.156  11.963  1.00  0.00     0.074 A 
ATOM     42  C   UNL     1      -1.989   5.601  11.162  1.00  0.00     0.049 A 
ATOM     43  N   UNL     1       0.875   6.316  11.765  1.00  0.00    -0.248 NA
ATOM     44  C   UNL     1       1.204   4.128  12.515  1.00  0.00     0.031 C 
ATOM     45  C   UNL     1      -3.384   5.310  10.836  1.00  0.00     0.029 A 
ATOM     46  N   UNL     1      -1.824   6.914  10.794  1.00  0.00    -0.354 N 
ATOM     47  C   UNL     1       2.196   6.160  12.171  1.00  0.00     0.074 A 
ATOM     48  C   UNL     1       2.337   4.801  12.645  1.00  0.00     0.031 C 
ATOM     49  C   UNL     1      -3.952   6.418  10.326  1.00  0.00     0.029 A 
ATOM     50  C   UNL     1      -2.971   7.502  10.317  1.00  0.00     0.049 A 
ATOM     51  H   UNL     1      -0.964   7.389  10.864  1.00  0.00     0.167 HD
ATOM     52  C   UNL     1       3.203   7.065  12.150  1.00  0.00     0.031 A 
ATOM     53  C   UNL     1      -3.207   8.775   9.939  1.00  0.00     0.031 A 
ATOM     54  C   UNL     1       3.060   8.425  11.707  1.00  0.00     0.049 A 
ATOM     55  C   UNL     1      -2.090   9.786   9.994  1.00  0.00     0.074 A 
ATOM     56  C   UNL     1       4.022   9.418  11.649  1.00  0.00     0.029 A 
ATOM     57  N   UNL     1       1.876   8.986  11.256  1.00  0.00    -0.354 N 
ATOM     58  N   UNL     1      -0.841   9.616  10.358  1.00  0.00    -0.248 NA
ATOM     59  C   UNL     1      -2.416  11.160   9.582  1.00  0.00     0.031 C 
ATOM     60  C   UNL     1       3.409  10.593  11.203  1.00  0.00     0.029 A 
ATOM     61  C   UNL     1       2.077  10.318  10.936  1.00  0.00     0.049 A 
ATOM     62  H   UNL     1       1.019   8.509  11.175  1.00  0.00     0.167 HD
ATOM     63  C   UNL     1      -0.227  10.854  10.193  1.00  0.00     0.074 A 
ATOM     64  C   UNL     1      -1.238  11.761   9.691  1.00  0.00     0.031 C 
ATOM     65  C   UNL     1       1.061  11.206  10.432  1.00  0.00     0.031 A 
BRANCH  52  66
ATOM     66  C   UNL     1       4.543   6.611  12.660  1.00  0.00    -0.014 A 
ATOM     67  C   UNL     1       5.348   5.740  11.904  1.00  0.00     0.010 A 
ATOM     68  C   UNL     1       5.007   7.068  13.906  1.00  0.00     0.010 A 
ATOM     69  C   UNL     1       6.576   5.301  12.405  1.00  0.00     0.020 A 
ATOM     70  C   UNL     1       6.244   6.649  14.400  1.00  0.00     0.020 A 
ATOM     71  C   UNL     1       7.012   5.752  13.654  1.00  0.00     0.054 A 
BRANCH  71  72
ATOM     72  S   UNL     1       8.611   5.170  14.282  1.00  0.00     0.124 S 
ATOM     73  O   UNL     1       8.290   3.809  14.704  1.00  0.00    -0.237 OA
ATOM     74  O   UNL     1       9.476   5.276  13.110  1.00  0.00    -0.237 OA
ATOM     75  O   UNL     1       8.918   6.102  15.365  1.00  0.00    -0.744 OA
ENDBRANCH  71  72
ENDBRANCH  52  66
BRANCH  53  76
ATOM     76  C   UNL     1      -4.567   9.177   9.488  1.00  0.00    -0.014 A 
ATOM     77  C   UNL     1      -4.816   9.469   8.136  1.00  0.00     0.010 A 
ATOM     78  C   UNL     1      -5.622   9.276  10.414  1.00  0.00     0.010 A 
ATOM     79  C   UNL     1      -6.090   9.867   7.719  1.00  0.00     0.020 A 
ATOM     80  C   UNL     1      -6.902   9.651   9.998  1.00  0.00     0.020 A 
ATOM     81  C   UNL     1      -7.126   9.954   8.654  1.00  0.00     0.054 A 
BRANCH  81  82
ATOM     82  S   UNL     1      -8.785  10.422   8.085  1.00  0.00     0.124 S 
ATOM     83  O   UNL     1      -8.645  11.862   7.894  1.00  0.00    -0.237 OA
ATOM     84  O   UNL     1      -8.936   9.633   6.865  1.00  0.00    -0.237 OA
ATOM     85  O   UNL     1      -9.650  10.017   9.190  1.00  0.00    -0.744 OA
ENDBRANCH  81  82
ENDBRANCH  53  76
BRANCH  65  86
ATOM     86  C   UNL     1       1.467  12.620  10.117  1.00  0.00    -0.014 A 
ATOM     87  C   UNL     1       1.096  13.689  10.951  1.00  0.00     0.010 A 
ATOM     88  C   UNL     1       2.292  12.871   9.005  1.00  0.00     0.010 A 
ATOM     89  C   UNL     1       1.525  14.989  10.665  1.00  0.00     0.020 A 
ATOM     90  C   UNL     1       2.741  14.165   8.728  1.00  0.00     0.020 A 
ATOM     91  C   UNL     1       2.344  15.219   9.554  1.00  0.00     0.054 A 
BRANCH  91  92
ATOM     92  S   UNL     1       2.932  16.904   9.231  1.00  0.00     0.124 S 
ATOM     93  O   UNL     1       1.749  17.533   8.652  1.00  0.00    -0.237 OA
ATOM     94  O   UNL     1       3.307  17.376  10.562  1.00  0.00    -0.237 OA
ATOM     95  O   UNL     1       4.049  16.710   8.310  1.00  0.00    -0.744 OA
ENDBRANCH  91  92
ENDBRANCH  65  86
ENDBRANCH  39  40
ENDBRANCH  32  34
ENDBRANCH  31  32
ENDBRANCH  30  31
ENDBRANCH  29  30
ENDBRANCH  28  29
ENDBRANCH  27  28
ENDBRANCH   1  27
TORSDOF 24
