REMARK SMILES COc1ccc(-c2cc(Cl)cc3c2O[C@@H](C(F)(F)F)C(C(=O)OCCOCCOCCOC(=O)c2ccc(-c4c5nc(c(-c6ccc(S(=O)(=O)[O-])cc6)c6ccc([nH]6)c(-c6ccc(S(=O)(=O)[O-])cc6)c6nc(c(-c7ccc(S(=O)(=O)[O-])cc7)c7ccc4[nH]7)C=C6)C=C5)cc2)=C3)cc1C
REMARK SMILES IDX 28 1 27 2 26 3 25 4 24 5 23 6 21 7 22 8 20 9 7 10 8 11 13 12
REMARK SMILES IDX 9 13 12 14 14 15 10 16 11 17 95 18 15 19 6 20 3 21 4 22
REMARK SMILES IDX 97 23 5 24 96 25 98 26 2 27 1 28 16 29 17 30 18 31 19 32
REMARK SMILES IDX 29 33 30 34 31 35 32 36 33 37 34 38 35 39 36 40 94 41 37 42
REMARK SMILES IDX 93 43 38 44 39 45 40 46 87 47 41 48 92 49 86 50 88 51 42 52
REMARK SMILES IDX 91 53 85 54 84 55 43 57 73 58 54 59 72 60 55 61 58 62 71 63
REMARK SMILES IDX 89 64 56 65 57 66 70 68 90 69 59 70 44 71 45 72 53 73 46 74
REMARK SMILES IDX 52 75 47 76 48 77 49 78 50 79 51 80 74 81 75 82 83 83 76 84
REMARK SMILES IDX 82 85 77 86 78 87 79 88 80 89 81 90 60 91 61 92 69 93 62 94
REMARK SMILES IDX 68 95 63 96 64 97 65 98 66 99 67 100
REMARK H PARENT 88 56 58 67
REMARK Flexibility Score: inf
ROOT
ATOM      1  C   UNL     1      -4.489   5.383  -1.957  1.00  0.00     0.188 C 
ENDROOT
BRANCH   1   2
ATOM      2  C   UNL     1      -3.452   5.256  -0.869  1.00  0.00     0.188 C 
BRANCH   2   3
ATOM      3  O   UNL     1      -3.516   6.033   0.353  1.00  0.00    -0.376 OA
BRANCH   3   4
ATOM      4  C   UNL     1      -3.771   7.463   0.548  1.00  0.00     0.202 C 
BRANCH   4   5
ATOM      5  C   UNL     1      -2.797   9.023   0.609  1.00  0.00     0.261 C 
BRANCH   5   6
ATOM      6  O   UNL     1      -1.176   9.525  -0.260  1.00  0.00    -0.460 OA
BRANCH   6   7
ATOM      7  C   UNL     1       0.400   9.343  -0.286  1.00  0.00     0.338 C 
ATOM      8  O   UNL     1       1.063   8.836   0.630  1.00  0.00    -0.246 OA
BRANCH   7   9
ATOM      9  C   UNL     1       1.335   9.544  -1.468  1.00  0.00     0.087 C 
ATOM     10  C   UNL     1       3.034   6.416  -3.820  1.00  0.00     0.026 A 
ATOM     11  C   UNL     1       3.845   6.939  -4.815  1.00  0.00     0.033 A 
ATOM     12  C   UNL     1       2.515   7.442  -2.891  1.00  0.00     0.135 A 
ATOM     13  C   UNL     1       4.359   8.235  -4.679  1.00  0.00     0.042 A 
ATOM     14  C   UNL     1       3.267   8.599  -2.535  1.00  0.00     0.019 A 
ATOM     15  O   UNL     1       1.074   8.023  -3.287  1.00  0.00    -0.475 OA
ATOM     16  Cl  UNL     1       5.251   8.888  -6.003  1.00  0.00    -0.084 Cl
ATOM     17  C   UNL     1       4.175   9.013  -3.507  1.00  0.00     0.032 A 
ATOM     18  C   UNL     1       2.699   9.466  -1.424  1.00  0.00     0.027 C 
ATOM     19  C   UNL     1       0.898   9.450  -2.861  1.00  0.00     0.316 C 
BRANCH  10  20
ATOM     20  C   UNL     1       3.142   4.848  -3.663  1.00  0.00    -0.014 A 
ATOM     21  C   UNL     1       2.851   1.968  -3.207  1.00  0.00     0.121 A 
ATOM     22  C   UNL     1       2.357   2.582  -4.353  1.00  0.00     0.047 A 
ATOM     23  C   UNL     1       3.735   2.705  -2.421  1.00  0.00    -0.008 A 
ATOM     24  C   UNL     1       2.544   3.976  -4.602  1.00  0.00     0.013 A 
ATOM     25  C   UNL     1       3.839   4.146  -2.632  1.00  0.00     0.016 A 
ATOM     26  C   UNL     1       4.532   1.947  -1.381  1.00  0.00     0.048 C 
BRANCH  21  27
ATOM     27  O   UNL     1       2.514   0.651  -2.991  1.00  0.00    -0.496 OA
ATOM     28  C   UNL     1       2.005   0.321  -1.688  1.00  0.00     0.278 C 
ENDBRANCH  21  27
ENDBRANCH  10  20
BRANCH  19  29
ATOM     29  C   UNL     1      -0.188  10.553  -3.042  1.00  0.00     0.430 C 
ATOM     30  F   UNL     1       0.355  11.599  -3.746  1.00  0.00    -0.167 F 
ATOM     31  F   UNL     1      -1.301  10.200  -3.683  1.00  0.00    -0.167 F 
ATOM     32  F   UNL     1      -0.553  11.160  -1.874  1.00  0.00    -0.167 F 
ENDBRANCH  19  29
ENDBRANCH   7   9
ENDBRANCH   6   7
ENDBRANCH   5   6
ENDBRANCH   4   5
ENDBRANCH   3   4
ENDBRANCH   2   3
ENDBRANCH   1   2
BRANCH   1  33
ATOM     33  O   UNL     1      -5.179   6.593  -1.760  1.00  0.00    -0.376 OA
BRANCH  33  34
ATOM     34  C   UNL     1      -6.432   6.649  -2.393  1.00  0.00     0.202 C 
BRANCH  34  35
ATOM     35  C   UNL     1      -6.316   6.770  -3.911  1.00  0.00     0.261 C 
BRANCH  35  36
ATOM     36  O   UNL     1      -5.683   8.003  -4.314  1.00  0.00    -0.460 OA
BRANCH  36  37
ATOM     37  C   UNL     1      -4.432   7.874  -4.873  1.00  0.00     0.338 C 
ATOM     38  O   UNL     1      -4.225   7.987  -6.067  1.00  0.00    -0.246 OA
BRANCH  37  39
ATOM     39  C   UNL     1      -3.396   7.897  -3.808  1.00  0.00     0.060 A 
ATOM     40  C   UNL     1      -2.221   7.156  -3.679  1.00  0.00     0.016 A 
ATOM     41  C   UNL     1      -3.578   8.812  -2.839  1.00  0.00     0.016 A 
ATOM     42  C   UNL     1      -1.475   7.059  -2.402  1.00  0.00     0.010 A 
ATOM     43  C   UNL     1      -2.750   8.717  -1.721  1.00  0.00     0.010 A 
ATOM     44  C   UNL     1      -1.801   7.673  -1.223  1.00  0.00    -0.014 A 
BRANCH  44  45
ATOM     45  C   UNL     1      -1.116   7.369   0.498  1.00  0.00     0.031 A 
ATOM     46  C   UNL     1      -0.823   8.588   1.872  1.00  0.00     0.074 A 
ATOM     47  C   UNL     1      -0.944   6.134   1.064  1.00  0.00     0.049 A 
ATOM     48  N   UNL     1      -0.337   8.339   3.057  1.00  0.00    -0.248 NA
ATOM     49  C   UNL     1      -0.989  10.183   1.872  1.00  0.00     0.031 C 
ATOM     50  C   UNL     1      -0.638   5.735   2.459  1.00  0.00     0.029 A 
ATOM     51  N   UNL     1      -0.977   4.882   0.465  1.00  0.00    -0.354 N 
ATOM     52  C   UNL     1      -0.247   9.509   3.810  1.00  0.00     0.074 A 
ATOM     53  C   UNL     1      -0.577  10.618   3.010  1.00  0.00     0.031 C 
ATOM     54  C   UNL     1      -0.098   4.504   2.474  1.00  0.00     0.029 A 
ATOM     55  C   UNL     1       0.007   4.105   1.098  1.00  0.00     0.049 A 
ATOM     56  H   UNL     1      -1.574   4.595  -0.263  1.00  0.00     0.167 HD
ATOM     57  C   UNL     1       0.201   9.557   5.074  1.00  0.00     0.031 A 
ATOM     58  C   UNL     1       1.149   3.888   0.402  1.00  0.00     0.031 A 
ATOM     59  C   UNL     1       1.088   8.444   5.273  1.00  0.00     0.049 A 
ATOM     60  C   UNL     1       2.354   4.659   1.060  1.00  0.00     0.074 A 
ATOM     61  C   UNL     1       0.966   7.199   5.849  1.00  0.00     0.029 A 
ATOM     62  N   UNL     1       2.172   8.380   4.400  1.00  0.00    -0.354 N 
ATOM     63  N   UNL     1       2.291   5.510   2.063  1.00  0.00    -0.248 NA
ATOM     64  C   UNL     1       3.751   4.470   0.695  1.00  0.00     0.031 C 
ATOM     65  C   UNL     1       1.924   6.348   5.222  1.00  0.00     0.029 A 
ATOM     66  C   UNL     1       2.663   7.098   4.324  1.00  0.00     0.049 A 
ATOM     67  H   UNL     1       2.537   9.149   3.905  1.00  0.00     0.167 HD
ATOM     68  C   UNL     1       3.552   5.966   2.422  1.00  0.00     0.074 A 
ATOM     69  C   UNL     1       4.433   5.275   1.520  1.00  0.00     0.031 C 
ATOM     70  C   UNL     1       3.801   6.834   3.455  1.00  0.00     0.031 A 
BRANCH  57  71
ATOM     71  C   UNL     1      -0.352  10.569   6.061  1.00  0.00    -0.014 A 
ATOM     72  C   UNL     1      -0.140  10.374   7.431  1.00  0.00     0.010 A 
ATOM     73  C   UNL     1      -1.253  11.618   5.727  1.00  0.00     0.010 A 
ATOM     74  C   UNL     1      -0.838  11.129   8.397  1.00  0.00     0.020 A 
ATOM     75  C   UNL     1      -1.918  12.404   6.670  1.00  0.00     0.020 A 
ATOM     76  C   UNL     1      -1.734  12.128   8.008  1.00  0.00     0.054 A 
BRANCH  76  77
ATOM     77  S   UNL     1      -2.730  13.001   9.241  1.00  0.00     0.124 S 
ATOM     78  O   UNL     1      -3.486  11.914   9.856  1.00  0.00    -0.237 OA
ATOM     79  O   UNL     1      -1.712  13.624  10.082  1.00  0.00    -0.237 OA
ATOM     80  O   UNL     1      -3.532  13.934   8.449  1.00  0.00    -0.744 OA
ENDBRANCH  76  77
ENDBRANCH  57  71
BRANCH  58  81
ATOM     81  C   UNL     1       0.735   3.712  -1.061  1.00  0.00    -0.014 A 
ATOM     82  C   UNL     1      -0.161   2.688  -1.508  1.00  0.00     0.010 A 
ATOM     83  C   UNL     1       0.845   4.770  -1.936  1.00  0.00     0.010 A 
ATOM     84  C   UNL     1      -0.813   2.693  -2.778  1.00  0.00     0.020 A 
ATOM     85  C   UNL     1       0.229   4.763  -3.223  1.00  0.00     0.020 A 
ATOM     86  C   UNL     1      -0.600   3.745  -3.648  1.00  0.00     0.054 A 
BRANCH  86  87
ATOM     87  S   UNL     1      -1.361   3.821  -5.298  1.00  0.00     0.124 S 
ATOM     88  O   UNL     1      -0.879   2.599  -5.932  1.00  0.00    -0.237 OA
ATOM     89  O   UNL     1      -2.786   3.859  -4.975  1.00  0.00    -0.237 OA
ATOM     90  O   UNL     1      -0.827   5.051  -5.882  1.00  0.00    -0.744 OA
ENDBRANCH  86  87
ENDBRANCH  58  81
BRANCH  70  91
ATOM     91  C   UNL     1       5.134   7.495   3.860  1.00  0.00    -0.014 A 
ATOM     92  C   UNL     1       6.355   7.426   3.171  1.00  0.00     0.010 A 
ATOM     93  C   UNL     1       5.151   8.305   5.032  1.00  0.00     0.010 A 
ATOM     94  C   UNL     1       7.523   8.055   3.661  1.00  0.00     0.020 A 
ATOM     95  C   UNL     1       6.282   8.981   5.499  1.00  0.00     0.020 A 
ATOM     96  C   UNL     1       7.480   8.818   4.830  1.00  0.00     0.054 A 
BRANCH  96  97
ATOM     97  S   UNL     1       8.979   9.603   5.473  1.00  0.00     0.124 S 
ATOM     98  O   UNL     1       9.628   8.492   6.164  1.00  0.00    -0.237 OA
ATOM     99  O   UNL     1       9.650  10.066   4.260  1.00  0.00    -0.237 OA
ATOM    100  O   UNL     1       8.471  10.666   6.338  1.00  0.00    -0.744 OA
ENDBRANCH  96  97
ENDBRANCH  70  91
ENDBRANCH  44  45
ENDBRANCH  37  39
ENDBRANCH  36  37
ENDBRANCH  35  36
ENDBRANCH  34  35
ENDBRANCH  33  34
ENDBRANCH   1  33
TORSDOF 23
