REMARK SMILES CC(C)c1cc(OCC(=O)OCCOCCOCCOC(=O)c2ccc(-c3c4nc(c(-c5ccc(S(=O)(=O)[O-])cc5)c5ccc([nH]5)c(-c5ccc(S(=O)(=O)[O-])cc5)c5nc(c(-c6ccc(S(=O)(=O)[O-])cc6)c6ccc3[nH]6)C=C5)C=C4)cc2)nc(Nc2ccc(F)cc2F)n1
REMARK SMILES IDX 15 1 14 2 13 3 12 4 11 5 9 6 10 7 8 8 7 9 6 10 4 11 5 12
REMARK SMILES IDX 94 13 84 14 83 15 2 16 1 17 3 18 85 19 86 21 87 22 92 23
REMARK SMILES IDX 88 24 91 25 93 26 89 27 90 28 16 29 17 30 18 31 19 32 20 33
REMARK SMILES IDX 21 34 22 35 23 36 24 37 82 38 25 39 81 40 26 41 27 42 28 43
REMARK SMILES IDX 75 44 29 45 80 46 74 47 76 48 30 49 79 50 73 51 72 52 31 54
REMARK SMILES IDX 61 55 42 56 60 57 43 58 46 59 59 60 77 61 44 62 45 63 58 65
REMARK SMILES IDX 78 66 47 67 32 68 33 69 41 70 34 71 40 72 35 73 36 74 37 75
REMARK SMILES IDX 38 76 39 77 62 78 63 79 71 80 64 81 70 82 65 83 66 84 67 85
REMARK SMILES IDX 68 86 69 87 48 88 49 89 57 90 50 91 56 92 51 93 52 94 53 95
REMARK SMILES IDX 54 96 55 97
REMARK H PARENT 85 20 76 53 46 64
REMARK Flexibility Score: inf
ROOT
ATOM      1  C   UNL     1      -0.644  -4.181  -3.098  1.00  0.00     0.188 C 
ENDROOT
BRANCH   1   2
ATOM      2  O   UNL     1      -0.365  -4.912  -4.271  1.00  0.00    -0.376 OA
BRANCH   2   3
ATOM      3  C   UNL     1      -1.486  -5.448  -4.946  1.00  0.00     0.202 C 
BRANCH   3   4
ATOM      4  C   UNL     1      -2.563  -6.161  -4.092  1.00  0.00     0.261 C 
BRANCH   4   5
ATOM      5  O   UNL     1      -3.193  -5.360  -3.034  1.00  0.00    -0.461 OA
BRANCH   5   6
ATOM      6  C   UNL     1      -3.150  -5.838  -1.756  1.00  0.00     0.344 C 
ATOM      7  O   UNL     1      -2.783  -6.982  -1.493  1.00  0.00    -0.248 OA
BRANCH   6   8
ATOM      8  C   UNL     1      -3.511  -4.829  -0.579  1.00  0.00     0.353 C 
BRANCH   8   9
ATOM      9  O   UNL     1      -3.966  -3.484  -0.637  1.00  0.00    -0.466 OA
BRANCH   9  10
ATOM     10  C   UNL     1      -3.296  -2.380  -0.148  1.00  0.00     0.218 A 
ATOM     11  C   UNL     1      -1.281  -1.167   0.388  1.00  0.00     0.052 A 
ATOM     12  C   UNL     1      -2.043  -2.361   0.466  1.00  0.00     0.092 A 
ATOM     13  N   UNL     1      -1.944  -0.060   0.011  1.00  0.00    -0.217 NA
ATOM     14  C   UNL     1      -3.238  -0.100  -0.333  1.00  0.00     0.230 A 
ATOM     15  N   UNL     1      -3.922  -1.238  -0.483  1.00  0.00    -0.177 NA
BRANCH  11  16
ATOM     16  C   UNL     1       0.538  -0.898   0.345  1.00  0.00     0.032 C 
ATOM     17  C   UNL     1       0.462   0.535   1.215  1.00  0.00     0.014 C 
ATOM     18  C   UNL     1       2.219  -2.262  -0.048  1.00  0.00     0.014 C 
ENDBRANCH  11  16
BRANCH  14  19
ATOM     19  N   UNL     1      -3.891   1.114  -0.534  1.00  0.00    -0.322 N 
ATOM     20  H   UNL     1      -4.871   1.096  -0.622  1.00  0.00     0.170 HD
BRANCH  19  21
ATOM     21  C   UNL     1      -3.253   2.358  -0.622  1.00  0.00     0.077 A 
ATOM     22  C   UNL     1      -3.426   3.313   0.387  1.00  0.00     0.032 A 
ATOM     23  C   UNL     1      -2.422   2.678  -1.709  1.00  0.00     0.149 A 
ATOM     24  C   UNL     1      -2.717   4.519   0.345  1.00  0.00     0.041 A 
ATOM     25  C   UNL     1      -1.713   3.874  -1.758  1.00  0.00     0.080 A 
ATOM     26  F   UNL     1      -2.318   1.829  -2.743  1.00  0.00    -0.205 F 
ATOM     27  C   UNL     1      -1.860   4.780  -0.720  1.00  0.00     0.126 A 
ATOM     28  F   UNL     1      -1.177   5.932  -0.750  1.00  0.00    -0.207 F 
ENDBRANCH  19  21
ENDBRANCH  14  19
ENDBRANCH   9  10
ENDBRANCH   8   9
ENDBRANCH   6   8
ENDBRANCH   5   6
ENDBRANCH   4   5
ENDBRANCH   3   4
ENDBRANCH   2   3
ENDBRANCH   1   2
BRANCH   1  29
ATOM     29  C   UNL     1      -1.735  -3.069  -3.132  1.00  0.00     0.188 C 
BRANCH  29  30
ATOM     30  O   UNL     1      -2.309  -2.847  -4.392  1.00  0.00    -0.376 OA
BRANCH  30  31
ATOM     31  C   UNL     1      -1.805  -1.796  -5.185  1.00  0.00     0.202 C 
BRANCH  31  32
ATOM     32  C   UNL     1      -0.393  -1.212  -5.007  1.00  0.00     0.261 C 
BRANCH  32  33
ATOM     33  O   UNL     1       0.400  -1.756  -3.939  1.00  0.00    -0.460 OA
BRANCH  33  34
ATOM     34  C   UNL     1       0.468  -0.953  -2.862  1.00  0.00     0.338 C 
ATOM     35  O   UNL     1       0.065   0.200  -2.816  1.00  0.00    -0.246 OA
BRANCH  34  36
ATOM     36  C   UNL     1       1.092  -1.551  -1.653  1.00  0.00     0.060 A 
ATOM     37  C   UNL     1       0.343  -2.778  -0.522  1.00  0.00     0.016 A 
ATOM     38  C   UNL     1       2.262  -0.385  -0.967  1.00  0.00     0.016 A 
ATOM     39  C   UNL     1       0.719  -2.742   1.279  1.00  0.00     0.010 A 
ATOM     40  C   UNL     1       2.689  -0.414   0.768  1.00  0.00     0.010 A 
ATOM     41  C   UNL     1       1.936  -1.572   1.912  1.00  0.00    -0.014 A 
BRANCH  41  42
ATOM     42  C   UNL     1       2.659  -1.755   3.233  1.00  0.00     0.031 A 
ATOM     43  C   UNL     1       3.120  -0.546   4.045  1.00  0.00     0.074 A 
ATOM     44  C   UNL     1       3.109  -2.981   3.601  1.00  0.00     0.049 A 
ATOM     45  N   UNL     1       3.860  -0.487   5.128  1.00  0.00    -0.248 NA
ATOM     46  C   UNL     1       2.708   0.781   3.583  1.00  0.00     0.031 C 
ATOM     47  C   UNL     1       2.827  -4.260   2.942  1.00  0.00     0.029 A 
ATOM     48  N   UNL     1       3.969  -3.354   4.615  1.00  0.00    -0.354 N 
ATOM     49  C   UNL     1       3.963   0.870   5.455  1.00  0.00     0.074 A 
ATOM     50  C   UNL     1       3.286   1.608   4.431  1.00  0.00     0.031 C 
ATOM     51  C   UNL     1       3.512  -5.249   3.526  1.00  0.00     0.029 A 
ATOM     52  C   UNL     1       4.301  -4.694   4.606  1.00  0.00     0.049 A 
ATOM     53  H   UNL     1       4.315  -2.720   5.285  1.00  0.00     0.167 HD
ATOM     54  C   UNL     1       4.551   1.473   6.514  1.00  0.00     0.031 A 
ATOM     55  C   UNL     1       5.139  -5.424   5.365  1.00  0.00     0.031 A 
ATOM     56  C   UNL     1       5.303   0.758   7.500  1.00  0.00     0.049 A 
ATOM     57  C   UNL     1       5.844  -4.746   6.497  1.00  0.00     0.074 A 
ATOM     58  C   UNL     1       5.923   1.246   8.633  1.00  0.00     0.029 A 
ATOM     59  N   UNL     1       5.568  -0.600   7.439  1.00  0.00    -0.354 N 
ATOM     60  N   UNL     1       5.809  -3.481   6.842  1.00  0.00    -0.248 NA
ATOM     61  C   UNL     1       6.662  -5.596   7.369  1.00  0.00     0.031 C 
ATOM     62  C   UNL     1       6.632   0.193   9.218  1.00  0.00     0.029 A 
ATOM     63  C   UNL     1       6.379  -0.964   8.495  1.00  0.00     0.049 A 
ATOM     64  H   UNL     1       5.229  -1.214   6.748  1.00  0.00     0.167 HD
ATOM     65  C   UNL     1       6.567  -3.391   8.001  1.00  0.00     0.074 A 
ATOM     66  C   UNL     1       7.034  -4.730   8.301  1.00  0.00     0.031 C 
ATOM     67  C   UNL     1       6.842  -2.301   8.757  1.00  0.00     0.031 A 
BRANCH  54  68
ATOM     68  C   UNL     1       4.422   2.976   6.631  1.00  0.00    -0.014 A 
ATOM     69  C   UNL     1       3.173   3.585   6.870  1.00  0.00     0.010 A 
ATOM     70  C   UNL     1       5.560   3.793   6.510  1.00  0.00     0.010 A 
ATOM     71  C   UNL     1       3.061   4.977   6.947  1.00  0.00     0.020 A 
ATOM     72  C   UNL     1       5.457   5.185   6.619  1.00  0.00     0.020 A 
ATOM     73  C   UNL     1       4.205   5.769   6.822  1.00  0.00     0.054 A 
BRANCH  73  74
ATOM     74  S   UNL     1       4.034   7.570   6.960  1.00  0.00     0.124 S 
ATOM     75  O   UNL     1       3.313   7.901   5.733  1.00  0.00    -0.237 OA
ATOM     76  O   UNL     1       3.271   7.723   8.196  1.00  0.00    -0.237 OA
ATOM     77  O   UNL     1       5.413   8.048   7.019  1.00  0.00    -0.744 OA
ENDBRANCH  73  74
ENDBRANCH  54  68
BRANCH  55  78
ATOM     78  C   UNL     1       5.294  -6.889   5.115  1.00  0.00    -0.014 A 
ATOM     79  C   UNL     1       4.753  -7.824   6.015  1.00  0.00     0.010 A 
ATOM     80  C   UNL     1       5.942  -7.360   3.956  1.00  0.00     0.010 A 
ATOM     81  C   UNL     1       4.877  -9.197   5.778  1.00  0.00     0.020 A 
ATOM     82  C   UNL     1       6.041  -8.733   3.699  1.00  0.00     0.020 A 
ATOM     83  C   UNL     1       5.519  -9.643   4.619  1.00  0.00     0.054 A 
BRANCH  83  84
ATOM     84  S   UNL     1       5.629 -11.430   4.318  1.00  0.00     0.124 S 
ATOM     85  O   UNL     1       6.563 -11.856   5.355  1.00  0.00    -0.237 OA
ATOM     86  O   UNL     1       4.245 -11.863   4.495  1.00  0.00    -0.237 OA
ATOM     87  O   UNL     1       6.132 -11.517   2.949  1.00  0.00    -0.744 OA
ENDBRANCH  83  84
ENDBRANCH  55  78
BRANCH  67  88
ATOM     88  C   UNL     1       7.661  -2.517   9.994  1.00  0.00    -0.014 A 
ATOM     89  C   UNL     1       9.022  -2.853   9.918  1.00  0.00     0.010 A 
ATOM     90  C   UNL     1       7.062  -2.326  11.252  1.00  0.00     0.010 A 
ATOM     91  C   UNL     1       9.764  -3.032  11.084  1.00  0.00     0.020 A 
ATOM     92  C   UNL     1       7.810  -2.464  12.419  1.00  0.00     0.020 A 
ATOM     93  C   UNL     1       9.154  -2.831  12.327  1.00  0.00     0.054 A 
BRANCH  93  94
ATOM     94  S   UNL     1      10.155  -3.021  13.823  1.00  0.00     0.124 S 
ATOM     95  O   UNL     1      10.368  -4.465  13.864  1.00  0.00    -0.237 OA
ATOM     96  O   UNL     1      11.337  -2.218  13.517  1.00  0.00    -0.237 OA
ATOM     97  O   UNL     1       9.301  -2.486  14.882  1.00  0.00    -0.744 OA
ENDBRANCH  93  94
ENDBRANCH  67  88
ENDBRANCH  41  42
ENDBRANCH  34  36
ENDBRANCH  33  34
ENDBRANCH  32  33
ENDBRANCH  31  32
ENDBRANCH  30  31
ENDBRANCH  29  30
ENDBRANCH   1  29
TORSDOF 25
