REMARK SMILES COc1ccc(-c2cc([C@@H]3CC[N@@H+](CC(=O)OCCOCCOCCOC(=O)c4ccc(-c5c6nc(c(-c7ccc(S(=O)(=O)[O-])cc7)c7ccc([nH]7)c(-c7ccc(S(=O)(=O)[O-])cc7)c7nc(c(-c8ccc(S(=O)(=O)[O-])cc8)c8ccc5[nH]8)C=C7)C=C6)cc4)C3)ccn2)c2ccc(C)nc12
REMARK SMILES IDX 21 1 20 2 19 3 18 4 17 5 15 6 16 7 14 8 13 9 10 10 11 11
REMARK SMILES IDX 89 12 12 13 9 15 7 16 8 17 92 18 91 19 90 20 6 21 3 22 4 23
REMARK SMILES IDX 99 24 5 25 93 26 98 27 94 28 96 29 95 30 97 31 2 32 1 33
REMARK SMILES IDX 22 34 23 35 24 36 25 37 26 38 27 39 28 40 29 41 30 42 88 43
REMARK SMILES IDX 31 44 87 45 32 46 33 47 34 48 81 49 35 50 86 51 80 52 82 53
REMARK SMILES IDX 36 54 85 55 79 56 78 57 37 59 67 60 48 61 66 62 49 63 52 64
REMARK SMILES IDX 65 65 83 66 50 67 51 68 64 70 84 71 53 72 38 73 39 74 47 75
REMARK SMILES IDX 40 76 46 77 41 78 42 79 43 80 44 81 45 82 68 83 69 84 77 85
REMARK SMILES IDX 70 86 76 87 71 88 72 89 73 90 74 91 75 92 54 93 55 94 63 95
REMARK SMILES IDX 56 96 62 97 57 98 58 99 59 100 60 101 61 102
REMARK H PARENT 13 14 82 58 52 69
REMARK Flexibility Score: inf
ROOT
ATOM      1  C   UNL     1       7.190  10.137  -6.946  1.00  0.00     0.188 C 
ENDROOT
BRANCH   1   2
ATOM      2  O   UNL     1       6.867  10.770  -8.177  1.00  0.00    -0.376 OA
BRANCH   2   3
ATOM      3  C   UNL     1       5.688  10.324  -8.847  1.00  0.00     0.202 C 
BRANCH   3   4
ATOM      4  C   UNL     1       5.548   8.815  -9.103  1.00  0.00     0.261 C 
BRANCH   4   5
ATOM      5  O   UNL     1       5.622   7.978  -7.922  1.00  0.00    -0.459 OA
BRANCH   5   6
ATOM      6  C   UNL     1       6.454   6.902  -8.028  1.00  0.00     0.361 C 
ATOM      7  O   UNL     1       7.117   6.653  -9.033  1.00  0.00    -0.245 OA
BRANCH   6   8
ATOM      8  C   UNL     1       6.620   6.069  -6.757  1.00  0.00     0.386 C 
BRANCH   8   9
ATOM      9  N   UNL     1       5.448   5.683  -5.964  1.00  0.00    -0.325 N 
ATOM     10  C   UNL     1       3.980   7.125  -4.738  1.00  0.00     0.080 C 
ATOM     11  C   UNL     1       3.356   6.765  -6.090  1.00  0.00     0.075 C 
ATOM     12  C   UNL     1       5.275   6.298  -4.654  1.00  0.00     0.271 C 
ATOM     13  C   UNL     1       4.151   5.572  -6.598  1.00  0.00     0.263 C 
ATOM     14  H   UNL     1       5.786   4.728  -5.840  1.00  0.00     0.348 HD
BRANCH  10  15
ATOM     15  C   UNL     1       2.989   6.978  -3.609  1.00  0.00    -0.035 A 
ATOM     16  C   UNL     1       1.724   5.587  -2.114  1.00  0.00     0.071 A 
ATOM     17  C   UNL     1       2.590   5.722  -3.201  1.00  0.00     0.033 A 
ATOM     18  N   UNL     1       1.173   6.627  -1.455  1.00  0.00    -0.256 NA
ATOM     19  C   UNL     1       1.533   7.847  -1.887  1.00  0.00     0.112 A 
ATOM     20  C   UNL     1       2.401   8.061  -2.951  1.00  0.00     0.024 A 
BRANCH  16  21
ATOM     21  C   UNL     1       1.411   4.244  -1.648  1.00  0.00     0.010 A 
ATOM     22  C   UNL     1       0.872   1.562  -1.283  1.00  0.00     0.145 A 
ATOM     23  C   UNL     1      -0.164   2.432  -1.637  1.00  0.00     0.049 A 
ATOM     24  C   UNL     1       2.201   1.990  -1.096  1.00  0.00     0.113 A 
ATOM     25  C   UNL     1       0.104   3.776  -1.812  1.00  0.00     0.015 A 
ATOM     26  C   UNL     1       2.457   3.364  -1.235  1.00  0.00     0.013 A 
ATOM     27  N   UNL     1       3.209   1.122  -0.823  1.00  0.00    -0.249 NA
ATOM     28  C   UNL     1       3.780   3.807  -0.992  1.00  0.00     0.013 A 
ATOM     29  C   UNL     1       4.476   1.574  -0.656  1.00  0.00     0.038 A 
ATOM     30  C   UNL     1       4.798   2.913  -0.713  1.00  0.00     0.024 A 
ATOM     31  C   UNL     1       5.531   0.549  -0.378  1.00  0.00     0.067 C 
BRANCH  22  32
ATOM     32  O   UNL     1       0.482   0.242  -1.188  1.00  0.00    -0.494 OA
ATOM     33  C   UNL     1       0.809  -0.307   0.087  1.00  0.00     0.278 C 
ENDBRANCH  22  32
ENDBRANCH  16  21
ENDBRANCH  10  15
ENDBRANCH   8   9
ENDBRANCH   6   8
ENDBRANCH   5   6
ENDBRANCH   4   5
ENDBRANCH   3   4
ENDBRANCH   2   3
ENDBRANCH   1   2
BRANCH   1  34
ATOM     34  C   UNL     1       6.142  10.221  -5.821  1.00  0.00     0.188 C 
BRANCH  34  35
ATOM     35  O   UNL     1       4.844  10.557  -6.281  1.00  0.00    -0.376 OA
BRANCH  35  36
ATOM     36  C   UNL     1       3.779  10.725  -5.364  1.00  0.00     0.202 C 
BRANCH  36  37
ATOM     37  C   UNL     1       3.933  11.766  -4.252  1.00  0.00     0.261 C 
BRANCH  37  38
ATOM     38  O   UNL     1       5.172  11.721  -3.531  1.00  0.00    -0.460 OA
BRANCH  38  39
ATOM     39  C   UNL     1       5.391  10.676  -2.707  1.00  0.00     0.338 C 
ATOM     40  O   UNL     1       4.590   9.820  -2.375  1.00  0.00    -0.246 OA
BRANCH  39  41
ATOM     41  C   UNL     1       6.831  10.595  -2.413  1.00  0.00     0.060 A 
ATOM     42  C   UNL     1       7.474   9.356  -2.538  1.00  0.00     0.016 A 
ATOM     43  C   UNL     1       7.542  11.733  -2.035  1.00  0.00     0.016 A 
ATOM     44  C   UNL     1       8.833   9.245  -2.251  1.00  0.00     0.010 A 
ATOM     45  C   UNL     1       8.898  11.621  -1.741  1.00  0.00     0.010 A 
ATOM     46  C   UNL     1       9.540  10.372  -1.816  1.00  0.00    -0.014 A 
BRANCH  46  47
ATOM     47  C   UNL     1      10.912  10.240  -1.279  1.00  0.00     0.031 A 
ATOM     48  C   UNL     1      11.102  10.312   0.211  1.00  0.00     0.074 A 
ATOM     49  C   UNL     1      11.964  10.088  -2.101  1.00  0.00     0.049 A 
ATOM     50  N   UNL     1      12.208  10.373   0.903  1.00  0.00    -0.248 NA
ATOM     51  C   UNL     1       9.876  10.331   1.028  1.00  0.00     0.031 C 
ATOM     52  C   UNL     1      11.891   9.950  -3.555  1.00  0.00     0.029 A 
ATOM     53  N   UNL     1      13.307  10.043  -1.825  1.00  0.00    -0.354 N 
ATOM     54  C   UNL     1      11.813  10.467   2.232  1.00  0.00     0.074 A 
ATOM     55  C   UNL     1      10.367  10.478   2.249  1.00  0.00     0.031 C 
ATOM     56  C   UNL     1      13.138   9.849  -4.046  1.00  0.00     0.029 A 
ATOM     57  C   UNL     1      14.095   9.970  -2.948  1.00  0.00     0.049 A 
ATOM     58  H   UNL     1      13.671  10.062  -0.910  1.00  0.00     0.167 HD
ATOM     59  C   UNL     1      12.589  10.539   3.339  1.00  0.00     0.031 A 
ATOM     60  C   UNL     1      15.435  10.032  -3.076  1.00  0.00     0.031 A 
ATOM     61  C   UNL     1      14.028  10.537   3.304  1.00  0.00     0.049 A 
ATOM     62  C   UNL     1      16.278  10.191  -1.837  1.00  0.00     0.074 A 
ATOM     63  C   UNL     1      14.915  10.593   4.364  1.00  0.00     0.029 A 
ATOM     64  N   UNL     1      14.790  10.483   2.145  1.00  0.00    -0.354 N 
ATOM     65  N   UNL     1      15.896  10.272  -0.583  1.00  0.00    -0.248 NA
ATOM     66  C   UNL     1      17.733  10.261  -2.029  1.00  0.00     0.031 C 
ATOM     67  C   UNL     1      16.211  10.639   3.843  1.00  0.00     0.029 A 
ATOM     68  C   UNL     1      16.136  10.533   2.463  1.00  0.00     0.049 A 
ATOM     69  H   UNL     1      14.427  10.419   1.232  1.00  0.00     0.167 HD
ATOM     70  C   UNL     1      17.065  10.371   0.165  1.00  0.00     0.074 A 
ATOM     71  C   UNL     1      18.166  10.325  -0.777  1.00  0.00     0.031 C 
ATOM     72  C   UNL     1      17.216  10.485   1.508  1.00  0.00     0.031 A 
BRANCH  59  73
ATOM     73  C   UNL     1      11.898  10.673   4.671  1.00  0.00    -0.014 A 
ATOM     74  C   UNL     1      11.149   9.617   5.221  1.00  0.00     0.010 A 
ATOM     75  C   UNL     1      12.026  11.870   5.400  1.00  0.00     0.010 A 
ATOM     76  C   UNL     1      10.510   9.770   6.455  1.00  0.00     0.020 A 
ATOM     77  C   UNL     1      11.415  12.016   6.648  1.00  0.00     0.020 A 
ATOM     78  C   UNL     1      10.647  10.970   7.160  1.00  0.00     0.054 A 
BRANCH  78  79
ATOM     79  S   UNL     1       9.825  11.130   8.769  1.00  0.00     0.124 S 
ATOM     80  O   UNL     1       8.418  11.198   8.383  1.00  0.00    -0.237 OA
ATOM     81  O   UNL     1      10.230   9.906   9.457  1.00  0.00    -0.237 OA
ATOM     82  O   UNL     1      10.379  12.364   9.321  1.00  0.00    -0.744 OA
ENDBRANCH  78  79
ENDBRANCH  59  73
BRANCH  60  83
ATOM     83  C   UNL     1      16.059   9.970  -4.427  1.00  0.00    -0.014 A 
ATOM     84  C   UNL     1      16.840   8.865  -4.805  1.00  0.00     0.010 A 
ATOM     85  C   UNL     1      15.866  11.017  -5.348  1.00  0.00     0.010 A 
ATOM     86  C   UNL     1      17.430   8.814  -6.072  1.00  0.00     0.020 A 
ATOM     87  C   UNL     1      16.427  10.954  -6.627  1.00  0.00     0.020 A 
ATOM     88  C   UNL     1      17.214   9.857  -6.977  1.00  0.00     0.054 A 
BRANCH  88  89
ATOM     89  S   UNL     1      17.947   9.741  -8.633  1.00  0.00     0.124 S 
ATOM     90  O   UNL     1      19.367   9.926  -8.351  1.00  0.00    -0.237 OA
ATOM     91  O   UNL     1      17.554   8.399  -9.055  1.00  0.00    -0.237 OA
ATOM     92  O   UNL     1      17.307  10.830  -9.367  1.00  0.00    -0.744 OA
ENDBRANCH  88  89
ENDBRANCH  60  83
BRANCH  72  93
ATOM     93  C   UNL     1      18.623  10.521   2.048  1.00  0.00    -0.014 A 
ATOM     94  C   UNL     1      19.458  11.635   1.853  1.00  0.00     0.010 A 
ATOM     95  C   UNL     1      19.093   9.439   2.816  1.00  0.00     0.010 A 
ATOM     96  C   UNL     1      20.749  11.651   2.388  1.00  0.00     0.020 A 
ATOM     97  C   UNL     1      20.369   9.466   3.381  1.00  0.00     0.020 A 
ATOM     98  C   UNL     1      21.196  10.567   3.151  1.00  0.00     0.054 A 
BRANCH  98  99
ATOM     99  S   UNL     1      22.859  10.633   3.870  1.00  0.00     0.124 S 
ATOM    100  O   UNL     1      23.706  10.475   2.691  1.00  0.00    -0.237 OA
ATOM    101  O   UNL     1      22.885  11.954   4.492  1.00  0.00    -0.237 OA
ATOM    102  O   UNL     1      22.878   9.510   4.805  1.00  0.00    -0.744 OA
ENDBRANCH  98  99
ENDBRANCH  72  93
ENDBRANCH  46  47
ENDBRANCH  39  41
ENDBRANCH  38  39
ENDBRANCH  37  38
ENDBRANCH  36  37
ENDBRANCH  35  36
ENDBRANCH  34  35
ENDBRANCH   1  34
TORSDOF 24
