REMARK SMILES CC(=O)N1CCCN(S(=O)(=O)c2ccc(C)c(C(=O)OCCOCCOCCOC(=O)c3ccc(-c4c5nc(c(-c6ccc(S(=O)(=O)[O-])cc6)c6ccc([nH]6)c(-c6ccc(S(=O)(=O)[O-])cc6)c6nc(c(-c7ccc(S(=O)(=O)[O-])cc7)c7ccc4[nH]7)C=C6)C=C5)cc3)c2)CC1
REMARK SMILES IDX 23 1 22 2 21 3 20 4 18 5 19 6 17 7 12 8 13 9 92 10 14 11
REMARK SMILES IDX 15 12 16 13 9 14 10 15 11 16 8 17 93 18 94 19 4 20 2 21 1 22
REMARK SMILES IDX 3 23 5 24 7 26 6 27 24 29 25 30 26 31 27 32 28 33 29 34
REMARK SMILES IDX 30 35 31 36 32 37 33 38 91 39 34 40 90 41 35 42 36 43 37 44
REMARK SMILES IDX 84 45 38 46 89 47 83 48 85 49 39 50 88 51 82 52 81 53 40 55
REMARK SMILES IDX 70 56 51 57 69 58 52 59 55 60 68 61 86 62 53 63 54 64 67 66
REMARK SMILES IDX 87 67 56 68 41 69 42 70 50 71 43 72 49 73 44 74 45 75 46 76
REMARK SMILES IDX 47 77 48 78 71 79 72 80 80 81 73 82 79 83 74 84 75 85 76 86
REMARK SMILES IDX 77 87 78 88 57 89 58 90 66 91 59 92 65 93 60 94 61 95 62 96
REMARK SMILES IDX 63 97 64 98
REMARK H PARENT 85 54 55 65
REMARK Flexibility Score: 90.00
ROOT
ATOM      1  O   UNL     1      -0.204 -11.697  -5.484  1.00  0.00    -0.376 OA
ENDROOT
BRANCH   1   2
ATOM      2  C   UNL     1      -1.490 -11.291  -5.996  1.00  0.00     0.202 C 
BRANCH   2   3
ATOM      3  C   UNL     1      -2.575 -10.551  -5.053  1.00  0.00     0.261 C 
BRANCH   3   4
ATOM      4  O   UNL     1      -2.417  -9.091  -4.750  1.00  0.00    -0.460 OA
BRANCH   4   5
ATOM      5  C   UNL     1      -3.105  -8.514  -3.702  1.00  0.00     0.338 C 
ATOM      6  O   UNL     1      -4.167  -8.965  -3.290  1.00  0.00    -0.246 OA
BRANCH   5   7
ATOM      7  C   UNL     1      -2.628  -7.140  -3.137  1.00  0.00     0.064 A 
ATOM      8  C   UNL     1      -1.332  -5.721  -1.460  1.00  0.00     0.083 A 
ATOM      9  C   UNL     1      -2.050  -4.611  -1.855  1.00  0.00     0.022 A 
ATOM     10  C   UNL     1      -1.641  -6.947  -2.121  1.00  0.00     0.037 A 
ATOM     11  C   UNL     1      -3.051  -4.754  -2.833  1.00  0.00     0.006 A 
ATOM     12  C   UNL     1      -3.353  -5.993  -3.465  1.00  0.00    -0.037 A 
ATOM     13  C   UNL     1      -4.395  -6.013  -4.544  1.00  0.00     0.045 C 
BRANCH   8  14
ATOM     14  S   UNL     1       0.214  -5.546  -0.507  1.00  0.00     0.243 S 
ATOM     15  O   UNL     1       0.997  -4.560  -1.214  1.00  0.00    -0.207 OA
ATOM     16  O   UNL     1       0.721  -6.891  -0.301  1.00  0.00    -0.207 OA
BRANCH  14  17
ATOM     17  N   UNL     1       0.057  -4.985   1.091  1.00  0.00    -0.196 NA
BRANCH  17  18
ATOM     18  C   UNL     1      -0.871  -3.948   1.538  1.00  0.00     0.124 C 
BRANCH  18  19
ATOM     19  C   UNL     1      -0.625  -2.578   0.939  1.00  0.00     0.136 C 
BRANCH  19  20
ATOM     20  N   UNL     1       0.606  -1.883   1.289  1.00  0.00    -0.342 N 
BRANCH  20  21
ATOM     21  C   UNL     1       0.483  -0.494   1.254  1.00  0.00     0.219 C 
ATOM     22  C   UNL     1       1.356   0.218   0.250  1.00  0.00     0.114 C 
ATOM     23  O   UNL     1      -0.405   0.109   1.858  1.00  0.00    -0.275 OA
ENDBRANCH  20  21
BRANCH  20  24
ATOM     24  C   UNL     1       1.885  -2.552   1.058  1.00  0.00     0.121 CG0
ATOM     25  G   UNL     1       2.166  -3.738   1.973  1.00  0.00     0.000 G0
ENDBRANCH  20  24
ENDBRANCH  19  20
ENDBRANCH  18  19
ENDBRANCH  17  18
BRANCH  17  26
ATOM     26  C   UNL     1       1.322  -5.018   1.900  1.00  0.00     0.104 C 
BRANCH  26  27
ATOM     27  C   UNL     1       2.166  -3.738   1.973  1.00  0.00     0.038 CG0
ATOM     28  G   UNL     1       1.885  -2.552   1.058  1.00  0.00     0.000 G0
ENDBRANCH  26  27
ENDBRANCH  17  26
ENDBRANCH  14  17
ENDBRANCH   8  14
ENDBRANCH   5   7
ENDBRANCH   4   5
ENDBRANCH   3   4
ENDBRANCH   2   3
ENDBRANCH   1   2
BRANCH   1  29
ATOM     29  C   UNL     1       1.064 -11.213  -5.973  1.00  0.00     0.188 C 
BRANCH  29  30
ATOM     30  C   UNL     1       1.261 -10.540  -7.338  1.00  0.00     0.188 C 
BRANCH  30  31
ATOM     31  O   UNL     1       0.218  -9.621  -7.604  1.00  0.00    -0.376 OA
BRANCH  31  32
ATOM     32  C   UNL     1       0.403  -8.747  -8.704  1.00  0.00     0.202 C 
BRANCH  32  33
ATOM     33  C   UNL     1       1.278  -7.522  -8.375  1.00  0.00     0.261 C 
BRANCH  33  34
ATOM     34  O   UNL     1       0.640  -6.684  -7.384  1.00  0.00    -0.460 OA
BRANCH  34  35
ATOM     35  C   UNL     1       1.440  -6.271  -6.344  1.00  0.00     0.338 C 
ATOM     36  O   UNL     1       2.176  -5.303  -6.430  1.00  0.00    -0.246 OA
BRANCH  35  37
ATOM     37  C   UNL     1       1.166  -7.068  -5.102  1.00  0.00     0.060 A 
ATOM     38  C   UNL     1       1.856  -6.994  -3.886  1.00  0.00     0.016 A 
ATOM     39  C   UNL     1       0.196  -8.027  -5.171  1.00  0.00     0.016 A 
ATOM     40  C   UNL     1       1.578  -7.916  -2.803  1.00  0.00     0.010 A 
ATOM     41  C   UNL     1       0.047  -8.948  -4.142  1.00  0.00     0.010 A 
ATOM     42  C   UNL     1       0.629  -8.930  -2.904  1.00  0.00    -0.014 A 
BRANCH  42  43
ATOM     43  C   UNL     1       0.092 -10.072  -2.046  1.00  0.00     0.031 A 
ATOM     44  C   UNL     1      -1.338 -10.210  -1.494  1.00  0.00     0.074 A 
ATOM     45  C   UNL     1       0.665 -11.259  -2.338  1.00  0.00     0.049 A 
ATOM     46  N   UNL     1      -2.244 -11.037  -1.942  1.00  0.00    -0.248 NA
ATOM     47  C   UNL     1      -1.862  -9.403  -0.377  1.00  0.00     0.031 C 
ATOM     48  C   UNL     1       0.184 -12.616  -2.100  1.00  0.00     0.029 A 
ATOM     49  N   UNL     1       2.006 -11.440  -2.651  1.00  0.00    -0.354 N 
ATOM     50  C   UNL     1      -3.442 -10.861  -1.253  1.00  0.00     0.074 A 
ATOM     51  C   UNL     1      -3.157  -9.749  -0.345  1.00  0.00     0.031 C 
ATOM     52  C   UNL     1       1.252 -13.392  -1.848  1.00  0.00     0.029 A 
ATOM     53  C   UNL     1       2.411 -12.510  -1.836  1.00  0.00     0.049 A 
ATOM     54  H   UNL     1       2.550 -10.933  -3.297  1.00  0.00     0.167 HD
ATOM     55  C   UNL     1      -4.147 -11.926  -0.762  1.00  0.00     0.031 A 
ATOM     56  C   UNL     1       3.153 -12.171  -0.739  1.00  0.00     0.031 A 
ATOM     57  C   UNL     1      -3.288 -12.913  -0.160  1.00  0.00     0.049 A 
ATOM     58  C   UNL     1       2.378 -12.371   0.550  1.00  0.00     0.074 A 
ATOM     59  C   UNL     1      -2.807 -14.154  -0.519  1.00  0.00     0.029 A 
ATOM     60  N   UNL     1      -2.594 -12.523   0.969  1.00  0.00    -0.354 N 
ATOM     61  N   UNL     1       1.079 -12.524   0.620  1.00  0.00    -0.248 NA
ATOM     62  C   UNL     1       3.009 -12.507   1.857  1.00  0.00     0.031 C 
ATOM     63  C   UNL     1      -1.675 -14.414   0.312  1.00  0.00     0.029 A 
ATOM     64  C   UNL     1      -1.525 -13.356   1.196  1.00  0.00     0.049 A 
ATOM     65  H   UNL     1      -2.832 -11.753   1.534  1.00  0.00     0.167 HD
ATOM     66  C   UNL     1       0.703 -12.800   1.905  1.00  0.00     0.074 A 
ATOM     67  C   UNL     1       1.952 -12.780   2.644  1.00  0.00     0.031 C 
ATOM     68  C   UNL     1      -0.595 -13.031   2.268  1.00  0.00     0.031 A 
BRANCH  55  69
ATOM     69  C   UNL     1      -5.645 -12.042  -0.948  1.00  0.00    -0.014 A 
ATOM     70  C   UNL     1      -6.340 -13.193  -0.515  1.00  0.00     0.010 A 
ATOM     71  C   UNL     1      -6.412 -11.060  -1.613  1.00  0.00     0.010 A 
ATOM     72  C   UNL     1      -7.717 -13.370  -0.759  1.00  0.00     0.020 A 
ATOM     73  C   UNL     1      -7.791 -11.224  -1.857  1.00  0.00     0.020 A 
ATOM     74  C   UNL     1      -8.435 -12.388  -1.442  1.00  0.00     0.054 A 
BRANCH  74  75
ATOM     75  S   UNL     1     -10.197 -12.668  -1.805  1.00  0.00     0.124 S 
ATOM     76  O   UNL     1     -10.158 -13.840  -2.677  1.00  0.00    -0.237 OA
ATOM     77  O   UNL     1     -10.769 -12.895  -0.480  1.00  0.00    -0.237 OA
ATOM     78  O   UNL     1     -10.625 -11.432  -2.457  1.00  0.00    -0.744 OA
ENDBRANCH  74  75
ENDBRANCH  55  69
BRANCH  56  79
ATOM     79  C   UNL     1       4.185 -11.127  -1.109  1.00  0.00    -0.014 A 
ATOM     80  C   UNL     1       5.062 -11.510  -2.162  1.00  0.00     0.010 A 
ATOM     81  C   UNL     1       4.020  -9.748  -0.878  1.00  0.00     0.010 A 
ATOM     82  C   UNL     1       5.553 -10.579  -3.085  1.00  0.00     0.020 A 
ATOM     83  C   UNL     1       4.585  -8.800  -1.769  1.00  0.00     0.020 A 
ATOM     84  C   UNL     1       5.261  -9.231  -2.915  1.00  0.00     0.054 A 
BRANCH  84  85
ATOM     85  S   UNL     1       5.608  -8.109  -4.312  1.00  0.00     0.124 S 
ATOM     86  O   UNL     1       7.051  -8.261  -4.482  1.00  0.00    -0.237 OA
ATOM     87  O   UNL     1       4.792  -8.682  -5.384  1.00  0.00    -0.237 OA
ATOM     88  O   UNL     1       5.176  -6.802  -3.826  1.00  0.00    -0.744 OA
ENDBRANCH  84  85
ENDBRANCH  56  79
BRANCH  68  89
ATOM     89  C   UNL     1      -1.116 -12.969   3.688  1.00  0.00    -0.014 A 
ATOM     90  C   UNL     1      -0.435 -12.304   4.720  1.00  0.00     0.010 A 
ATOM     91  C   UNL     1      -2.416 -13.447   3.988  1.00  0.00     0.010 A 
ATOM     92  C   UNL     1      -0.976 -12.197   6.005  1.00  0.00     0.020 A 
ATOM     93  C   UNL     1      -2.994 -13.290   5.254  1.00  0.00     0.020 A 
ATOM     94  C   UNL     1      -2.251 -12.694   6.267  1.00  0.00     0.054 A 
BRANCH  94  95
ATOM     95  S   UNL     1      -2.951 -12.499   7.924  1.00  0.00     0.124 S 
ATOM     96  O   UNL     1      -2.466 -13.701   8.596  1.00  0.00    -0.237 OA
ATOM     97  O   UNL     1      -2.358 -11.244   8.384  1.00  0.00    -0.237 OA
ATOM     98  O   UNL     1      -4.389 -12.447   7.683  1.00  0.00    -0.744 OA
ENDBRANCH  94  95
ENDBRANCH  68  89
ENDBRANCH  42  43
ENDBRANCH  35  37
ENDBRANCH  34  35
ENDBRANCH  33  34
ENDBRANCH  32  33
ENDBRANCH  31  32
ENDBRANCH  30  31
ENDBRANCH  29  30
ENDBRANCH   1  29
TORSDOF 23
