REMARK SMILES CN1C(=O)C[C@@H](C(=O)OCCOCCOCCOC(=O)c2ccc(-c3c4nc(c(-c5ccc(S(=O)(=O)[O-])cc5)c5ccc([nH]5)c(-c5ccc(S(=O)(=O)[O-])cc5)c5nc(c(-c6ccc(S(=O)(=O)[O-])cc6)c6ccc3[nH]6)C=C5)C=C4)cc2)C12CCN(C(=O)c1cccc3ccccc13)CC2
REMARK SMILES IDX 14 1 13 2 12 3 11 4 10 5 9 6 7 7 8 8 6 9 1 10 2 11 3 12
REMARK SMILES IDX 81 13 4 14 5 15 82 16 98 17 83 18 97 19 84 20 85 21 86 22
REMARK SMILES IDX 87 23 88 24 96 25 89 26 91 27 95 28 90 29 92 30 94 31 93 32
REMARK SMILES IDX 15 33 16 34 17 35 18 36 19 37 20 38 21 39 22 40 80 41 23 42
REMARK SMILES IDX 79 43 24 44 25 45 26 46 73 47 27 48 78 49 72 50 74 51 28 52
REMARK SMILES IDX 77 53 71 54 70 55 29 57 59 58 40 59 58 60 41 61 44 62 57 63
REMARK SMILES IDX 75 64 42 65 43 66 56 68 76 69 45 70 30 71 31 72 39 73 32 74
REMARK SMILES IDX 38 75 33 76 34 77 35 78 36 79 37 80 60 81 61 82 69 83 62 84
REMARK SMILES IDX 68 85 63 86 64 87 65 88 66 89 67 90 46 91 47 92 55 93 48 94
REMARK SMILES IDX 54 95 49 96 50 97 51 98 52 99 53 100
REMARK H PARENT 74 56 44 67
REMARK Flexibility Score: inf
ROOT
ATOM      1  C   UNL     1      -2.535   0.126  -4.593  1.00  0.00     0.188 C 
ENDROOT
BRANCH   1   2
ATOM      2  C   UNL     1      -3.050   1.373  -5.298  1.00  0.00     0.188 C 
BRANCH   2   3
ATOM      3  O   UNL     1      -2.248   1.948  -6.319  1.00  0.00    -0.376 OA
BRANCH   3   4
ATOM      4  C   UNL     1      -0.868   1.625  -6.387  1.00  0.00     0.202 C 
BRANCH   4   5
ATOM      5  C   UNL     1       0.058   2.229  -5.314  1.00  0.00     0.261 C 
BRANCH   5   6
ATOM      6  O   UNL     1      -0.093   1.782  -3.932  1.00  0.00    -0.463 OA
BRANCH   6   7
ATOM      7  C   UNL     1      -0.800   2.619  -3.135  1.00  0.00     0.311 C 
ATOM      8  O   UNL     1      -1.369   3.621  -3.566  1.00  0.00    -0.252 OA
BRANCH   7   9
ATOM      9  C   UNL     1      -0.798   2.367  -1.624  1.00  0.00     0.134 C 
ATOM     10  C   UNL     1       1.732   0.132   0.062  1.00  0.00     0.147 C 
ATOM     11  N   UNL     1       0.928   1.179  -0.547  1.00  0.00    -0.339 N 
ATOM     12  C   UNL     1       1.416   2.472  -0.699  1.00  0.00     0.223 C 
ATOM     13  C   UNL     1      -0.518   1.065  -0.799  1.00  0.00     0.060 C 
ATOM     14  O   UNL     1       2.544   2.849  -0.496  1.00  0.00    -0.275 OA
ATOM     15  C   UNL     1       0.261   3.356  -1.094  1.00  0.00     0.118 C 
ATOM     16  C   UNL     1      -0.869  -0.302  -1.419  1.00  0.00     0.051 C 
ATOM     17  C   UNL     1      -1.265   1.165   0.587  1.00  0.00     0.051 C 
ATOM     18  C   UNL     1      -2.368  -0.565  -1.439  1.00  0.00     0.122 C 
ATOM     19  C   UNL     1      -2.727   0.701   0.601  1.00  0.00     0.122 C 
ATOM     20  N   UNL     1      -2.934  -0.561  -0.107  1.00  0.00    -0.338 N 
ATOM     21  C   UNL     1      -3.859  -1.476   0.434  1.00  0.00     0.254 C 
ATOM     22  O   UNL     1      -4.335  -1.296   1.558  1.00  0.00    -0.269 OA
BRANCH  21  23
ATOM     23  C   UNL     1      -4.422  -2.647  -0.315  1.00  0.00     0.047 A 
ATOM     24  C   UNL     1      -5.834  -2.679  -0.347  1.00  0.00     0.014 A 
ATOM     25  C   UNL     1      -3.684  -3.729  -0.872  1.00  0.00    -0.006 A 
ATOM     26  C   UNL     1      -6.525  -3.734  -0.938  1.00  0.00     0.001 A 
ATOM     27  C   UNL     1      -4.411  -4.793  -1.488  1.00  0.00    -0.018 A 
ATOM     28  C   UNL     1      -2.275  -3.831  -0.881  1.00  0.00     0.009 A 
ATOM     29  C   UNL     1      -5.814  -4.787  -1.498  1.00  0.00     0.009 A 
ATOM     30  C   UNL     1      -3.733  -5.841  -2.129  1.00  0.00     0.009 A 
ATOM     31  C   UNL     1      -1.615  -4.856  -1.567  1.00  0.00     0.001 A 
ATOM     32  C   UNL     1      -2.344  -5.858  -2.196  1.00  0.00     0.001 A 
ENDBRANCH  21  23
ENDBRANCH   7   9
ENDBRANCH   6   7
ENDBRANCH   5   6
ENDBRANCH   4   5
ENDBRANCH   3   4
ENDBRANCH   2   3
ENDBRANCH   1   2
BRANCH   1  33
ATOM     33  O   UNL     1      -1.959  -0.842  -5.449  1.00  0.00    -0.376 OA
BRANCH  33  34
ATOM     34  C   UNL     1      -2.462  -2.155  -5.260  1.00  0.00     0.202 C 
BRANCH  34  35
ATOM     35  C   UNL     1      -3.833  -2.301  -5.938  1.00  0.00     0.261 C 
BRANCH  35  36
ATOM     36  O   UNL     1      -4.876  -1.448  -5.398  1.00  0.00    -0.460 OA
BRANCH  36  37
ATOM     37  C   UNL     1      -5.261  -1.791  -4.148  1.00  0.00     0.338 C 
ATOM     38  O   UNL     1      -4.784  -2.713  -3.515  1.00  0.00    -0.246 OA
BRANCH  37  39
ATOM     39  C   UNL     1      -6.204  -0.831  -3.543  1.00  0.00     0.060 A 
ATOM     40  C   UNL     1      -5.729   0.090  -2.606  1.00  0.00     0.016 A 
ATOM     41  C   UNL     1      -7.574  -0.980  -3.717  1.00  0.00     0.016 A 
ATOM     42  C   UNL     1      -6.595   0.828  -1.806  1.00  0.00     0.010 A 
ATOM     43  C   UNL     1      -8.453  -0.201  -2.950  1.00  0.00     0.010 A 
ATOM     44  C   UNL     1      -7.972   0.696  -1.975  1.00  0.00    -0.014 A 
BRANCH  44  45
ATOM     45  C   UNL     1      -8.904   1.476  -1.121  1.00  0.00     0.031 A 
ATOM     46  C   UNL     1      -9.834   0.771  -0.174  1.00  0.00     0.074 A 
ATOM     47  C   UNL     1      -8.923   2.821  -1.201  1.00  0.00     0.049 A 
ATOM     48  N   UNL     1     -10.851   1.248   0.495  1.00  0.00    -0.248 NA
ATOM     49  C   UNL     1      -9.586  -0.661   0.045  1.00  0.00     0.031 C 
ATOM     50  C   UNL     1      -8.018   3.636  -2.014  1.00  0.00     0.029 A 
ATOM     51  N   UNL     1      -9.753   3.739  -0.605  1.00  0.00    -0.354 N 
ATOM     52  C   UNL     1     -11.397   0.166   1.178  1.00  0.00     0.074 A 
ATOM     53  C   UNL     1     -10.591  -0.990   0.845  1.00  0.00     0.031 C 
ATOM     54  C   UNL     1      -8.354   4.928  -1.883  1.00  0.00     0.029 A 
ATOM     55  C   UNL     1      -9.546   5.024  -1.049  1.00  0.00     0.049 A 
ATOM     56  H   UNL     1     -10.428   3.501   0.071  1.00  0.00     0.167 HD
ATOM     57  C   UNL     1     -12.482   0.139   1.989  1.00  0.00     0.031 A 
ATOM     58  C   UNL     1     -10.271   6.144  -0.869  1.00  0.00     0.031 A 
ATOM     59  C   UNL     1     -13.278   1.298   2.304  1.00  0.00     0.049 A 
ATOM     60  C   UNL     1     -11.519   6.081  -0.037  1.00  0.00     0.074 A 
ATOM     61  C   UNL     1     -14.395   1.381   3.119  1.00  0.00     0.029 A 
ATOM     62  N   UNL     1     -13.049   2.575   1.812  1.00  0.00    -0.354 N 
ATOM     63  N   UNL     1     -12.047   5.048   0.576  1.00  0.00    -0.248 NA
ATOM     64  C   UNL     1     -12.271   7.332   0.124  1.00  0.00     0.031 C 
ATOM     65  C   UNL     1     -14.879   2.693   3.063  1.00  0.00     0.029 A 
ATOM     66  C   UNL     1     -14.024   3.445   2.273  1.00  0.00     0.049 A 
ATOM     67  H   UNL     1     -12.303   2.826   1.221  1.00  0.00     0.167 HD
ATOM     68  C   UNL     1     -13.189   5.526   1.208  1.00  0.00     0.074 A 
ATOM     69  C   UNL     1     -13.261   6.946   0.918  1.00  0.00     0.031 C 
ATOM     70  C   UNL     1     -14.095   4.851   1.959  1.00  0.00     0.031 A 
BRANCH  57  71
ATOM     71  C   UNL     1     -12.921  -1.204   2.517  1.00  0.00    -0.014 A 
ATOM     72  C   UNL     1     -12.176  -1.909   3.479  1.00  0.00     0.010 A 
ATOM     73  C   UNL     1     -14.117  -1.770   2.035  1.00  0.00     0.010 A 
ATOM     74  C   UNL     1     -12.588  -3.178   3.904  1.00  0.00     0.020 A 
ATOM     75  C   UNL     1     -14.549  -3.022   2.479  1.00  0.00     0.020 A 
ATOM     76  C   UNL     1     -13.768  -3.730   3.393  1.00  0.00     0.054 A 
BRANCH  76  77
ATOM     77  S   UNL     1     -14.272  -5.383   3.944  1.00  0.00     0.124 S 
ATOM     78  O   UNL     1     -13.304  -6.236   3.257  1.00  0.00    -0.237 OA
ATOM     79  O   UNL     1     -14.118  -5.300   5.394  1.00  0.00    -0.237 OA
ATOM     80  O   UNL     1     -15.649  -5.502   3.472  1.00  0.00    -0.744 OA
ENDBRANCH  76  77
ENDBRANCH  57  71
BRANCH  58  81
ATOM     81  C   UNL     1      -9.860   7.394  -1.564  1.00  0.00    -0.014 A 
ATOM     82  C   UNL     1      -9.327   8.478  -0.847  1.00  0.00     0.010 A 
ATOM     83  C   UNL     1      -9.940   7.476  -2.968  1.00  0.00     0.010 A 
ATOM     84  C   UNL     1      -8.873   9.615  -1.522  1.00  0.00     0.020 A 
ATOM     85  C   UNL     1      -9.459   8.597  -3.648  1.00  0.00     0.020 A 
ATOM     86  C   UNL     1      -8.931   9.662  -2.919  1.00  0.00     0.054 A 
BRANCH  86  87
ATOM     87  S   UNL     1      -8.243  11.106  -3.776  1.00  0.00     0.124 S 
ATOM     88  O   UNL     1      -9.243  12.131  -3.495  1.00  0.00    -0.237 OA
ATOM     89  O   UNL     1      -6.953  11.280  -3.113  1.00  0.00    -0.237 OA
ATOM     90  O   UNL     1      -8.165  10.672  -5.169  1.00  0.00    -0.744 OA
ENDBRANCH  86  87
ENDBRANCH  58  81
BRANCH  70  91
ATOM     91  C   UNL     1     -15.233   5.649   2.541  1.00  0.00    -0.014 A 
ATOM     92  C   UNL     1     -16.268   6.144   1.728  1.00  0.00     0.010 A 
ATOM     93  C   UNL     1     -15.281   5.877   3.928  1.00  0.00     0.010 A 
ATOM     94  C   UNL     1     -17.311   6.888   2.288  1.00  0.00     0.020 A 
ATOM     95  C   UNL     1     -16.337   6.594   4.496  1.00  0.00     0.020 A 
ATOM     96  C   UNL     1     -17.337   7.110   3.669  1.00  0.00     0.054 A 
BRANCH  96  97
ATOM     97  S   UNL     1     -18.714   8.056   4.375  1.00  0.00     0.124 S 
ATOM     98  O   UNL     1     -18.398   9.416   3.950  1.00  0.00    -0.237 OA
ATOM     99  O   UNL     1     -19.880   7.451   3.736  1.00  0.00    -0.237 OA
ATOM    100  O   UNL     1     -18.602   7.811   5.812  1.00  0.00    -0.744 OA
ENDBRANCH  96  97
ENDBRANCH  70  91
ENDBRANCH  44  45
ENDBRANCH  37  39
ENDBRANCH  36  37
ENDBRANCH  35  36
ENDBRANCH  34  35
ENDBRANCH  33  34
ENDBRANCH   1  33
TORSDOF 21
