REMARK SMILES COc1ccc2c(c1)c(CC(=O)OCCOCCOCCOC(=O)c1ccc(-c3c4nc(c(-c5ccc(S(=O)(=O)[O-])cc5)c5ccc([nH]5)c(-c5ccc(S(=O)(=O)[O-])cc5)c5nc(c(-c6ccc(S(=O)(=O)[O-])cc6)c6ccc3[nH]6)C=C5)C=C4)cc1)c(C(F)(F)F)n2C(=O)c1ccc(Cl)cc1
REMARK SMILES IDX 17 1 16 2 15 3 14 4 13 5 11 6 12 7 10 8 9 9 3 10 4 11 8 12
REMARK SMILES IDX 5 13 7 14 6 15 90 16 85 17 2 18 1 19 91 20 92 21 93 22 94 23
REMARK SMILES IDX 99 24 95 25 98 26 96 27 97 28 86 29 87 30 88 31 89 32 18 33
REMARK SMILES IDX 19 34 20 35 21 36 22 37 23 38 24 39 25 40 26 41 84 42 27 43
REMARK SMILES IDX 83 44 28 45 29 46 30 47 77 48 31 49 82 50 76 51 78 52 32 53
REMARK SMILES IDX 81 54 75 55 74 56 33 58 63 59 44 60 62 61 45 62 48 63 61 64
REMARK SMILES IDX 79 65 46 66 47 67 60 69 80 70 49 71 34 72 35 73 43 74 36 75
REMARK SMILES IDX 42 76 37 77 38 78 39 79 40 80 41 81 64 82 65 83 73 84 66 85
REMARK SMILES IDX 72 86 67 87 68 88 69 89 70 90 71 91 50 92 51 93 59 94 52 95
REMARK SMILES IDX 58 96 53 97 54 98 55 99 56 100 57 101
REMARK H PARENT 78 57 48 68
REMARK Flexibility Score: inf
ROOT
ATOM      1  C   UNL     1      -2.362  -5.291  -1.400  1.00  0.00     0.188 C 
ENDROOT
BRANCH   1   2
ATOM      2  O   UNL     1      -2.672  -6.634  -1.105  1.00  0.00    -0.376 OA
BRANCH   2   3
ATOM      3  C   UNL     1      -2.151  -7.625  -1.979  1.00  0.00     0.202 C 
BRANCH   3   4
ATOM      4  C   UNL     1      -2.223  -7.334  -3.486  1.00  0.00     0.261 C 
BRANCH   4   5
ATOM      5  O   UNL     1      -1.256  -6.319  -3.872  1.00  0.00    -0.463 OA
BRANCH   5   6
ATOM      6  C   UNL     1      -1.619  -5.535  -4.923  1.00  0.00     0.310 C 
ATOM      7  O   UNL     1      -2.500  -5.861  -5.712  1.00  0.00    -0.252 OA
BRANCH   6   8
ATOM      8  C   UNL     1      -1.054  -4.114  -4.882  1.00  0.00     0.161 C 
BRANCH   8   9
ATOM      9  C   UNL     1       0.403  -3.759  -5.056  1.00  0.00     0.002 A 
ATOM     10  C   UNL     1       2.000  -1.477  -2.351  1.00  0.00     0.119 A 
ATOM     11  C   UNL     1       2.958  -0.929  -3.169  1.00  0.00     0.048 A 
ATOM     12  C   UNL     1       1.134  -2.453  -2.867  1.00  0.00     0.057 A 
ATOM     13  C   UNL     1       3.091  -1.400  -4.478  1.00  0.00     0.031 A 
ATOM     14  C   UNL     1       1.219  -2.947  -4.187  1.00  0.00     0.008 A 
ATOM     15  C   UNL     1       2.272  -2.460  -4.951  1.00  0.00     0.057 A 
ATOM     16  N   UNL     1       2.328  -3.253  -6.104  1.00  0.00    -0.271 N 
ATOM     17  C   UNL     1       1.064  -3.795  -6.291  1.00  0.00     0.135 A 
BRANCH  10  18
ATOM     18  O   UNL     1       1.868  -1.165  -1.026  1.00  0.00    -0.497 OA
ATOM     19  C   UNL     1       1.874   0.232  -0.725  1.00  0.00     0.278 C 
ENDBRANCH  10  18
BRANCH  16  20
ATOM     20  C   UNL     1       3.514  -3.504  -6.848  1.00  0.00     0.262 C 
ATOM     21  O   UNL     1       3.486  -4.154  -7.856  1.00  0.00    -0.268 OA
BRANCH  20  22
ATOM     22  C   UNL     1       4.837  -3.095  -6.327  1.00  0.00     0.040 A 
ATOM     23  C   UNL     1       5.331  -3.741  -5.186  1.00  0.00     0.015 A 
ATOM     24  C   UNL     1       5.462  -1.965  -6.857  1.00  0.00     0.015 A 
ATOM     25  C   UNL     1       6.433  -3.205  -4.526  1.00  0.00     0.021 A 
ATOM     26  C   UNL     1       6.559  -1.428  -6.181  1.00  0.00     0.021 A 
ATOM     27  C   UNL     1       7.029  -2.041  -5.014  1.00  0.00     0.041 A 
ATOM     28  Cl  UNL     1       8.326  -1.325  -4.140  1.00  0.00    -0.084 Cl
ENDBRANCH  20  22
ENDBRANCH  16  20
BRANCH  17  29
ATOM     29  C   UNL     1       0.477  -4.231  -7.595  1.00  0.00     0.432 C 
ATOM     30  F   UNL     1      -0.182  -5.407  -7.439  1.00  0.00    -0.165 F 
ATOM     31  F   UNL     1      -0.451  -3.321  -7.996  1.00  0.00    -0.165 F 
ATOM     32  F   UNL     1       1.316  -4.394  -8.632  1.00  0.00    -0.165 F 
ENDBRANCH  17  29
ENDBRANCH   8   9
ENDBRANCH   6   8
ENDBRANCH   5   6
ENDBRANCH   4   5
ENDBRANCH   3   4
ENDBRANCH   2   3
ENDBRANCH   1   2
BRANCH   1  33
ATOM     33  C   UNL     1      -0.884  -4.905  -1.516  1.00  0.00     0.188 C 
BRANCH  33  34
ATOM     34  O   UNL     1       0.131  -5.730  -0.993  1.00  0.00    -0.376 OA
BRANCH  34  35
ATOM     35  C   UNL     1       0.170  -5.836   0.420  1.00  0.00     0.202 C 
BRANCH  35  36
ATOM     36  C   UNL     1       0.029  -4.522   1.224  1.00  0.00     0.261 C 
BRANCH  36  37
ATOM     37  O   UNL     1      -1.261  -3.877   1.024  1.00  0.00    -0.460 OA
BRANCH  37  38
ATOM     38  C   UNL     1      -1.251  -2.510   1.007  1.00  0.00     0.338 C 
ATOM     39  O   UNL     1      -0.420  -1.811   1.566  1.00  0.00    -0.246 OA
BRANCH  38  40
ATOM     40  C   UNL     1      -2.128  -2.006  -0.108  1.00  0.00     0.060 A 
ATOM     41  C   UNL     1      -3.474  -2.313  -0.302  1.00  0.00     0.016 A 
ATOM     42  C   UNL     1      -1.468  -1.312  -1.122  1.00  0.00     0.016 A 
ATOM     43  C   UNL     1      -4.094  -2.027  -1.548  1.00  0.00     0.010 A 
ATOM     44  C   UNL     1      -2.048  -1.097  -2.375  1.00  0.00     0.010 A 
ATOM     45  C   UNL     1      -3.365  -1.480  -2.621  1.00  0.00    -0.014 A 
BRANCH  45  46
ATOM     46  C   UNL     1      -3.978  -0.973  -3.869  1.00  0.00     0.031 A 
ATOM     47  C   UNL     1      -4.606   0.338  -3.689  1.00  0.00     0.074 A 
ATOM     48  C   UNL     1      -4.089  -1.485  -5.116  1.00  0.00     0.049 A 
ATOM     49  N   UNL     1      -5.842   0.447  -3.348  1.00  0.00    -0.248 NA
ATOM     50  C   UNL     1      -3.860   1.589  -3.742  1.00  0.00     0.031 C 
ATOM     51  C   UNL     1      -3.766  -2.825  -5.551  1.00  0.00     0.029 A 
ATOM     52  N   UNL     1      -4.540  -0.896  -6.284  1.00  0.00    -0.354 N 
ATOM     53  C   UNL     1      -6.112   1.792  -3.333  1.00  0.00     0.074 A 
ATOM     54  C   UNL     1      -4.826   2.453  -3.408  1.00  0.00     0.031 C 
ATOM     55  C   UNL     1      -3.835  -2.920  -6.899  1.00  0.00     0.029 A 
ATOM     56  C   UNL     1      -4.343  -1.662  -7.440  1.00  0.00     0.049 A 
ATOM     57  H   UNL     1      -4.965  -0.009  -6.301  1.00  0.00     0.167 HD
ATOM     58  C   UNL     1      -7.394   2.230  -3.448  1.00  0.00     0.031 A 
ATOM     59  C   UNL     1      -5.029  -1.665  -8.618  1.00  0.00     0.031 A 
ATOM     60  C   UNL     1      -8.345   1.139  -3.411  1.00  0.00     0.049 A 
ATOM     61  C   UNL     1      -6.414  -1.257  -8.289  1.00  0.00     0.074 A 
ATOM     62  C   UNL     1      -8.682   0.182  -2.473  1.00  0.00     0.029 A 
ATOM     63  N   UNL     1      -8.795   0.659  -4.623  1.00  0.00    -0.354 N 
ATOM     64  N   UNL     1      -7.261  -2.031  -7.674  1.00  0.00    -0.248 NA
ATOM     65  C   UNL     1      -6.776   0.152  -8.333  1.00  0.00     0.031 C 
ATOM     66  C   UNL     1      -8.944  -1.007  -3.214  1.00  0.00     0.029 A 
ATOM     67  C   UNL     1      -8.812  -0.716  -4.573  1.00  0.00     0.049 A 
ATOM     68  H   UNL     1      -9.060   1.209  -5.395  1.00  0.00     0.167 HD
ATOM     69  C   UNL     1      -8.005  -1.173  -6.882  1.00  0.00     0.074 A 
ATOM     70  C   UNL     1      -7.751   0.157  -7.422  1.00  0.00     0.031 C 
ATOM     71  C   UNL     1      -8.552  -1.594  -5.706  1.00  0.00     0.031 A 
BRANCH  58  72
ATOM     72  C   UNL     1      -7.761   3.617  -3.858  1.00  0.00    -0.014 A 
ATOM     73  C   UNL     1      -6.887   4.460  -4.571  1.00  0.00     0.010 A 
ATOM     74  C   UNL     1      -9.080   4.063  -3.662  1.00  0.00     0.010 A 
ATOM     75  C   UNL     1      -7.275   5.728  -4.995  1.00  0.00     0.020 A 
ATOM     76  C   UNL     1      -9.496   5.316  -4.127  1.00  0.00     0.020 A 
ATOM     77  C   UNL     1      -8.581   6.149  -4.770  1.00  0.00     0.054 A 
BRANCH  77  78
ATOM     78  S   UNL     1      -9.062   7.780  -5.381  1.00  0.00     0.124 S 
ATOM     79  O   UNL     1      -8.299   8.664  -4.504  1.00  0.00    -0.237 OA
ATOM     80  O   UNL     1      -8.619   7.735  -6.771  1.00  0.00    -0.237 OA
ATOM     81  O   UNL     1     -10.509   7.804  -5.189  1.00  0.00    -0.744 OA
ENDBRANCH  77  78
ENDBRANCH  58  72
BRANCH  59  82
ATOM     82  C   UNL     1      -4.424  -1.325  -9.941  1.00  0.00    -0.014 A 
ATOM     83  C   UNL     1      -3.083  -0.918 -10.060  1.00  0.00     0.010 A 
ATOM     84  C   UNL     1      -5.234  -1.255 -11.096  1.00  0.00     0.010 A 
ATOM     85  C   UNL     1      -2.610  -0.325 -11.240  1.00  0.00     0.020 A 
ATOM     86  C   UNL     1      -4.767  -0.664 -12.282  1.00  0.00     0.020 A 
ATOM     87  C   UNL     1      -3.472  -0.151 -12.324  1.00  0.00     0.054 A 
BRANCH  87  88
ATOM     88  S   UNL     1      -2.907   0.848 -13.733  1.00  0.00     0.124 S 
ATOM     89  O   UNL     1      -2.861   2.186 -13.150  1.00  0.00    -0.237 OA
ATOM     90  O   UNL     1      -1.609   0.258 -14.049  1.00  0.00    -0.237 OA
ATOM     91  O   UNL     1      -3.942   0.643 -14.743  1.00  0.00    -0.744 OA
ENDBRANCH  87  88
ENDBRANCH  59  82
BRANCH  71  92
ATOM     92  C   UNL     1      -8.660  -3.088  -5.449  1.00  0.00    -0.014 A 
ATOM     93  C   UNL     1      -9.908  -3.587  -5.033  1.00  0.00     0.010 A 
ATOM     94  C   UNL     1      -7.561  -3.971  -5.446  1.00  0.00     0.010 A 
ATOM     95  C   UNL     1     -10.045  -4.899  -4.572  1.00  0.00     0.020 A 
ATOM     96  C   UNL     1      -7.695  -5.299  -5.007  1.00  0.00     0.020 A 
ATOM     97  C   UNL     1      -8.933  -5.743  -4.541  1.00  0.00     0.054 A 
BRANCH  97  98
ATOM     98  S   UNL     1      -9.137  -7.405  -3.843  1.00  0.00     0.124 S 
ATOM     99  O   UNL     1      -9.318  -7.121  -2.421  1.00  0.00    -0.237 OA
ATOM    100  O   UNL     1     -10.325  -7.903  -4.533  1.00  0.00    -0.237 OA
ATOM    101  O   UNL     1      -7.892  -8.091  -4.182  1.00  0.00    -0.744 OA
ENDBRANCH  97  98
ENDBRANCH  71  92
ENDBRANCH  45  46
ENDBRANCH  38  40
ENDBRANCH  37  38
ENDBRANCH  36  37
ENDBRANCH  35  36
ENDBRANCH  34  35
ENDBRANCH  33  34
ENDBRANCH   1  33
TORSDOF 25
