REMARK SMILES C[C@H]1[C@@H](C(=O)OCCOCCOCCOC(=O)c2ccc(-c3c4nc(c(-c5ccc(S(=O)(=O)[O-])cc5)c5ccc([nH]5)c(-c5ccc(S(=O)(=O)[O-])cc5)c5nc(c(-c6ccc(S(=O)(=O)[O-])cc6)c6ccc3[nH]6)C=C5)C=C4)cc2)CCN1C(=O)c1cc2cc(F)ccc2s1
REMARK SMILES IDX 11 1 10 2 9 3 8 4 7 5 6 6 4 7 5 8 3 9 1 10 2 11 80 12 78 13
REMARK SMILES IDX 79 14 81 15 82 16 83 17 84 18 92 19 85 20 91 21 86 22 90 23
REMARK SMILES IDX 87 24 89 25 88 26 12 27 13 28 14 29 15 30 16 31 17 32 18 33
REMARK SMILES IDX 19 34 77 35 20 36 76 37 21 38 22 39 23 40 70 41 24 42 75 43
REMARK SMILES IDX 69 44 71 45 25 46 74 47 68 48 67 49 26 51 56 52 37 53 55 54
REMARK SMILES IDX 38 55 41 56 54 57 72 58 39 59 40 60 53 62 73 63 42 64 27 65
REMARK SMILES IDX 28 66 36 67 29 68 35 69 30 70 31 71 32 72 33 73 34 74 57 75
REMARK SMILES IDX 58 76 66 77 59 78 65 79 60 80 61 81 62 82 63 83 64 84 43 85
REMARK SMILES IDX 44 86 52 87 45 88 51 89 46 90 47 91 48 92 49 93 50 94
REMARK H PARENT 71 50 41 61
REMARK Flexibility Score: inf
ROOT
ATOM      1  C   UNL     1       0.173   0.224  -2.871  1.00  0.00     0.188 C 
ENDROOT
BRANCH   1   2
ATOM      2  C   UNL     1      -0.390   1.596  -3.286  1.00  0.00     0.188 C 
BRANCH   2   3
ATOM      3  O   UNL     1       0.388   2.459  -4.092  1.00  0.00    -0.376 OA
BRANCH   3   4
ATOM      4  C   UNL     1       1.704   2.791  -3.678  1.00  0.00     0.202 C 
BRANCH   4   5
ATOM      5  C   UNL     1       1.960   3.204  -2.226  1.00  0.00     0.261 C 
BRANCH   5   6
ATOM      6  O   UNL     1       1.619   2.182  -1.265  1.00  0.00    -0.463 OA
BRANCH   6   7
ATOM      7  C   UNL     1       0.923   2.600  -0.183  1.00  0.00     0.311 C 
ATOM      8  O   UNL     1       0.587   3.767  -0.000  1.00  0.00    -0.252 OA
BRANCH   7   9
ATOM      9  C   UNL     1       0.478   1.515   0.783  1.00  0.00     0.123 C 
ATOM     10  C   UNL     1       2.426  -0.137   0.164  1.00  0.00     0.032 C 
ATOM     11  C   UNL     1       1.149   0.131   0.945  1.00  0.00     0.096 C 
ATOM     12  N   UNL     1       0.070  -0.849   0.775  1.00  0.00    -0.334 N 
ATOM     13  C   UNL     1      -1.024   1.259   0.599  1.00  0.00     0.039 C 
ATOM     14  C   UNL     1      -1.209  -0.233   0.512  1.00  0.00     0.121 C 
BRANCH  12  15
ATOM     15  C   UNL     1       0.031  -2.173   1.186  1.00  0.00     0.264 C 
ATOM     16  O   UNL     1      -1.032  -2.666   1.571  1.00  0.00    -0.268 OA
BRANCH  15  17
ATOM     17  C   UNL     1       1.203  -3.019   1.069  1.00  0.00     0.093 A 
ATOM     18  C   UNL     1       1.685  -3.868   2.058  1.00  0.00     0.034 A 
ATOM     19  S   UNL     1       1.378  -3.856  -0.438  1.00  0.00    -0.130 S 
ATOM     20  C   UNL     1       1.205  -5.200   1.739  1.00  0.00    -0.004 A 
ATOM     21  C   UNL     1       0.889  -5.307   0.377  1.00  0.00     0.035 A 
ATOM     22  C   UNL     1       0.898  -6.290   2.584  1.00  0.00     0.048 A 
ATOM     23  C   UNL     1       0.243  -6.435  -0.159  1.00  0.00     0.022 A 
ATOM     24  C   UNL     1       0.196  -7.377   2.063  1.00  0.00     0.123 A 
ATOM     25  C   UNL     1      -0.143  -7.449   0.721  1.00  0.00     0.041 A 
ATOM     26  F   UNL     1      -0.196  -8.354   2.892  1.00  0.00    -0.207 F 
ENDBRANCH  15  17
ENDBRANCH  12  15
ENDBRANCH   7   9
ENDBRANCH   6   7
ENDBRANCH   5   6
ENDBRANCH   4   5
ENDBRANCH   3   4
ENDBRANCH   2   3
ENDBRANCH   1   2
BRANCH   1  27
ATOM     27  O   UNL     1       1.369  -0.286  -3.419  1.00  0.00    -0.376 OA
BRANCH  27  28
ATOM     28  C   UNL     1       1.496  -0.459  -4.818  1.00  0.00     0.202 C 
BRANCH  28  29
ATOM     29  C   UNL     1       0.374  -1.064  -5.670  1.00  0.00     0.261 C 
BRANCH  29  30
ATOM     30  O   UNL     1      -0.947  -0.593  -5.390  1.00  0.00    -0.460 OA
BRANCH  30  31
ATOM     31  C   UNL     1      -1.759  -1.496  -4.779  1.00  0.00     0.338 C 
ATOM     32  O   UNL     1      -1.475  -2.617  -4.412  1.00  0.00    -0.246 OA
BRANCH  31  33
ATOM     33  C   UNL     1      -3.035  -0.831  -4.462  1.00  0.00     0.060 A 
ATOM     34  C   UNL     1      -3.401  -0.655  -3.120  1.00  0.00     0.016 A 
ATOM     35  C   UNL     1      -3.877  -0.418  -5.491  1.00  0.00     0.016 A 
ATOM     36  C   UNL     1      -4.620  -0.058  -2.799  1.00  0.00     0.010 A 
ATOM     37  C   UNL     1      -5.109   0.148  -5.170  1.00  0.00     0.010 A 
ATOM     38  C   UNL     1      -5.494   0.313  -3.825  1.00  0.00    -0.014 A 
BRANCH  38  39
ATOM     39  C   UNL     1      -6.893   0.700  -3.536  1.00  0.00     0.031 A 
ATOM     40  C   UNL     1      -7.961  -0.338  -3.724  1.00  0.00     0.074 A 
ATOM     41  C   UNL     1      -7.213   1.957  -3.185  1.00  0.00     0.049 A 
ATOM     42  N   UNL     1      -9.258  -0.193  -3.774  1.00  0.00    -0.248 NA
ATOM     43  C   UNL     1      -7.499  -1.726  -3.893  1.00  0.00     0.031 C 
ATOM     44  C   UNL     1      -6.260   3.027  -2.895  1.00  0.00     0.029 A 
ATOM     45  N   UNL     1      -8.443   2.551  -3.044  1.00  0.00    -0.354 N 
ATOM     46  C   UNL     1      -9.766  -1.463  -4.017  1.00  0.00     0.074 A 
ATOM     47  C   UNL     1      -8.639  -2.364  -4.111  1.00  0.00     0.031 C 
ATOM     48  C   UNL     1      -6.942   4.158  -2.640  1.00  0.00     0.029 A 
ATOM     49  C   UNL     1      -8.372   3.905  -2.811  1.00  0.00     0.049 A 
ATOM     50  H   UNL     1      -9.292   2.057  -3.105  1.00  0.00     0.167 HD
ATOM     51  C   UNL     1     -11.058  -1.838  -4.160  1.00  0.00     0.031 A 
ATOM     52  C   UNL     1      -9.347   4.837  -2.791  1.00  0.00     0.031 A 
ATOM     53  C   UNL     1     -12.166  -0.925  -4.080  1.00  0.00     0.049 A 
ATOM     54  C   UNL     1     -10.773   4.415  -3.050  1.00  0.00     0.074 A 
ATOM     55  C   UNL     1     -13.515  -1.199  -4.209  1.00  0.00     0.029 A 
ATOM     56  N   UNL     1     -12.051   0.439  -3.856  1.00  0.00    -0.354 N 
ATOM     57  N   UNL     1     -11.247   3.216  -3.291  1.00  0.00    -0.248 NA
ATOM     58  C   UNL     1     -11.796   5.472  -3.038  1.00  0.00     0.031 C 
ATOM     59  C   UNL     1     -14.212   0.009  -4.128  1.00  0.00     0.029 A 
ATOM     60  C   UNL     1     -13.304   1.024  -3.868  1.00  0.00     0.049 A 
ATOM     61  H   UNL     1     -11.204   0.919  -3.711  1.00  0.00     0.167 HD
ATOM     62  C   UNL     1     -12.625   3.368  -3.414  1.00  0.00     0.074 A 
ATOM     63  C   UNL     1     -12.909   4.775  -3.226  1.00  0.00     0.031 C 
ATOM     64  C   UNL     1     -13.570   2.425  -3.652  1.00  0.00     0.031 A 
BRANCH  51  65
ATOM     65  C   UNL     1     -11.336  -3.283  -4.476  1.00  0.00    -0.014 A 
ATOM     66  C   UNL     1     -11.127  -4.297  -3.524  1.00  0.00     0.010 A 
ATOM     67  C   UNL     1     -11.850  -3.627  -5.740  1.00  0.00     0.010 A 
ATOM     68  C   UNL     1     -11.391  -5.632  -3.845  1.00  0.00     0.020 A 
ATOM     69  C   UNL     1     -12.145  -4.956  -6.054  1.00  0.00     0.020 A 
ATOM     70  C   UNL     1     -11.897  -5.952  -5.109  1.00  0.00     0.054 A 
BRANCH  70  71
ATOM     71  S   UNL     1     -12.252  -7.689  -5.488  1.00  0.00     0.124 S 
ATOM     72  O   UNL     1     -10.909  -8.257  -5.585  1.00  0.00    -0.237 OA
ATOM     73  O   UNL     1     -13.032  -8.116  -4.330  1.00  0.00    -0.237 OA
ATOM     74  O   UNL     1     -12.992  -7.627  -6.746  1.00  0.00    -0.744 OA
ENDBRANCH  70  71
ENDBRANCH  51  65
BRANCH  52  75
ATOM     75  C   UNL     1      -9.006   6.269  -2.558  1.00  0.00    -0.014 A 
ATOM     76  C   UNL     1      -9.423   6.922  -1.385  1.00  0.00     0.010 A 
ATOM     77  C   UNL     1      -8.261   6.990  -3.510  1.00  0.00     0.010 A 
ATOM     78  C   UNL     1      -9.117   8.271  -1.176  1.00  0.00     0.020 A 
ATOM     79  C   UNL     1      -7.926   8.330  -3.291  1.00  0.00     0.020 A 
ATOM     80  C   UNL     1      -8.366   8.965  -2.129  1.00  0.00     0.054 A 
BRANCH  80  81
ATOM     81  S   UNL     1      -7.940  10.700  -1.811  1.00  0.00     0.124 S 
ATOM     82  O   UNL     1      -9.232  11.363  -1.962  1.00  0.00    -0.237 OA
ATOM     83  O   UNL     1      -7.410  10.649  -0.451  1.00  0.00    -0.237 OA
ATOM     84  O   UNL     1      -6.954  11.007  -2.845  1.00  0.00    -0.744 OA
ENDBRANCH  80  81
ENDBRANCH  52  75
BRANCH  64  85
ATOM     85  C   UNL     1     -15.016   2.849  -3.650  1.00  0.00    -0.014 A 
ATOM     86  C   UNL     1     -15.576   3.567  -4.719  1.00  0.00     0.010 A 
ATOM     87  C   UNL     1     -15.854   2.401  -2.609  1.00  0.00     0.010 A 
ATOM     88  C   UNL     1     -16.950   3.830  -4.747  1.00  0.00     0.020 A 
ATOM     89  C   UNL     1     -17.229   2.636  -2.649  1.00  0.00     0.020 A 
ATOM     90  C   UNL     1     -17.769   3.352  -3.718  1.00  0.00     0.054 A 
BRANCH  90  91
ATOM     91  S   UNL     1     -19.560   3.616  -3.833  1.00  0.00     0.124 S 
ATOM     92  O   UNL     1     -19.672   5.053  -3.595  1.00  0.00    -0.237 OA
ATOM     93  O   UNL     1     -19.860   3.180  -5.194  1.00  0.00    -0.237 OA
ATOM     94  O   UNL     1     -20.106   2.766  -2.778  1.00  0.00    -0.744 OA
ENDBRANCH  90  91
ENDBRANCH  64  85
ENDBRANCH  38  39
ENDBRANCH  31  33
ENDBRANCH  30  31
ENDBRANCH  29  30
ENDBRANCH  28  29
ENDBRANCH  27  28
ENDBRANCH   1  27
TORSDOF 22
