REMARK SMILES O=C(OCCOCCOCCOC(=O)c1cc(-c2ccoc2)n[nH]1)c1ccc(-c2c3nc(c(-c4ccc(S(=O)(=O)[O-])cc4)c4ccc([nH]4)c(-c4ccc(S(=O)(=O)[O-])cc4)c4nc(c(-c5ccc(S(=O)(=O)[O-])cc5)c5ccc2[nH]5)C=C4)C=C3)cc1
REMARK SMILES IDX 7 1 6 2 5 3 4 4 3 5 2 6 1 7 25 8 26 9 84 10 27 11 83 12
REMARK SMILES IDX 28 13 29 14 30 15 77 16 31 17 82 18 76 19 78 20 32 21 81 22
REMARK SMILES IDX 75 23 74 24 33 26 63 27 44 28 62 29 45 30 48 31 61 32 79 33
REMARK SMILES IDX 46 34 47 35 60 37 80 38 49 39 34 40 35 41 43 42 36 43 42 44
REMARK SMILES IDX 37 45 38 46 39 47 40 48 41 49 64 50 65 51 73 52 66 53 72 54
REMARK SMILES IDX 67 55 68 56 69 57 70 58 71 59 50 60 51 61 59 62 52 63 58 64
REMARK SMILES IDX 53 65 54 66 55 67 56 68 57 69 8 70 9 71 10 72 11 73 12 74
REMARK SMILES IDX 13 75 14 76 15 77 16 78 24 79 17 80 23 81 18 83 19 84 22 85
REMARK SMILES IDX 20 86 21 87
REMARK H PARENT 78 25 48 36 24 82
REMARK Flexibility Score: inf
ROOT
ATOM      1  C   UNL     1       2.635   0.779   2.063  1.00  0.00     0.188 C 
ENDROOT
BRANCH   1   2
ATOM      2  O   UNL     1       3.955   0.300   1.770  1.00  0.00    -0.376 OA
BRANCH   2   3
ATOM      3  C   UNL     1       4.791   1.284   1.144  1.00  0.00     0.202 C 
BRANCH   3   4
ATOM      4  C   UNL     1       4.559   1.501  -0.362  1.00  0.00     0.261 C 
BRANCH   4   5
ATOM      5  O   UNL     1       3.191   1.312  -0.753  1.00  0.00    -0.460 OA
BRANCH   5   6
ATOM      6  C   UNL     1       2.638   0.236  -1.369  1.00  0.00     0.338 C 
ATOM      7  O   UNL     1       1.491   0.340  -1.800  1.00  0.00    -0.246 OA
BRANCH   6   8
ATOM      8  C   UNL     1       3.339  -1.078  -1.540  1.00  0.00     0.060 A 
ATOM      9  C   UNL     1       4.428  -1.511  -0.782  1.00  0.00     0.016 A 
ATOM     10  C   UNL     1       2.816  -1.969  -2.496  1.00  0.00     0.016 A 
ATOM     11  C   UNL     1       5.053  -2.729  -1.035  1.00  0.00     0.010 A 
ATOM     12  C   UNL     1       3.402  -3.223  -2.715  1.00  0.00     0.010 A 
ATOM     13  C   UNL     1       4.550  -3.592  -2.007  1.00  0.00    -0.014 A 
BRANCH  13  14
ATOM     14  C   UNL     1       5.304  -4.827  -2.314  1.00  0.00     0.031 A 
ATOM     15  C   UNL     1       6.096  -4.899  -3.587  1.00  0.00     0.074 A 
ATOM     16  C   UNL     1       5.373  -5.818  -1.404  1.00  0.00     0.049 A 
ATOM     17  N   UNL     1       6.823  -5.881  -4.048  1.00  0.00    -0.248 NA
ATOM     18  C   UNL     1       6.085  -3.702  -4.446  1.00  0.00     0.031 C 
ATOM     19  C   UNL     1       4.710  -5.813  -0.099  1.00  0.00     0.029 A 
ATOM     20  N   UNL     1       6.046  -7.011  -1.426  1.00  0.00    -0.354 N 
ATOM     21  C   UNL     1       7.345  -5.429  -5.254  1.00  0.00     0.074 A 
ATOM     22  C   UNL     1       6.845  -4.088  -5.461  1.00  0.00     0.031 C 
ATOM     23  C   UNL     1       5.016  -6.943   0.560  1.00  0.00     0.029 A 
ATOM     24  C   UNL     1       5.854  -7.771  -0.296  1.00  0.00     0.049 A 
ATOM     25  H   UNL     1       6.612  -7.297  -2.179  1.00  0.00     0.167 HD
ATOM     26  C   UNL     1       8.166  -6.078  -6.110  1.00  0.00     0.031 A 
ATOM     27  C   UNL     1       6.275  -9.016  -0.005  1.00  0.00     0.031 A 
ATOM     28  C   UNL     1       8.643  -7.417  -5.899  1.00  0.00     0.049 A 
ATOM     29  C   UNL     1       7.082  -9.758  -1.029  1.00  0.00     0.074 A 
ATOM     30  C   UNL     1       9.457  -8.181  -6.715  1.00  0.00     0.029 A 
ATOM     31  N   UNL     1       8.342  -8.192  -4.789  1.00  0.00    -0.354 N 
ATOM     32  N   UNL     1       7.524  -9.335  -2.189  1.00  0.00    -0.248 NA
ATOM     33  C   UNL     1       7.426 -11.150  -0.715  1.00  0.00     0.031 C 
ATOM     34  C   UNL     1       9.610  -9.438  -6.119  1.00  0.00     0.029 A 
ATOM     35  C   UNL     1       8.931  -9.437  -4.911  1.00  0.00     0.049 A 
ATOM     36  H   UNL     1       7.790  -7.900  -4.028  1.00  0.00     0.167 HD
ATOM     37  C   UNL     1       8.198 -10.413  -2.747  1.00  0.00     0.074 A 
ATOM     38  C   UNL     1       8.123 -11.497  -1.788  1.00  0.00     0.031 C 
ATOM     39  C   UNL     1       8.820 -10.500  -3.947  1.00  0.00     0.031 A 
BRANCH  26  40
ATOM     40  C   UNL     1       8.553  -5.364  -7.373  1.00  0.00    -0.014 A 
ATOM     41  C   UNL     1       9.519  -4.343  -7.366  1.00  0.00     0.010 A 
ATOM     42  C   UNL     1       7.959  -5.740  -8.591  1.00  0.00     0.010 A 
ATOM     43  C   UNL     1       9.868  -3.694  -8.554  1.00  0.00     0.020 A 
ATOM     44  C   UNL     1       8.317  -5.106  -9.783  1.00  0.00     0.020 A 
ATOM     45  C   UNL     1       9.262  -4.078  -9.755  1.00  0.00     0.054 A 
BRANCH  45  46
ATOM     46  S   UNL     1       9.752  -3.239 -11.286  1.00  0.00     0.124 S 
ATOM     47  O   UNL     1       9.101  -1.939 -11.139  1.00  0.00    -0.237 OA
ATOM     48  O   UNL     1      11.210  -3.224 -11.192  1.00  0.00    -0.237 OA
ATOM     49  O   UNL     1       9.207  -4.092 -12.339  1.00  0.00    -0.744 OA
ENDBRANCH  45  46
ENDBRANCH  26  40
BRANCH  27  50
ATOM     50  C   UNL     1       5.854  -9.685   1.252  1.00  0.00    -0.014 A 
ATOM     51  C   UNL     1       6.755  -9.884   2.313  1.00  0.00     0.010 A 
ATOM     52  C   UNL     1       4.541 -10.172   1.366  1.00  0.00     0.010 A 
ATOM     53  C   UNL     1       6.351 -10.570   3.464  1.00  0.00     0.020 A 
ATOM     54  C   UNL     1       4.136 -10.855   2.514  1.00  0.00     0.020 A 
ATOM     55  C   UNL     1       5.043 -11.056   3.554  1.00  0.00     0.054 A 
BRANCH  55  56
ATOM     56  S   UNL     1       4.486 -11.899   5.061  1.00  0.00     0.124 S 
ATOM     57  O   UNL     1       4.808 -13.291   4.767  1.00  0.00    -0.237 OA
ATOM     58  O   UNL     1       5.289 -11.269   6.106  1.00  0.00    -0.237 OA
ATOM     59  O   UNL     1       3.060 -11.577   5.108  1.00  0.00    -0.744 OA
ENDBRANCH  55  56
ENDBRANCH  27  50
BRANCH  39  60
ATOM     60  C   UNL     1       9.476 -11.809  -4.272  1.00  0.00    -0.014 A 
ATOM     61  C   UNL     1       8.712 -12.917  -4.676  1.00  0.00     0.010 A 
ATOM     62  C   UNL     1      10.876 -11.917  -4.204  1.00  0.00     0.010 A 
ATOM     63  C   UNL     1       9.339 -14.124  -4.986  1.00  0.00     0.020 A 
ATOM     64  C   UNL     1      11.507 -13.116  -4.534  1.00  0.00     0.020 A 
ATOM     65  C   UNL     1      10.733 -14.217  -4.910  1.00  0.00     0.054 A 
BRANCH  65  66
ATOM     66  S   UNL     1      11.532 -15.781  -5.358  1.00  0.00     0.124 S 
ATOM     67  O   UNL     1      11.295 -16.593  -4.168  1.00  0.00    -0.237 OA
ATOM     68  O   UNL     1      10.799 -16.188  -6.554  1.00  0.00    -0.237 OA
ATOM     69  O   UNL     1      12.925 -15.402  -5.588  1.00  0.00    -0.744 OA
ENDBRANCH  65  66
ENDBRANCH  39  60
ENDBRANCH  13  14
ENDBRANCH   6   8
ENDBRANCH   5   6
ENDBRANCH   4   5
ENDBRANCH   3   4
ENDBRANCH   2   3
ENDBRANCH   1   2
BRANCH   1  70
ATOM     70  C   UNL     1       1.993   0.043   3.244  1.00  0.00     0.188 C 
BRANCH  70  71
ATOM     71  O   UNL     1       2.552   0.280   4.537  1.00  0.00    -0.376 OA
BRANCH  71  72
ATOM     72  C   UNL     1       3.957   0.116   4.680  1.00  0.00     0.202 C 
BRANCH  72  73
ATOM     73  C   UNL     1       4.530  -1.305   4.581  1.00  0.00     0.261 C 
BRANCH  73  74
ATOM     74  O   UNL     1       3.794  -2.195   3.732  1.00  0.00    -0.459 OA
BRANCH  74  75
ATOM     75  C   UNL     1       3.218  -3.255   4.364  1.00  0.00     0.356 C 
ATOM     76  O   UNL     1       3.239  -3.452   5.575  1.00  0.00    -0.244 OA
BRANCH  75  77
ATOM     77  C   UNL     1       2.629  -4.141   3.406  1.00  0.00     0.144 A 
ATOM     78  C   UNL     1       2.404  -5.499   3.514  1.00  0.00     0.066 A 
ATOM     79  N   UNL     1       2.156  -3.803   2.169  1.00  0.00    -0.271 N 
ATOM     80  C   UNL     1       1.797  -5.879   2.301  1.00  0.00     0.096 A 
ATOM     81  N   UNL     1       1.629  -4.833   1.483  1.00  0.00    -0.175 NA
ATOM     82  H   UNL     1       2.197  -2.886   1.812  1.00  0.00     0.190 HD
BRANCH  80  83
ATOM     83  C   UNL     1       1.415  -7.244   1.965  1.00  0.00     0.040 A 
ATOM     84  C   UNL     1       1.247  -8.312   2.882  1.00  0.00     0.052 A 
ATOM     85  C   UNL     1       1.168  -7.768   0.717  1.00  0.00     0.205 A 
ATOM     86  C   UNL     1       0.883  -9.405   2.131  1.00  0.00     0.195 A 
ATOM     87  O   UNL     1       0.837  -9.084   0.811  1.00  0.00    -0.472 OA
ENDBRANCH  80  83
ENDBRANCH  75  77
ENDBRANCH  74  75
ENDBRANCH  73  74
ENDBRANCH  72  73
ENDBRANCH  71  72
ENDBRANCH  70  71
ENDBRANCH   1  70
TORSDOF 21
