REMARK SMILES Cc1cc(C(=O)OCCOCCOCCOC(=O)c2ccc(-c3c4nc(c(-c5ccc(S(=O)(=O)[O-])cc5)c5ccc([nH]5)c(-c5ccc(S(=O)(=O)[O-])cc5)c5nc(c(-c6ccc(S(=O)(=O)[O-])cc6)c6ccc3[nH]6)C=C5)C=C4)cc2)ccc1NS(=O)(=O)c1ccc(C#N)cc1C
REMARK SMILES IDX 11 1 10 2 9 3 8 4 7 5 5 6 6 7 4 8 1 9 2 10 3 11 81 12 80 13
REMARK SMILES IDX 79 14 82 15 83 17 84 18 85 19 86 20 87 21 93 22 88 23 92 24
REMARK SMILES IDX 94 25 89 26 90 27 91 28 12 29 13 30 14 31 15 32 16 33 17 34
REMARK SMILES IDX 18 35 19 36 20 37 78 38 21 39 77 40 22 41 23 42 24 43 71 44
REMARK SMILES IDX 25 45 76 46 70 47 72 48 26 49 75 50 69 51 68 52 27 54 57 55
REMARK SMILES IDX 38 56 56 57 39 58 42 59 55 60 73 61 40 62 41 63 54 65 74 66
REMARK SMILES IDX 43 67 28 68 29 69 37 70 30 71 36 72 31 73 32 74 33 75 34 76
REMARK SMILES IDX 35 77 58 78 59 79 67 80 60 81 66 82 61 83 62 84 63 85 64 86
REMARK SMILES IDX 65 87 44 88 45 89 53 90 46 91 52 92 47 93 48 94 49 95 50 96
REMARK SMILES IDX 51 97
REMARK H PARENT 82 16 72 53 42 64
REMARK Flexibility Score: inf
ROOT
ATOM      1  C   UNL     1      -2.733  -5.720  -2.158  1.00  0.00     0.188 C 
ENDROOT
BRANCH   1   2
ATOM      2  O   UNL     1      -3.675  -5.478  -1.103  1.00  0.00    -0.376 OA
BRANCH   2   3
ATOM      3  C   UNL     1      -4.680  -4.448  -1.048  1.00  0.00     0.202 C 
BRANCH   3   4
ATOM      4  C   UNL     1      -4.810  -2.804  -0.524  1.00  0.00     0.261 C 
BRANCH   4   5
ATOM      5  O   UNL     1      -3.665  -1.368  -0.270  1.00  0.00    -0.460 OA
BRANCH   5   6
ATOM      6  C   UNL     1      -2.406  -0.910   0.422  1.00  0.00     0.338 C 
ATOM      7  O   UNL     1      -1.965  -1.212   1.533  1.00  0.00    -0.246 OA
BRANCH   6   8
ATOM      8  C   UNL     1      -1.337  -0.125  -0.228  1.00  0.00     0.060 A 
ATOM      9  C   UNL     1       2.401   0.645   0.274  1.00  0.00     0.046 C 
ATOM     10  C   UNL     1       0.933   0.844  -0.027  1.00  0.00    -0.026 A 
ATOM     11  C   UNL     1       0.002  -0.144   0.307  1.00  0.00     0.021 A 
ATOM     12  C   UNL     1       0.431   1.892  -0.800  1.00  0.00     0.052 A 
ATOM     13  C   UNL     1      -0.742   1.731  -1.551  1.00  0.00     0.028 A 
ATOM     14  C   UNL     1      -1.644   0.720  -1.258  1.00  0.00     0.018 A 
BRANCH  12  15
ATOM     15  N   UNL     1       0.972   3.212  -0.738  1.00  0.00    -0.279 N 
ATOM     16  H   UNL     1       1.825   3.410  -1.188  1.00  0.00     0.180 HD
BRANCH  15  17
ATOM     17  S   UNL     1       0.143   4.463   0.118  1.00  0.00     0.262 S 
ATOM     18  O   UNL     1       0.561   4.370   1.500  1.00  0.00    -0.201 OA
ATOM     19  O   UNL     1       0.492   5.635  -0.665  1.00  0.00    -0.201 OA
BRANCH  17  20
ATOM     20  C   UNL     1      -1.663   4.330   0.122  1.00  0.00     0.090 A 
ATOM     21  C   UNL     1      -2.282   3.142   0.530  1.00  0.00     0.024 A 
ATOM     22  C   UNL     1      -2.506   5.417  -0.193  1.00  0.00    -0.029 A 
ATOM     23  C   UNL     1      -3.654   2.917   0.313  1.00  0.00     0.021 A 
ATOM     24  C   UNL     1      -3.891   5.190  -0.391  1.00  0.00     0.024 A 
ATOM     25  C   UNL     1      -2.097   6.864  -0.139  1.00  0.00     0.046 C 
ATOM     26  C   UNL     1      -4.459   3.930  -0.198  1.00  0.00     0.052 A 
BRANCH  26  27
ATOM     27  C   UNL     1      -5.839   3.709  -0.473  1.00  0.00     0.099 C 
ATOM     28  N   UNL     1      -6.973   3.534  -0.742  1.00  0.00    -0.192 NA
ENDBRANCH  26  27
ENDBRANCH  17  20
ENDBRANCH  15  17
ENDBRANCH  12  15
ENDBRANCH   6   8
ENDBRANCH   5   6
ENDBRANCH   4   5
ENDBRANCH   3   4
ENDBRANCH   2   3
ENDBRANCH   1   2
BRANCH   1  29
ATOM     29  C   UNL     1      -3.088  -5.359  -3.572  1.00  0.00     0.188 C 
BRANCH  29  30
ATOM     30  O   UNL     1      -3.946  -4.243  -3.530  1.00  0.00    -0.376 OA
BRANCH  30  31
ATOM     31  C   UNL     1      -4.547  -3.858  -4.732  1.00  0.00     0.202 C 
BRANCH  31  32
ATOM     32  C   UNL     1      -3.547  -3.629  -5.871  1.00  0.00     0.261 C 
BRANCH  32  33
ATOM     33  O   UNL     1      -2.757  -2.401  -5.804  1.00  0.00    -0.460 OA
BRANCH  33  34
ATOM     34  C   UNL     1      -1.453  -2.353  -5.312  1.00  0.00     0.338 C 
ATOM     35  O   UNL     1      -0.525  -1.980  -6.010  1.00  0.00    -0.246 OA
BRANCH  34  36
ATOM     36  C   UNL     1      -1.411  -2.364  -3.817  1.00  0.00     0.060 A 
ATOM     37  C   UNL     1      -0.483  -2.812  -2.860  1.00  0.00     0.016 A 
ATOM     38  C   UNL     1      -2.518  -1.840  -3.296  1.00  0.00     0.016 A 
ATOM     39  C   UNL     1      -0.831  -3.098  -1.446  1.00  0.00     0.010 A 
ATOM     40  C   UNL     1      -2.865  -2.322  -2.053  1.00  0.00     0.010 A 
ATOM     41  C   UNL     1      -2.135  -3.009  -0.973  1.00  0.00    -0.014 A 
BRANCH  41  42
ATOM     42  C   UNL     1      -2.749  -3.463   0.677  1.00  0.00     0.031 A 
ATOM     43  C   UNL     1      -3.804  -2.542   1.857  1.00  0.00     0.074 A 
ATOM     44  C   UNL     1      -2.452  -4.696   1.141  1.00  0.00     0.049 A 
ATOM     45  N   UNL     1      -3.524  -2.379   3.133  1.00  0.00    -0.248 NA
ATOM     46  C   UNL     1      -4.938  -1.462   1.593  1.00  0.00     0.031 C 
ATOM     47  C   UNL     1      -3.009  -5.419   2.284  1.00  0.00     0.029 A 
ATOM     48  N   UNL     1      -1.570  -5.619   0.584  1.00  0.00    -0.354 N 
ATOM     49  C   UNL     1      -4.353  -1.333   3.619  1.00  0.00     0.074 A 
ATOM     50  C   UNL     1      -4.752  -0.561   2.528  1.00  0.00     0.031 C 
ATOM     51  C   UNL     1      -2.237  -6.500   2.524  1.00  0.00     0.029 A 
ATOM     52  C   UNL     1      -1.095  -6.424   1.617  1.00  0.00     0.049 A 
ATOM     53  H   UNL     1      -1.326  -5.690  -0.367  1.00  0.00     0.167 HD
ATOM     54  C   UNL     1      -5.026  -1.381   4.802  1.00  0.00     0.031 A 
ATOM     55  C   UNL     1       0.217  -6.279   1.952  1.00  0.00     0.031 A 
ATOM     56  C   UNL     1      -4.515  -2.534   5.494  1.00  0.00     0.049 A 
ATOM     57  C   UNL     1       0.283  -5.621   3.317  1.00  0.00     0.074 A 
ATOM     58  C   UNL     1      -4.899  -3.863   5.452  1.00  0.00     0.029 A 
ATOM     59  N   UNL     1      -3.158  -2.514   5.766  1.00  0.00    -0.354 N 
ATOM     60  N   UNL     1      -0.652  -4.850   3.822  1.00  0.00    -0.248 NA
ATOM     61  C   UNL     1       1.331  -5.930   4.280  1.00  0.00     0.031 C 
ATOM     62  C   UNL     1      -3.704  -4.644   5.571  1.00  0.00     0.029 A 
ATOM     63  C   UNL     1      -2.624  -3.789   5.733  1.00  0.00     0.049 A 
ATOM     64  H   UNL     1      -2.641  -1.699   5.959  1.00  0.00     0.167 HD
ATOM     65  C   UNL     1      -0.393  -4.619   5.144  1.00  0.00     0.074 A 
ATOM     66  C   UNL     1       0.868  -5.307   5.377  1.00  0.00     0.031 C 
ATOM     67  C   UNL     1      -1.200  -3.928   6.005  1.00  0.00     0.031 A 
BRANCH  54  68
ATOM     68  C   UNL     1      -6.331  -0.613   5.097  1.00  0.00    -0.014 A 
ATOM     69  C   UNL     1      -7.154  -1.068   6.140  1.00  0.00     0.010 A 
ATOM     70  C   UNL     1      -6.856   0.501   4.383  1.00  0.00     0.010 A 
ATOM     71  C   UNL     1      -8.417  -0.494   6.414  1.00  0.00     0.020 A 
ATOM     72  C   UNL     1      -8.130   1.056   4.610  1.00  0.00     0.020 A 
ATOM     73  C   UNL     1      -8.906   0.554   5.636  1.00  0.00     0.054 A 
BRANCH  73  74
ATOM     74  S   UNL     1     -10.532   1.271   6.000  1.00  0.00     0.124 S 
ATOM     75  O   UNL     1     -11.421   0.120   5.865  1.00  0.00    -0.237 OA
ATOM     76  O   UNL     1     -10.353   1.776   7.359  1.00  0.00    -0.237 OA
ATOM     77  O   UNL     1     -10.702   2.301   4.977  1.00  0.00    -0.744 OA
ENDBRANCH  73  74
ENDBRANCH  54  68
BRANCH  55  78
ATOM     78  C   UNL     1       1.113  -6.126   0.736  1.00  0.00    -0.014 A 
ATOM     79  C   UNL     1       1.042  -7.163  -0.237  1.00  0.00     0.010 A 
ATOM     80  C   UNL     1       1.697  -4.915   0.323  1.00  0.00     0.010 A 
ATOM     81  C   UNL     1       1.361  -6.949  -1.588  1.00  0.00     0.020 A 
ATOM     82  C   UNL     1       2.066  -4.709  -1.037  1.00  0.00     0.020 A 
ATOM     83  C   UNL     1       1.830  -5.706  -1.993  1.00  0.00     0.054 A 
BRANCH  83  84
ATOM     84  S   UNL     1       1.927  -5.392  -3.794  1.00  0.00     0.124 S 
ATOM     85  O   UNL     1       2.899  -6.385  -4.239  1.00  0.00    -0.237 OA
ATOM     86  O   UNL     1       0.546  -5.633  -4.219  1.00  0.00    -0.237 OA
ATOM     87  O   UNL     1       2.377  -4.007  -3.881  1.00  0.00    -0.744 OA
ENDBRANCH  83  84
ENDBRANCH  55  78
BRANCH  67  88
ATOM     88  C   UNL     1      -0.680  -3.274   7.267  1.00  0.00    -0.014 A 
ATOM     89  C   UNL     1       0.676  -2.994   7.476  1.00  0.00     0.010 A 
ATOM     90  C   UNL     1      -1.598  -2.747   8.211  1.00  0.00     0.010 A 
ATOM     91  C   UNL     1       1.105  -2.343   8.633  1.00  0.00     0.020 A 
ATOM     92  C   UNL     1      -1.190  -1.998   9.308  1.00  0.00     0.020 A 
ATOM     93  C   UNL     1       0.168  -1.861   9.545  1.00  0.00     0.054 A 
BRANCH  93  94
ATOM     94  S   UNL     1       0.731  -1.071  11.062  1.00  0.00     0.124 S 
ATOM     95  O   UNL     1       0.942  -2.229  11.928  1.00  0.00    -0.237 OA
ATOM     96  O   UNL     1       1.944  -0.375  10.639  1.00  0.00    -0.237 OA
ATOM     97  O   UNL     1      -0.384  -0.204  11.433  1.00  0.00    -0.744 OA
ENDBRANCH  93  94
ENDBRANCH  67  88
ENDBRANCH  41  42
ENDBRANCH  34  36
ENDBRANCH  33  34
ENDBRANCH  32  33
ENDBRANCH  31  32
ENDBRANCH  30  31
ENDBRANCH  29  30
ENDBRANCH   1  29
TORSDOF 24
