REMARK SMILES CC[C@@H](C(=O)Nc1ccc(OC(C)=O)cc1C(=O)OCCOCCOCCOC(=O)c1ccc(-c2c3nc(c(-c4ccc(S(=O)(=O)[O-])cc4)c4ccc([nH]4)c(-c4ccc(S(=O)(=O)[O-])cc4)c4nc(c(-c5ccc(S(=O)(=O)[O-])cc5)c5ccc2[nH]5)C=C4)C=C3)cc1)c1ccccc1
REMARK SMILES IDX 23 1 22 2 21 3 20 4 19 5 17 6 18 7 16 8 7 9 8 10 9 11 15 12
REMARK SMILES IDX 10 13 6 14 4 15 5 16 3 18 2 19 1 20 91 21 92 22 96 23 93 24
REMARK SMILES IDX 95 25 94 26 11 27 12 28 13 29 14 30 24 31 25 32 26 33 27 34
REMARK SMILES IDX 28 35 29 36 30 37 31 38 32 39 90 40 33 41 89 42 34 43 35 44
REMARK SMILES IDX 36 45 83 46 37 47 88 48 82 49 84 50 38 51 87 52 81 53 80 54
REMARK SMILES IDX 39 56 69 57 50 58 68 59 51 60 54 61 67 62 85 63 52 64 53 65
REMARK SMILES IDX 66 67 86 68 55 69 40 70 41 71 49 72 42 73 48 74 43 75 44 76
REMARK SMILES IDX 45 77 46 78 47 79 70 80 71 81 79 82 72 83 78 84 73 85 74 86
REMARK SMILES IDX 75 87 76 88 77 89 56 90 57 91 65 92 58 93 64 94 59 95 60 96
REMARK SMILES IDX 61 97 62 98 63 99
REMARK H PARENT 6 17 84 55 54 66
REMARK Flexibility Score: inf
ROOT
ATOM      1  C   UNL     1      -2.268  -0.838  -1.207  1.00  0.00     0.188 C 
ENDROOT
BRANCH   1   2
ATOM      2  O   UNL     1      -3.047  -1.153  -0.064  1.00  0.00    -0.376 OA
BRANCH   2   3
ATOM      3  C   UNL     1      -2.319  -1.625   1.056  1.00  0.00     0.202 C 
BRANCH   3   4
ATOM      4  C   UNL     1      -1.553  -0.540   1.811  1.00  0.00     0.261 C 
BRANCH   4   5
ATOM      5  O   UNL     1      -0.630   0.267   1.056  1.00  0.00    -0.460 OA
BRANCH   5   6
ATOM      6  C   UNL     1       0.356  -0.341   0.374  1.00  0.00     0.340 C 
ATOM      7  O   UNL     1       0.470  -1.535   0.157  1.00  0.00    -0.246 OA
BRANCH   6   8
ATOM      8  C   UNL     1       1.301   0.641  -0.195  1.00  0.00     0.087 A 
ATOM      9  C   UNL     1       1.928   1.657   0.541  1.00  0.00     0.056 A 
ATOM     10  C   UNL     1       2.864   2.485  -0.100  1.00  0.00     0.031 A 
ATOM     11  C   UNL     1       3.313   2.175  -1.385  1.00  0.00     0.049 A 
ATOM     12  C   UNL     1       1.678   0.404  -1.527  1.00  0.00     0.065 A 
ATOM     13  C   UNL     1       2.754   1.094  -2.063  1.00  0.00     0.131 A 
BRANCH   9  14
ATOM     14  N   UNL     1       1.718   1.935   1.900  1.00  0.00    -0.325 N 
ATOM     15  C   UNL     1       1.198   1.135   2.876  1.00  0.00     0.231 C 
ATOM     16  O   UNL     1       0.262   1.643   3.508  1.00  0.00    -0.274 OA
ATOM     17  H   UNL     1       1.984   2.836   2.191  1.00  0.00     0.169 HD
BRANCH  15  18
ATOM     18  C   UNL     1       1.979  -0.143   3.386  1.00  0.00     0.108 C 
BRANCH  18  19
ATOM     19  C   UNL     1       2.503  -1.276   2.462  1.00  0.00     0.015 C 
ATOM     20  C   UNL     1       3.567  -1.056   1.403  1.00  0.00     0.005 C 
ENDBRANCH  18  19
BRANCH  18  21
ATOM     21  C   UNL     1       1.200  -0.795   4.575  1.00  0.00    -0.036 A 
ATOM     22  C   UNL     1       0.850  -0.017   5.693  1.00  0.00     0.004 A 
ATOM     23  C   UNL     1       0.825  -2.155   4.601  1.00  0.00     0.004 A 
ATOM     24  C   UNL     1       0.138  -0.561   6.765  1.00  0.00     0.000 A 
ATOM     25  C   UNL     1       0.152  -2.709   5.692  1.00  0.00     0.000 A 
ATOM     26  C   UNL     1      -0.198  -1.911   6.771  1.00  0.00     0.000 A 
ENDBRANCH  18  21
ENDBRANCH  15  18
ENDBRANCH   9  14
BRANCH  13  27
ATOM     27  O   UNL     1       3.319   0.745  -3.305  1.00  0.00    -0.427 OA
BRANCH  27  28
ATOM     28  C   UNL     1       3.972  -0.471  -3.547  1.00  0.00     0.308 C 
ATOM     29  C   UNL     1       3.327  -1.714  -2.998  1.00  0.00     0.139 C 
ATOM     30  O   UNL     1       4.958  -0.515  -4.277  1.00  0.00    -0.252 OA
ENDBRANCH  27  28
ENDBRANCH  13  27
ENDBRANCH   6   8
ENDBRANCH   5   6
ENDBRANCH   4   5
ENDBRANCH   3   4
ENDBRANCH   2   3
ENDBRANCH   1   2
BRANCH   1  31
ATOM     31  C   UNL     1      -2.089   0.679  -1.448  1.00  0.00     0.188 C 
BRANCH  31  32
ATOM     32  O   UNL     1      -2.999   1.610  -0.891  1.00  0.00    -0.376 OA
BRANCH  32  33
ATOM     33  C   UNL     1      -4.363   1.240  -0.833  1.00  0.00     0.202 C 
BRANCH  33  34
ATOM     34  C   UNL     1      -5.077   0.807  -2.132  1.00  0.00     0.261 C 
BRANCH  34  35
ATOM     35  O   UNL     1      -4.366  -0.093  -3.013  1.00  0.00    -0.460 OA
BRANCH  35  36
ATOM     36  C   UNL     1      -3.754   0.452  -4.105  1.00  0.00     0.338 C 
ATOM     37  O   UNL     1      -3.811   1.609  -4.456  1.00  0.00    -0.246 OA
BRANCH  36  38
ATOM     38  C   UNL     1      -2.791  -0.533  -4.696  1.00  0.00     0.060 A 
ATOM     39  C   UNL     1      -1.424  -0.203  -4.762  1.00  0.00     0.016 A 
ATOM     40  C   UNL     1      -3.219  -1.759  -5.202  1.00  0.00     0.016 A 
ATOM     41  C   UNL     1      -0.491  -1.087  -5.321  1.00  0.00     0.010 A 
ATOM     42  C   UNL     1      -2.291  -2.623  -5.810  1.00  0.00     0.010 A 
ATOM     43  C   UNL     1      -0.924  -2.289  -5.889  1.00  0.00    -0.014 A 
BRANCH  43  44
ATOM     44  C   UNL     1      -0.011  -3.106  -6.739  1.00  0.00     0.031 A 
ATOM     45  C   UNL     1      -0.025  -2.869  -8.229  1.00  0.00     0.074 A 
ATOM     46  C   UNL     1       0.802  -4.051  -6.227  1.00  0.00     0.049 A 
ATOM     47  N   UNL     1       0.529  -3.568  -9.186  1.00  0.00    -0.248 NA
ATOM     48  C   UNL     1      -0.768  -1.688  -8.698  1.00  0.00     0.031 C 
ATOM     49  C   UNL     1       0.984  -4.338  -4.806  1.00  0.00     0.029 A 
ATOM     50  N   UNL     1       1.619  -4.962  -6.858  1.00  0.00    -0.354 N 
ATOM     51  C   UNL     1       0.188  -2.923 -10.371  1.00  0.00     0.074 A 
ATOM     52  C   UNL     1      -0.629  -1.784 -10.013  1.00  0.00     0.031 C 
ATOM     53  C   UNL     1       1.843  -5.366  -4.674  1.00  0.00     0.029 A 
ATOM     54  C   UNL     1       2.225  -5.853  -6.000  1.00  0.00     0.049 A 
ATOM     55  H   UNL     1       1.759  -4.974  -7.832  1.00  0.00     0.167 HD
ATOM     56  C   UNL     1       0.519  -3.250 -11.643  1.00  0.00     0.031 A 
ATOM     57  C   UNL     1       2.957  -6.960  -6.254  1.00  0.00     0.031 A 
ATOM     58  C   UNL     1       1.316  -4.392 -12.005  1.00  0.00     0.049 A 
ATOM     59  C   UNL     1       3.202  -7.379  -7.688  1.00  0.00     0.074 A 
ATOM     60  C   UNL     1       1.684  -4.814 -13.271  1.00  0.00     0.029 A 
ATOM     61  N   UNL     1       1.866  -5.292 -11.108  1.00  0.00    -0.354 N 
ATOM     62  N   UNL     1       2.863  -6.767  -8.798  1.00  0.00    -0.248 NA
ATOM     63  C   UNL     1       3.915  -8.650  -7.901  1.00  0.00     0.031 C 
ATOM     64  C   UNL     1       2.406  -6.004 -13.142  1.00  0.00     0.029 A 
ATOM     65  C   UNL     1       2.544  -6.286 -11.793  1.00  0.00     0.049 A 
ATOM     66  H   UNL     1       1.787  -5.234 -10.128  1.00  0.00     0.167 HD
ATOM     67  C   UNL     1       3.343  -7.567  -9.834  1.00  0.00     0.074 A 
ATOM     68  C   UNL     1       4.016  -8.691  -9.222  1.00  0.00     0.031 C 
ATOM     69  C   UNL     1       3.226  -7.393 -11.174  1.00  0.00     0.031 A 
BRANCH  56  70
ATOM     70  C   UNL     1      -0.004  -2.378 -12.753  1.00  0.00    -0.014 A 
ATOM     71  C   UNL     1       0.530  -1.098 -12.980  1.00  0.00     0.010 A 
ATOM     72  C   UNL     1      -0.983  -2.880 -13.632  1.00  0.00     0.010 A 
ATOM     73  C   UNL     1       0.084  -0.329 -14.059  1.00  0.00     0.020 A 
ATOM     74  C   UNL     1      -1.411  -2.125 -14.727  1.00  0.00     0.020 A 
ATOM     75  C   UNL     1      -0.879  -0.850 -14.929  1.00  0.00     0.054 A 
BRANCH  75  76
ATOM     76  S   UNL     1      -1.389   0.149 -16.355  1.00  0.00     0.124 S 
ATOM     77  O   UNL     1      -2.130   1.232 -15.714  1.00  0.00    -0.237 OA
ATOM     78  O   UNL     1      -0.111   0.529 -16.950  1.00  0.00    -0.237 OA
ATOM     79  O   UNL     1      -2.197  -0.770 -17.152  1.00  0.00    -0.744 OA
ENDBRANCH  75  76
ENDBRANCH  56  70
BRANCH  57  80
ATOM     80  C   UNL     1       3.456  -7.822  -5.139  1.00  0.00    -0.014 A 
ATOM     81  C   UNL     1       4.836  -8.016  -4.940  1.00  0.00     0.010 A 
ATOM     82  C   UNL     1       2.550  -8.519  -4.318  1.00  0.00     0.010 A 
ATOM     83  C   UNL     1       5.297  -8.916  -3.972  1.00  0.00     0.020 A 
ATOM     84  C   UNL     1       3.007  -9.391  -3.324  1.00  0.00     0.020 A 
ATOM     85  C   UNL     1       4.378  -9.600  -3.172  1.00  0.00     0.054 A 
BRANCH  85  86
ATOM     86  S   UNL     1       4.995 -10.757  -1.918  1.00  0.00     0.124 S 
ATOM     87  O   UNL     1       5.454 -11.876  -2.735  1.00  0.00    -0.237 OA
ATOM     88  O   UNL     1       6.043  -9.980  -1.261  1.00  0.00    -0.237 OA
ATOM     89  O   UNL     1       3.820 -11.025  -1.092  1.00  0.00    -0.744 OA
ENDBRANCH  85  86
ENDBRANCH  57  80
BRANCH  69  90
ATOM     90  C   UNL     1       3.860  -8.417 -12.081  1.00  0.00    -0.014 A 
ATOM     91  C   UNL     1       3.307  -9.702 -12.225  1.00  0.00     0.010 A 
ATOM     92  C   UNL     1       4.972  -8.060 -12.867  1.00  0.00     0.010 A 
ATOM     93  C   UNL     1       3.863 -10.615 -13.126  1.00  0.00     0.020 A 
ATOM     94  C   UNL     1       5.513  -8.960 -13.790  1.00  0.00     0.020 A 
ATOM     95  C   UNL     1       4.958 -10.236 -13.909  1.00  0.00     0.054 A 
BRANCH  95  96
ATOM     96  S   UNL     1       5.610 -11.417 -15.122  1.00  0.00     0.124 S 
ATOM     97  O   UNL     1       6.232 -12.423 -14.266  1.00  0.00    -0.237 OA
ATOM     98  O   UNL     1       4.405 -11.849 -15.826  1.00  0.00    -0.237 OA
ATOM     99  O   UNL     1       6.538 -10.619 -15.921  1.00  0.00    -0.744 OA
ENDBRANCH  95  96
ENDBRANCH  69  90
ENDBRANCH  43  44
ENDBRANCH  36  38
ENDBRANCH  35  36
ENDBRANCH  34  35
ENDBRANCH  33  34
ENDBRANCH  32  33
ENDBRANCH  31  32
ENDBRANCH   1  31
TORSDOF 26
