REMARK SMILES N#CCSc1nnnn1-c1ccc(C(=O)OCCOCCOCCOC(=O)c2ccc(-c3c4nc(c(-c5ccc(S(=O)(=O)[O-])cc5)c5ccc([nH]5)c(-c5ccc(S(=O)(=O)[O-])cc5)c5nc(c(-c6ccc(S(=O)(=O)[O-])cc6)c6ccc3[nH]6)C=C5)C=C4)cc2)cc1
REMARK SMILES IDX 20 1 19 2 18 3 17 4 16 5 14 6 15 7 13 8 10 9 11 10 89 11
REMARK SMILES IDX 12 12 88 13 9 14 5 15 6 16 7 17 8 18 4 19 3 20 2 21 1 22
REMARK SMILES IDX 21 23 22 24 23 25 24 26 25 27 26 28 27 29 28 30 29 31 87 32
REMARK SMILES IDX 30 33 86 34 31 35 32 36 33 37 80 38 34 39 85 40 79 41 81 42
REMARK SMILES IDX 35 43 84 44 78 45 77 46 36 48 66 49 47 50 65 51 48 52 51 53
REMARK SMILES IDX 64 54 82 55 49 56 50 57 63 59 83 60 52 61 37 62 38 63 46 64
REMARK SMILES IDX 39 65 45 66 40 67 41 68 42 69 43 70 44 71 67 72 68 73 76 74
REMARK SMILES IDX 69 75 75 76 70 77 71 78 72 79 73 80 74 81 53 82 54 83 62 84
REMARK SMILES IDX 55 85 61 86 56 87 57 88 58 89 59 90 60 91
REMARK H PARENT 81 47 51 58
REMARK Flexibility Score: inf
ROOT
ATOM      1  C   UNL     1       2.629   6.387   3.319  1.00  0.00     0.188 C 
ENDROOT
BRANCH   1   2
ATOM      2  O   UNL     1       2.936   7.616   2.671  1.00  0.00    -0.376 OA
BRANCH   2   3
ATOM      3  C   UNL     1       2.860   7.695   1.252  1.00  0.00     0.202 C 
BRANCH   3   4
ATOM      4  C   UNL     1       3.650   6.681   0.407  1.00  0.00     0.261 C 
BRANCH   4   5
ATOM      5  O   UNL     1       3.414   5.317   0.788  1.00  0.00    -0.460 OA
BRANCH   5   6
ATOM      6  C   UNL     1       4.500   4.595   1.137  1.00  0.00     0.338 C 
ATOM      7  O   UNL     1       5.668   4.899   0.969  1.00  0.00    -0.246 OA
BRANCH   6   8
ATOM      8  C   UNL     1       4.089   3.364   1.863  1.00  0.00     0.060 A 
ATOM      9  C   UNL     1       3.490   0.959   3.108  1.00  0.00     0.069 A 
ATOM     10  C   UNL     1       4.753   1.523   3.295  1.00  0.00     0.029 A 
ATOM     11  C   UNL     1       2.480   1.639   2.427  1.00  0.00     0.029 A 
ATOM     12  C   UNL     1       5.038   2.745   2.690  1.00  0.00     0.018 A 
ATOM     13  C   UNL     1       2.806   2.809   1.742  1.00  0.00     0.018 A 
BRANCH   9  14
ATOM     14  N   UNL     1       3.338  -0.418   3.291  1.00  0.00    -0.187 N 
ATOM     15  C   UNL     1       3.657  -1.442   2.417  1.00  0.00     0.215 A 
ATOM     16  N   UNL     1       3.413  -2.584   3.025  1.00  0.00    -0.101 NA
ATOM     17  N   UNL     1       2.940  -2.260   4.275  1.00  0.00    -0.022 NA
ATOM     18  N   UNL     1       2.908  -0.945   4.450  1.00  0.00    -0.039 NA
BRANCH  15  19
ATOM     19  S   UNL     1       4.466  -1.336   0.880  1.00  0.00    -0.069 SA
BRANCH  19  20
ATOM     20  C   UNL     1       3.716   0.019  -0.073  1.00  0.00     0.198 C 
BRANCH  20  21
ATOM     21  C   UNL     1       2.196   0.019  -0.073  1.00  0.00     0.074 C 
ATOM     22  N   UNL     1       0.935   0.019  -0.073  1.00  0.00    -0.197 NA
ENDBRANCH  20  21
ENDBRANCH  19  20
ENDBRANCH  15  19
ENDBRANCH   9  14
ENDBRANCH   6   8
ENDBRANCH   5   6
ENDBRANCH   4   5
ENDBRANCH   3   4
ENDBRANCH   2   3
ENDBRANCH   1   2
BRANCH   1  23
ATOM     23  C   UNL     1       1.377   5.582   2.918  1.00  0.00     0.188 C 
BRANCH  23  24
ATOM     24  O   UNL     1       0.818   5.895   1.650  1.00  0.00    -0.376 OA
BRANCH  24  25
ATOM     25  C   UNL     1      -0.569   6.231   1.647  1.00  0.00     0.202 C 
BRANCH  25  26
ATOM     26  C   UNL     1      -0.904   7.591   2.271  1.00  0.00     0.261 C 
BRANCH  26  27
ATOM     27  O   UNL     1      -0.403   7.761   3.593  1.00  0.00    -0.460 OA
BRANCH  27  28
ATOM     28  C   UNL     1      -0.927   6.943   4.531  1.00  0.00     0.338 C 
ATOM     29  O   UNL     1      -1.738   6.053   4.356  1.00  0.00    -0.246 OA
BRANCH  28  30
ATOM     30  C   UNL     1      -0.299   7.259   5.822  1.00  0.00     0.060 A 
ATOM     31  C   UNL     1      -0.497   6.361   6.874  1.00  0.00     0.016 A 
ATOM     32  C   UNL     1       0.276   8.522   6.021  1.00  0.00     0.016 A 
ATOM     33  C   UNL     1      -0.357   6.824   8.164  1.00  0.00     0.010 A 
ATOM     34  C   UNL     1       0.400   8.990   7.307  1.00  0.00     0.010 A 
ATOM     35  C   UNL     1      -0.030   8.169   8.350  1.00  0.00    -0.014 A 
BRANCH  35  36
ATOM     36  C   UNL     1      -0.381   8.769   9.622  1.00  0.00     0.031 A 
ATOM     37  C   UNL     1       0.632   8.717  10.687  1.00  0.00     0.074 A 
ATOM     38  C   UNL     1      -1.537   9.454   9.736  1.00  0.00     0.049 A 
ATOM     39  N   UNL     1       0.526   8.176  11.855  1.00  0.00    -0.248 NA
ATOM     40  C   UNL     1       1.960   9.272  10.388  1.00  0.00     0.031 C 
ATOM     41  C   UNL     1      -2.447   9.832   8.646  1.00  0.00     0.029 A 
ATOM     42  N   UNL     1      -2.064  10.090  10.818  1.00  0.00    -0.354 N 
ATOM     43  C   UNL     1       1.700   8.504  12.520  1.00  0.00     0.074 A 
ATOM     44  C   UNL     1       2.606   9.024  11.525  1.00  0.00     0.031 C 
ATOM     45  C   UNL     1      -3.253  10.825   9.074  1.00  0.00     0.029 A 
ATOM     46  C   UNL     1      -2.989  11.070  10.482  1.00  0.00     0.049 A 
ATOM     47  H   UNL     1      -1.815   9.877  11.746  1.00  0.00     0.167 HD
ATOM     48  C   UNL     1       1.762   8.576  13.877  1.00  0.00     0.031 A 
ATOM     49  C   UNL     1      -3.408  12.090  11.270  1.00  0.00     0.031 A 
ATOM     50  C   UNL     1       0.663   7.905  14.518  1.00  0.00     0.049 A 
ATOM     51  C   UNL     1      -3.116  11.720  12.678  1.00  0.00     0.074 A 
ATOM     52  C   UNL     1       0.159   6.620  14.489  1.00  0.00     0.029 A 
ATOM     53  N   UNL     1      -0.317   8.684  15.088  1.00  0.00    -0.354 N 
ATOM     54  N   UNL     1      -3.704  10.743  13.311  1.00  0.00    -0.248 NA
ATOM     55  C   UNL     1      -1.880  12.192  13.283  1.00  0.00     0.031 C 
ATOM     56  C   UNL     1      -1.250   6.764  14.635  1.00  0.00     0.029 A 
ATOM     57  C   UNL     1      -1.528   8.126  14.769  1.00  0.00     0.049 A 
ATOM     58  H   UNL     1      -0.174   9.496  15.627  1.00  0.00     0.167 HD
ATOM     59  C   UNL     1      -2.726  10.208  14.138  1.00  0.00     0.074 A 
ATOM     60  C   UNL     1      -1.673  11.218  14.173  1.00  0.00     0.031 C 
ATOM     61  C   UNL     1      -2.731   8.885  14.483  1.00  0.00     0.031 A 
BRANCH  48  62
ATOM     62  C   UNL     1       2.610   9.601  14.588  1.00  0.00    -0.014 A 
ATOM     63  C   UNL     1       2.738   9.535  15.988  1.00  0.00     0.010 A 
ATOM     64  C   UNL     1       3.050  10.785  13.956  1.00  0.00     0.010 A 
ATOM     65  C   UNL     1       3.213  10.631  16.721  1.00  0.00     0.020 A 
ATOM     66  C   UNL     1       3.574  11.860  14.670  1.00  0.00     0.020 A 
ATOM     67  C   UNL     1       3.607  11.793  16.055  1.00  0.00     0.054 A 
BRANCH  67  68
ATOM     68  S   UNL     1       4.078  13.255  17.009  1.00  0.00     0.124 S 
ATOM     69  O   UNL     1       2.787  13.692  17.531  1.00  0.00    -0.237 OA
ATOM     70  O   UNL     1       5.008  12.704  17.990  1.00  0.00    -0.237 OA
ATOM     71  O   UNL     1       4.683  14.133  16.009  1.00  0.00    -0.744 OA
ENDBRANCH  67  68
ENDBRANCH  48  62
BRANCH  49  72
ATOM     72  C   UNL     1      -3.708  13.476  10.826  1.00  0.00    -0.014 A 
ATOM     73  C   UNL     1      -4.293  14.410  11.700  1.00  0.00     0.010 A 
ATOM     74  C   UNL     1      -3.198  13.964   9.602  1.00  0.00     0.010 A 
ATOM     75  C   UNL     1      -4.324  15.779  11.379  1.00  0.00     0.020 A 
ATOM     76  C   UNL     1      -3.245  15.319   9.266  1.00  0.00     0.020 A 
ATOM     77  C   UNL     1      -3.789  16.226  10.168  1.00  0.00     0.054 A 
BRANCH  77  78
ATOM     78  S   UNL     1      -3.691  18.006   9.824  1.00  0.00     0.124 S 
ATOM     79  O   UNL     1      -5.089  18.352   9.584  1.00  0.00    -0.237 OA
ATOM     80  O   UNL     1      -3.109  18.536  11.054  1.00  0.00    -0.237 OA
ATOM     81  O   UNL     1      -2.823  18.083   8.650  1.00  0.00    -0.744 OA
ENDBRANCH  77  78
ENDBRANCH  49  72
BRANCH  61  82
ATOM     82  C   UNL     1      -3.993   8.080  14.260  1.00  0.00    -0.014 A 
ATOM     83  C   UNL     1      -4.584   7.909  12.993  1.00  0.00     0.010 A 
ATOM     84  C   UNL     1      -4.504   7.338  15.341  1.00  0.00     0.010 A 
ATOM     85  C   UNL     1      -5.669   7.038  12.818  1.00  0.00     0.020 A 
ATOM     86  C   UNL     1      -5.574   6.454  15.169  1.00  0.00     0.020 A 
ATOM     87  C   UNL     1      -6.157   6.314  13.909  1.00  0.00     0.054 A 
BRANCH  87  88
ATOM     88  S   UNL     1      -7.512   5.132  13.654  1.00  0.00     0.124 S 
ATOM     89  O   UNL     1      -8.661   6.009  13.444  1.00  0.00    -0.237 OA
ATOM     90  O   UNL     1      -7.072   4.379  12.482  1.00  0.00    -0.237 OA
ATOM     91  O   UNL     1      -7.540   4.362  14.897  1.00  0.00    -0.744 OA
ENDBRANCH  87  88
ENDBRANCH  61  82
ENDBRANCH  35  36
ENDBRANCH  28  30
ENDBRANCH  27  28
ENDBRANCH  26  27
ENDBRANCH  25  26
ENDBRANCH  24  25
ENDBRANCH  23  24
ENDBRANCH   1  23
TORSDOF 24
