REMARK SMILES Cc1cc(NC(=O)[C@@H]2[C@@H](C(=O)OCCOCCOCCOC(=O)c3ccc(-c4c5nc(c(-c6ccc(S(=O)(=O)[O-])cc6)c6ccc([nH]6)c(-c6ccc(S(=O)(=O)[O-])cc6)c6nc(c(-c7ccc(S(=O)(=O)[O-])cc7)c7ccc4[nH]7)C=C6)C=C5)cc3)C2(C)C)on1
REMARK SMILES IDX 17 1 16 2 15 3 14 4 13 5 12 6 10 7 11 8 9 9 8 10 84 11 85 12
REMARK SMILES IDX 86 13 6 14 5 15 7 17 4 18 1 19 2 20 3 21 88 22 87 23 18 24
REMARK SMILES IDX 19 25 20 26 21 27 22 28 23 29 24 30 25 31 83 32 26 33 82 34
REMARK SMILES IDX 27 35 28 36 29 37 76 38 30 39 81 40 75 41 77 42 31 43 80 44
REMARK SMILES IDX 74 45 73 46 32 48 62 49 43 50 61 51 44 52 47 53 60 54 78 55
REMARK SMILES IDX 45 56 46 57 59 59 79 60 48 61 33 62 34 63 42 64 35 65 41 66
REMARK SMILES IDX 36 67 37 68 38 69 39 70 40 71 63 72 64 73 72 74 65 75 71 76
REMARK SMILES IDX 66 77 67 78 68 79 69 80 70 81 49 82 50 83 58 84 51 85 57 86
REMARK SMILES IDX 52 87 53 88 54 89 55 90 56 91
REMARK H PARENT 5 16 77 47 47 58
REMARK Flexibility Score: inf
ROOT
ATOM      1  C   UNL     1      -7.579  -0.238   2.416  1.00  0.00     0.188 C 
ENDROOT
BRANCH   1   2
ATOM      2  C   UNL     1      -8.518  -0.557   1.238  1.00  0.00     0.188 C 
BRANCH   2   3
ATOM      3  O   UNL     1      -8.993  -1.893   1.098  1.00  0.00    -0.376 OA
BRANCH   3   4
ATOM      4  C   UNL     1      -8.040  -2.955   1.036  1.00  0.00     0.202 C 
BRANCH   4   5
ATOM      5  C   UNL     1      -6.871  -2.789   0.061  1.00  0.00     0.261 C 
BRANCH   5   6
ATOM      6  O   UNL     1      -6.014  -1.727   0.504  1.00  0.00    -0.463 OA
BRANCH   6   7
ATOM      7  C   UNL     1      -5.276  -1.135  -0.461  1.00  0.00     0.310 C 
ATOM      8  O   UNL     1      -5.081  -1.574  -1.584  1.00  0.00    -0.252 OA
BRANCH   7   9
ATOM      9  C   UNL     1      -4.807   0.218  -0.061  1.00  0.00     0.118 C 
ATOM     10  C   UNL     1      -3.326   0.452  -0.112  1.00  0.00     0.100 C 
ATOM     11  C   UNL     1      -4.032   0.573   1.225  1.00  0.00    -0.009 C 
ATOM     12  C   UNL     1      -3.728  -0.506   2.245  1.00  0.00     0.013 C 
ATOM     13  C   UNL     1      -4.285   1.903   1.894  1.00  0.00     0.013 C 
BRANCH  10  14
ATOM     14  C   UNL     1      -2.668   1.415  -1.031  1.00  0.00     0.231 C 
ATOM     15  N   UNL     1      -2.859   2.760  -1.176  1.00  0.00    -0.294 N 
ATOM     16  H   UNL     1      -2.116   3.205  -1.644  1.00  0.00     0.173 HD
ATOM     17  O   UNL     1      -1.724   0.961  -1.686  1.00  0.00    -0.274 OA
BRANCH  15  18
ATOM     18  C   UNL     1      -3.851   3.620  -0.815  1.00  0.00     0.231 A 
ATOM     19  C   UNL     1      -5.559   6.696   0.156  1.00  0.00     0.070 C 
ATOM     20  C   UNL     1      -5.086   5.353  -0.249  1.00  0.00     0.083 A 
ATOM     21  C   UNL     1      -3.811   4.990  -0.733  1.00  0.00     0.096 A 
ATOM     22  N   UNL     1      -5.880   4.281  -0.135  1.00  0.00    -0.083 NA
ATOM     23  O   UNL     1      -5.102   3.201  -0.523  1.00  0.00    -0.338 OA
ENDBRANCH  15  18
ENDBRANCH  10  14
ENDBRANCH   7   9
ENDBRANCH   6   7
ENDBRANCH   5   6
ENDBRANCH   4   5
ENDBRANCH   3   4
ENDBRANCH   2   3
ENDBRANCH   1   2
BRANCH   1  24
ATOM     24  O   UNL     1      -7.353  -1.275   3.338  1.00  0.00    -0.376 OA
BRANCH  24  25
ATOM     25  C   UNL     1      -8.228  -1.508   4.423  1.00  0.00     0.202 C 
BRANCH  25  26
ATOM     26  C   UNL     1      -9.603  -0.853   4.647  1.00  0.00     0.261 C 
BRANCH  26  27
ATOM     27  O   UNL     1      -9.987   0.235   3.812  1.00  0.00    -0.460 OA
BRANCH  27  28
ATOM     28  C   UNL     1      -9.661   1.478   4.238  1.00  0.00     0.338 C 
ATOM     29  O   UNL     1      -9.019   1.778   5.227  1.00  0.00    -0.246 OA
BRANCH  28  30
ATOM     30  C   UNL     1     -10.079   2.410   3.171  1.00  0.00     0.060 A 
ATOM     31  C   UNL     1      -9.105   3.151   2.488  1.00  0.00     0.016 A 
ATOM     32  C   UNL     1     -11.426   2.502   2.815  1.00  0.00     0.016 A 
ATOM     33  C   UNL     1      -9.482   3.986   1.435  1.00  0.00     0.010 A 
ATOM     34  C   UNL     1     -11.802   3.355   1.778  1.00  0.00     0.010 A 
ATOM     35  C   UNL     1     -10.834   4.108   1.091  1.00  0.00    -0.014 A 
BRANCH  35  36
ATOM     36  C   UNL     1     -11.278   5.102   0.088  1.00  0.00     0.031 A 
ATOM     37  C   UNL     1     -11.752   6.445   0.560  1.00  0.00     0.074 A 
ATOM     38  C   UNL     1     -11.307   4.791  -1.220  1.00  0.00     0.049 A 
ATOM     39  N   UNL     1     -12.283   7.422  -0.126  1.00  0.00    -0.248 NA
ATOM     40  C   UNL     1     -11.609   6.720   1.999  1.00  0.00     0.031 C 
ATOM     41  C   UNL     1     -10.827   3.540  -1.805  1.00  0.00     0.029 A 
ATOM     42  N   UNL     1     -11.783   5.505  -2.291  1.00  0.00    -0.354 N 
ATOM     43  C   UNL     1     -12.552   8.425   0.797  1.00  0.00     0.074 A 
ATOM     44  C   UNL     1     -12.136   7.932   2.093  1.00  0.00     0.031 C 
ATOM     45  C   UNL     1     -11.045   3.569  -3.131  1.00  0.00     0.029 A 
ATOM     46  C   UNL     1     -11.718   4.819  -3.480  1.00  0.00     0.049 A 
ATOM     47  H   UNL     1     -12.136   6.421  -2.215  1.00  0.00     0.167 HD
ATOM     48  C   UNL     1     -13.103   9.643   0.584  1.00  0.00     0.031 A 
ATOM     49  C   UNL     1     -12.180   5.150  -4.702  1.00  0.00     0.031 A 
ATOM     50  C   UNL     1     -13.543  10.115  -0.700  1.00  0.00     0.049 A 
ATOM     51  C   UNL     1     -12.898   6.460  -4.891  1.00  0.00     0.074 A 
ATOM     52  C   UNL     1     -14.078  11.349  -1.026  1.00  0.00     0.029 A 
ATOM     53  N   UNL     1     -13.526   9.364  -1.866  1.00  0.00    -0.354 N 
ATOM     54  N   UNL     1     -13.107   7.418  -4.020  1.00  0.00    -0.248 NA
ATOM     55  C   UNL     1     -13.455   6.726  -6.226  1.00  0.00     0.031 C 
ATOM     56  C   UNL     1     -14.444  11.320  -2.377  1.00  0.00     0.029 A 
ATOM     57  C   UNL     1     -14.086  10.089  -2.904  1.00  0.00     0.049 A 
ATOM     58  H   UNL     1     -13.168   8.451  -1.944  1.00  0.00     0.167 HD
ATOM     59  C   UNL     1     -13.807   8.407  -4.705  1.00  0.00     0.074 A 
ATOM     60  C   UNL     1     -13.975   7.936  -6.064  1.00  0.00     0.031 C 
ATOM     61  C   UNL     1     -14.264   9.600  -4.248  1.00  0.00     0.031 A 
BRANCH  48  62
ATOM     62  C   UNL     1     -13.307  10.523   1.786  1.00  0.00    -0.014 A 
ATOM     63  C   UNL     1     -12.222  11.143   2.430  1.00  0.00     0.010 A 
ATOM     64  C   UNL     1     -14.609  10.733   2.277  1.00  0.00     0.010 A 
ATOM     65  C   UNL     1     -12.430  11.919   3.573  1.00  0.00     0.020 A 
ATOM     66  C   UNL     1     -14.823  11.527   3.406  1.00  0.00     0.020 A 
ATOM     67  C   UNL     1     -13.729  12.098   4.059  1.00  0.00     0.054 A 
BRANCH  67  68
ATOM     68  S   UNL     1     -13.972  13.102   5.550  1.00  0.00     0.124 S 
ATOM     69  O   UNL     1     -13.503  12.200   6.599  1.00  0.00    -0.237 OA
ATOM     70  O   UNL     1     -13.123  14.264   5.297  1.00  0.00    -0.237 OA
ATOM     71  O   UNL     1     -15.407  13.373   5.556  1.00  0.00    -0.744 OA
ENDBRANCH  67  68
ENDBRANCH  48  62
BRANCH  49  72
ATOM     72  C   UNL     1     -12.002   4.209  -5.840  1.00  0.00    -0.014 A 
ATOM     73  C   UNL     1     -11.090   4.504  -6.868  1.00  0.00     0.010 A 
ATOM     74  C   UNL     1     -12.730   3.006  -5.895  1.00  0.00     0.010 A 
ATOM     75  C   UNL     1     -10.909   3.614  -7.931  1.00  0.00     0.020 A 
ATOM     76  C   UNL     1     -12.536   2.104  -6.945  1.00  0.00     0.020 A 
ATOM     77  C   UNL     1     -11.630   2.417  -7.960  1.00  0.00     0.054 A 
BRANCH  77  78
ATOM     78  S   UNL     1     -11.329   1.248  -9.314  1.00  0.00     0.124 S 
ATOM     79  O   UNL     1     -12.000   1.900 -10.434  1.00  0.00    -0.237 OA
ATOM     80  O   UNL     1      -9.870   1.214  -9.384  1.00  0.00    -0.237 OA
ATOM     81  O   UNL     1     -11.951   0.012  -8.844  1.00  0.00    -0.744 OA
ENDBRANCH  77  78
ENDBRANCH  49  72
BRANCH  61  82
ATOM     82  C   UNL     1     -14.989  10.488  -5.224  1.00  0.00    -0.014 A 
ATOM     83  C   UNL     1     -16.309  10.205  -5.615  1.00  0.00     0.010 A 
ATOM     84  C   UNL     1     -14.369  11.660  -5.695  1.00  0.00     0.010 A 
ATOM     85  C   UNL     1     -16.993  11.072  -6.472  1.00  0.00     0.020 A 
ATOM     86  C   UNL     1     -15.058  12.541  -6.533  1.00  0.00     0.020 A 
ATOM     87  C   UNL     1     -16.364  12.237  -6.923  1.00  0.00     0.054 A 
BRANCH  87  88
ATOM     88  S   UNL     1     -17.295  13.380  -7.979  1.00  0.00     0.124 S 
ATOM     89  O   UNL     1     -17.300  12.677  -9.259  1.00  0.00    -0.237 OA
ATOM     90  O   UNL     1     -18.587  13.464  -7.303  1.00  0.00    -0.237 OA
ATOM     91  O   UNL     1     -16.502  14.607  -7.946  1.00  0.00    -0.744 OA
ENDBRANCH  87  88
ENDBRANCH  61  82
ENDBRANCH  35  36
ENDBRANCH  28  30
ENDBRANCH  27  28
ENDBRANCH  26  27
ENDBRANCH  25  26
ENDBRANCH  24  25
ENDBRANCH   1  24
TORSDOF 22
