REMARK SMILES CC(C)(Cn1ccc2ccc([N+](=O)[O-])cc21)C(=O)OCCOCCOCCOC(=O)c1ccc(-c2c3nc(c(-c4ccc(S(=O)(=O)[O-])cc4)c4ccc([nH]4)c(-c4ccc(S(=O)(=O)[O-])cc4)c4nc(c(-c5ccc(S(=O)(=O)[O-])cc5)c5ccc2[nH]5)C=C4)C=C3)cc1
REMARK SMILES IDX 23 1 22 2 21 3 20 4 19 5 17 6 18 7 2 8 1 9 3 10 4 11 5 12
REMARK SMILES IDX 6 13 16 14 7 15 8 16 15 17 9 18 11 19 10 20 12 21 13 22
REMARK SMILES IDX 14 23 24 24 25 25 26 26 27 27 28 28 29 29 30 30 31 31 32 32
REMARK SMILES IDX 90 33 33 34 89 35 34 36 35 37 36 38 83 39 37 40 88 41 82 42
REMARK SMILES IDX 84 43 38 44 87 45 81 46 80 47 39 49 69 50 50 51 68 52 51 53
REMARK SMILES IDX 54 54 67 55 85 56 52 57 53 58 66 60 86 61 55 62 40 63 41 64
REMARK SMILES IDX 49 65 42 66 48 67 43 68 44 69 45 70 46 71 47 72 70 73 71 74
REMARK SMILES IDX 79 75 72 76 78 77 73 78 74 79 75 80 76 81 77 82 56 83 57 84
REMARK SMILES IDX 65 85 58 86 64 87 59 88 60 89 61 90 62 91 63 92
REMARK H PARENT 84 48 54 59
REMARK Flexibility Score: inf
ROOT
ATOM      1  C   UNL     1       1.083  -2.096  -3.455  1.00  0.00     0.188 C 
ENDROOT
BRANCH   1   2
ATOM      2  O   UNL     1       1.466  -3.233  -4.200  1.00  0.00    -0.376 OA
BRANCH   2   3
ATOM      3  C   UNL     1       1.124  -4.503  -3.661  1.00  0.00     0.202 C 
BRANCH   3   4
ATOM      4  C   UNL     1       1.120  -4.647  -2.133  1.00  0.00     0.261 C 
BRANCH   4   5
ATOM      5  O   UNL     1       0.026  -3.940  -1.450  1.00  0.00    -0.463 OA
BRANCH   5   6
ATOM      6  C   UNL     1       0.412  -3.358  -0.287  1.00  0.00     0.313 C 
ATOM      7  O   UNL     1       1.551  -3.546   0.149  1.00  0.00    -0.252 OA
BRANCH   6   8
ATOM      8  C   UNL     1      -0.554  -2.386   0.485  1.00  0.00     0.080 C 
ATOM      9  C   UNL     1       0.162  -1.055   0.494  1.00  0.00     0.025 C 
ATOM     10  C   UNL     1      -0.474  -3.017   1.911  1.00  0.00     0.025 C 
BRANCH   8  11
ATOM     11  C   UNL     1      -2.080  -2.098   0.247  1.00  0.00     0.140 C 
BRANCH  11  12
ATOM     12  N   UNL     1      -2.614  -1.021  -0.621  1.00  0.00    -0.346 N 
ATOM     13  C   UNL     1      -3.354  -1.344  -1.743  1.00  0.00     0.087 A 
ATOM     14  C   UNL     1      -2.690   0.381  -0.447  1.00  0.00     0.055 A 
ATOM     15  C   UNL     1      -3.752  -0.197  -2.376  1.00  0.00     0.028 A 
ATOM     16  C   UNL     1      -3.307   0.898  -1.604  1.00  0.00     0.000 A 
ATOM     17  C   UNL     1      -2.233   1.292   0.552  1.00  0.00     0.112 A 
ATOM     18  C   UNL     1      -3.372   2.294  -1.828  1.00  0.00     0.017 A 
ATOM     19  C   UNL     1      -2.263   2.685   0.269  1.00  0.00     0.271 A 
ATOM     20  C   UNL     1      -2.808   3.181  -0.915  1.00  0.00     0.086 A 
BRANCH  19  21
ATOM     21  N   UNL     1      -1.621   3.646   1.188  1.00  0.00     0.062 N 
ATOM     22  O   UNL     1      -1.065   3.195   2.196  1.00  0.00    -0.258 OA
ATOM     23  O   UNL     1      -1.627   4.844   0.864  1.00  0.00    -0.258 OA
ENDBRANCH  19  21
ENDBRANCH  11  12
ENDBRANCH   8  11
ENDBRANCH   6   8
ENDBRANCH   5   6
ENDBRANCH   4   5
ENDBRANCH   3   4
ENDBRANCH   2   3
ENDBRANCH   1   2
BRANCH   1  24
ATOM     24  C   UNL     1      -0.422  -1.873  -3.236  1.00  0.00     0.188 C 
BRANCH  24  25
ATOM     25  O   UNL     1      -1.342  -2.723  -3.898  1.00  0.00    -0.376 OA
BRANCH  25  26
ATOM     26  C   UNL     1      -1.335  -2.636  -5.321  1.00  0.00     0.202 C 
BRANCH  26  27
ATOM     27  C   UNL     1      -1.332  -1.225  -5.951  1.00  0.00     0.261 C 
BRANCH  27  28
ATOM     28  O   UNL     1      -0.119  -0.485  -5.649  1.00  0.00    -0.460 OA
BRANCH  28  29
ATOM     29  C   UNL     1      -0.279   0.854  -5.393  1.00  0.00     0.338 C 
ATOM     30  O   UNL     1      -1.210   1.534  -5.749  1.00  0.00    -0.246 OA
BRANCH  29  31
ATOM     31  C   UNL     1       0.622   1.212  -4.244  1.00  0.00     0.060 A 
ATOM     32  C   UNL     1       2.020   1.170  -4.235  1.00  0.00     0.016 A 
ATOM     33  C   UNL     1      -0.040   1.384  -3.035  1.00  0.00     0.016 A 
ATOM     34  C   UNL     1       2.730   1.188  -2.999  1.00  0.00     0.010 A 
ATOM     35  C   UNL     1       0.658   1.326  -1.831  1.00  0.00     0.010 A 
ATOM     36  C   UNL     1       2.050   1.185  -1.772  1.00  0.00    -0.014 A 
BRANCH  36  37
ATOM     37  C   UNL     1       2.654   1.446  -0.431  1.00  0.00     0.031 A 
ATOM     38  C   UNL     1       2.841   2.892  -0.216  1.00  0.00     0.074 A 
ATOM     39  C   UNL     1       2.933   0.643   0.639  1.00  0.00     0.049 A 
ATOM     40  N   UNL     1       4.007   3.437  -0.165  1.00  0.00    -0.248 NA
ATOM     41  C   UNL     1       1.731   3.848  -0.211  1.00  0.00     0.031 C 
ATOM     42  C   UNL     1       3.031  -0.815   0.695  1.00  0.00     0.029 A 
ATOM     43  N   UNL     1       3.098   0.977   1.982  1.00  0.00    -0.354 N 
ATOM     44  C   UNL     1       3.786   4.757   0.155  1.00  0.00     0.074 A 
ATOM     45  C   UNL     1       2.384   5.002  -0.059  1.00  0.00     0.031 C 
ATOM     46  C   UNL     1       2.983  -1.247   1.982  1.00  0.00     0.029 A 
ATOM     47  C   UNL     1       2.957  -0.094   2.885  1.00  0.00     0.049 A 
ATOM     48  H   UNL     1       3.298   1.895   2.278  1.00  0.00     0.167 HD
ATOM     49  C   UNL     1       4.740   5.450   0.823  1.00  0.00     0.031 A 
ATOM     50  C   UNL     1       3.342  -0.206   4.189  1.00  0.00     0.031 A 
ATOM     51  C   UNL     1       5.998   4.740   0.839  1.00  0.00     0.049 A 
ATOM     52  C   UNL     1       4.583   0.571   4.325  1.00  0.00     0.074 A 
ATOM     53  C   UNL     1       6.926   4.393  -0.120  1.00  0.00     0.029 A 
ATOM     54  N   UNL     1       6.180   3.896   1.908  1.00  0.00    -0.354 N 
ATOM     55  N   UNL     1       5.704   0.215   3.771  1.00  0.00    -0.248 NA
ATOM     56  C   UNL     1       4.552   1.916   4.884  1.00  0.00     0.031 C 
ATOM     57  C   UNL     1       7.523   3.179   0.322  1.00  0.00     0.029 A 
ATOM     58  C   UNL     1       6.995   2.839   1.566  1.00  0.00     0.049 A 
ATOM     59  H   UNL     1       5.781   4.028   2.798  1.00  0.00     0.167 HD
ATOM     60  C   UNL     1       6.299   1.417   3.464  1.00  0.00     0.074 A 
ATOM     61  C   UNL     1       5.678   2.393   4.348  1.00  0.00     0.031 C 
ATOM     62  C   UNL     1       6.974   1.579   2.292  1.00  0.00     0.031 A 
BRANCH  49  63
ATOM     63  C   UNL     1       4.425   6.557   1.779  1.00  0.00    -0.014 A 
ATOM     64  C   UNL     1       3.157   6.718   2.377  1.00  0.00     0.010 A 
ATOM     65  C   UNL     1       5.482   7.337   2.279  1.00  0.00     0.010 A 
ATOM     66  C   UNL     1       2.936   7.650   3.390  1.00  0.00     0.020 A 
ATOM     67  C   UNL     1       5.279   8.246   3.323  1.00  0.00     0.020 A 
ATOM     68  C   UNL     1       4.003   8.407   3.860  1.00  0.00     0.054 A 
BRANCH  68  69
ATOM     69  S   UNL     1       3.697   9.559   5.219  1.00  0.00     0.124 S 
ATOM     70  O   UNL     1       2.850  10.561   4.578  1.00  0.00    -0.237 OA
ATOM     71  O   UNL     1       3.036   8.710   6.206  1.00  0.00    -0.237 OA
ATOM     72  O   UNL     1       5.035  10.016   5.588  1.00  0.00    -0.744 OA
ENDBRANCH  68  69
ENDBRANCH  49  63
BRANCH  50  73
ATOM     73  C   UNL     1       2.592  -0.629   5.415  1.00  0.00    -0.014 A 
ATOM     74  C   UNL     1       1.189  -0.574   5.497  1.00  0.00     0.010 A 
ATOM     75  C   UNL     1       3.299  -0.852   6.622  1.00  0.00     0.010 A 
ATOM     76  C   UNL     1       0.529  -0.635   6.743  1.00  0.00     0.020 A 
ATOM     77  C   UNL     1       2.649  -0.908   7.869  1.00  0.00     0.020 A 
ATOM     78  C   UNL     1       1.266  -0.759   7.926  1.00  0.00     0.054 A 
BRANCH  78  79
ATOM     79  S   UNL     1       0.406  -0.638   9.528  1.00  0.00     0.124 S 
ATOM     80  O   UNL     1      -0.051   0.749   9.529  1.00  0.00    -0.237 OA
ATOM     81  O   UNL     1      -0.646  -1.644   9.402  1.00  0.00    -0.237 OA
ATOM     82  O   UNL     1       1.444  -0.951  10.508  1.00  0.00    -0.744 OA
ENDBRANCH  78  79
ENDBRANCH  50  73
BRANCH  62  83
ATOM     83  C   UNL     1       7.530   0.348   1.603  1.00  0.00    -0.014 A 
ATOM     84  C   UNL     1       8.892   0.352   1.259  1.00  0.00     0.010 A 
ATOM     85  C   UNL     1       6.751  -0.747   1.185  1.00  0.00     0.010 A 
ATOM     86  C   UNL     1       9.441  -0.661   0.468  1.00  0.00     0.020 A 
ATOM     87  C   UNL     1       7.297  -1.784   0.413  1.00  0.00     0.020 A 
ATOM     88  C   UNL     1       8.635  -1.714   0.032  1.00  0.00     0.054 A 
BRANCH  88  89
ATOM     89  S   UNL     1       9.366  -2.960  -1.063  1.00  0.00     0.124 S 
ATOM     90  O   UNL     1       9.556  -2.209  -2.302  1.00  0.00    -0.237 OA
ATOM     91  O   UNL     1      10.595  -3.325  -0.362  1.00  0.00    -0.237 OA
ATOM     92  O   UNL     1       8.357  -4.015  -1.129  1.00  0.00    -0.744 OA
ENDBRANCH  88  89
ENDBRANCH  62  83
ENDBRANCH  36  37
ENDBRANCH  29  31
ENDBRANCH  28  29
ENDBRANCH  27  28
ENDBRANCH  26  27
ENDBRANCH  25  26
ENDBRANCH  24  25
ENDBRANCH   1  24
TORSDOF 23
