REMARK SMILES Cc1ccc(S(=O)(=O)Nc2cc(C(=O)OCCOCCOCCOC(=O)c3ccc(-c4c5nc(c(-c6ccc(S(=O)(=O)[O-])cc6)c6ccc([nH]6)c(-c6ccc(S(=O)(=O)[O-])cc6)c6nc(c(-c7ccc(S(=O)(=O)[O-])cc7)c7ccc4[nH]7)C=C6)C=C5)cc3)cnc2N2CCCC2)c(C)c1
REMARK SMILES IDX 19 1 18 2 17 3 16 4 15 5 13 6 14 7 12 8 10 9 11 10 89 11
REMARK SMILES IDX 88 12 87 13 9 14 6 16 7 17 8 18 5 19 1 20 2 21 3 22 97 23
REMARK SMILES IDX 4 24 95 25 96 26 90 27 91 28 94 29 92 30 93 31 20 32 21 33
REMARK SMILES IDX 22 34 23 35 24 36 25 37 26 38 27 39 28 40 86 41 29 42 85 43
REMARK SMILES IDX 30 44 31 45 32 46 79 47 33 48 84 49 78 50 80 51 34 52 83 53
REMARK SMILES IDX 77 54 76 55 35 57 65 58 46 59 64 60 47 61 50 62 63 63 81 64
REMARK SMILES IDX 48 65 49 66 62 68 82 69 51 70 36 71 37 72 45 73 38 74 44 75
REMARK SMILES IDX 39 76 40 77 41 78 42 79 43 80 66 81 67 82 75 83 68 84 74 85
REMARK SMILES IDX 69 86 70 87 71 88 72 89 73 90 52 91 53 92 61 93 54 94 60 95
REMARK SMILES IDX 55 96 56 97 57 98 58 99 59 100
REMARK H PARENT 9 15 80 56 50 67
REMARK Flexibility Score: inf
ROOT
ATOM      1  C   UNL     1       3.414  -4.761   3.224  1.00  0.00     0.188 C 
ENDROOT
BRANCH   1   2
ATOM      2  O   UNL     1       4.242  -3.850   3.913  1.00  0.00    -0.376 OA
BRANCH   2   3
ATOM      3  C   UNL     1       4.042  -2.450   3.830  1.00  0.00     0.202 C 
BRANCH   3   4
ATOM      4  C   UNL     1       3.340  -1.739   2.665  1.00  0.00     0.261 C 
BRANCH   4   5
ATOM      5  O   UNL     1       2.230  -2.426   2.088  1.00  0.00    -0.460 OA
BRANCH   5   6
ATOM      6  C   UNL     1       2.438  -2.920   0.843  1.00  0.00     0.339 C 
ATOM      7  O   UNL     1       3.453  -2.823   0.176  1.00  0.00    -0.246 OA
BRANCH   6   8
ATOM      8  C   UNL     1       1.268  -3.696   0.400  1.00  0.00     0.080 A 
ATOM      9  C   UNL     1      -1.078  -3.926   0.100  1.00  0.00     0.092 A 
ATOM     10  C   UNL     1      -0.021  -3.360   0.795  1.00  0.00     0.048 A 
ATOM     11  C   UNL     1      -0.843  -4.979  -0.818  1.00  0.00     0.153 A 
ATOM     12  N   UNL     1       0.408  -5.400  -1.092  1.00  0.00    -0.236 NA
ATOM     13  C   UNL     1       1.437  -4.722  -0.520  1.00  0.00     0.129 A 
BRANCH   9  14
ATOM     14  N   UNL     1      -2.406  -3.422   0.293  1.00  0.00    -0.276 N 
ATOM     15  H   UNL     1      -3.079  -3.997   0.725  1.00  0.00     0.180 HD
BRANCH  14  16
ATOM     16  S   UNL     1      -2.851  -1.855  -0.204  1.00  0.00     0.262 S 
ATOM     17  O   UNL     1      -3.554  -1.332   0.953  1.00  0.00    -0.201 OA
ATOM     18  O   UNL     1      -3.544  -1.989  -1.468  1.00  0.00    -0.201 OA
BRANCH  16  19
ATOM     19  C   UNL     1      -1.439  -0.785  -0.516  1.00  0.00     0.090 A 
ATOM     20  C   UNL     1       2.330   1.279  -0.186  1.00  0.00     0.044 C 
ATOM     21  C   UNL     1       1.006   0.605  -0.392  1.00  0.00    -0.051 A 
ATOM     22  C   UNL     1       0.907  -0.581  -1.118  1.00  0.00     0.005 A 
ATOM     23  C   UNL     1      -0.172   1.195   0.073  1.00  0.00     0.008 A 
ATOM     24  C   UNL     1      -0.319  -1.256  -1.209  1.00  0.00     0.023 A 
ATOM     25  C   UNL     1      -1.411   0.530  -0.020  1.00  0.00    -0.030 A 
ATOM     26  C   UNL     1      -2.638   1.348   0.278  1.00  0.00     0.046 C 
ENDBRANCH  16  19
ENDBRANCH  14  16
ENDBRANCH   9  14
BRANCH  11  27
ATOM     27  N   UNL     1      -1.923  -5.561  -1.459  1.00  0.00    -0.355 N 
ATOM     28  C   UNL     1      -2.406  -4.949  -2.688  1.00  0.00     0.118 C 
ATOM     29  C   UNL     1      -1.967  -7.014  -1.629  1.00  0.00     0.118 C 
ATOM     30  C   UNL     1      -3.612  -5.826  -2.982  1.00  0.00     0.023 C 
ATOM     31  C   UNL     1      -3.103  -7.228  -2.647  1.00  0.00     0.023 C 
ENDBRANCH  11  27
ENDBRANCH   6   8
ENDBRANCH   5   6
ENDBRANCH   4   5
ENDBRANCH   3   4
ENDBRANCH   2   3
ENDBRANCH   1   2
BRANCH   1  32
ATOM     32  C   UNL     1       1.927  -4.885   3.619  1.00  0.00     0.188 C 
BRANCH  32  33
ATOM     33  O   UNL     1       1.395  -4.103   4.664  1.00  0.00    -0.376 OA
BRANCH  33  34
ATOM     34  C   UNL     1       1.957  -4.220   5.958  1.00  0.00     0.202 C 
BRANCH  34  35
ATOM     35  C   UNL     1       2.464  -5.555   6.540  1.00  0.00     0.261 C 
BRANCH  35  36
ATOM     36  O   UNL     1       3.110  -6.462   5.636  1.00  0.00    -0.460 OA
BRANCH  36  37
ATOM     37  C   UNL     1       2.420  -7.593   5.330  1.00  0.00     0.338 C 
ATOM     38  O   UNL     1       1.323  -7.922   5.754  1.00  0.00    -0.246 OA
BRANCH  37  39
ATOM     39  C   UNL     1       3.109  -8.294   4.226  1.00  0.00     0.060 A 
ATOM     40  C   UNL     1       2.504  -8.340   2.959  1.00  0.00     0.016 A 
ATOM     41  C   UNL     1       4.347  -8.899   4.436  1.00  0.00     0.016 A 
ATOM     42  C   UNL     1       3.148  -8.972   1.892  1.00  0.00     0.010 A 
ATOM     43  C   UNL     1       4.972  -9.563   3.376  1.00  0.00     0.010 A 
ATOM     44  C   UNL     1       4.377  -9.609   2.101  1.00  0.00    -0.014 A 
BRANCH  44  45
ATOM     45  C   UNL     1       5.003 -10.422   1.030  1.00  0.00     0.031 A 
ATOM     46  C   UNL     1       4.828 -11.914   1.051  1.00  0.00     0.074 A 
ATOM     47  C   UNL     1       5.764  -9.848   0.081  1.00  0.00     0.049 A 
ATOM     48  N   UNL     1       5.395 -12.825   0.305  1.00  0.00    -0.248 NA
ATOM     49  C   UNL     1       3.893 -12.447   2.054  1.00  0.00     0.031 C 
ATOM     50  C   UNL     1       5.979  -8.410  -0.075  1.00  0.00     0.029 A 
ATOM     51  N   UNL     1       6.524 -10.413  -0.914  1.00  0.00    -0.354 N 
ATOM     52  C   UNL     1       4.909 -14.044   0.764  1.00  0.00     0.074 A 
ATOM     53  C   UNL     1       4.007 -13.753   1.858  1.00  0.00     0.031 C 
ATOM     54  C   UNL     1       6.845  -8.208  -1.083  1.00  0.00     0.029 A 
ATOM     55  C   UNL     1       7.280  -9.501  -1.612  1.00  0.00     0.049 A 
ATOM     56  H   UNL     1       6.527 -11.378  -1.109  1.00  0.00     0.167 HD
ATOM     57  C   UNL     1       5.196 -15.291   0.320  1.00  0.00     0.031 A 
ATOM     58  C   UNL     1       8.247  -9.684  -2.534  1.00  0.00     0.031 A 
ATOM     59  C   UNL     1       6.114 -15.575  -0.752  1.00  0.00     0.049 A 
ATOM     60  C   UNL     1       8.612 -11.083  -2.959  1.00  0.00     0.074 A 
ATOM     61  C   UNL     1       6.441 -16.803  -1.300  1.00  0.00     0.029 A 
ATOM     62  N   UNL     1       6.873 -14.625  -1.421  1.00  0.00    -0.354 N 
ATOM     63  N   UNL     1       8.107 -12.225  -2.556  1.00  0.00    -0.248 NA
ATOM     64  C   UNL     1       9.679 -11.219  -3.961  1.00  0.00     0.031 C 
ATOM     65  C   UNL     1       7.453 -16.604  -2.245  1.00  0.00     0.029 A 
ATOM     66  C   UNL     1       7.705 -15.244  -2.340  1.00  0.00     0.049 A 
ATOM     67  H   UNL     1       6.827 -13.654  -1.265  1.00  0.00     0.167 HD
ATOM     68  C   UNL     1       8.786 -13.213  -3.263  1.00  0.00     0.074 A 
ATOM     69  C   UNL     1       9.722 -12.534  -4.135  1.00  0.00     0.031 C 
ATOM     70  C   UNL     1       8.646 -14.561  -3.193  1.00  0.00     0.031 A 
BRANCH  57  71
ATOM     71  C   UNL     1       4.557 -16.449   1.042  1.00  0.00    -0.014 A 
ATOM     72  C   UNL     1       3.177 -16.705   0.951  1.00  0.00     0.010 A 
ATOM     73  C   UNL     1       5.362 -17.312   1.809  1.00  0.00     0.010 A 
ATOM     74  C   UNL     1       2.608 -17.771   1.654  1.00  0.00     0.020 A 
ATOM     75  C   UNL     1       4.802 -18.397   2.488  1.00  0.00     0.020 A 
ATOM     76  C   UNL     1       3.424 -18.607   2.423  1.00  0.00     0.054 A 
BRANCH  76  77
ATOM     77  S   UNL     1       2.659 -19.982   3.324  1.00  0.00     0.124 S 
ATOM     78  O   UNL     1       1.932 -19.281   4.381  1.00  0.00    -0.237 OA
ATOM     79  O   UNL     1       1.827 -20.610   2.301  1.00  0.00    -0.237 OA
ATOM     80  O   UNL     1       3.796 -20.779   3.775  1.00  0.00    -0.744 OA
ENDBRANCH  76  77
ENDBRANCH  57  71
BRANCH  58  81
ATOM     81  C   UNL     1       8.975  -8.504  -3.078  1.00  0.00    -0.014 A 
ATOM     82  C   UNL     1       8.798  -8.096  -4.410  1.00  0.00     0.010 A 
ATOM     83  C   UNL     1       9.832  -7.760  -2.244  1.00  0.00     0.010 A 
ATOM     84  C   UNL     1       9.459  -6.963  -4.897  1.00  0.00     0.020 A 
ATOM     85  C   UNL     1      10.471  -6.611  -2.719  1.00  0.00     0.020 A 
ATOM     86  C   UNL     1      10.282  -6.221  -4.045  1.00  0.00     0.054 A 
BRANCH  86  87
ATOM     87  S   UNL     1      11.054  -4.705  -4.675  1.00  0.00     0.124 S 
ATOM     88  O   UNL     1      12.062  -5.233  -5.589  1.00  0.00    -0.237 OA
ATOM     89  O   UNL     1       9.928  -4.018  -5.303  1.00  0.00    -0.237 OA
ATOM     90  O   UNL     1      11.575  -4.059  -3.472  1.00  0.00    -0.744 OA
ENDBRANCH  86  87
ENDBRANCH  58  81
BRANCH  70  91
ATOM     91  C   UNL     1       9.520 -15.406  -4.088  1.00  0.00    -0.014 A 
ATOM     92  C   UNL     1      10.896 -15.547  -3.837  1.00  0.00     0.010 A 
ATOM     93  C   UNL     1       8.941 -16.131  -5.146  1.00  0.00     0.010 A 
ATOM     94  C   UNL     1      11.680 -16.383  -4.638  1.00  0.00     0.020 A 
ATOM     95  C   UNL     1       9.715 -16.991  -5.931  1.00  0.00     0.020 A 
ATOM     96  C   UNL     1      11.083 -17.105  -5.677  1.00  0.00     0.054 A 
BRANCH  96  97
ATOM     97  S   UNL     1      12.112 -18.231  -6.660  1.00  0.00     0.124 S 
ATOM     98  O   UNL     1      12.932 -17.301  -7.430  1.00  0.00    -0.237 OA
ATOM     99  O   UNL     1      12.820 -18.993  -5.634  1.00  0.00    -0.237 OA
ATOM    100  O   UNL     1      11.142 -18.997  -7.439  1.00  0.00    -0.744 OA
ENDBRANCH  96  97
ENDBRANCH  70  91
ENDBRANCH  44  45
ENDBRANCH  37  39
ENDBRANCH  36  37
ENDBRANCH  35  36
ENDBRANCH  34  35
ENDBRANCH  33  34
ENDBRANCH  32  33
ENDBRANCH   1  32
TORSDOF 24
