REMARK SMILES Cc1cnn(C2(C(=O)OCCOCCOCCOC(=O)c3ccc(-c4c5nc(c(-c6ccc(S(=O)(=O)[O-])cc6)c6ccc([nH]6)c(-c6ccc(S(=O)(=O)[O-])cc6)c6nc(c(-c7ccc(S(=O)(=O)[O-])cc7)c7ccc4[nH]7)C=C6)C=C5)cc3)CCN(C(=O)c3cc4ccccc4[nH]3)CC2)c1
REMARK SMILES IDX 14 1 13 2 12 3 11 4 10 5 9 6 7 7 8 8 6 9 81 10 96 11 82 12
REMARK SMILES IDX 95 13 83 14 84 15 85 16 5 17 1 18 2 19 3 20 97 21 4 22 86 23
REMARK SMILES IDX 87 24 94 25 88 26 93 27 89 29 92 30 90 31 91 32 15 33 16 34
REMARK SMILES IDX 17 35 18 36 19 37 20 38 21 39 22 40 80 41 23 42 79 43 24 44
REMARK SMILES IDX 25 45 26 46 73 47 27 48 78 49 72 50 74 51 28 52 77 53 71 54
REMARK SMILES IDX 70 55 29 57 59 58 40 59 58 60 41 61 44 62 57 63 75 64 42 65
REMARK SMILES IDX 43 66 56 68 76 69 45 70 30 71 31 72 39 73 32 74 38 75 33 76
REMARK SMILES IDX 34 77 35 78 36 79 37 80 60 81 61 82 69 83 62 84 68 85 63 86
REMARK SMILES IDX 64 87 65 88 66 89 67 90 46 91 47 92 55 93 48 94 54 95 49 96
REMARK SMILES IDX 50 97 51 98 52 99 53 100
REMARK H PARENT 94 28 74 56 44 67
REMARK Flexibility Score: inf
ROOT
ATOM      1  C   UNL     1       1.447   3.638  -5.577  1.00  0.00     0.188 C 
ENDROOT
BRANCH   1   2
ATOM      2  C   UNL     1       0.164   2.948  -6.048  1.00  0.00     0.188 C 
BRANCH   2   3
ATOM      3  O   UNL     1      -0.588   3.563  -7.062  1.00  0.00    -0.376 OA
BRANCH   3   4
ATOM      4  C   UNL     1      -1.199   4.813  -6.802  1.00  0.00     0.202 C 
BRANCH   4   5
ATOM      5  C   UNL     1      -1.469   5.404  -5.396  1.00  0.00     0.261 C 
BRANCH   5   6
ATOM      6  O   UNL     1      -0.549   5.105  -4.327  1.00  0.00    -0.461 OA
BRANCH   6   7
ATOM      7  C   UNL     1      -1.044   4.399  -3.274  1.00  0.00     0.334 C 
ATOM      8  O   UNL     1      -2.233   4.092  -3.188  1.00  0.00    -0.249 OA
BRANCH   7   9
ATOM      9  C   UNL     1      -0.034   4.162  -2.105  1.00  0.00     0.163 C 
ATOM     10  C   UNL     1       1.454   4.546  -2.327  1.00  0.00     0.064 C 
ATOM     11  C   UNL     1      -0.651   5.105  -1.050  1.00  0.00     0.064 C 
ATOM     12  C   UNL     1       2.246   4.796  -1.047  1.00  0.00     0.123 C 
ATOM     13  C   UNL     1       0.194   5.396   0.167  1.00  0.00     0.123 C 
ATOM     14  N   UNL     1       1.569   5.733  -0.176  1.00  0.00    -0.337 N 
ATOM     15  C   UNL     1       2.271   6.855   0.271  1.00  0.00     0.270 C 
ATOM     16  O   UNL     1       3.366   7.171  -0.187  1.00  0.00    -0.267 OA
BRANCH   9  17
ATOM     17  N   UNL     1      -0.087   2.726  -1.765  1.00  0.00    -0.255 N 
ATOM     18  C   UNL     1       0.796  -0.331   0.042  1.00  0.00     0.048 C 
ATOM     19  C   UNL     1       0.349   0.749  -0.863  1.00  0.00    -0.013 A 
ATOM     20  C   UNL     1      -0.074   0.641  -2.198  1.00  0.00     0.138 A 
ATOM     21  C   UNL     1       0.305   2.104  -0.607  1.00  0.00     0.113 A 
ATOM     22  N   UNL     1      -0.287   1.829  -2.759  1.00  0.00    -0.180 NA
ENDBRANCH   9  17
BRANCH  15  23
ATOM     23  C   UNL     1       1.622   7.693   1.249  1.00  0.00     0.105 A 
ATOM     24  C   UNL     1       0.876   7.384   2.372  1.00  0.00     0.042 A 
ATOM     25  N   UNL     1       1.676   9.065   1.183  1.00  0.00    -0.351 N 
ATOM     26  C   UNL     1       0.216   8.566   2.785  1.00  0.00     0.000 A 
ATOM     27  C   UNL     1       0.757   9.615   2.045  1.00  0.00     0.046 A 
ATOM     28  H   UNL     1       2.284   9.579   0.604  1.00  0.00     0.167 HD
ATOM     29  C   UNL     1      -0.813   8.832   3.703  1.00  0.00     0.010 A 
ATOM     30  C   UNL     1       0.354  10.942   2.214  1.00  0.00     0.026 A 
ATOM     31  C   UNL     1      -1.256  10.149   3.858  1.00  0.00     0.001 A 
ATOM     32  C   UNL     1      -0.669  11.187   3.136  1.00  0.00     0.002 A 
ENDBRANCH  15  23
ENDBRANCH   7   9
ENDBRANCH   6   7
ENDBRANCH   5   6
ENDBRANCH   4   5
ENDBRANCH   3   4
ENDBRANCH   2   3
ENDBRANCH   1   2
BRANCH   1  33
ATOM     33  O   UNL     1       1.678   5.022  -5.748  1.00  0.00    -0.376 OA
BRANCH  33  34
ATOM     34  C   UNL     1       2.035   5.638  -6.974  1.00  0.00     0.202 C 
BRANCH  34  35
ATOM     35  C   UNL     1       2.530   4.911  -8.220  1.00  0.00     0.261 C 
BRANCH  35  36
ATOM     36  O   UNL     1       2.398   3.515  -8.177  1.00  0.00    -0.460 OA
BRANCH  36  37
ATOM     37  C   UNL     1       3.441   2.900  -7.591  1.00  0.00     0.338 C 
ATOM     38  O   UNL     1       4.393   3.428  -7.026  1.00  0.00    -0.246 OA
BRANCH  37  39
ATOM     39  C   UNL     1       3.249   1.459  -7.735  1.00  0.00     0.060 A 
ATOM     40  C   UNL     1       4.192   0.653  -7.104  1.00  0.00     0.016 A 
ATOM     41  C   UNL     1       2.425   1.002  -8.774  1.00  0.00     0.016 A 
ATOM     42  C   UNL     1       4.577  -0.478  -7.771  1.00  0.00     0.010 A 
ATOM     43  C   UNL     1       2.821  -0.117  -9.446  1.00  0.00     0.010 A 
ATOM     44  C   UNL     1       3.975  -0.751  -9.005  1.00  0.00    -0.014 A 
BRANCH  44  45
ATOM     45  C   UNL     1       4.562  -1.779  -9.824  1.00  0.00     0.031 A 
ATOM     46  C   UNL     1       4.255  -3.116  -9.297  1.00  0.00     0.074 A 
ATOM     47  C   UNL     1       5.251  -1.509 -10.947  1.00  0.00     0.049 A 
ATOM     48  N   UNL     1       5.046  -3.879  -8.624  1.00  0.00    -0.248 NA
ATOM     49  C   UNL     1       2.844  -3.536  -9.289  1.00  0.00     0.031 C 
ATOM     50  C   UNL     1       5.391  -0.240 -11.668  1.00  0.00     0.029 A 
ATOM     51  N   UNL     1       5.917  -2.378 -11.745  1.00  0.00    -0.354 N 
ATOM     52  C   UNL     1       4.292  -5.002  -8.332  1.00  0.00     0.074 A 
ATOM     53  C   UNL     1       2.914  -4.632  -8.534  1.00  0.00     0.031 C 
ATOM     54  C   UNL     1       5.879  -0.486 -12.909  1.00  0.00     0.029 A 
ATOM     55  C   UNL     1       6.220  -1.896 -13.011  1.00  0.00     0.049 A 
ATOM     56  H   UNL     1       6.166  -3.283 -11.449  1.00  0.00     0.167 HD
ATOM     57  C   UNL     1       4.872  -6.230  -8.267  1.00  0.00     0.031 A 
ATOM     58  C   UNL     1       6.655  -2.639 -14.064  1.00  0.00     0.031 A 
ATOM     59  C   UNL     1       6.303  -6.135  -8.122  1.00  0.00     0.049 A 
ATOM     60  C   UNL     1       7.212  -3.897 -13.498  1.00  0.00     0.074 A 
ATOM     61  C   UNL     1       7.139  -5.561  -7.184  1.00  0.00     0.029 A 
ATOM     62  N   UNL     1       7.060  -6.293  -9.261  1.00  0.00    -0.354 N 
ATOM     63  N   UNL     1       8.280  -3.929 -12.750  1.00  0.00    -0.248 NA
ATOM     64  C   UNL     1       6.312  -5.031 -13.344  1.00  0.00     0.031 C 
ATOM     65  C   UNL     1       8.199  -4.979  -7.939  1.00  0.00     0.029 A 
ATOM     66  C   UNL     1       8.005  -5.298  -9.284  1.00  0.00     0.049 A 
ATOM     67  H   UNL     1       6.944  -6.997  -9.940  1.00  0.00     0.167 HD
ATOM     68  C   UNL     1       7.979  -4.827 -11.735  1.00  0.00     0.074 A 
ATOM     69  C   UNL     1       6.785  -5.535 -12.199  1.00  0.00     0.031 C 
ATOM     70  C   UNL     1       8.547  -4.715 -10.497  1.00  0.00     0.031 A 
BRANCH  57  71
ATOM     71  C   UNL     1       4.177  -7.461  -8.781  1.00  0.00    -0.014 A 
ATOM     72  C   UNL     1       4.786  -8.714  -8.603  1.00  0.00     0.010 A 
ATOM     73  C   UNL     1       3.068  -7.404  -9.655  1.00  0.00     0.010 A 
ATOM     74  C   UNL     1       4.327  -9.843  -9.293  1.00  0.00     0.020 A 
ATOM     75  C   UNL     1       2.573  -8.528 -10.310  1.00  0.00     0.020 A 
ATOM     76  C   UNL     1       3.224  -9.739 -10.144  1.00  0.00     0.054 A 
BRANCH  76  77
ATOM     77  S   UNL     1       2.675 -11.187 -11.075  1.00  0.00     0.124 S 
ATOM     78  O   UNL     1       3.807 -11.417 -11.966  1.00  0.00    -0.237 OA
ATOM     79  O   UNL     1       2.484 -12.175 -10.018  1.00  0.00    -0.237 OA
ATOM     80  O   UNL     1       1.447 -10.731 -11.724  1.00  0.00    -0.744 OA
ENDBRANCH  76  77
ENDBRANCH  57  71
BRANCH  58  81
ATOM     81  C   UNL     1       6.264  -2.518 -15.495  1.00  0.00    -0.014 A 
ATOM     82  C   UNL     1       6.934  -3.249 -16.497  1.00  0.00     0.010 A 
ATOM     83  C   UNL     1       5.037  -1.918 -15.841  1.00  0.00     0.010 A 
ATOM     84  C   UNL     1       6.365  -3.429 -17.772  1.00  0.00     0.020 A 
ATOM     85  C   UNL     1       4.465  -2.089 -17.110  1.00  0.00     0.020 A 
ATOM     86  C   UNL     1       5.120  -2.865 -18.063  1.00  0.00     0.054 A 
BRANCH  86  87
ATOM     87  S   UNL     1       4.302  -3.255 -19.642  1.00  0.00     0.124 S 
ATOM     88  O   UNL     1       5.123  -2.529 -20.606  1.00  0.00    -0.237 OA
ATOM     89  O   UNL     1       4.398  -4.710 -19.700  1.00  0.00    -0.237 OA
ATOM     90  O   UNL     1       2.948  -2.733 -19.465  1.00  0.00    -0.744 OA
ENDBRANCH  86  87
ENDBRANCH  58  81
BRANCH  70  91
ATOM     91  C   UNL     1       9.712  -3.761 -10.324  1.00  0.00    -0.014 A 
ATOM     92  C   UNL     1       9.639  -2.367 -10.529  1.00  0.00     0.010 A 
ATOM     93  C   UNL     1      10.898  -4.293  -9.789  1.00  0.00     0.010 A 
ATOM     94  C   UNL     1      10.737  -1.539 -10.233  1.00  0.00     0.020 A 
ATOM     95  C   UNL     1      11.985  -3.474  -9.476  1.00  0.00     0.020 A 
ATOM     96  C   UNL     1      11.905  -2.102  -9.709  1.00  0.00     0.054 A 
BRANCH  96  97
ATOM     97  S   UNL     1      13.318  -1.035  -9.302  1.00  0.00     0.124 S 
ATOM     98  O   UNL     1      13.765  -0.583 -10.616  1.00  0.00    -0.237 OA
ATOM     99  O   UNL     1      12.717  -0.008  -8.454  1.00  0.00    -0.237 OA
ATOM    100  O   UNL     1      14.244  -1.932  -8.610  1.00  0.00    -0.744 OA
ENDBRANCH  96  97
ENDBRANCH  70  91
ENDBRANCH  44  45
ENDBRANCH  37  39
ENDBRANCH  36  37
ENDBRANCH  35  36
ENDBRANCH  34  35
ENDBRANCH  33  34
ENDBRANCH   1  33
TORSDOF 22
