REMARK SMILES CC(C)N(CC(=O)OCCOCCOCCOC(=O)c1ccc(-c2c3nc(c(-c4ccc(S(=O)(=O)[O-])cc4)c4ccc([nH]4)c(-c4ccc(S(=O)(=O)[O-])cc4)c4nc(c(-c5ccc(S(=O)(=O)[O-])cc5)c5ccc2[nH]5)C=C4)C=C3)cc1)C(=O)NC1C(C)(C)C1(C)C
REMARK SMILES IDX 12 1 11 2 10 3 9 4 8 5 6 6 7 7 5 8 4 9 2 10 1 11 3 12 80 13
REMARK SMILES IDX 81 14 82 15 83 17 84 18 87 19 85 20 86 21 88 22 89 23 13 24
REMARK SMILES IDX 14 25 15 26 16 27 17 28 18 29 19 30 20 31 21 32 79 33 22 34
REMARK SMILES IDX 78 35 23 36 24 37 25 38 72 39 26 40 77 41 71 42 73 43 27 44
REMARK SMILES IDX 76 45 70 46 69 47 28 49 58 50 39 51 57 52 40 53 43 54 56 55
REMARK SMILES IDX 74 56 41 57 42 58 55 60 75 61 44 62 29 63 30 64 38 65 31 66
REMARK SMILES IDX 37 67 32 68 33 69 34 70 35 71 36 72 59 73 60 74 68 75 61 76
REMARK SMILES IDX 67 77 62 78 63 79 64 80 65 81 66 82 45 83 46 84 54 85 47 86
REMARK SMILES IDX 53 87 48 88 49 89 50 90 51 91 52 92
REMARK H PARENT 82 16 73 48 43 59
REMARK Flexibility Score: inf
ROOT
ATOM      1  C   UNL     1      -4.122  -2.704  -2.850  1.00  0.00     0.188 C 
ENDROOT
BRANCH   1   2
ATOM      2  O   UNL     1      -4.076  -3.472  -4.050  1.00  0.00    -0.376 OA
BRANCH   2   3
ATOM      3  C   UNL     1      -3.611  -2.781  -5.199  1.00  0.00     0.202 C 
BRANCH   3   4
ATOM      4  C   UNL     1      -2.096  -2.571  -5.226  1.00  0.00     0.261 C 
BRANCH   4   5
ATOM      5  O   UNL     1      -1.578  -1.837  -4.097  1.00  0.00    -0.462 OA
BRANCH   5   6
ATOM      6  C   UNL     1      -1.267  -0.536  -4.293  1.00  0.00     0.325 C 
ATOM      7  O   UNL     1      -1.518   0.068  -5.332  1.00  0.00    -0.250 OA
BRANCH   6   8
ATOM      8  C   UNL     1      -0.364   0.055  -3.200  1.00  0.00     0.244 C 
BRANCH   8   9
ATOM      9  N   UNL     1      -0.198  -0.483  -1.849  1.00  0.00    -0.311 N 
BRANCH   9  10
ATOM     10  C   UNL     1       1.183  -0.887  -1.471  1.00  0.00     0.081 C 
ATOM     11  C   UNL     1       1.694  -0.267  -0.153  1.00  0.00     0.031 C 
ATOM     12  C   UNL     1       1.369  -2.400  -1.476  1.00  0.00     0.031 C 
ENDBRANCH   9  10
BRANCH   9  13
ATOM     13  C   UNL     1      -1.114  -0.393  -0.843  1.00  0.00     0.318 C 
ATOM     14  O   UNL     1      -0.951  -0.964   0.243  1.00  0.00    -0.249 OA
ATOM     15  N   UNL     1      -2.226   0.357  -0.882  1.00  0.00    -0.334 N 
ATOM     16  H   UNL     1      -2.527   0.534   0.038  1.00  0.00     0.165 HD
BRANCH  15  17
ATOM     17  C   UNL     1      -3.118   0.985  -1.789  1.00  0.00     0.096 C 
ATOM     18  C   UNL     1      -3.498   2.417  -1.357  1.00  0.00    -0.007 C 
ATOM     19  C   UNL     1      -3.141   2.120  -2.802  1.00  0.00    -0.007 C 
ATOM     20  C   UNL     1      -4.917   2.765  -1.016  1.00  0.00     0.014 C 
ATOM     21  C   UNL     1      -2.513   3.189  -0.484  1.00  0.00     0.014 C 
ATOM     22  C   UNL     1      -2.002   2.935  -3.360  1.00  0.00     0.014 C 
ATOM     23  C   UNL     1      -4.250   1.975  -3.842  1.00  0.00     0.014 C 
ENDBRANCH  15  17
ENDBRANCH   9  13
ENDBRANCH   8   9
ENDBRANCH   6   8
ENDBRANCH   5   6
ENDBRANCH   4   5
ENDBRANCH   3   4
ENDBRANCH   2   3
ENDBRANCH   1   2
BRANCH   1  24
ATOM     24  C   UNL     1      -3.046  -3.115  -1.831  1.00  0.00     0.188 C 
BRANCH  24  25
ATOM     25  O   UNL     1      -2.632  -4.478  -1.791  1.00  0.00    -0.376 OA
BRANCH  25  26
ATOM     26  C   UNL     1      -3.618  -5.487  -1.935  1.00  0.00     0.202 C 
BRANCH  26  27
ATOM     27  C   UNL     1      -4.543  -5.709  -0.741  1.00  0.00     0.261 C 
BRANCH  27  28
ATOM     28  O   UNL     1      -5.235  -4.522  -0.322  1.00  0.00    -0.460 OA
BRANCH  28  29
ATOM     29  C   UNL     1      -4.790  -4.003   0.851  1.00  0.00     0.338 C 
ATOM     30  O   UNL     1      -3.890  -4.433   1.549  1.00  0.00    -0.246 OA
BRANCH  29  31
ATOM     31  C   UNL     1      -5.504  -2.747   1.167  1.00  0.00     0.060 A 
ATOM     32  C   UNL     1      -4.752  -1.678   1.671  1.00  0.00     0.016 A 
ATOM     33  C   UNL     1      -6.897  -2.656   1.088  1.00  0.00     0.016 A 
ATOM     34  C   UNL     1      -5.399  -0.541   2.156  1.00  0.00     0.010 A 
ATOM     35  C   UNL     1      -7.545  -1.521   1.589  1.00  0.00     0.010 A 
ATOM     36  C   UNL     1      -6.801  -0.477   2.162  1.00  0.00    -0.014 A 
BRANCH  36  37
ATOM     37  C   UNL     1      -7.470   0.622   2.903  1.00  0.00     0.031 A 
ATOM     38  C   UNL     1      -7.742   0.456   4.371  1.00  0.00     0.074 A 
ATOM     39  C   UNL     1      -7.787   1.776   2.291  1.00  0.00     0.049 A 
ATOM     40  N   UNL     1      -8.222   1.324   5.223  1.00  0.00    -0.248 NA
ATOM     41  C   UNL     1      -7.447  -0.864   4.949  1.00  0.00     0.031 C 
ATOM     42  C   UNL     1      -7.593   2.045   0.872  1.00  0.00     0.029 A 
ATOM     43  N   UNL     1      -8.306   2.944   2.788  1.00  0.00    -0.354 N 
ATOM     44  C   UNL     1      -8.294   0.656   6.439  1.00  0.00     0.074 A 
ATOM     45  C   UNL     1      -7.819  -0.693   6.210  1.00  0.00     0.031 C 
ATOM     46  C   UNL     1      -7.920   3.325   0.622  1.00  0.00     0.029 A 
ATOM     47  C   UNL     1      -8.390   3.950   1.855  1.00  0.00     0.049 A 
ATOM     48  H   UNL     1      -8.590   3.053   3.725  1.00  0.00     0.167 HD
ATOM     49  C   UNL     1      -8.728   1.119   7.636  1.00  0.00     0.031 A 
ATOM     50  C   UNL     1      -8.794   5.230   1.979  1.00  0.00     0.031 A 
ATOM     51  C   UNL     1      -9.244   2.445   7.856  1.00  0.00     0.049 A 
ATOM     52  C   UNL     1      -9.275   5.719   3.318  1.00  0.00     0.074 A 
ATOM     53  C   UNL     1      -9.735   2.995   9.027  1.00  0.00     0.029 A 
ATOM     54  N   UNL     1      -9.349   3.425   6.881  1.00  0.00    -0.354 N 
ATOM     55  N   UNL     1      -9.319   5.079   4.463  1.00  0.00    -0.248 NA
ATOM     56  C   UNL     1      -9.774   7.100   3.379  1.00  0.00     0.031 C 
ATOM     57  C   UNL     1     -10.178   4.294   8.749  1.00  0.00     0.029 A 
ATOM     58  C   UNL     1      -9.914   4.570   7.417  1.00  0.00     0.049 A 
ATOM     59  H   UNL     1      -9.063   3.322   5.944  1.00  0.00     0.167 HD
ATOM     60  C   UNL     1      -9.859   5.977   5.377  1.00  0.00     0.074 A 
ATOM     61  C   UNL     1     -10.084   7.218   4.663  1.00  0.00     0.031 C 
ATOM     62  C   UNL     1     -10.156   5.789   6.687  1.00  0.00     0.031 A 
BRANCH  49  63
ATOM     63  C   UNL     1      -8.709   0.153   8.787  1.00  0.00    -0.014 A 
ATOM     64  C   UNL     1      -7.501  -0.217   9.406  1.00  0.00     0.010 A 
ATOM     65  C   UNL     1      -9.917  -0.390   9.259  1.00  0.00     0.010 A 
ATOM     66  C   UNL     1      -7.499  -1.143  10.452  1.00  0.00     0.020 A 
ATOM     67  C   UNL     1      -9.921  -1.300  10.319  1.00  0.00     0.020 A 
ATOM     68  C   UNL     1      -8.709  -1.685  10.897  1.00  0.00     0.054 A 
BRANCH  68  69
ATOM     69  S   UNL     1      -8.682  -2.884  12.258  1.00  0.00     0.124 S 
ATOM     70  O   UNL     1      -8.181  -4.083  11.591  1.00  0.00    -0.237 OA
ATOM     71  O   UNL     1      -7.764  -2.267  13.212  1.00  0.00    -0.237 OA
ATOM     72  O   UNL     1     -10.075  -2.948  12.691  1.00  0.00    -0.744 OA
ENDBRANCH  68  69
ENDBRANCH  49  63
BRANCH  50  73
ATOM     73  C   UNL     1      -8.775   6.141   0.801  1.00  0.00    -0.014 A 
ATOM     74  C   UNL     1      -7.883   7.227   0.748  1.00  0.00     0.010 A 
ATOM     75  C   UNL     1      -9.658   5.931  -0.274  1.00  0.00     0.010 A 
ATOM     76  C   UNL     1      -7.885   8.094  -0.350  1.00  0.00     0.020 A 
ATOM     77  C   UNL     1      -9.643   6.777  -1.386  1.00  0.00     0.020 A 
ATOM     78  C   UNL     1      -8.764   7.862  -1.411  1.00  0.00     0.054 A 
BRANCH  78  79
ATOM     79  S   UNL     1      -8.716   8.960  -2.855  1.00  0.00     0.124 S 
ATOM     80  O   UNL     1      -9.456  10.123  -2.377  1.00  0.00    -0.237 OA
ATOM     81  O   UNL     1      -7.283   9.159  -3.057  1.00  0.00    -0.237 OA
ATOM     82  O   UNL     1      -9.379   8.177  -3.897  1.00  0.00    -0.744 OA
ENDBRANCH  78  79
ENDBRANCH  50  73
BRANCH  62  83
ATOM     83  C   UNL     1     -10.762   6.953   7.425  1.00  0.00    -0.014 A 
ATOM     84  C   UNL     1     -12.087   7.356   7.176  1.00  0.00     0.010 A 
ATOM     85  C   UNL     1     -10.004   7.645   8.386  1.00  0.00     0.010 A 
ATOM     86  C   UNL     1     -12.626   8.462   7.840  1.00  0.00     0.020 A 
ATOM     87  C   UNL     1     -10.549   8.735   9.070  1.00  0.00     0.020 A 
ATOM     88  C   UNL     1     -11.849   9.150   8.776  1.00  0.00     0.054 A 
BRANCH  88  89
ATOM     89  S   UNL     1     -12.568  10.580   9.630  1.00  0.00     0.124 S 
ATOM     90  O   UNL     1     -12.472  11.621   8.611  1.00  0.00    -0.237 OA
ATOM     91  O   UNL     1     -13.923  10.127   9.939  1.00  0.00    -0.237 OA
ATOM     92  O   UNL     1     -11.700  10.760  10.791  1.00  0.00    -0.744 OA
ENDBRANCH  88  89
ENDBRANCH  62  83
ENDBRANCH  36  37
ENDBRANCH  29  31
ENDBRANCH  28  29
ENDBRANCH  27  28
ENDBRANCH  26  27
ENDBRANCH  25  26
ENDBRANCH  24  25
ENDBRANCH   1  24
TORSDOF 24
