REMARK SMILES CC[NH2+][C@@]1(C(=O)OCCOCCOCCOC(=O)c2ccc(-c3c4nc(c(-c5ccc(S(=O)(=O)[O-])cc5)c5ccc([nH]5)c(-c5ccc(S(=O)(=O)[O-])cc5)c5nc(c(-c6ccc(S(=O)(=O)[O-])cc6)c6ccc3[nH]6)C=C5)C=C4)cc2)CCC[C@H]1CCN1C(=O)CCC1=O
REMARK SMILES IDX 11 1 10 2 9 3 8 4 7 5 5 6 6 7 4 8 79 9 82 10 80 11 81 12
REMARK SMILES IDX 3 13 2 16 1 17 83 18 84 19 85 20 86 21 90 22 87 23 88 24
REMARK SMILES IDX 89 25 91 26 12 27 13 28 14 29 15 30 16 31 17 32 18 33 19 34
REMARK SMILES IDX 20 35 78 36 21 37 77 38 22 39 23 40 24 41 71 42 25 43 76 44
REMARK SMILES IDX 70 45 72 46 26 47 75 48 69 49 68 50 27 52 57 53 38 54 56 55
REMARK SMILES IDX 39 56 42 57 55 58 73 59 40 60 41 61 54 63 74 64 43 65 28 66
REMARK SMILES IDX 29 67 37 68 30 69 36 70 31 71 32 72 33 73 34 74 35 75 58 76
REMARK SMILES IDX 59 77 67 78 60 79 66 80 61 81 62 82 63 83 64 84 65 85 44 86
REMARK SMILES IDX 45 87 53 88 46 89 52 90 47 91 48 92 49 93 50 94 51 95
REMARK H PARENT 3 14 3 15 72 51 42 62
REMARK Flexibility Score: inf
ROOT
ATOM      1  C   UNL     1       2.093  -1.324   5.564  1.00  0.00     0.188 C 
ENDROOT
BRANCH   1   2
ATOM      2  O   UNL     1       1.537  -1.412   6.868  1.00  0.00    -0.376 OA
BRANCH   2   3
ATOM      3  C   UNL     1       0.531  -2.399   7.097  1.00  0.00     0.202 C 
BRANCH   3   4
ATOM      4  C   UNL     1      -0.585  -2.565   6.051  1.00  0.00     0.261 C 
BRANCH   4   5
ATOM      5  O   UNL     1      -0.129  -2.978   4.739  1.00  0.00    -0.459 OA
BRANCH   5   6
ATOM      6  C   UNL     1      -0.773  -2.383   3.698  1.00  0.00     0.368 C 
ATOM      7  O   UNL     1      -1.723  -1.616   3.856  1.00  0.00    -0.245 OA
BRANCH   6   8
ATOM      8  C   UNL     1      -0.197  -2.724   2.257  1.00  0.00     0.197 C 
ATOM      9  C   UNL     1      -1.437  -3.266   1.506  1.00  0.00     0.081 C 
ATOM     10  C   UNL     1       0.791  -3.939   2.103  1.00  0.00     0.064 C 
ATOM     11  C   UNL     1      -1.567  -4.690   2.035  1.00  0.00     0.008 C 
ATOM     12  C   UNL     1      -0.137  -5.174   2.251  1.00  0.00     0.011 C 
BRANCH   8  13
ATOM     13  N   UNL     1       0.364  -1.449   1.795  1.00  0.00    -0.332 N 
ATOM     14  H   UNL     1       0.113  -0.745   2.489  1.00  0.00     0.347 HD
ATOM     15  H   UNL     1       1.358  -1.650   1.682  1.00  0.00     0.347 HD
BRANCH  13  16
ATOM     16  C   UNL     1      -0.029  -0.927   0.502  1.00  0.00     0.257 C 
ATOM     17  C   UNL     1       0.731   0.358   0.196  1.00  0.00     0.071 C 
ENDBRANCH  13  16
ENDBRANCH   8  13
BRANCH  10  18
ATOM     18  C   UNL     1       1.555  -4.072   0.744  1.00  0.00     0.033 C 
BRANCH  18  19
ATOM     19  C   UNL     1       2.730  -3.134   0.414  1.00  0.00     0.129 C 
BRANCH  19  20
ATOM     20  N   UNL     1       4.045  -3.326   1.016  1.00  0.00    -0.283 N 
ATOM     21  C   UNL     1       4.588  -4.490   1.472  1.00  0.00     0.229 C 
ATOM     22  C   UNL     1       4.997  -2.346   0.887  1.00  0.00     0.229 C 
ATOM     23  O   UNL     1       4.026  -5.566   1.609  1.00  0.00    -0.274 OA
ATOM     24  C   UNL     1       6.050  -4.282   1.756  1.00  0.00     0.110 C 
ATOM     25  C   UNL     1       6.315  -2.838   1.400  1.00  0.00     0.110 C 
ATOM     26  O   UNL     1       4.819  -1.229   0.421  1.00  0.00    -0.274 OA
ENDBRANCH  19  20
ENDBRANCH  18  19
ENDBRANCH  10  18
ENDBRANCH   6   8
ENDBRANCH   5   6
ENDBRANCH   4   5
ENDBRANCH   3   4
ENDBRANCH   2   3
ENDBRANCH   1   2
BRANCH   1  27
ATOM     27  C   UNL     1       2.662  -2.611   4.951  1.00  0.00     0.188 C 
BRANCH  27  28
ATOM     28  O   UNL     1       2.421  -3.784   5.692  1.00  0.00    -0.376 OA
BRANCH  28  29
ATOM     29  C   UNL     1       3.528  -4.372   6.361  1.00  0.00     0.202 C 
BRANCH  29  30
ATOM     30  C   UNL     1       4.590  -3.512   7.084  1.00  0.00     0.261 C 
BRANCH  30  31
ATOM     31  O   UNL     1       4.929  -2.244   6.495  1.00  0.00    -0.460 OA
BRANCH  31  32
ATOM     32  C   UNL     1       5.905  -2.240   5.559  1.00  0.00     0.338 C 
ATOM     33  O   UNL     1       6.539  -3.197   5.153  1.00  0.00    -0.246 OA
BRANCH  32  34
ATOM     34  C   UNL     1       5.992  -0.893   4.955  1.00  0.00     0.060 A 
ATOM     35  C   UNL     1       5.214  -0.586   3.830  1.00  0.00     0.016 A 
ATOM     36  C   UNL     1       6.950   0.011   5.406  1.00  0.00     0.016 A 
ATOM     37  C   UNL     1       5.415   0.591   3.121  1.00  0.00     0.010 A 
ATOM     38  C   UNL     1       7.147   1.200   4.698  1.00  0.00     0.010 A 
ATOM     39  C   UNL     1       6.405   1.477   3.534  1.00  0.00    -0.014 A 
BRANCH  39  40
ATOM     40  C   UNL     1       6.778   2.616   2.670  1.00  0.00     0.031 A 
ATOM     41  C   UNL     1       8.093   2.566   1.951  1.00  0.00     0.074 A 
ATOM     42  C   UNL     1       5.951   3.664   2.511  1.00  0.00     0.049 A 
ATOM     43  N   UNL     1       8.768   3.533   1.395  1.00  0.00    -0.248 NA
ATOM     44  C   UNL     1       8.736   1.243   1.856  1.00  0.00     0.031 C 
ATOM     45  C   UNL     1       4.585   3.758   3.027  1.00  0.00     0.029 A 
ATOM     46  N   UNL     1       6.158   4.864   1.882  1.00  0.00    -0.354 N 
ATOM     47  C   UNL     1       9.943   2.951   0.933  1.00  0.00     0.074 A 
ATOM     48  C   UNL     1       9.882   1.543   1.261  1.00  0.00     0.031 C 
ATOM     49  C   UNL     1       4.085   4.965   2.716  1.00  0.00     0.029 A 
ATOM     50  C   UNL     1       5.125   5.752   2.062  1.00  0.00     0.049 A 
ATOM     51  H   UNL     1       6.964   5.068   1.354  1.00  0.00     0.167 HD
ATOM     52  C   UNL     1      10.983   3.554   0.314  1.00  0.00     0.031 A 
ATOM     53  C   UNL     1       5.060   7.071   1.798  1.00  0.00     0.031 A 
ATOM     54  C   UNL     1      11.008   4.956  -0.006  1.00  0.00     0.049 A 
ATOM     55  C   UNL     1       6.269   7.751   1.215  1.00  0.00     0.074 A 
ATOM     56  C   UNL     1      12.020   5.690  -0.596  1.00  0.00     0.029 A 
ATOM     57  N   UNL     1       9.959   5.834   0.231  1.00  0.00    -0.354 N 
ATOM     58  N   UNL     1       7.425   7.228   0.877  1.00  0.00    -0.248 NA
ATOM     59  C   UNL     1       6.174   9.200   0.992  1.00  0.00     0.031 C 
ATOM     60  C   UNL     1      11.601   7.022  -0.672  1.00  0.00     0.029 A 
ATOM     61  C   UNL     1      10.304   7.105  -0.188  1.00  0.00     0.049 A 
ATOM     62  H   UNL     1       9.097   5.587   0.638  1.00  0.00     0.167 HD
ATOM     63  C   UNL     1       8.184   8.278   0.372  1.00  0.00     0.074 A 
ATOM     64  C   UNL     1       7.354   9.465   0.447  1.00  0.00     0.031 C 
ATOM     65  C   UNL     1       9.449   8.264  -0.115  1.00  0.00     0.031 A 
BRANCH  52  66
ATOM     66  C   UNL     1      12.200   2.720   0.016  1.00  0.00    -0.014 A 
ATOM     67  C   UNL     1      12.203   1.751  -1.002  1.00  0.00     0.010 A 
ATOM     68  C   UNL     1      13.374   2.934   0.762  1.00  0.00     0.010 A 
ATOM     69  C   UNL     1      13.350   0.989  -1.247  1.00  0.00     0.020 A 
ATOM     70  C   UNL     1      14.530   2.193   0.503  1.00  0.00     0.020 A 
ATOM     71  C   UNL     1      14.506   1.213  -0.490  1.00  0.00     0.054 A 
BRANCH  71  72
ATOM     72  S   UNL     1      15.985   0.224  -0.841  1.00  0.00     0.124 S 
ATOM     73  O   UNL     1      15.613  -1.079  -0.294  1.00  0.00    -0.237 OA
ATOM     74  O   UNL     1      16.078   0.290  -2.297  1.00  0.00    -0.237 OA
ATOM     75  O   UNL     1      17.048   0.920  -0.119  1.00  0.00    -0.744 OA
ENDBRANCH  71  72
ENDBRANCH  52  66
BRANCH  53  76
ATOM     76  C   UNL     1       3.839   7.841   2.162  1.00  0.00    -0.014 A 
ATOM     77  C   UNL     1       3.007   8.379   1.166  1.00  0.00     0.010 A 
ATOM     78  C   UNL     1       3.492   8.023   3.514  1.00  0.00     0.010 A 
ATOM     79  C   UNL     1       1.857   9.092   1.516  1.00  0.00     0.020 A 
ATOM     80  C   UNL     1       2.327   8.709   3.867  1.00  0.00     0.020 A 
ATOM     81  C   UNL     1       1.522   9.250   2.864  1.00  0.00     0.054 A 
BRANCH  81  82
ATOM     82  S   UNL     1      -0.004  10.133   3.292  1.00  0.00     0.124 S 
ATOM     83  O   UNL     1       0.363  11.520   3.025  1.00  0.00    -0.237 OA
ATOM     84  O   UNL     1      -0.977   9.547   2.373  1.00  0.00    -0.237 OA
ATOM     85  O   UNL     1      -0.209   9.799   4.699  1.00  0.00    -0.744 OA
ENDBRANCH  81  82
ENDBRANCH  53  76
BRANCH  65  86
ATOM     86  C   UNL     1       9.992   9.552  -0.668  1.00  0.00    -0.014 A 
ATOM     87  C   UNL     1      10.405  10.597   0.176  1.00  0.00     0.010 A 
ATOM     88  C   UNL     1      10.162   9.680  -2.059  1.00  0.00     0.010 A 
ATOM     89  C   UNL     1      10.962  11.759  -0.366  1.00  0.00     0.020 A 
ATOM     90  C   UNL     1      10.742  10.828  -2.602  1.00  0.00     0.020 A 
ATOM     91  C   UNL     1      11.129  11.865  -1.751  1.00  0.00     0.054 A 
BRANCH  91  92
ATOM     92  S   UNL     1      11.912  13.355  -2.425  1.00  0.00     0.124 S 
ATOM     93  O   UNL     1      10.849  14.347  -2.286  1.00  0.00    -0.237 OA
ATOM     94  O   UNL     1      13.063  13.539  -1.544  1.00  0.00    -0.237 OA
ATOM     95  O   UNL     1      12.241  12.983  -3.799  1.00  0.00    -0.744 OA
ENDBRANCH  91  92
ENDBRANCH  65  86
ENDBRANCH  39  40
ENDBRANCH  32  34
ENDBRANCH  31  32
ENDBRANCH  30  31
ENDBRANCH  29  30
ENDBRANCH  28  29
ENDBRANCH  27  28
ENDBRANCH   1  27
TORSDOF 25
