REMARK SMILES O=C(OCCOCCOCCOC(=O)[C@H]1CC[C@@H](CNc2ccccc2C(F)(F)F)O1)c1ccc(-c2c3nc(c(-c4ccc(S(=O)(=O)[O-])cc4)c4ccc([nH]4)c(-c4ccc(S(=O)(=O)[O-])cc4)c4nc(c(-c5ccc(S(=O)(=O)[O-])cc5)c5ccc2[nH]5)C=C4)C=C3)cc1
REMARK SMILES IDX 8 1 7 2 6 3 5 4 4 5 3 6 2 7 1 8 32 9 33 10 91 11 34 12 90 13
REMARK SMILES IDX 35 14 36 15 37 16 84 17 38 18 89 19 83 20 85 21 39 22 88 23
REMARK SMILES IDX 82 24 81 25 40 27 70 28 51 29 69 30 52 31 55 32 68 33 86 34
REMARK SMILES IDX 53 35 54 36 67 38 87 39 56 40 41 41 42 42 50 43 43 44 49 45
REMARK SMILES IDX 44 46 45 47 46 48 47 49 48 50 71 51 72 52 80 53 73 54 79 55
REMARK SMILES IDX 74 56 75 57 76 58 77 59 78 60 57 61 58 62 66 63 59 64 65 65
REMARK SMILES IDX 60 66 61 67 62 68 63 69 64 70 9 71 10 72 11 73 12 74 13 75
REMARK SMILES IDX 14 76 15 77 16 78 31 79 17 80 18 81 19 82 20 83 21 85 22 86
REMARK SMILES IDX 26 87 23 88 25 89 24 90 27 91 28 92 29 93 30 94
REMARK H PARENT 85 26 55 37 20 84
REMARK Flexibility Score: inf
ROOT
ATOM      1  C   UNL     1       4.378   0.587   7.394  1.00  0.00     0.188 C 
ENDROOT
BRANCH   1   2
ATOM      2  C   UNL     1       5.321  -0.598   7.577  1.00  0.00     0.188 C 
BRANCH   2   3
ATOM      3  O   UNL     1       4.686  -1.864   7.769  1.00  0.00    -0.376 OA
BRANCH   3   4
ATOM      4  C   UNL     1       5.237  -2.605   8.862  1.00  0.00     0.202 C 
BRANCH   4   5
ATOM      5  C   UNL     1       6.680  -3.131   8.693  1.00  0.00     0.261 C 
BRANCH   5   6
ATOM      6  O   UNL     1       7.494  -2.403   7.758  1.00  0.00    -0.460 OA
BRANCH   6   7
ATOM      7  C   UNL     1       7.598  -2.511   6.411  1.00  0.00     0.338 C 
ATOM      8  O   UNL     1       8.401  -1.771   5.841  1.00  0.00    -0.246 OA
BRANCH   7   9
ATOM      9  C   UNL     1       6.771  -3.430   5.559  1.00  0.00     0.060 A 
ATOM     10  C   UNL     1       5.773  -4.287   6.020  1.00  0.00     0.016 A 
ATOM     11  C   UNL     1       7.021  -3.415   4.171  1.00  0.00     0.016 A 
ATOM     12  C   UNL     1       5.094  -5.145   5.163  1.00  0.00     0.010 A 
ATOM     13  C   UNL     1       6.312  -4.247   3.294  1.00  0.00     0.010 A 
ATOM     14  C   UNL     1       5.359  -5.137   3.798  1.00  0.00    -0.014 A 
BRANCH  14  15
ATOM     15  C   UNL     1       4.698  -6.151   2.954  1.00  0.00     0.031 A 
ATOM     16  C   UNL     1       5.460  -7.375   2.583  1.00  0.00     0.074 A 
ATOM     17  C   UNL     1       3.385  -6.067   2.675  1.00  0.00     0.049 A 
ATOM     18  N   UNL     1       5.024  -8.432   1.960  1.00  0.00    -0.248 NA
ATOM     19  C   UNL     1       6.851  -7.467   3.055  1.00  0.00     0.031 C 
ATOM     20  C   UNL     1       2.498  -5.058   3.230  1.00  0.00     0.029 A 
ATOM     21  N   UNL     1       2.558  -6.822   1.888  1.00  0.00    -0.354 N 
ATOM     22  C   UNL     1       6.057  -9.349   2.033  1.00  0.00     0.074 A 
ATOM     23  C   UNL     1       7.170  -8.700   2.691  1.00  0.00     0.031 C 
ATOM     24  C   UNL     1       1.284  -5.169   2.674  1.00  0.00     0.029 A 
ATOM     25  C   UNL     1       1.300  -6.281   1.748  1.00  0.00     0.049 A 
ATOM     26  H   UNL     1       2.836  -7.667   1.464  1.00  0.00     0.167 HD
ATOM     27  C   UNL     1       6.046 -10.635   1.622  1.00  0.00     0.031 A 
ATOM     28  C   UNL     1       0.265  -6.636   0.968  1.00  0.00     0.031 A 
ATOM     29  C   UNL     1       4.945 -11.232   0.917  1.00  0.00     0.049 A 
ATOM     30  C   UNL     1       0.380  -7.953   0.272  1.00  0.00     0.074 A 
ATOM     31  C   UNL     1       4.860 -12.496   0.367  1.00  0.00     0.029 A 
ATOM     32  N   UNL     1       3.740 -10.593   0.646  1.00  0.00    -0.354 N 
ATOM     33  N   UNL     1       1.376  -8.805   0.325  1.00  0.00    -0.248 NA
ATOM     34  C   UNL     1      -0.772  -8.399  -0.513  1.00  0.00     0.031 C 
ATOM     35  C   UNL     1       3.633 -12.596  -0.298  1.00  0.00     0.029 A 
ATOM     36  C   UNL     1       2.924 -11.420  -0.106  1.00  0.00     0.049 A 
ATOM     37  H   UNL     1       3.503  -9.685   0.944  1.00  0.00     0.167 HD
ATOM     38  C   UNL     1       0.948  -9.921  -0.368  1.00  0.00     0.074 A 
ATOM     39  C   UNL     1      -0.398  -9.631  -0.832  1.00  0.00     0.031 C 
ATOM     40  C   UNL     1       1.602 -11.089  -0.579  1.00  0.00     0.031 A 
BRANCH  27  41
ATOM     41  C   UNL     1       7.286 -11.432   1.887  1.00  0.00    -0.014 A 
ATOM     42  C   UNL     1       7.599 -11.878   3.186  1.00  0.00     0.010 A 
ATOM     43  C   UNL     1       8.164 -11.719   0.829  1.00  0.00     0.010 A 
ATOM     44  C   UNL     1       8.784 -12.578   3.423  1.00  0.00     0.020 A 
ATOM     45  C   UNL     1       9.338 -12.436   1.059  1.00  0.00     0.020 A 
ATOM     46  C   UNL     1       9.646 -12.853   2.357  1.00  0.00     0.054 A 
BRANCH  46  47
ATOM     47  S   UNL     1      11.164 -13.786   2.686  1.00  0.00     0.124 S 
ATOM     48  O   UNL     1      11.959 -12.815   3.433  1.00  0.00    -0.237 OA
ATOM     49  O   UNL     1      10.675 -14.925   3.459  1.00  0.00    -0.237 OA
ATOM     50  O   UNL     1      11.668 -14.110   1.354  1.00  0.00    -0.744 OA
ENDBRANCH  46  47
ENDBRANCH  27  41
BRANCH  28  51
ATOM     51  C   UNL     1      -0.931  -5.758   0.824  1.00  0.00    -0.014 A 
ATOM     52  C   UNL     1      -2.192  -6.134   1.316  1.00  0.00     0.010 A 
ATOM     53  C   UNL     1      -0.808  -4.528   0.146  1.00  0.00     0.010 A 
ATOM     54  C   UNL     1      -3.314  -5.329   1.085  1.00  0.00     0.020 A 
ATOM     55  C   UNL     1      -1.923  -3.709  -0.067  1.00  0.00     0.020 A 
ATOM     56  C   UNL     1      -3.175  -4.127   0.384  1.00  0.00     0.054 A 
BRANCH  56  57
ATOM     57  S   UNL     1      -4.652  -3.125   0.051  1.00  0.00     0.124 S 
ATOM     58  O   UNL     1      -5.369  -3.956  -0.912  1.00  0.00    -0.237 OA
ATOM     59  O   UNL     1      -5.267  -3.013   1.370  1.00  0.00    -0.237 OA
ATOM     60  O   UNL     1      -4.106  -1.881  -0.486  1.00  0.00    -0.744 OA
ENDBRANCH  56  57
ENDBRANCH  28  51
BRANCH  40  61
ATOM     61  C   UNL     1       0.848 -12.135  -1.343  1.00  0.00    -0.014 A 
ATOM     62  C   UNL     1       0.578 -11.973  -2.713  1.00  0.00     0.010 A 
ATOM     63  C   UNL     1       0.413 -13.296  -0.681  1.00  0.00     0.010 A 
ATOM     64  C   UNL     1      -0.157 -12.938  -3.400  1.00  0.00     0.020 A 
ATOM     65  C   UNL     1      -0.290 -14.280  -1.374  1.00  0.00     0.020 A 
ATOM     66  C   UNL     1      -0.586 -14.085  -2.725  1.00  0.00     0.054 A 
BRANCH  66  67
ATOM     67  S   UNL     1      -1.507 -15.339  -3.650  1.00  0.00     0.124 S 
ATOM     68  O   UNL     1      -2.815 -14.706  -3.797  1.00  0.00    -0.237 OA
ATOM     69  O   UNL     1      -0.727 -15.467  -4.878  1.00  0.00    -0.237 OA
ATOM     70  O   UNL     1      -1.474 -16.508  -2.773  1.00  0.00    -0.744 OA
ENDBRANCH  66  67
ENDBRANCH  40  61
ENDBRANCH  14  15
ENDBRANCH   7   9
ENDBRANCH   6   7
ENDBRANCH   5   6
ENDBRANCH   4   5
ENDBRANCH   3   4
ENDBRANCH   2   3
ENDBRANCH   1   2
BRANCH   1  71
ATOM     71  O   UNL     1       3.476   0.899   8.441  1.00  0.00    -0.376 OA
BRANCH  71  72
ATOM     72  C   UNL     1       2.580  -0.094   8.917  1.00  0.00     0.202 C 
BRANCH  72  73
ATOM     73  C   UNL     1       1.735  -0.946   7.955  1.00  0.00     0.261 C 
BRANCH  73  74
ATOM     74  O   UNL     1       2.039  -0.833   6.567  1.00  0.00    -0.461 OA
BRANCH  74  75
ATOM     75  C   UNL     1       1.385   0.162   5.909  1.00  0.00     0.335 C 
ATOM     76  O   UNL     1       0.588   0.933   6.439  1.00  0.00    -0.249 OA
BRANCH  75  77
ATOM     77  C   UNL     1       1.808   0.257   4.434  1.00  0.00     0.228 C 
ATOM     78  C   UNL     1       2.857  -0.716   3.932  1.00  0.00     0.047 C 
ATOM     79  O   UNL     1       0.672   0.054   3.593  1.00  0.00    -0.361 OA
ATOM     80  C   UNL     1       2.023  -1.898   3.524  1.00  0.00     0.037 C 
ATOM     81  C   UNL     1       0.677  -1.314   3.125  1.00  0.00     0.138 C 
BRANCH  81  82
ATOM     82  C   UNL     1      -0.601  -2.055   3.604  1.00  0.00     0.145 C 
BRANCH  82  83
ATOM     83  N   UNL     1      -0.431  -2.803   4.855  1.00  0.00    -0.382 N 
ATOM     84  H   UNL     1       0.406  -3.313   4.944  1.00  0.00     0.160 HD
BRANCH  83  85
ATOM     85  C   UNL     1      -1.304  -2.877   5.924  1.00  0.00     0.046 A 
ATOM     86  C   UNL     1      -0.713  -3.209   7.163  1.00  0.00     0.026 A 
ATOM     87  C   UNL     1      -2.674  -2.576   5.928  1.00  0.00     0.079 A 
ATOM     88  C   UNL     1      -1.402  -3.128   8.374  1.00  0.00     0.002 A 
ATOM     89  C   UNL     1      -3.354  -2.457   7.166  1.00  0.00     0.015 A 
ATOM     90  C   UNL     1      -2.722  -2.714   8.378  1.00  0.00     0.001 A 
BRANCH  87  91
ATOM     91  C   UNL     1      -3.521  -2.459   4.676  1.00  0.00     0.418 C 
ATOM     92  F   UNL     1      -4.821  -2.806   4.916  1.00  0.00    -0.166 F 
ATOM     93  F   UNL     1      -3.564  -1.188   4.194  1.00  0.00    -0.166 F 
ATOM     94  F   UNL     1      -3.107  -3.268   3.668  1.00  0.00    -0.166 F 
ENDBRANCH  87  91
ENDBRANCH  83  85
ENDBRANCH  82  83
ENDBRANCH  81  82
ENDBRANCH  75  77
ENDBRANCH  74  75
ENDBRANCH  73  74
ENDBRANCH  72  73
ENDBRANCH  71  72
ENDBRANCH   1  71
TORSDOF 24
