REMARK SMILES CC1(C)C(C(=O)Nc2ccc(CC(=O)OCCOCCOCCOC(=O)c3ccc(-c4c5nc(c(-c6ccc(S(=O)(=O)[O-])cc6)c6ccc([nH]6)c(-c6ccc(S(=O)(=O)[O-])cc6)c6nc(c(-c7ccc(S(=O)(=O)[O-])cc7)c7ccc4[nH]7)C=C6)C=C5)cc3)cc2)C1(C)C
REMARK SMILES IDX 19 1 18 2 17 3 16 4 15 5 13 6 14 7 12 8 11 9 8 10 9 11 88 12
REMARK SMILES IDX 10 13 87 14 7 15 5 16 6 17 4 19 1 20 2 21 3 22 89 23 90 24
REMARK SMILES IDX 91 25 20 26 21 27 22 28 23 29 24 30 25 31 26 32 27 33 28 34
REMARK SMILES IDX 86 35 29 36 85 37 30 38 31 39 32 40 79 41 33 42 84 43 78 44
REMARK SMILES IDX 80 45 34 46 83 47 77 48 76 49 35 51 65 52 46 53 64 54 47 55
REMARK SMILES IDX 50 56 63 57 81 58 48 59 49 60 62 62 82 63 51 64 36 65 37 66
REMARK SMILES IDX 45 67 38 68 44 69 39 70 40 71 41 72 42 73 43 74 66 75 67 76
REMARK SMILES IDX 75 77 68 78 74 79 69 80 70 81 71 82 72 83 73 84 52 85 53 86
REMARK SMILES IDX 61 87 54 88 60 89 55 90 56 91 57 92 58 93 59 94
REMARK H PARENT 7 18 80 50 50 61
REMARK Flexibility Score: inf
ROOT
ATOM      1  C   UNL     1      -5.359   3.434   6.247  1.00  0.00     0.188 C 
ENDROOT
BRANCH   1   2
ATOM      2  O   UNL     1      -5.689   2.765   7.464  1.00  0.00    -0.376 OA
BRANCH   2   3
ATOM      3  C   UNL     1      -4.635   2.233   8.254  1.00  0.00     0.202 C 
BRANCH   3   4
ATOM      4  C   UNL     1      -4.031   0.931   7.730  1.00  0.00     0.261 C 
BRANCH   4   5
ATOM      5  O   UNL     1      -3.553   1.067   6.380  1.00  0.00    -0.463 OA
BRANCH   5   6
ATOM      6  C   UNL     1      -4.131   0.253   5.466  1.00  0.00     0.310 C 
ATOM      7  O   UNL     1      -4.903  -0.661   5.739  1.00  0.00    -0.252 OA
BRANCH   6   8
ATOM      8  C   UNL     1      -3.738   0.536   4.041  1.00  0.00     0.158 C 
BRANCH   8   9
ATOM      9  C   UNL     1      -2.882   1.736   3.692  1.00  0.00    -0.037 A 
ATOM     10  C   UNL     1      -1.181   3.509   2.351  1.00  0.00     0.041 A 
ATOM     11  C   UNL     1      -2.559   3.677   2.249  1.00  0.00     0.026 A 
ATOM     12  C   UNL     1      -0.668   2.649   3.318  1.00  0.00     0.026 A 
ATOM     13  C   UNL     1      -3.404   2.753   2.876  1.00  0.00     0.006 A 
ATOM     14  C   UNL     1      -1.516   1.761   3.991  1.00  0.00     0.006 A 
BRANCH  10  15
ATOM     15  N   UNL     1      -0.372   4.122   1.376  1.00  0.00    -0.326 N 
ATOM     16  C   UNL     1       0.783   3.596   0.836  1.00  0.00     0.228 C 
ATOM     17  O   UNL     1       1.851   4.188   0.989  1.00  0.00    -0.274 OA
ATOM     18  H   UNL     1      -0.657   5.006   1.049  1.00  0.00     0.169 HD
BRANCH  16  19
ATOM     19  C   UNL     1       0.737   2.511  -0.223  1.00  0.00     0.091 C 
ATOM     20  C   UNL     1       1.639   0.087  -0.822  1.00  0.00     0.012 C 
ATOM     21  C   UNL     1       0.760   0.997   0.012  1.00  0.00    -0.017 C 
ATOM     22  C   UNL     1       0.752   0.536   1.452  1.00  0.00     0.012 C 
ATOM     23  C   UNL     1      -0.437   1.678  -0.714  1.00  0.00    -0.017 C 
ATOM     24  C   UNL     1      -0.572   1.626  -2.231  1.00  0.00     0.012 C 
ATOM     25  C   UNL     1      -1.804   1.639  -0.097  1.00  0.00     0.012 C 
ENDBRANCH  16  19
ENDBRANCH  10  15
ENDBRANCH   8   9
ENDBRANCH   6   8
ENDBRANCH   5   6
ENDBRANCH   4   5
ENDBRANCH   3   4
ENDBRANCH   2   3
ENDBRANCH   1   2
BRANCH   1  26
ATOM     26  C   UNL     1      -3.971   4.072   6.101  1.00  0.00     0.188 C 
BRANCH  26  27
ATOM     27  O   UNL     1      -3.678   4.921   7.208  1.00  0.00    -0.376 OA
BRANCH  27  28
ATOM     28  C   UNL     1      -3.014   6.120   6.829  1.00  0.00     0.202 C 
BRANCH  28  29
ATOM     29  C   UNL     1      -4.036   7.258   6.777  1.00  0.00     0.261 C 
BRANCH  29  30
ATOM     30  O   UNL     1      -5.167   6.993   5.923  1.00  0.00    -0.460 OA
BRANCH  30  31
ATOM     31  C   UNL     1      -4.926   6.968   4.596  1.00  0.00     0.338 C 
ATOM     32  O   UNL     1      -3.843   7.133   4.047  1.00  0.00    -0.246 OA
BRANCH  31  33
ATOM     33  C   UNL     1      -6.154   6.558   3.884  1.00  0.00     0.060 A 
ATOM     34  C   UNL     1      -6.067   5.537   2.931  1.00  0.00     0.016 A 
ATOM     35  C   UNL     1      -7.371   7.206   4.102  1.00  0.00     0.016 A 
ATOM     36  C   UNL     1      -7.183   5.179   2.170  1.00  0.00     0.010 A 
ATOM     37  C   UNL     1      -8.486   6.857   3.330  1.00  0.00     0.010 A 
ATOM     38  C   UNL     1      -8.393   5.864   2.338  1.00  0.00    -0.014 A 
BRANCH  38  39
ATOM     39  C   UNL     1      -9.517   5.660   1.386  1.00  0.00     0.031 A 
ATOM     40  C   UNL     1      -9.763   6.699   0.322  1.00  0.00     0.074 A 
ATOM     41  C   UNL     1     -10.318   4.580   1.463  1.00  0.00     0.049 A 
ATOM     42  N   UNL     1     -10.747   6.793  -0.534  1.00  0.00    -0.248 NA
ATOM     43  C   UNL     1      -8.767   7.780   0.213  1.00  0.00     0.031 C 
ATOM     44  C   UNL     1     -10.166   3.475   2.409  1.00  0.00     0.029 A 
ATOM     45  N   UNL     1     -11.436   4.247   0.736  1.00  0.00    -0.354 N 
ATOM     46  C   UNL     1     -10.512   7.958  -1.256  1.00  0.00     0.074 A 
ATOM     47  C   UNL     1      -9.292   8.538  -0.739  1.00  0.00     0.031 C 
ATOM     48  C   UNL     1     -11.166   2.596   2.217  1.00  0.00     0.029 A 
ATOM     49  C   UNL     1     -12.053   3.096   1.168  1.00  0.00     0.049 A 
ATOM     50  H   UNL     1     -11.765   4.783  -0.022  1.00  0.00     0.167 HD
ATOM     51  C   UNL     1     -11.249   8.500  -2.255  1.00  0.00     0.031 A 
ATOM     52  C   UNL     1     -13.219   2.531   0.790  1.00  0.00     0.031 A 
ATOM     53  C   UNL     1     -12.453   7.917  -2.782  1.00  0.00     0.049 A 
ATOM     54  C   UNL     1     -14.048   3.184  -0.289  1.00  0.00     0.074 A 
ATOM     55  C   UNL     1     -13.243   8.376  -3.823  1.00  0.00     0.029 A 
ATOM     56  N   UNL     1     -13.047   6.758  -2.311  1.00  0.00    -0.354 N 
ATOM     57  N   UNL     1     -13.795   4.270  -0.981  1.00  0.00    -0.248 NA
ATOM     58  C   UNL     1     -15.321   2.535  -0.636  1.00  0.00     0.031 C 
ATOM     59  C   UNL     1     -14.346   7.526  -3.942  1.00  0.00     0.029 A 
ATOM     60  C   UNL     1     -14.210   6.504  -3.017  1.00  0.00     0.049 A 
ATOM     61  H   UNL     1     -12.694   6.198  -1.582  1.00  0.00     0.167 HD
ATOM     62  C   UNL     1     -14.863   4.413  -1.864  1.00  0.00     0.074 A 
ATOM     63  C   UNL     1     -15.755   3.299  -1.630  1.00  0.00     0.031 C 
ATOM     64  C   UNL     1     -15.084   5.383  -2.786  1.00  0.00     0.031 A 
BRANCH  51  65
ATOM     65  C   UNL     1     -10.803   9.820  -2.822  1.00  0.00    -0.014 A 
ATOM     66  C   UNL     1      -9.692   9.915  -3.678  1.00  0.00     0.010 A 
ATOM     67  C   UNL     1     -11.562  10.974  -2.552  1.00  0.00     0.010 A 
ATOM     68  C   UNL     1      -9.336  11.146  -4.237  1.00  0.00     0.020 A 
ATOM     69  C   UNL     1     -11.223  12.201  -3.128  1.00  0.00     0.020 A 
ATOM     70  C   UNL     1     -10.105  12.280  -3.960  1.00  0.00     0.054 A 
BRANCH  70  71
ATOM     71  S   UNL     1      -9.652  13.854  -4.741  1.00  0.00     0.124 S 
ATOM     72  O   UNL     1      -8.445  14.218  -4.003  1.00  0.00    -0.237 OA
ATOM     73  O   UNL     1      -9.443  13.470  -6.135  1.00  0.00    -0.237 OA
ATOM     74  O   UNL     1     -10.811  14.709  -4.500  1.00  0.00    -0.744 OA
ENDBRANCH  70  71
ENDBRANCH  51  65
BRANCH  52  75
ATOM     75  C   UNL     1     -13.715   1.300   1.470  1.00  0.00    -0.014 A 
ATOM     76  C   UNL     1     -13.815   0.082   0.774  1.00  0.00     0.010 A 
ATOM     77  C   UNL     1     -14.137   1.355   2.811  1.00  0.00     0.010 A 
ATOM     78  C   UNL     1     -14.361  -1.047   1.395  1.00  0.00     0.020 A 
ATOM     79  C   UNL     1     -14.654   0.222   3.445  1.00  0.00     0.020 A 
ATOM     80  C   UNL     1     -14.780  -0.968   2.726  1.00  0.00     0.054 A 
BRANCH  80  81
ATOM     81  S   UNL     1     -15.471  -2.447   3.519  1.00  0.00     0.124 S 
ATOM     82  O   UNL     1     -16.803  -2.514   2.926  1.00  0.00    -0.237 OA
ATOM     83  O   UNL     1     -14.540  -3.493   3.105  1.00  0.00    -0.237 OA
ATOM     84  O   UNL     1     -15.435  -2.119   4.943  1.00  0.00    -0.744 OA
ENDBRANCH  80  81
ENDBRANCH  52  75
BRANCH  64  85
ATOM     85  C   UNL     1     -16.312   5.263  -3.650  1.00  0.00    -0.014 A 
ATOM     86  C   UNL     1     -17.598   5.504  -3.135  1.00  0.00     0.010 A 
ATOM     87  C   UNL     1     -16.168   4.965  -5.018  1.00  0.00     0.010 A 
ATOM     88  C   UNL     1     -18.720   5.420  -3.966  1.00  0.00     0.020 A 
ATOM     89  C   UNL     1     -17.284   4.907  -5.857  1.00  0.00     0.020 A 
ATOM     90  C   UNL     1     -18.555   5.121  -5.322  1.00  0.00     0.054 A 
BRANCH  90  91
ATOM     91  S   UNL     1     -20.020   5.061  -6.390  1.00  0.00     0.124 S 
ATOM     92  O   UNL     1     -20.631   3.794  -5.998  1.00  0.00    -0.237 OA
ATOM     93  O   UNL     1     -20.755   6.261  -5.997  1.00  0.00    -0.237 OA
ATOM     94  O   UNL     1     -19.466   5.093  -7.742  1.00  0.00    -0.744 OA
ENDBRANCH  90  91
ENDBRANCH  64  85
ENDBRANCH  38  39
ENDBRANCH  31  33
ENDBRANCH  30  31
ENDBRANCH  29  30
ENDBRANCH  28  29
ENDBRANCH  27  28
ENDBRANCH  26  27
ENDBRANCH   1  26
TORSDOF 23
