REMARK SMILES O=C(CSCc1ccc(C(=O)OCCOCCOCCOC(=O)c2ccc(-c3c4nc(c(-c5ccc(S(=O)(=O)[O-])cc5)c5ccc([nH]5)c(-c5ccc(S(=O)(=O)[O-])cc5)c5nc(c(-c6ccc(S(=O)(=O)[O-])cc6)c6ccc3[nH]6)C=C5)C=C4)cc2)cc1)Nc1ccc(Cl)cc1
REMARK SMILES IDX 16 1 15 2 14 3 13 4 12 5 10 6 11 7 9 8 6 9 7 10 85 11 8 12
REMARK SMILES IDX 84 13 5 14 4 15 3 16 2 17 1 18 86 19 87 21 88 22 93 23 89 24
REMARK SMILES IDX 92 25 90 26 91 27 17 28 18 29 19 30 20 31 21 32 22 33 23 34
REMARK SMILES IDX 24 35 25 36 83 37 26 38 82 39 27 40 28 41 29 42 76 43 30 44
REMARK SMILES IDX 81 45 75 46 77 47 31 48 80 49 74 50 73 51 32 53 62 54 43 55
REMARK SMILES IDX 61 56 44 57 47 58 60 59 78 60 45 61 46 62 59 64 79 65 48 66
REMARK SMILES IDX 33 67 34 68 42 69 35 70 41 71 36 72 37 73 38 74 39 75 40 76
REMARK SMILES IDX 63 77 64 78 72 79 65 80 71 81 66 82 67 83 68 84 69 85 70 86
REMARK SMILES IDX 49 87 50 88 58 89 51 90 57 91 52 92 53 93 54 94 55 95 56 96
REMARK H PARENT 86 20 77 52 47 63
REMARK Flexibility Score: inf
ROOT
ATOM      1  C   UNL     1      -2.557  -3.328  -5.138  1.00  0.00     0.188 C 
ENDROOT
BRANCH   1   2
ATOM      2  O   UNL     1      -3.138  -4.300  -5.981  1.00  0.00    -0.376 OA
BRANCH   2   3
ATOM      3  C   UNL     1      -2.334  -5.236  -6.679  1.00  0.00     0.202 C 
BRANCH   3   4
ATOM      4  C   UNL     1      -0.907  -4.952  -7.174  1.00  0.00     0.261 C 
BRANCH   4   5
ATOM      5  O   UNL     1      -0.081  -4.154  -6.322  1.00  0.00    -0.460 OA
BRANCH   5   6
ATOM      6  C   UNL     1       0.249  -2.936  -6.831  1.00  0.00     0.338 C 
ATOM      7  O   UNL     1      -0.060  -2.489  -7.913  1.00  0.00    -0.246 OA
BRANCH   6   8
ATOM      8  C   UNL     1       0.925  -2.130  -5.790  1.00  0.00     0.060 A 
ATOM      9  C   UNL     1       2.200  -0.490  -3.887  1.00  0.00    -0.038 A 
ATOM     10  C   UNL     1       1.119  -0.009  -4.649  1.00  0.00     0.005 A 
ATOM     11  C   UNL     1       2.615  -1.816  -4.090  1.00  0.00     0.005 A 
ATOM     12  C   UNL     1       0.494  -0.815  -5.602  1.00  0.00     0.016 A 
ATOM     13  C   UNL     1       1.969  -2.642  -5.020  1.00  0.00     0.016 A 
BRANCH   9  14
ATOM     14  C   UNL     1       2.892   0.504  -2.978  1.00  0.00     0.105 C 
BRANCH  14  15
ATOM     15  S   UNL     1       4.120  -0.119  -1.791  1.00  0.00    -0.147 SA
BRANCH  15  16
ATOM     16  C   UNL     1       3.026  -1.003  -0.633  1.00  0.00     0.170 C 
BRANCH  16  17
ATOM     17  C   UNL     1       2.088  -0.087   0.136  1.00  0.00     0.234 C 
ATOM     18  O   UNL     1       0.920  -0.416   0.320  1.00  0.00    -0.274 OA
ATOM     19  N   UNL     1       2.699   1.053   0.629  1.00  0.00    -0.325 N 
ATOM     20  H   UNL     1       3.613   1.234   0.312  1.00  0.00     0.169 HD
BRANCH  19  21
ATOM     21  C   UNL     1       2.154   1.982   1.536  1.00  0.00     0.041 A 
ATOM     22  C   UNL     1       2.829   3.199   1.702  1.00  0.00     0.027 A 
ATOM     23  C   UNL     1       1.002   1.738   2.289  1.00  0.00     0.027 A 
ATOM     24  C   UNL     1       2.343   4.165   2.590  1.00  0.00     0.022 A 
ATOM     25  C   UNL     1       0.524   2.697   3.189  1.00  0.00     0.022 A 
ATOM     26  C   UNL     1       1.193   3.908   3.332  1.00  0.00     0.041 A 
ATOM     27  Cl  UNL     1       0.606   5.089   4.436  1.00  0.00    -0.084 Cl
ENDBRANCH  19  21
ENDBRANCH  16  17
ENDBRANCH  15  16
ENDBRANCH  14  15
ENDBRANCH   9  14
ENDBRANCH   6   8
ENDBRANCH   5   6
ENDBRANCH   4   5
ENDBRANCH   3   4
ENDBRANCH   2   3
ENDBRANCH   1   2
BRANCH   1  28
ATOM     28  C   UNL     1      -1.763  -3.765  -3.891  1.00  0.00     0.188 C 
BRANCH  28  29
ATOM     29  O   UNL     1      -1.491  -5.134  -3.688  1.00  0.00    -0.376 OA
BRANCH  29  30
ATOM     30  C   UNL     1      -2.530  -6.039  -3.360  1.00  0.00     0.202 C 
BRANCH  30  31
ATOM     31  C   UNL     1      -3.907  -5.665  -2.780  1.00  0.00     0.261 C 
BRANCH  31  32
ATOM     32  O   UNL     1      -4.399  -4.348  -3.021  1.00  0.00    -0.460 OA
BRANCH  32  33
ATOM     33  C   UNL     1      -4.400  -3.527  -1.940  1.00  0.00     0.338 C 
ATOM     34  O   UNL     1      -3.996  -3.782  -0.820  1.00  0.00    -0.246 OA
BRANCH  33  35
ATOM     35  C   UNL     1      -4.831  -2.185  -2.366  1.00  0.00     0.060 A 
ATOM     36  C   UNL     1      -3.906  -1.135  -2.325  1.00  0.00     0.016 A 
ATOM     37  C   UNL     1      -6.150  -1.960  -2.764  1.00  0.00     0.016 A 
ATOM     38  C   UNL     1      -4.305   0.157  -2.667  1.00  0.00     0.010 A 
ATOM     39  C   UNL     1      -6.553  -0.661  -3.086  1.00  0.00     0.010 A 
ATOM     40  C   UNL     1      -5.639   0.406  -3.014  1.00  0.00    -0.014 A 
BRANCH  40  41
ATOM     41  C   UNL     1      -6.125   1.802  -3.141  1.00  0.00     0.031 A 
ATOM     42  C   UNL     1      -6.830   2.428  -1.969  1.00  0.00     0.074 A 
ATOM     43  C   UNL     1      -5.942   2.502  -4.275  1.00  0.00     0.049 A 
ATOM     44  N   UNL     1      -7.389   3.606  -1.872  1.00  0.00    -0.248 NA
ATOM     45  C   UNL     1      -6.919   1.614  -0.745  1.00  0.00     0.031 C 
ATOM     46  C   UNL     1      -5.237   2.023  -5.463  1.00  0.00     0.029 A 
ATOM     47  N   UNL     1      -6.349   3.769  -4.612  1.00  0.00    -0.354 N 
ATOM     48  C   UNL     1      -7.905   3.672  -0.583  1.00  0.00     0.074 A 
ATOM     49  C   UNL     1      -7.617   2.406   0.055  1.00  0.00     0.031 C 
ATOM     50  C   UNL     1      -5.272   2.983  -6.405  1.00  0.00     0.029 A 
ATOM     51  C   UNL     1      -6.031   4.126  -5.900  1.00  0.00     0.049 A 
ATOM     52  H   UNL     1      -6.824   4.366  -3.989  1.00  0.00     0.167 HD
ATOM     53  C   UNL     1      -8.559   4.695   0.018  1.00  0.00     0.031 A 
ATOM     54  C   UNL     1      -6.339   5.237  -6.600  1.00  0.00     0.031 A 
ATOM     55  C   UNL     1      -8.863   5.945  -0.626  1.00  0.00     0.049 A 
ATOM     56  C   UNL     1      -7.137   6.332  -5.937  1.00  0.00     0.074 A 
ATOM     57  C   UNL     1      -9.509   7.049  -0.098  1.00  0.00     0.029 A 
ATOM     58  N   UNL     1      -8.551   6.256  -1.941  1.00  0.00    -0.354 N 
ATOM     59  N   UNL     1      -7.597   6.391  -4.710  1.00  0.00    -0.248 NA
ATOM     60  C   UNL     1      -7.451   7.513  -6.754  1.00  0.00     0.031 C 
ATOM     61  C   UNL     1      -9.643   8.003  -1.112  1.00  0.00     0.029 A 
ATOM     62  C   UNL     1      -9.017   7.522  -2.251  1.00  0.00     0.049 A 
ATOM     63  H   UNL     1      -8.069   5.663  -2.562  1.00  0.00     0.167 HD
ATOM     64  C   UNL     1      -8.225   7.629  -4.598  1.00  0.00     0.074 A 
ATOM     65  C   UNL     1      -8.076   8.289  -5.878  1.00  0.00     0.031 C 
ATOM     66  C   UNL     1      -8.861   8.171  -3.529  1.00  0.00     0.031 A 
BRANCH  53  67
ATOM     67  C   UNL     1      -9.027   4.484   1.433  1.00  0.00    -0.014 A 
ATOM     68  C   UNL     1      -8.116   4.418   2.503  1.00  0.00     0.010 A 
ATOM     69  C   UNL     1     -10.405   4.383   1.701  1.00  0.00     0.010 A 
ATOM     70  C   UNL     1      -8.572   4.214   3.809  1.00  0.00     0.020 A 
ATOM     71  C   UNL     1     -10.866   4.209   3.009  1.00  0.00     0.020 A 
ATOM     72  C   UNL     1      -9.945   4.109   4.053  1.00  0.00     0.054 A 
BRANCH  72  73
ATOM     73  S   UNL     1     -10.509   3.864   5.759  1.00  0.00     0.124 S 
ATOM     74  O   UNL     1     -10.108   2.482   6.014  1.00  0.00    -0.237 OA
ATOM     75  O   UNL     1      -9.760   4.880   6.493  1.00  0.00    -0.237 OA
ATOM     76  O   UNL     1     -11.950   4.089   5.684  1.00  0.00    -0.744 OA
ENDBRANCH  72  73
ENDBRANCH  53  67
BRANCH  54  77
ATOM     77  C   UNL     1      -5.906   5.367  -8.019  1.00  0.00    -0.014 A 
ATOM     78  C   UNL     1      -4.931   6.310  -8.390  1.00  0.00     0.010 A 
ATOM     79  C   UNL     1      -6.472   4.545  -9.012  1.00  0.00     0.010 A 
ATOM     80  C   UNL     1      -4.543   6.440  -9.727  1.00  0.00     0.020 A 
ATOM     81  C   UNL     1      -6.065   4.652 -10.345  1.00  0.00     0.020 A 
ATOM     82  C   UNL     1      -5.109   5.607 -10.696  1.00  0.00     0.054 A 
BRANCH  82  83
ATOM     83  S   UNL     1      -4.549   5.759 -12.415  1.00  0.00     0.124 S 
ATOM     84  O   UNL     1      -5.149   7.026 -12.819  1.00  0.00    -0.237 OA
ATOM     85  O   UNL     1      -3.095   5.763 -12.272  1.00  0.00    -0.237 OA
ATOM     86  O   UNL     1      -5.101   4.570 -13.061  1.00  0.00    -0.744 OA
ENDBRANCH  82  83
ENDBRANCH  54  77
BRANCH  66  87
ATOM     87  C   UNL     1      -9.409   9.568  -3.675  1.00  0.00    -0.014 A 
ATOM     88  C   UNL     1     -10.540   9.836  -4.465  1.00  0.00     0.010 A 
ATOM     89  C   UNL     1      -8.816  10.621  -2.951  1.00  0.00     0.010 A 
ATOM     90  C   UNL     1     -11.050  11.135  -4.554  1.00  0.00     0.020 A 
ATOM     91  C   UNL     1      -9.341  11.914  -3.013  1.00  0.00     0.020 A 
ATOM     92  C   UNL     1     -10.447  12.166  -3.826  1.00  0.00     0.054 A 
BRANCH  92  93
ATOM     93  S   UNL     1     -11.155  13.834  -3.922  1.00  0.00     0.124 S 
ATOM     94  O   UNL     1     -10.765  14.254  -5.265  1.00  0.00    -0.237 OA
ATOM     95  O   UNL     1     -12.582  13.588  -3.729  1.00  0.00    -0.237 OA
ATOM     96  O   UNL     1     -10.501  14.552  -2.830  1.00  0.00    -0.744 OA
ENDBRANCH  92  93
ENDBRANCH  66  87
ENDBRANCH  40  41
ENDBRANCH  33  35
ENDBRANCH  32  33
ENDBRANCH  31  32
ENDBRANCH  30  31
ENDBRANCH  29  30
ENDBRANCH  28  29
ENDBRANCH   1  28
TORSDOF 25
