REMARK SMILES CC(C)(Br)[C@H](Br)C(=O)OCCOCCOCCOC(=O)c1ccc(-c2c3nc(c(-c4ccc(S(=O)(=O)[O-])cc4)c4ccc([nH]4)c(-c4ccc(S(=O)(=O)[O-])cc4)c4nc(c(-c5ccc(S(=O)(=O)[O-])cc5)c5ccc2[nH]5)C=C4)C=C3)cc1
REMARK SMILES IDX 14 1 13 2 12 3 11 4 10 5 9 6 7 7 8 8 5 9 6 10 2 11 1 12 3 13
REMARK SMILES IDX 4 14 15 15 16 16 17 17 18 18 19 19 20 20 21 21 22 22 80 23
REMARK SMILES IDX 23 24 79 25 24 26 25 27 26 28 73 29 27 30 78 31 72 32 74 33
REMARK SMILES IDX 28 34 77 35 71 36 70 37 29 39 59 40 40 41 58 42 41 43 44 44
REMARK SMILES IDX 57 45 75 46 42 47 43 48 56 50 76 51 45 52 30 53 31 54 39 55
REMARK SMILES IDX 32 56 38 57 33 58 34 59 35 60 36 61 37 62 60 63 61 64 69 65
REMARK SMILES IDX 62 66 68 67 63 68 64 69 65 70 66 71 67 72 46 73 47 74 55 75
REMARK SMILES IDX 48 76 54 77 49 78 50 79 51 80 52 81 53 82
REMARK H PARENT 74 38 44 49
REMARK Flexibility Score: inf
ROOT
ATOM      1  C   UNL     1       3.209   1.866   1.777  1.00  0.00     0.188 C 
ENDROOT
BRANCH   1   2
ATOM      2  C   UNL     1       3.773   1.324   3.100  1.00  0.00     0.188 C 
BRANCH   2   3
ATOM      3  O   UNL     1       5.130   0.901   3.132  1.00  0.00    -0.376 OA
BRANCH   3   4
ATOM      4  C   UNL     1       5.568  -0.044   2.158  1.00  0.00     0.202 C 
BRANCH   4   5
ATOM      5  C   UNL     1       4.733  -1.318   1.957  1.00  0.00     0.261 C 
BRANCH   5   6
ATOM      6  O   UNL     1       3.385  -1.073   1.506  1.00  0.00    -0.462 OA
BRANCH   6   7
ATOM      7  C   UNL     1       2.369  -1.561   2.273  1.00  0.00     0.321 C 
ATOM      8  O   UNL     1       2.566  -2.168   3.320  1.00  0.00    -0.251 OA
BRANCH   7   9
ATOM      9  C   UNL     1       0.971  -1.142   1.798  1.00  0.00     0.183 C 
ATOM     10  Br  UNL     1       1.017  -0.769  -0.146  1.00  0.00    -0.075 Br
BRANCH   9  11
ATOM     11  C   UNL     1      -0.174  -2.116   2.167  1.00  0.00     0.043 C 
ATOM     12  C   UNL     1      -1.533  -1.744   1.541  1.00  0.00     0.025 C 
ATOM     13  C   UNL     1      -0.398  -2.199   3.688  1.00  0.00     0.025 C 
ATOM     14  Br  UNL     1       0.252  -3.945   1.526  1.00  0.00    -0.084 Br
ENDBRANCH   9  11
ENDBRANCH   7   9
ENDBRANCH   6   7
ENDBRANCH   5   6
ENDBRANCH   4   5
ENDBRANCH   3   4
ENDBRANCH   2   3
ENDBRANCH   1   2
BRANCH   1  15
ATOM     15  O   UNL     1       4.035   1.624   0.655  1.00  0.00    -0.376 OA
BRANCH  15  16
ATOM     16  C   UNL     1       4.157   2.672  -0.297  1.00  0.00     0.202 C 
BRANCH  16  17
ATOM     17  C   UNL     1       4.984   3.884   0.177  1.00  0.00     0.261 C 
BRANCH  17  18
ATOM     18  O   UNL     1       4.489   4.559   1.351  1.00  0.00    -0.460 OA
BRANCH  18  19
ATOM     19  C   UNL     1       3.272   5.145   1.246  1.00  0.00     0.338 C 
ATOM     20  O   UNL     1       2.602   5.245   0.229  1.00  0.00    -0.246 OA
BRANCH  19  21
ATOM     21  C   UNL     1       2.751   5.387   2.615  1.00  0.00     0.060 A 
ATOM     22  C   UNL     1       1.482   4.885   2.941  1.00  0.00     0.016 A 
ATOM     23  C   UNL     1       3.505   6.057   3.581  1.00  0.00     0.016 A 
ATOM     24  C   UNL     1       0.945   5.096   4.212  1.00  0.00     0.010 A 
ATOM     25  C   UNL     1       2.957   6.283   4.851  1.00  0.00     0.010 A 
ATOM     26  C   UNL     1       1.658   5.840   5.162  1.00  0.00    -0.014 A 
BRANCH  26  27
ATOM     27  C   UNL     1       0.963   6.316   6.388  1.00  0.00     0.031 A 
ATOM     28  C   UNL     1       0.450   7.734   6.416  1.00  0.00     0.074 A 
ATOM     29  C   UNL     1       0.730   5.503   7.436  1.00  0.00     0.049 A 
ATOM     30  N   UNL     1      -0.203   8.364   7.360  1.00  0.00    -0.248 NA
ATOM     31  C   UNL     1       0.705   8.549   5.216  1.00  0.00     0.031 C 
ATOM     32  C   UNL     1       1.138   4.103   7.532  1.00  0.00     0.029 A 
ATOM     33  N   UNL     1       0.085   5.746   8.626  1.00  0.00    -0.354 N 
ATOM     34  C   UNL     1      -0.440   9.643   6.866  1.00  0.00     0.074 A 
ATOM     35  C   UNL     1       0.179   9.714   5.561  1.00  0.00     0.031 C 
ATOM     36  C   UNL     1       0.740   3.613   8.720  1.00  0.00     0.029 A 
ATOM     37  C   UNL     1       0.072   4.669   9.481  1.00  0.00     0.049 A 
ATOM     38  H   UNL     1      -0.329   6.612   8.846  1.00  0.00     0.167 HD
ATOM     39  C   UNL     1      -1.126  10.663   7.435  1.00  0.00     0.031 A 
ATOM     40  C   UNL     1      -0.406   4.551  10.737  1.00  0.00     0.031 A 
ATOM     41  C   UNL     1      -1.725  10.608   8.742  1.00  0.00     0.049 A 
ATOM     42  C   UNL     1      -1.098   5.727  11.383  1.00  0.00     0.074 A 
ATOM     43  C   UNL     1      -2.434  11.595   9.405  1.00  0.00     0.029 A 
ATOM     44  N   UNL     1      -1.683   9.511   9.588  1.00  0.00    -0.354 N 
ATOM     45  N   UNL     1      -1.334   6.921  10.891  1.00  0.00    -0.248 NA
ATOM     46  C   UNL     1      -1.605   5.532  12.750  1.00  0.00     0.031 C 
ATOM     47  C   UNL     1      -2.771  11.114  10.675  1.00  0.00     0.029 A 
ATOM     48  C   UNL     1      -2.336   9.803  10.775  1.00  0.00     0.049 A 
ATOM     49  H   UNL     1      -1.253   8.651   9.377  1.00  0.00     0.167 HD
ATOM     50  C   UNL     1      -2.040   7.606  11.878  1.00  0.00     0.074 A 
ATOM     51  C   UNL     1      -2.215   6.686  12.981  1.00  0.00     0.031 C 
ATOM     52  C   UNL     1      -2.501   8.883  11.872  1.00  0.00     0.031 A 
BRANCH  39  53
ATOM     53  C   UNL     1      -1.251  11.940   6.644  1.00  0.00    -0.014 A 
ATOM     54  C   UNL     1      -2.054  12.003   5.491  1.00  0.00     0.010 A 
ATOM     55  C   UNL     1      -0.595  13.104   7.084  1.00  0.00     0.010 A 
ATOM     56  C   UNL     1      -2.172  13.197   4.774  1.00  0.00     0.020 A 
ATOM     57  C   UNL     1      -0.735  14.308   6.388  1.00  0.00     0.020 A 
ATOM     58  C   UNL     1      -1.512  14.342   5.228  1.00  0.00     0.054 A 
BRANCH  58  59
ATOM     59  S   UNL     1      -1.712  15.885   4.296  1.00  0.00     0.124 S 
ATOM     60  O   UNL     1      -0.962  15.599   3.075  1.00  0.00    -0.237 OA
ATOM     61  O   UNL     1      -3.161  15.974   4.136  1.00  0.00    -0.237 OA
ATOM     62  O   UNL     1      -1.121  16.897   5.167  1.00  0.00    -0.744 OA
ENDBRANCH  58  59
ENDBRANCH  39  53
BRANCH  40  63
ATOM     63  C   UNL     1      -0.224   3.277  11.492  1.00  0.00    -0.014 A 
ATOM     64  C   UNL     1      -1.326   2.481  11.856  1.00  0.00     0.010 A 
ATOM     65  C   UNL     1       1.066   2.870  11.882  1.00  0.00     0.010 A 
ATOM     66  C   UNL     1      -1.143   1.321  12.616  1.00  0.00     0.020 A 
ATOM     67  C   UNL     1       1.256   1.694  12.612  1.00  0.00     0.020 A 
ATOM     68  C   UNL     1       0.147   0.934  12.988  1.00  0.00     0.054 A 
BRANCH  68  69
ATOM     69  S   UNL     1       0.364  -0.595  13.942  1.00  0.00     0.124 S 
ATOM     70  O   UNL     1      -0.154  -0.212  15.251  1.00  0.00    -0.237 OA
ATOM     71  O   UNL     1      -0.449  -1.549  13.193  1.00  0.00    -0.237 OA
ATOM     72  O   UNL     1       1.805  -0.832  13.884  1.00  0.00    -0.744 OA
ENDBRANCH  68  69
ENDBRANCH  40  63
BRANCH  52  73
ATOM     73  C   UNL     1      -3.276   9.350  13.081  1.00  0.00    -0.014 A 
ATOM     74  C   UNL     1      -2.653   9.536  14.328  1.00  0.00     0.010 A 
ATOM     75  C   UNL     1      -4.649   9.631  12.957  1.00  0.00     0.010 A 
ATOM     76  C   UNL     1      -3.399   9.940  15.440  1.00  0.00     0.020 A 
ATOM     77  C   UNL     1      -5.392  10.069  14.058  1.00  0.00     0.020 A 
ATOM     78  C   UNL     1      -4.766  10.198  15.299  1.00  0.00     0.054 A 
BRANCH  78  79
ATOM     79  S   UNL     1      -5.711  10.726  16.755  1.00  0.00     0.124 S 
ATOM     80  O   UNL     1      -5.786   9.491  17.531  1.00  0.00    -0.237 OA
ATOM     81  O   UNL     1      -4.867  11.775  17.321  1.00  0.00    -0.237 OA
ATOM     82  O   UNL     1      -6.979  11.188  16.197  1.00  0.00    -0.744 OA
ENDBRANCH  78  79
ENDBRANCH  52  73
ENDBRANCH  26  27
ENDBRANCH  19  21
ENDBRANCH  18  19
ENDBRANCH  17  18
ENDBRANCH  16  17
ENDBRANCH  15  16
ENDBRANCH   1  15
TORSDOF 21
