REMARK SMILES C[C@@H](Sc1nc2c(cc1C#N)CCC2)C(=O)OCCOCCOCCOC(=O)c1ccc(-c2c3nc(c(-c4ccc(S(=O)(=O)[O-])cc4)c4ccc([nH]4)c(-c4ccc(S(=O)(=O)[O-])cc4)c4nc(c(-c5ccc(S(=O)(=O)[O-])cc5)c5ccc2[nH]5)C=C4)C=C3)cc1
REMARK SMILES IDX 21 1 20 2 19 3 18 4 17 5 15 6 16 7 2 8 1 9 3 10 4 11 5 12
REMARK SMILES IDX 9 13 6 14 8 15 7 16 14 17 12 18 13 19 10 20 11 21 22 22
REMARK SMILES IDX 23 23 24 24 25 25 26 26 27 27 28 28 29 29 30 30 88 31 31 32
REMARK SMILES IDX 87 33 32 34 33 35 34 36 81 37 35 38 86 39 80 40 82 41 36 42
REMARK SMILES IDX 85 43 79 44 78 45 37 47 67 48 48 49 66 50 49 51 52 52 65 53
REMARK SMILES IDX 83 54 50 55 51 56 64 58 84 59 53 60 38 61 39 62 47 63 40 64
REMARK SMILES IDX 46 65 41 66 42 67 43 68 44 69 45 70 68 71 69 72 77 73 70 74
REMARK SMILES IDX 76 75 71 76 72 77 73 78 74 79 75 80 54 81 55 82 63 83 56 84
REMARK SMILES IDX 62 85 57 86 58 87 59 88 60 89 61 90
REMARK H PARENT 82 46 52 57
REMARK Flexibility Score: inf
ROOT
ATOM      1  C   UNL     1      -2.280   1.767  -0.319  1.00  0.00     0.188 C 
ENDROOT
BRANCH   1   2
ATOM      2  O   UNL     1      -3.609   1.454  -0.701  1.00  0.00    -0.376 OA
BRANCH   2   3
ATOM      3  C   UNL     1      -3.973   0.100  -0.921  1.00  0.00     0.202 C 
BRANCH   3   4
ATOM      4  C   UNL     1      -3.081  -0.848  -1.750  1.00  0.00     0.261 C 
BRANCH   4   5
ATOM      5  O   UNL     1      -1.666  -0.845  -1.464  1.00  0.00    -0.462 OA
BRANCH   5   6
ATOM      6  C   UNL     1      -0.861  -0.286  -2.409  1.00  0.00     0.319 C 
ATOM      7  O   UNL     1      -1.293   0.214  -3.445  1.00  0.00    -0.251 OA
BRANCH   6   8
ATOM      8  C   UNL     1       0.645  -0.313  -2.069  1.00  0.00     0.160 C 
ATOM      9  C   UNL     1       1.064  -0.804  -0.676  1.00  0.00     0.032 C 
BRANCH   8  10
ATOM     10  S   UNL     1       1.416  -1.332  -3.387  1.00  0.00    -0.090 SA
BRANCH  10  11
ATOM     11  C   UNL     1       3.141  -1.227  -2.938  1.00  0.00     0.115 A 
ATOM     12  N   UNL     1       3.673   0.021  -2.841  1.00  0.00    -0.245 NA
ATOM     13  C   UNL     1       3.890  -2.402  -2.760  1.00  0.00     0.085 A 
ATOM     14  C   UNL     1       5.004   0.073  -2.655  1.00  0.00     0.045 A 
ATOM     15  C   UNL     1       5.270  -2.303  -2.563  1.00  0.00     0.028 A 
ATOM     16  C   UNL     1       5.828  -1.042  -2.551  1.00  0.00    -0.025 A 
ATOM     17  C   UNL     1       5.814   1.336  -2.525  1.00  0.00     0.057 C 
ATOM     18  C   UNL     1       7.263  -0.653  -2.425  1.00  0.00     0.038 C 
ATOM     19  C   UNL     1       7.213   0.813  -2.885  1.00  0.00     0.011 C 
BRANCH  13  20
ATOM     20  C   UNL     1       3.273  -3.692  -2.736  1.00  0.00     0.102 C 
ATOM     21  N   UNL     1       2.787  -4.748  -2.676  1.00  0.00    -0.192 NA
ENDBRANCH  13  20
ENDBRANCH  10  11
ENDBRANCH   8  10
ENDBRANCH   6   8
ENDBRANCH   5   6
ENDBRANCH   4   5
ENDBRANCH   3   4
ENDBRANCH   2   3
ENDBRANCH   1   2
BRANCH   1  22
ATOM     22  C   UNL     1      -1.586   0.916   0.757  1.00  0.00     0.188 C 
BRANCH  22  23
ATOM     23  O   UNL     1      -2.297  -0.207   1.208  1.00  0.00    -0.376 OA
BRANCH  23  24
ATOM     24  C   UNL     1      -2.953  -0.144   2.459  1.00  0.00     0.202 C 
BRANCH  24  25
ATOM     25  C   UNL     1      -3.494   1.160   3.088  1.00  0.00     0.261 C 
BRANCH  25  26
ATOM     26  O   UNL     1      -2.998   2.417   2.604  1.00  0.00    -0.460 OA
BRANCH  26  27
ATOM     27  C   UNL     1      -1.888   2.916   3.206  1.00  0.00     0.338 C 
ATOM     28  O   UNL     1      -1.262   2.403   4.116  1.00  0.00    -0.246 OA
BRANCH  27  29
ATOM     29  C   UNL     1      -1.406   4.069   2.405  1.00  0.00     0.060 A 
ATOM     30  C   UNL     1      -0.203   3.950   1.689  1.00  0.00     0.016 A 
ATOM     31  C   UNL     1      -2.132   5.257   2.360  1.00  0.00     0.016 A 
ATOM     32  C   UNL     1       0.281   5.020   0.933  1.00  0.00     0.010 A 
ATOM     33  C   UNL     1      -1.624   6.344   1.638  1.00  0.00     0.010 A 
ATOM     34  C   UNL     1      -0.401   6.242   0.946  1.00  0.00    -0.014 A 
BRANCH  34  35
ATOM     35  C   UNL     1       0.277   7.469   0.455  1.00  0.00     0.031 A 
ATOM     36  C   UNL     1       0.957   8.348   1.473  1.00  0.00     0.074 A 
ATOM     37  C   UNL     1       0.323   7.794  -0.851  1.00  0.00     0.049 A 
ATOM     38  N   UNL     1       1.536   9.509   1.314  1.00  0.00    -0.248 NA
ATOM     39  C   UNL     1       0.987   7.845   2.858  1.00  0.00     0.031 C 
ATOM     40  C   UNL     1      -0.217   6.992  -1.947  1.00  0.00     0.029 A 
ATOM     41  N   UNL     1       0.854   8.899  -1.473  1.00  0.00    -0.354 N 
ATOM     42  C   UNL     1       1.987   9.880   2.576  1.00  0.00     0.074 A 
ATOM     43  C   UNL     1       1.588   8.838   3.495  1.00  0.00     0.031 C 
ATOM     44  C   UNL     1       0.004   7.636  -3.107  1.00  0.00     0.029 A 
ATOM     45  C   UNL     1       0.661   8.915  -2.835  1.00  0.00     0.049 A 
ATOM     46  H   UNL     1       1.328   9.613  -0.989  1.00  0.00     0.167 HD
ATOM     47  C   UNL     1       2.681  10.984   2.938  1.00  0.00     0.031 A 
ATOM     48  C   UNL     1       0.957   9.862  -3.750  1.00  0.00     0.031 A 
ATOM     49  C   UNL     1       3.071  12.025   2.026  1.00  0.00     0.049 A 
ATOM     50  C   UNL     1       1.625  11.141  -3.301  1.00  0.00     0.074 A 
ATOM     51  C   UNL     1       3.771  13.187   2.301  1.00  0.00     0.029 A 
ATOM     52  N   UNL     1       2.797  12.034   0.668  1.00  0.00    -0.354 N 
ATOM     53  N   UNL     1       2.047  11.479  -2.105  1.00  0.00    -0.248 NA
ATOM     54  C   UNL     1       1.859  12.166  -4.330  1.00  0.00     0.031 C 
ATOM     55  C   UNL     1       3.860  13.930   1.122  1.00  0.00     0.029 A 
ATOM     56  C   UNL     1       3.284  13.198   0.097  1.00  0.00     0.049 A 
ATOM     57  H   UNL     1       2.326  11.319   0.181  1.00  0.00     0.167 HD
ATOM     58  C   UNL     1       2.617  12.742  -2.245  1.00  0.00     0.074 A 
ATOM     59  C   UNL     1       2.510  13.096  -3.644  1.00  0.00     0.031 C 
ATOM     60  C   UNL     1       3.172  13.541  -1.298  1.00  0.00     0.031 A 
BRANCH  47  61
ATOM     61  C   UNL     1       3.049  11.138   4.390  1.00  0.00    -0.014 A 
ATOM     62  C   UNL     1       4.028  10.320   4.981  1.00  0.00     0.010 A 
ATOM     63  C   UNL     1       2.461  12.164   5.153  1.00  0.00     0.010 A 
ATOM     64  C   UNL     1       4.399  10.513   6.313  1.00  0.00     0.020 A 
ATOM     65  C   UNL     1       2.853  12.380   6.477  1.00  0.00     0.020 A 
ATOM     66  C   UNL     1       3.815  11.547   7.051  1.00  0.00     0.054 A 
BRANCH  66  67
ATOM     67  S   UNL     1       4.361  11.804   8.760  1.00  0.00     0.124 S 
ATOM     68  O   UNL     1       3.886  10.588   9.416  1.00  0.00    -0.237 OA
ATOM     69  O   UNL     1       5.810  11.914   8.615  1.00  0.00    -0.237 OA
ATOM     70  O   UNL     1       3.681  13.033   9.163  1.00  0.00    -0.744 OA
ENDBRANCH  66  67
ENDBRANCH  47  61
BRANCH  48  71
ATOM     71  C   UNL     1       0.612   9.658  -5.188  1.00  0.00    -0.014 A 
ATOM     72  C   UNL     1       1.624   9.554  -6.159  1.00  0.00     0.010 A 
ATOM     73  C   UNL     1      -0.732   9.591  -5.600  1.00  0.00     0.010 A 
ATOM     74  C   UNL     1       1.301   9.404  -7.511  1.00  0.00     0.020 A 
ATOM     75  C   UNL     1      -1.060   9.406  -6.948  1.00  0.00     0.020 A 
ATOM     76  C   UNL     1      -0.040   9.324  -7.897  1.00  0.00     0.054 A 
BRANCH  76  77
ATOM     77  S   UNL     1      -0.428   9.088  -9.654  1.00  0.00     0.124 S 
ATOM     78  O   UNL     1       0.021  10.347 -10.238  1.00  0.00    -0.237 OA
ATOM     79  O   UNL     1       0.371   7.913  -9.993  1.00  0.00    -0.237 OA
ATOM     80  O   UNL     1      -1.874   8.875  -9.661  1.00  0.00    -0.744 OA
ENDBRANCH  76  77
ENDBRANCH  48  71
BRANCH  60  81
ATOM     81  C   UNL     1       3.728  14.873  -1.736  1.00  0.00    -0.014 A 
ATOM     82  C   UNL     1       2.880  15.913  -2.155  1.00  0.00     0.010 A 
ATOM     83  C   UNL     1       5.113  15.114  -1.657  1.00  0.00     0.010 A 
ATOM     84  C   UNL     1       3.407  17.155  -2.519  1.00  0.00     0.020 A 
ATOM     85  C   UNL     1       5.642  16.366  -1.985  1.00  0.00     0.020 A 
ATOM     86  C   UNL     1       4.785  17.375  -2.428  1.00  0.00     0.054 A 
BRANCH  86  87
ATOM     87  S   UNL     1       5.434  19.009  -2.872  1.00  0.00     0.124 S 
ATOM     88  O   UNL     1       5.184  19.056  -4.310  1.00  0.00    -0.237 OA
ATOM     89  O   UNL     1       4.615  19.907  -2.062  1.00  0.00    -0.237 OA
ATOM     90  O   UNL     1       6.842  18.942  -2.488  1.00  0.00    -0.744 OA
ENDBRANCH  86  87
ENDBRANCH  60  81
ENDBRANCH  34  35
ENDBRANCH  27  29
ENDBRANCH  26  27
ENDBRANCH  25  26
ENDBRANCH  24  25
ENDBRANCH  23  24
ENDBRANCH  22  23
ENDBRANCH   1  22
TORSDOF 23
