REMARK SMILES Cc1cc(NC(=O)CC2(CC(=O)OCCOCCOCCOC(=O)c3ccc(-c4c5nc(c(-c6ccc(S(=O)(=O)[O-])cc6)c6ccc([nH]6)c(-c6ccc(S(=O)(=O)[O-])cc6)c6nc(c(-c7ccc(S(=O)(=O)[O-])cc7)c7ccc4[nH]7)C=C6)C=C5)cc3)CCCC2)ccn1
REMARK SMILES IDX 17 1 16 2 15 3 14 4 13 5 11 6 12 7 10 8 9 9 85 10 88 11
REMARK SMILES IDX 86 12 87 13 8 14 6 15 5 16 7 18 4 19 1 20 2 21 3 22 91 23
REMARK SMILES IDX 90 24 89 25 18 26 19 27 20 28 21 29 22 30 23 31 24 32 25 33
REMARK SMILES IDX 26 34 84 35 27 36 83 37 28 38 29 39 30 40 77 41 31 42 82 43
REMARK SMILES IDX 76 44 78 45 32 46 81 47 75 48 74 49 33 51 63 52 44 53 62 54
REMARK SMILES IDX 45 55 48 56 61 57 79 58 46 59 47 60 60 62 80 63 49 64 34 65
REMARK SMILES IDX 35 66 43 67 36 68 42 69 37 70 38 71 39 72 40 73 41 74 64 75
REMARK SMILES IDX 65 76 73 77 66 78 72 79 67 80 68 81 69 82 70 83 71 84 50 85
REMARK SMILES IDX 51 86 59 87 52 88 58 89 53 90 54 91 55 92 56 93 57 94
REMARK H PARENT 5 17 78 50 48 61
REMARK Flexibility Score: inf
ROOT
ATOM      1  C   UNL     1      -7.364  -2.159   0.678  1.00  0.00     0.188 C 
ENDROOT
BRANCH   1   2
ATOM      2  O   UNL     1      -8.622  -2.017   1.315  1.00  0.00    -0.376 OA
BRANCH   2   3
ATOM      3  C   UNL     1      -8.987  -0.730   1.776  1.00  0.00     0.202 C 
BRANCH   3   4
ATOM      4  C   UNL     1      -8.082  -0.054   2.815  1.00  0.00     0.261 C 
BRANCH   4   5
ATOM      5  O   UNL     1      -6.659  -0.085   2.549  1.00  0.00    -0.463 OA
BRANCH   5   6
ATOM      6  C   UNL     1      -5.925  -0.812   3.429  1.00  0.00     0.306 C 
ATOM      7  O   UNL     1      -6.416  -1.450   4.357  1.00  0.00    -0.252 OA
BRANCH   6   8
ATOM      8  C   UNL     1      -4.411  -0.711   3.300  1.00  0.00     0.130 C 
BRANCH   8   9
ATOM      9  C   UNL     1      -3.603  -0.218   2.058  1.00  0.00    -0.011 C 
ATOM     10  C   UNL     1      -2.165   0.068   2.560  1.00  0.00     0.008 C 
ATOM     11  C   UNL     1      -4.005   1.188   1.565  1.00  0.00     0.008 C 
ATOM     12  C   UNL     1      -2.200   1.462   3.180  1.00  0.00     0.001 C 
ATOM     13  C   UNL     1      -3.378   2.181   2.534  1.00  0.00     0.001 C 
BRANCH   9  14
ATOM     14  C   UNL     1      -3.654  -1.232   0.886  1.00  0.00     0.108 C 
BRANCH  14  15
ATOM     15  C   UNL     1      -2.602  -2.319   0.768  1.00  0.00     0.224 C 
ATOM     16  N   UNL     1      -1.413  -2.175   0.121  1.00  0.00    -0.326 N 
ATOM     17  H   UNL     1      -0.946  -3.029  -0.032  1.00  0.00     0.169 HD
ATOM     18  O   UNL     1      -2.828  -3.421   1.280  1.00  0.00    -0.275 OA
BRANCH  16  19
ATOM     19  C   UNL     1      -0.714  -1.061  -0.375  1.00  0.00     0.044 A 
ATOM     20  C   UNL     1       2.889   0.035  -0.080  1.00  0.00     0.067 C 
ATOM     21  C   UNL     1       1.430   0.027  -0.428  1.00  0.00     0.039 A 
ATOM     22  C   UNL     1       0.675  -1.125  -0.242  1.00  0.00     0.049 A 
ATOM     23  N   UNL     1       0.877   1.203  -0.800  1.00  0.00    -0.261 NA
ATOM     24  C   UNL     1      -0.452   1.210  -1.033  1.00  0.00     0.113 A 
ATOM     25  C   UNL     1      -1.279   0.112  -0.851  1.00  0.00     0.046 A 
ENDBRANCH  16  19
ENDBRANCH  14  15
ENDBRANCH   9  14
ENDBRANCH   8   9
ENDBRANCH   6   8
ENDBRANCH   5   6
ENDBRANCH   4   5
ENDBRANCH   3   4
ENDBRANCH   2   3
ENDBRANCH   1   2
BRANCH   1  26
ATOM     26  C   UNL     1      -6.882  -1.058  -0.278  1.00  0.00     0.188 C 
BRANCH  26  27
ATOM     27  O   UNL     1      -7.907  -0.258  -0.846  1.00  0.00    -0.376 OA
BRANCH  27  28
ATOM     28  C   UNL     1      -7.495   0.415  -2.034  1.00  0.00     0.202 C 
BRANCH  28  29
ATOM     29  C   UNL     1      -7.936  -0.403  -3.254  1.00  0.00     0.261 C 
BRANCH  29  30
ATOM     30  O   UNL     1      -7.418  -1.754  -3.292  1.00  0.00    -0.460 OA
BRANCH  30  31
ATOM     31  C   UNL     1      -6.075  -1.896  -3.388  1.00  0.00     0.338 C 
ATOM     32  O   UNL     1      -5.265  -0.989  -3.523  1.00  0.00    -0.246 OA
BRANCH  31  33
ATOM     33  C   UNL     1      -5.698  -3.291  -3.030  1.00  0.00     0.060 A 
ATOM     34  C   UNL     1      -4.659  -3.479  -2.106  1.00  0.00     0.016 A 
ATOM     35  C   UNL     1      -6.342  -4.404  -3.570  1.00  0.00     0.016 A 
ATOM     36  C   UNL     1      -4.242  -4.765  -1.742  1.00  0.00     0.010 A 
ATOM     37  C   UNL     1      -5.905  -5.695  -3.225  1.00  0.00     0.010 A 
ATOM     38  C   UNL     1      -4.831  -5.889  -2.332  1.00  0.00    -0.014 A 
BRANCH  38  39
ATOM     39  C   UNL     1      -4.213  -7.240  -2.171  1.00  0.00     0.031 A 
ATOM     40  C   UNL     1      -3.417  -7.809  -3.322  1.00  0.00     0.074 A 
ATOM     41  C   UNL     1      -4.308  -7.956  -1.032  1.00  0.00     0.049 A 
ATOM     42  N   UNL     1      -2.885  -8.997  -3.462  1.00  0.00    -0.248 NA
ATOM     43  C   UNL     1      -3.189  -6.911  -4.465  1.00  0.00     0.031 C 
ATOM     44  C   UNL     1      -4.954  -7.514   0.202  1.00  0.00     0.029 A 
ATOM     45  N   UNL     1      -3.857  -9.224  -0.736  1.00  0.00    -0.354 N 
ATOM     46  C   UNL     1      -2.286  -9.000  -4.718  1.00  0.00     0.074 A 
ATOM     47  C   UNL     1      -2.534  -7.700  -5.304  1.00  0.00     0.031 C 
ATOM     48  C   UNL     1      -4.868  -8.498   1.117  1.00  0.00     0.029 A 
ATOM     49  C   UNL     1      -4.207  -9.660   0.522  1.00  0.00     0.049 A 
ATOM     50  H   UNL     1      -3.332  -9.768  -1.366  1.00  0.00     0.167 HD
ATOM     51  C   UNL     1      -1.594  -9.989  -5.333  1.00  0.00     0.031 A 
ATOM     52  C   UNL     1      -4.048 -10.862   1.118  1.00  0.00     0.031 A 
ATOM     53  C   UNL     1      -1.338 -11.284  -4.760  1.00  0.00     0.049 A 
ATOM     54  C   UNL     1      -3.365 -11.987   0.374  1.00  0.00     0.074 A 
ATOM     55  C   UNL     1      -0.645 -12.346  -5.317  1.00  0.00     0.029 A 
ATOM     56  N   UNL     1      -1.762 -11.700  -3.508  1.00  0.00    -0.354 N 
ATOM     57  N   UNL     1      -2.821 -11.980  -0.820  1.00  0.00    -0.248 NA
ATOM     58  C   UNL     1      -3.272 -13.285   1.062  1.00  0.00     0.031 C 
ATOM     59  C   UNL     1      -0.706 -13.425  -4.430  1.00  0.00     0.029 A 
ATOM     60  C   UNL     1      -1.370 -13.011  -3.287  1.00  0.00     0.049 A 
ATOM     61  H   UNL     1      -2.267 -11.146  -2.870  1.00  0.00     0.167 HD
ATOM     62  C   UNL     1      -2.295 -13.257  -1.008  1.00  0.00     0.074 A 
ATOM     63  C   UNL     1      -2.573 -14.007   0.197  1.00  0.00     0.031 C 
ATOM     64  C   UNL     1      -1.636 -13.757  -2.083  1.00  0.00     0.031 A 
BRANCH  51  65
ATOM     65  C   UNL     1      -1.100  -9.727  -6.733  1.00  0.00    -0.014 A 
ATOM     66  C   UNL     1      -0.042  -8.836  -6.986  1.00  0.00     0.010 A 
ATOM     67  C   UNL     1      -1.678 -10.427  -7.809  1.00  0.00     0.010 A 
ATOM     68  C   UNL     1       0.401  -8.621  -8.294  1.00  0.00     0.020 A 
ATOM     69  C   UNL     1      -1.216 -10.239  -9.114  1.00  0.00     0.020 A 
ATOM     70  C   UNL     1      -0.190  -9.323  -9.350  1.00  0.00     0.054 A 
BRANCH  70  71
ATOM     71  S   UNL     1       0.421  -9.039 -11.034  1.00  0.00     0.124 S 
ATOM     72  O   UNL     1      -0.064  -7.688 -11.306  1.00  0.00    -0.237 OA
ATOM     73  O   UNL     1       1.868  -9.165 -10.874  1.00  0.00    -0.237 OA
ATOM     74  O   UNL     1      -0.212 -10.097 -11.817  1.00  0.00    -0.744 OA
ENDBRANCH  70  71
ENDBRANCH  51  65
BRANCH  52  75
ATOM     75  C   UNL     1      -4.588 -11.101   2.490  1.00  0.00    -0.014 A 
ATOM     76  C   UNL     1      -3.729 -11.363   3.573  1.00  0.00     0.010 A 
ATOM     77  C   UNL     1      -5.978 -11.106   2.713  1.00  0.00     0.010 A 
ATOM     78  C   UNL     1      -4.247 -11.646   4.842  1.00  0.00     0.020 A 
ATOM     79  C   UNL     1      -6.500 -11.355   3.986  1.00  0.00     0.020 A 
ATOM     80  C   UNL     1      -5.631 -11.637   5.041  1.00  0.00     0.054 A 
BRANCH  80  81
ATOM     81  S   UNL     1      -6.280 -11.967   6.704  1.00  0.00     0.124 S 
ATOM     82  O   UNL     1      -6.018 -13.395   6.855  1.00  0.00    -0.237 OA
ATOM     83  O   UNL     1      -5.471 -11.084   7.539  1.00  0.00    -0.237 OA
ATOM     84  O   UNL     1      -7.690 -11.598   6.601  1.00  0.00    -0.744 OA
ENDBRANCH  80  81
ENDBRANCH  52  75
BRANCH  64  85
ATOM     85  C   UNL     1      -1.110 -15.170  -2.002  1.00  0.00    -0.014 A 
ATOM     86  C   UNL     1      -1.970 -16.283  -2.025  1.00  0.00     0.010 A 
ATOM     87  C   UNL     1       0.281 -15.388  -1.973  1.00  0.00     0.010 A 
ATOM     88  C   UNL     1      -1.450 -17.582  -1.991  1.00  0.00     0.020 A 
ATOM     89  C   UNL     1       0.806 -16.684  -1.970  1.00  0.00     0.020 A 
ATOM     90  C   UNL     1      -0.065 -17.774  -1.966  1.00  0.00     0.054 A 
BRANCH  90  91
ATOM     91  S   UNL     1       0.584 -19.469  -1.973  1.00  0.00     0.124 S 
ATOM     92  O   UNL     1       0.250 -19.930  -0.629  1.00  0.00    -0.237 OA
ATOM     93  O   UNL     1      -0.168 -20.096  -3.058  1.00  0.00    -0.237 OA
ATOM     94  O   UNL     1       2.012 -19.294  -2.233  1.00  0.00    -0.744 OA
ENDBRANCH  90  91
ENDBRANCH  64  85
ENDBRANCH  38  39
ENDBRANCH  31  33
ENDBRANCH  30  31
ENDBRANCH  29  30
ENDBRANCH  28  29
ENDBRANCH  27  28
ENDBRANCH  26  27
ENDBRANCH   1  26
TORSDOF 24
