REMARK SMILES O=C(OCCOCCOCCOC(=O)c1cc2c(Cl)c(C(F)(F)F)cnc2n1S(=O)(=O)c1ccccc1)c1ccc(-c2c3nc(c(-c4ccc(S(=O)(=O)[O-])cc4)c4ccc([nH]4)c(-c4ccc(S(=O)(=O)[O-])cc4)c4nc(c(-c5ccc(S(=O)(=O)[O-])cc5)c5ccc2[nH]5)C=C4)C=C3)cc1
REMARK SMILES IDX 7 1 6 2 5 3 4 4 3 5 2 6 1 7 38 8 39 9 97 10 40 11 96 12
REMARK SMILES IDX 41 13 42 14 43 15 90 16 44 17 95 18 89 19 91 20 45 21 94 22
REMARK SMILES IDX 88 23 87 24 46 26 76 27 57 28 75 29 58 30 61 31 74 32 92 33
REMARK SMILES IDX 59 34 60 35 73 37 93 38 62 39 47 40 48 41 56 42 49 43 55 44
REMARK SMILES IDX 50 45 51 46 52 47 53 48 54 49 77 50 78 51 86 52 79 53 85 54
REMARK SMILES IDX 80 55 81 56 82 57 83 58 84 59 63 60 64 61 72 62 65 63 71 64
REMARK SMILES IDX 66 65 67 66 68 67 69 68 70 69 8 70 9 71 10 72 11 73 12 74
REMARK SMILES IDX 13 75 14 76 15 77 16 78 28 79 17 80 27 81 18 82 26 83 19 84
REMARK SMILES IDX 20 85 25 86 29 87 30 88 31 89 32 90 33 91 37 92 34 93 36 94
REMARK SMILES IDX 35 95 21 96 22 97 23 98 24 99
REMARK H PARENT 91 25 61 36
REMARK Flexibility Score: inf
ROOT
ATOM      1  C   UNL     1       3.465   0.367  -1.596  1.00  0.00     0.188 C 
ENDROOT
BRANCH   1   2
ATOM      2  O   UNL     1       4.513  -0.146  -0.770  1.00  0.00    -0.376 OA
BRANCH   2   3
ATOM      3  C   UNL     1       4.773  -1.543  -0.728  1.00  0.00     0.202 C 
BRANCH   3   4
ATOM      4  C   UNL     1       4.290  -2.222   0.555  1.00  0.00     0.261 C 
BRANCH   4   5
ATOM      5  O   UNL     1       2.853  -2.285   0.648  1.00  0.00    -0.460 OA
BRANCH   5   6
ATOM      6  C   UNL     1       2.046  -1.200   0.691  1.00  0.00     0.338 C 
ATOM      7  O   UNL     1       1.025  -1.149   0.010  1.00  0.00    -0.246 OA
BRANCH   6   8
ATOM      8  C   UNL     1       2.246  -0.194   1.761  1.00  0.00     0.060 A 
ATOM      9  C   UNL     1       3.485   0.306   2.164  1.00  0.00     0.016 A 
ATOM     10  C   UNL     1       1.079   0.273   2.387  1.00  0.00     0.016 A 
ATOM     11  C   UNL     1       3.579   1.095   3.296  1.00  0.00     0.010 A 
ATOM     12  C   UNL     1       1.163   1.104   3.494  1.00  0.00     0.010 A 
ATOM     13  C   UNL     1       2.422   1.439   3.991  1.00  0.00    -0.014 A 
BRANCH  13  14
ATOM     14  C   UNL     1       2.603   2.089   5.279  1.00  0.00     0.031 A 
ATOM     15  C   UNL     1       3.134   3.474   5.282  1.00  0.00     0.074 A 
ATOM     16  C   UNL     1       2.259   1.475   6.426  1.00  0.00     0.049 A 
ATOM     17  N   UNL     1       4.210   3.922   5.846  1.00  0.00    -0.248 NA
ATOM     18  C   UNL     1       2.374   4.482   4.528  1.00  0.00     0.031 C 
ATOM     19  C   UNL     1       1.472   0.247   6.570  1.00  0.00     0.029 A 
ATOM     20  N   UNL     1       2.436   1.893   7.710  1.00  0.00    -0.354 N 
ATOM     21  C   UNL     1       4.173   5.301   5.676  1.00  0.00     0.074 A 
ATOM     22  C   UNL     1       3.083   5.582   4.772  1.00  0.00     0.031 C 
ATOM     23  C   UNL     1       1.037   0.156   7.843  1.00  0.00     0.029 A 
ATOM     24  C   UNL     1       1.614   1.243   8.617  1.00  0.00     0.049 A 
ATOM     25  H   UNL     1       3.084   2.588   7.969  1.00  0.00     0.167 HD
ATOM     26  C   UNL     1       4.889   6.170   6.439  1.00  0.00     0.031 A 
ATOM     27  C   UNL     1       1.337   1.640   9.880  1.00  0.00     0.031 A 
ATOM     28  C   UNL     1       5.964   5.564   7.165  1.00  0.00     0.049 A 
ATOM     29  C   UNL     1       2.422   2.552  10.318  1.00  0.00     0.074 A 
ATOM     30  C   UNL     1       7.112   4.880   6.823  1.00  0.00     0.029 A 
ATOM     31  N   UNL     1       5.784   5.359   8.511  1.00  0.00    -0.354 N 
ATOM     32  N   UNL     1       3.658   2.183  10.514  1.00  0.00    -0.248 NA
ATOM     33  C   UNL     1       2.210   3.990  10.242  1.00  0.00     0.031 C 
ATOM     34  C   UNL     1       7.332   3.954   7.883  1.00  0.00     0.029 A 
ATOM     35  C   UNL     1       6.301   4.122   8.810  1.00  0.00     0.049 A 
ATOM     36  H   UNL     1       5.363   5.983   9.145  1.00  0.00     0.167 HD
ATOM     37  C   UNL     1       4.421   3.300  10.208  1.00  0.00     0.074 A 
ATOM     38  C   UNL     1       3.477   4.408  10.184  1.00  0.00     0.031 C 
ATOM     39  C   UNL     1       5.697   3.183   9.736  1.00  0.00     0.031 A 
BRANCH  26  40
ATOM     40  C   UNL     1       4.346   7.528   6.773  1.00  0.00    -0.014 A 
ATOM     41  C   UNL     1       5.201   8.583   7.127  1.00  0.00     0.010 A 
ATOM     42  C   UNL     1       2.958   7.715   6.957  1.00  0.00     0.010 A 
ATOM     43  C   UNL     1       4.680   9.789   7.619  1.00  0.00     0.020 A 
ATOM     44  C   UNL     1       2.429   8.921   7.410  1.00  0.00     0.020 A 
ATOM     45  C   UNL     1       3.297   9.949   7.753  1.00  0.00     0.054 A 
BRANCH  45  46
ATOM     46  S   UNL     1       2.641  11.498   8.425  1.00  0.00     0.124 S 
ATOM     47  O   UNL     1       3.127  11.460   9.801  1.00  0.00    -0.237 OA
ATOM     48  O   UNL     1       3.262  12.498   7.561  1.00  0.00    -0.237 OA
ATOM     49  O   UNL     1       1.196  11.357   8.265  1.00  0.00    -0.744 OA
ENDBRANCH  45  46
ENDBRANCH  26  40
BRANCH  27  50
ATOM     50  C   UNL     1       0.021   1.546  10.565  1.00  0.00    -0.014 A 
ATOM     51  C   UNL     1      -0.108   1.904  11.919  1.00  0.00     0.010 A 
ATOM     52  C   UNL     1      -1.167   1.352   9.826  1.00  0.00     0.010 A 
ATOM     53  C   UNL     1      -1.372   2.129  12.488  1.00  0.00     0.020 A 
ATOM     54  C   UNL     1      -2.429   1.552  10.391  1.00  0.00     0.020 A 
ATOM     55  C   UNL     1      -2.523   1.976  11.711  1.00  0.00     0.054 A 
BRANCH  55  56
ATOM     56  S   UNL     1      -4.136   2.432  12.404  1.00  0.00     0.124 S 
ATOM     57  O   UNL     1      -4.227   1.573  13.581  1.00  0.00    -0.237 OA
ATOM     58  O   UNL     1      -3.964   3.857  12.671  1.00  0.00    -0.237 OA
ATOM     59  O   UNL     1      -5.077   2.112  11.331  1.00  0.00    -0.744 OA
ENDBRANCH  55  56
ENDBRANCH  27  50
BRANCH  39  60
ATOM     60  C   UNL     1       6.408   1.862   9.905  1.00  0.00    -0.014 A 
ATOM     61  C   UNL     1       5.990   0.683   9.258  1.00  0.00     0.010 A 
ATOM     62  C   UNL     1       7.635   1.853  10.595  1.00  0.00     0.010 A 
ATOM     63  C   UNL     1       6.780  -0.474   9.301  1.00  0.00     0.020 A 
ATOM     64  C   UNL     1       8.433   0.705  10.630  1.00  0.00     0.020 A 
ATOM     65  C   UNL     1       8.004  -0.452   9.976  1.00  0.00     0.054 A 
BRANCH  65  66
ATOM     66  S   UNL     1       9.056  -1.931   9.944  1.00  0.00     0.124 S 
ATOM     67  O   UNL     1       8.215  -2.940  10.581  1.00  0.00    -0.237 OA
ATOM     68  O   UNL     1       9.293  -2.122   8.514  1.00  0.00    -0.237 OA
ATOM     69  O   UNL     1      10.237  -1.538  10.712  1.00  0.00    -0.744 OA
ENDBRANCH  65  66
ENDBRANCH  39  60
ENDBRANCH  13  14
ENDBRANCH   6   8
ENDBRANCH   5   6
ENDBRANCH   4   5
ENDBRANCH   3   4
ENDBRANCH   2   3
ENDBRANCH   1   2
BRANCH   1  70
ATOM     70  C   UNL     1       2.769  -0.544  -2.621  1.00  0.00     0.188 C 
BRANCH  70  71
ATOM     71  O   UNL     1       3.590  -1.207  -3.583  1.00  0.00    -0.376 OA
BRANCH  71  72
ATOM     72  C   UNL     1       4.708  -0.503  -4.111  1.00  0.00     0.202 C 
BRANCH  72  73
ATOM     73  C   UNL     1       4.333   0.540  -5.156  1.00  0.00     0.261 C 
BRANCH  73  74
ATOM     74  O   UNL     1       3.858   1.736  -4.520  1.00  0.00    -0.459 OA
BRANCH  74  75
ATOM     75  C   UNL     1       2.569   2.079  -4.752  1.00  0.00     0.356 C 
ATOM     76  O   UNL     1       1.750   1.428  -5.377  1.00  0.00    -0.244 OA
BRANCH  75  77
ATOM     77  C   UNL     1       2.265   3.291  -4.041  1.00  0.00     0.145 A 
ATOM     78  C   UNL     1       1.239   3.490  -3.130  1.00  0.00     0.048 A 
ATOM     79  N   UNL     1       2.907   4.504  -4.184  1.00  0.00    -0.209 N 
ATOM     80  C   UNL     1       1.241   4.858  -2.743  1.00  0.00     0.040 A 
ATOM     81  C   UNL     1       2.289   5.471  -3.430  1.00  0.00     0.156 A 
ATOM     82  C   UNL     1       0.469   5.685  -1.906  1.00  0.00     0.065 A 
ATOM     83  N   UNL     1       2.593   6.781  -3.379  1.00  0.00    -0.237 NA
ATOM     84  Cl  UNL     1      -0.766   4.889  -1.031  1.00  0.00    -0.083 Cl
ATOM     85  C   UNL     1       0.713   7.051  -1.846  1.00  0.00     0.093 A 
ATOM     86  C   UNL     1       1.779   7.524  -2.594  1.00  0.00     0.128 A 
BRANCH  79  87
ATOM     87  S   UNL     1       4.382   4.695  -4.998  1.00  0.00     0.270 S 
ATOM     88  O   UNL     1       5.396   4.389  -4.007  1.00  0.00    -0.201 OA
ATOM     89  O   UNL     1       4.247   3.902  -6.209  1.00  0.00    -0.201 OA
BRANCH  87  90
ATOM     90  C   UNL     1       4.569   6.375  -5.511  1.00  0.00     0.088 A 
ATOM     91  C   UNL     1       4.133   6.756  -6.785  1.00  0.00     0.022 A 
ATOM     92  C   UNL     1       5.247   7.283  -4.691  1.00  0.00     0.022 A 
ATOM     93  C   UNL     1       4.341   8.064  -7.219  1.00  0.00     0.001 A 
ATOM     94  C   UNL     1       5.435   8.594  -5.126  1.00  0.00     0.001 A 
ATOM     95  C   UNL     1       4.982   8.983  -6.387  1.00  0.00     0.000 A 
ENDBRANCH  87  90
ENDBRANCH  79  87
BRANCH  85  96
ATOM     96  C   UNL     1      -0.121   7.990  -1.041  1.00  0.00     0.419 C 
ATOM     97  F   UNL     1      -1.451   7.883  -1.312  1.00  0.00    -0.166 F 
ATOM     98  F   UNL     1       0.019   7.814   0.297  1.00  0.00    -0.166 F 
ATOM     99  F   UNL     1       0.183   9.299  -1.278  1.00  0.00    -0.166 F 
ENDBRANCH  85  96
ENDBRANCH  75  77
ENDBRANCH  74  75
ENDBRANCH  73  74
ENDBRANCH  72  73
ENDBRANCH  71  72
ENDBRANCH  70  71
ENDBRANCH   1  70
TORSDOF 23
