REMARK SMILES CS(=O)(=O)c1ccc(C2=NN(c3ccc(C(=O)OCCOCCOCCOC(=O)c4ccc(-c5c6nc(c(-c7ccc(S(=O)(=O)[O-])cc7)c7ccc([nH]7)c(-c7ccc(S(=O)(=O)[O-])cc7)c7nc(c(-c8ccc(S(=O)(=O)[O-])cc8)c8ccc5[nH]8)C=C7)C=C6)cc4)cc3)[C@H](c3ccc(F)cc3)C2)cc1
REMARK SMILES IDX 22 1 21 2 20 3 19 4 18 5 16 6 17 7 15 8 12 9 13 10 91 11
REMARK SMILES IDX 14 12 90 13 11 14 9 15 10 16 100 17 92 18 8 19 5 20 6 21
REMARK SMILES IDX 102 22 7 23 101 24 2 25 1 26 3 27 4 28 93 29 94 30 99 31
REMARK SMILES IDX 95 32 98 33 96 34 97 35 23 36 24 37 25 38 26 39 27 40 28 41
REMARK SMILES IDX 29 42 30 43 31 44 89 45 32 46 88 47 33 48 34 49 35 50 82 51
REMARK SMILES IDX 36 52 87 53 81 54 83 55 37 56 86 57 80 58 79 59 38 61 68 62
REMARK SMILES IDX 49 63 67 64 50 65 53 66 66 67 84 68 51 69 52 70 65 72 85 73
REMARK SMILES IDX 54 74 39 75 40 76 48 77 41 78 47 79 42 80 43 81 44 82 45 83
REMARK SMILES IDX 46 84 69 85 70 86 78 87 71 88 77 89 72 90 73 91 74 92 75 93
REMARK SMILES IDX 76 94 55 95 56 96 64 97 57 98 63 99 58 100 59 101 60 102
REMARK SMILES IDX 61 103 62 104
REMARK H PARENT 83 60 53 71
REMARK Flexibility Score: inf
ROOT
ATOM      1  C   UNL     1      -0.159 -13.563  -5.353  1.00  0.00     0.188 C 
ENDROOT
BRANCH   1   2
ATOM      2  O   UNL     1      -0.236 -14.882  -5.846  1.00  0.00    -0.376 OA
BRANCH   2   3
ATOM      3  C   UNL     1       0.443 -15.944  -5.197  1.00  0.00     0.202 C 
BRANCH   3   4
ATOM      4  C   UNL     1       1.554 -15.781  -4.145  1.00  0.00     0.261 C 
BRANCH   4   5
ATOM      5  O   UNL     1       1.504 -14.610  -3.328  1.00  0.00    -0.460 OA
BRANCH   5   6
ATOM      6  C   UNL     1       2.513 -13.722  -3.521  1.00  0.00     0.338 C 
ATOM      7  O   UNL     1       3.461 -13.853  -4.277  1.00  0.00    -0.246 OA
BRANCH   6   8
ATOM      8  C   UNL     1       2.252 -12.468  -2.774  1.00  0.00     0.060 A 
ATOM      9  C   UNL     1       2.036 -10.083  -1.311  1.00  0.00     0.060 A 
ATOM     10  C   UNL     1       2.577 -10.070  -2.602  1.00  0.00     0.029 A 
ATOM     11  C   UNL     1       1.466 -11.273  -0.832  1.00  0.00     0.029 A 
ATOM     12  C   UNL     1       2.692 -11.259  -3.329  1.00  0.00     0.018 A 
ATOM     13  C   UNL     1       1.592 -12.468  -1.543  1.00  0.00     0.018 A 
BRANCH   9  14
ATOM     14  N   UNL     1       2.252  -9.029  -0.416  1.00  0.00    -0.257 N 
ATOM     15  C   UNL     1       2.353  -6.943   0.008  1.00  0.00     0.071 C 
ATOM     16  N   UNL     1       1.615  -7.838  -0.573  1.00  0.00    -0.176 NA
ATOM     17  C   UNL     1       3.687  -7.423   0.515  1.00  0.00     0.091 C 
ATOM     18  C   UNL     1       3.571  -8.926   0.235  1.00  0.00     0.144 C 
BRANCH  15  19
ATOM     19  C   UNL     1       1.925  -5.544   0.218  1.00  0.00    -0.002 A 
ATOM     20  C   UNL     1       1.078  -2.954   0.823  1.00  0.00     0.067 A 
ATOM     21  C   UNL     1       0.163  -4.009   0.863  1.00  0.00     0.021 A 
ATOM     22  C   UNL     1       2.413  -3.183   0.471  1.00  0.00     0.021 A 
ATOM     23  C   UNL     1       0.587  -5.303   0.551  1.00  0.00     0.011 A 
ATOM     24  C   UNL     1       2.837  -4.483   0.170  1.00  0.00     0.011 A 
BRANCH  20  25
ATOM     25  S   UNL     1       0.550  -1.318   1.284  1.00  0.00     0.175 S 
ATOM     26  C   UNL     1       1.052  -0.268  -0.053  1.00  0.00     0.163 C 
ATOM     27  O   UNL     1       1.318  -0.956   2.460  1.00  0.00    -0.224 OA
ATOM     28  O   UNL     1      -0.900  -1.318   1.314  1.00  0.00    -0.224 OA
ENDBRANCH  20  25
ENDBRANCH  15  19
BRANCH  18  29
ATOM     29  C   UNL     1       3.670  -9.895   1.413  1.00  0.00    -0.023 A 
ATOM     30  C   UNL     1       3.447  -9.534   2.751  1.00  0.00     0.009 A 
ATOM     31  C   UNL     1       3.929 -11.257   1.138  1.00  0.00     0.009 A 
ATOM     32  C   UNL     1       3.461 -10.500   3.764  1.00  0.00     0.039 A 
ATOM     33  C   UNL     1       3.886 -12.228   2.139  1.00  0.00     0.039 A 
ATOM     34  C   UNL     1       3.656 -11.838   3.447  1.00  0.00     0.123 A 
ATOM     35  F   UNL     1       3.614 -12.763   4.415  1.00  0.00    -0.207 F 
ENDBRANCH  18  29
ENDBRANCH   9  14
ENDBRANCH   6   8
ENDBRANCH   5   6
ENDBRANCH   4   5
ENDBRANCH   3   4
ENDBRANCH   2   3
ENDBRANCH   1   2
BRANCH   1  36
ATOM     36  C   UNL     1      -0.955 -13.209  -4.080  1.00  0.00     0.188 C 
BRANCH  36  37
ATOM     37  O   UNL     1      -1.543 -14.229  -3.302  1.00  0.00    -0.376 OA
BRANCH  37  38
ATOM     38  C   UNL     1      -2.569 -15.033  -3.861  1.00  0.00     0.202 C 
BRANCH  38  39
ATOM     39  C   UNL     1      -3.579 -14.543  -4.916  1.00  0.00     0.261 C 
BRANCH  39  40
ATOM     40  O   UNL     1      -3.115 -13.597  -5.882  1.00  0.00    -0.460 OA
BRANCH  40  41
ATOM     41  C   UNL     1      -3.574 -12.330  -5.725  1.00  0.00     0.338 C 
ATOM     42  O   UNL     1      -4.311 -11.913  -4.843  1.00  0.00    -0.246 OA
BRANCH  41  43
ATOM     43  C   UNL     1      -2.908 -11.462  -6.709  1.00  0.00     0.060 A 
ATOM     44  C   UNL     1      -1.981 -10.501  -6.274  1.00  0.00     0.016 A 
ATOM     45  C   UNL     1      -3.224 -11.585  -8.060  1.00  0.00     0.016 A 
ATOM     46  C   UNL     1      -1.365  -9.655  -7.197  1.00  0.00     0.010 A 
ATOM     47  C   UNL     1      -2.631 -10.718  -8.977  1.00  0.00     0.010 A 
ATOM     48  C   UNL     1      -1.717  -9.737  -8.549  1.00  0.00    -0.014 A 
BRANCH  48  49
ATOM     49  C   UNL     1      -1.297  -8.697  -9.516  1.00  0.00     0.031 A 
ATOM     50  C   UNL     1      -2.284  -7.618  -9.861  1.00  0.00     0.074 A 
ATOM     51  C   UNL     1      -0.103  -8.752 -10.130  1.00  0.00     0.049 A 
ATOM     52  N   UNL     1      -2.243  -6.733 -10.821  1.00  0.00    -0.248 NA
ATOM     53  C   UNL     1      -3.487  -7.539  -9.014  1.00  0.00     0.031 C 
ATOM     54  C   UNL     1       0.960  -9.712  -9.837  1.00  0.00     0.029 A 
ATOM     55  N   UNL     1       0.400  -7.994 -11.159  1.00  0.00    -0.354 N 
ATOM     56  C   UNL     1      -3.426  -6.012 -10.715  1.00  0.00     0.074 A 
ATOM     57  C   UNL     1      -4.169  -6.571  -9.607  1.00  0.00     0.031 C 
ATOM     58  C   UNL     1       1.979  -9.505 -10.690  1.00  0.00     0.029 A 
ATOM     59  C   UNL     1       1.618  -8.436 -11.620  1.00  0.00     0.049 A 
ATOM     60  H   UNL     1      -0.066  -7.211 -11.530  1.00  0.00     0.167 HD
ATOM     61  C   UNL     1      -3.857  -4.982 -11.480  1.00  0.00     0.031 A 
ATOM     62  C   UNL     1       2.334  -8.051 -12.697  1.00  0.00     0.031 A 
ATOM     63  C   UNL     1      -3.118  -4.449 -12.593  1.00  0.00     0.049 A 
ATOM     64  C   UNL     1       1.794  -6.962 -13.591  1.00  0.00     0.074 A 
ATOM     65  C   UNL     1      -3.460  -3.400 -13.427  1.00  0.00     0.029 A 
ATOM     66  N   UNL     1      -1.894  -4.930 -13.033  1.00  0.00    -0.354 N 
ATOM     67  N   UNL     1       0.679  -6.279 -13.480  1.00  0.00    -0.248 NA
ATOM     68  C   UNL     1       2.610  -6.590 -14.757  1.00  0.00     0.031 C 
ATOM     69  C   UNL     1      -2.474  -3.289 -14.411  1.00  0.00     0.029 A 
ATOM     70  C   UNL     1      -1.479  -4.215 -14.142  1.00  0.00     0.049 A 
ATOM     71  H   UNL     1      -1.395  -5.670 -12.618  1.00  0.00     0.167 HD
ATOM     72  C   UNL     1       0.682  -5.369 -14.534  1.00  0.00     0.074 A 
ATOM     73  C   UNL     1       1.908  -5.589 -15.272  1.00  0.00     0.031 C 
ATOM     74  C   UNL     1      -0.243  -4.431 -14.854  1.00  0.00     0.031 A 
BRANCH  61  75
ATOM     75  C   UNL     1      -5.208  -4.397 -11.166  1.00  0.00    -0.014 A 
ATOM     76  C   UNL     1      -5.433  -3.658  -9.991  1.00  0.00     0.010 A 
ATOM     77  C   UNL     1      -6.263  -4.559 -12.084  1.00  0.00     0.010 A 
ATOM     78  C   UNL     1      -6.696  -3.126  -9.721  1.00  0.00     0.020 A 
ATOM     79  C   UNL     1      -7.519  -4.000 -11.833  1.00  0.00     0.020 A 
ATOM     80  C   UNL     1      -7.731  -3.301 -10.644  1.00  0.00     0.054 A 
BRANCH  80  81
ATOM     81  S   UNL     1      -9.352  -2.574 -10.279  1.00  0.00     0.124 S 
ATOM     82  O   UNL     1      -9.821  -3.419  -9.184  1.00  0.00    -0.237 OA
ATOM     83  O   UNL     1      -9.011  -1.202  -9.912  1.00  0.00    -0.237 OA
ATOM     84  O   UNL     1     -10.088  -2.716 -11.533  1.00  0.00    -0.744 OA
ENDBRANCH  80  81
ENDBRANCH  61  75
BRANCH  62  85
ATOM     85  C   UNL     1       3.629  -8.718 -13.009  1.00  0.00    -0.014 A 
ATOM     86  C   UNL     1       4.840  -8.011 -12.904  1.00  0.00     0.010 A 
ATOM     87  C   UNL     1       3.661 -10.065 -13.417  1.00  0.00     0.010 A 
ATOM     88  C   UNL     1       6.054  -8.630 -13.217  1.00  0.00     0.020 A 
ATOM     89  C   UNL     1       4.876 -10.697 -13.700  1.00  0.00     0.020 A 
ATOM     90  C   UNL     1       6.064  -9.972 -13.608  1.00  0.00     0.054 A 
BRANCH  90  91
ATOM     91  S   UNL     1       7.658 -10.765 -13.958  1.00  0.00     0.124 S 
ATOM     92  O   UNL     1       8.050 -10.122 -15.209  1.00  0.00    -0.237 OA
ATOM     93  O   UNL     1       8.452 -10.405 -12.786  1.00  0.00    -0.237 OA
ATOM     94  O   UNL     1       7.321 -12.183 -14.062  1.00  0.00    -0.744 OA
ENDBRANCH  90  91
ENDBRANCH  62  85
BRANCH  74  95
ATOM     95  C   UNL     1       0.051  -3.509 -16.010  1.00  0.00    -0.014 A 
ATOM     96  C   UNL     1      -0.012  -3.949 -17.343  1.00  0.00     0.010 A 
ATOM     97  C   UNL     1       0.289  -2.145 -15.749  1.00  0.00     0.010 A 
ATOM     98  C   UNL     1       0.167  -3.043 -18.394  1.00  0.00     0.020 A 
ATOM     99  C   UNL     1       0.439  -1.233 -16.796  1.00  0.00     0.020 A 
ATOM    100  C   UNL     1       0.382  -1.689 -18.113  1.00  0.00     0.054 A 
BRANCH 100 101
ATOM    101  S   UNL     1       0.526  -0.523 -19.495  1.00  0.00     0.124 S 
ATOM    102  O   UNL     1       1.827  -0.874 -20.057  1.00  0.00    -0.237 OA
ATOM    103  O   UNL     1      -0.629  -0.864 -20.322  1.00  0.00    -0.237 OA
ATOM    104  O   UNL     1       0.459   0.788 -18.852  1.00  0.00    -0.744 OA
ENDBRANCH 100 101
ENDBRANCH  74  95
ENDBRANCH  48  49
ENDBRANCH  41  43
ENDBRANCH  40  41
ENDBRANCH  39  40
ENDBRANCH  38  39
ENDBRANCH  37  38
ENDBRANCH  36  37
ENDBRANCH   1  36
TORSDOF 24
