REMARK SMILES N#Cc1ccc2c(c1)C=C(C(=O)OCCOCCOCCOC(=O)c1ccc(-c3c4nc(c(-c5ccc(S(=O)(=O)[O-])cc5)c5ccc([nH]5)c(-c5ccc(S(=O)(=O)[O-])cc5)c5nc(c(-c6ccc(S(=O)(=O)[O-])cc6)c6ccc3[nH]6)C=C5)C=C4)cc1)[C@@H](C(F)(F)F)O2
REMARK SMILES IDX 18 1 17 2 16 3 15 4 14 5 13 6 11 7 12 8 10 9 3 10 4 11 8 12
REMARK SMILES IDX 5 13 7 14 6 15 9 16 90 17 85 18 2 19 1 20 86 21 87 22 88 23
REMARK SMILES IDX 89 24 19 25 20 26 21 27 22 28 23 29 24 30 25 31 26 32 84 33
REMARK SMILES IDX 27 34 83 35 28 36 29 37 30 38 77 39 31 40 82 41 76 42 78 43
REMARK SMILES IDX 32 44 81 45 75 46 74 47 33 49 63 50 44 51 62 52 45 53 48 54
REMARK SMILES IDX 61 55 79 56 46 57 47 58 60 60 80 61 49 62 34 63 35 64 43 65
REMARK SMILES IDX 36 66 42 67 37 68 38 69 39 70 40 71 41 72 64 73 65 74 73 75
REMARK SMILES IDX 66 76 72 77 67 78 68 79 69 80 70 81 71 82 50 83 51 84 59 85
REMARK SMILES IDX 52 86 58 87 53 88 54 89 55 90 56 91 57 92
REMARK H PARENT 78 48 48 59
REMARK Flexibility Score: inf
ROOT
ATOM      1  C   UNL     1       8.806  -3.904   2.198  1.00  0.00     0.188 C 
ENDROOT
BRANCH   1   2
ATOM      2  C   UNL     1       8.360  -5.192   1.476  1.00  0.00     0.188 C 
BRANCH   2   3
ATOM      3  O   UNL     1       9.328  -6.208   1.382  1.00  0.00    -0.376 OA
BRANCH   3   4
ATOM      4  C   UNL     1      10.298  -6.191   0.350  1.00  0.00     0.202 C 
BRANCH   4   5
ATOM      5  C   UNL     1      10.492  -5.072  -0.697  1.00  0.00     0.261 C 
BRANCH   5   6
ATOM      6  O   UNL     1       9.790  -3.841  -0.508  1.00  0.00    -0.460 OA
BRANCH   6   7
ATOM      7  C   UNL     1       8.708  -3.649  -1.302  1.00  0.00     0.338 C 
ATOM      8  O   UNL     1       8.291  -4.408  -2.158  1.00  0.00    -0.246 OA
BRANCH   7   9
ATOM      9  C   UNL     1       7.994  -2.430  -0.865  1.00  0.00     0.087 C 
ATOM     10  C   UNL     1       3.846  -0.125  -0.053  1.00  0.00     0.053 A 
ATOM     11  C   UNL     1       4.552   1.075   0.076  1.00  0.00     0.023 A 
ATOM     12  C   UNL     1       4.543  -1.324  -0.247  1.00  0.00     0.031 A 
ATOM     13  C   UNL     1       5.947   1.074   0.035  1.00  0.00     0.048 A 
ATOM     14  C   UNL     1       5.941  -1.317  -0.342  1.00  0.00     0.019 A 
ATOM     15  C   UNL     1       6.640  -0.119  -0.173  1.00  0.00     0.128 A 
ATOM     16  C   UNL     1       6.668  -2.526  -0.694  1.00  0.00     0.027 C 
ATOM     17  O   UNL     1       8.000  -0.019  -0.208  1.00  0.00    -0.475 OA
ATOM     18  C   UNL     1       8.783  -1.172  -0.618  1.00  0.00     0.316 C 
BRANCH  10  19
ATOM     19  C   UNL     1       2.414  -0.111  -0.021  1.00  0.00     0.099 C 
ATOM     20  N   UNL     1       1.253  -0.065   0.001  1.00  0.00    -0.192 NA
ENDBRANCH  10  19
BRANCH  18  21
ATOM     21  C   UNL     1       9.627  -0.774  -1.836  1.00  0.00     0.430 C 
ATOM     22  F   UNL     1      10.275   0.397  -1.623  1.00  0.00    -0.167 F 
ATOM     23  F   UNL     1      10.579  -1.696  -2.112  1.00  0.00    -0.167 F 
ATOM     24  F   UNL     1       8.872  -0.623  -2.947  1.00  0.00    -0.167 F 
ENDBRANCH  18  21
ENDBRANCH   7   9
ENDBRANCH   6   7
ENDBRANCH   5   6
ENDBRANCH   4   5
ENDBRANCH   3   4
ENDBRANCH   2   3
ENDBRANCH   1   2
BRANCH   1  25
ATOM     25  O   UNL     1      10.177  -3.707   2.471  1.00  0.00    -0.376 OA
BRANCH  25  26
ATOM     26  C   UNL     1      10.849  -4.609   3.339  1.00  0.00     0.202 C 
BRANCH  26  27
ATOM     27  C   UNL     1      10.171  -5.421   4.468  1.00  0.00     0.261 C 
BRANCH  27  28
ATOM     28  O   UNL     1       8.799  -5.803   4.303  1.00  0.00    -0.460 OA
BRANCH  28  29
ATOM     29  C   UNL     1       7.883  -5.086   5.006  1.00  0.00     0.338 C 
ATOM     30  O   UNL     1       8.101  -4.141   5.743  1.00  0.00    -0.246 OA
BRANCH  29  31
ATOM     31  C   UNL     1       6.533  -5.493   4.553  1.00  0.00     0.060 A 
ATOM     32  C   UNL     1       6.081  -6.792   4.778  1.00  0.00     0.016 A 
ATOM     33  C   UNL     1       5.727  -4.574   3.862  1.00  0.00     0.016 A 
ATOM     34  C   UNL     1       4.815  -7.167   4.317  1.00  0.00     0.010 A 
ATOM     35  C   UNL     1       4.470  -4.959   3.382  1.00  0.00     0.010 A 
ATOM     36  C   UNL     1       3.995  -6.255   3.624  1.00  0.00    -0.014 A 
BRANCH  36  37
ATOM     37  C   UNL     1       2.587  -6.619   3.313  1.00  0.00     0.031 A 
ATOM     38  C   UNL     1       2.132  -6.954   1.922  1.00  0.00     0.074 A 
ATOM     39  C   UNL     1       1.707  -6.658   4.334  1.00  0.00     0.049 A 
ATOM     40  N   UNL     1       0.962  -7.391   1.530  1.00  0.00    -0.248 NA
ATOM     41  C   UNL     1       3.102  -6.774   0.831  1.00  0.00     0.031 C 
ATOM     42  C   UNL     1       2.034  -6.329   5.723  1.00  0.00     0.029 A 
ATOM     43  N   UNL     1       0.380  -7.008   4.378  1.00  0.00    -0.354 N 
ATOM     44  C   UNL     1       1.056  -7.564   0.154  1.00  0.00     0.074 A 
ATOM     45  C   UNL     1       2.384  -7.132  -0.229  1.00  0.00     0.031 C 
ATOM     46  C   UNL     1       0.955  -6.543   6.489  1.00  0.00     0.029 A 
ATOM     47  C   UNL     1      -0.156  -6.977   5.645  1.00  0.00     0.049 A 
ATOM     48  H   UNL     1      -0.138  -7.258   3.579  1.00  0.00     0.167 HD
ATOM     49  C   UNL     1       0.125  -8.061  -0.697  1.00  0.00     0.031 A 
ATOM     50  C   UNL     1      -1.396  -7.270   6.090  1.00  0.00     0.031 A 
ATOM     51  C   UNL     1      -1.198  -8.481  -0.295  1.00  0.00     0.049 A 
ATOM     52  C   UNL     1      -2.423  -7.775   5.115  1.00  0.00     0.074 A 
ATOM     53  C   UNL     1      -2.191  -9.040  -1.083  1.00  0.00     0.029 A 
ATOM     54  N   UNL     1      -1.720  -8.388   0.988  1.00  0.00    -0.354 N 
ATOM     55  N   UNL     1      -2.286  -8.022   3.834  1.00  0.00    -0.248 NA
ATOM     56  C   UNL     1      -3.764  -8.063   5.642  1.00  0.00     0.031 C 
ATOM     57  C   UNL     1      -3.337  -9.195  -0.304  1.00  0.00     0.029 A 
ATOM     58  C   UNL     1      -3.033  -8.837   1.000  1.00  0.00     0.049 A 
ATOM     59  H   UNL     1      -1.231  -8.053   1.774  1.00  0.00     0.167 HD
ATOM     60  C   UNL     1      -3.514  -8.516   3.408  1.00  0.00     0.074 A 
ATOM     61  C   UNL     1      -4.374  -8.559   4.572  1.00  0.00     0.031 C 
ATOM     62  C   UNL     1      -3.891  -8.892   2.161  1.00  0.00     0.031 A 
BRANCH  49  63
ATOM     63  C   UNL     1       0.482  -8.223  -2.158  1.00  0.00    -0.014 A 
ATOM     64  C   UNL     1      -0.252  -7.534  -3.143  1.00  0.00     0.010 A 
ATOM     65  C   UNL     1       1.414  -9.195  -2.565  1.00  0.00     0.010 A 
ATOM     66  C   UNL     1      -0.105  -7.851  -4.497  1.00  0.00     0.020 A 
ATOM     67  C   UNL     1       1.592  -9.490  -3.921  1.00  0.00     0.020 A 
ATOM     68  C   UNL     1       0.808  -8.839  -4.876  1.00  0.00     0.054 A 
BRANCH  68  69
ATOM     69  S   UNL     1       0.929  -9.291  -6.630  1.00  0.00     0.124 S 
ATOM     70  O   UNL     1      -0.347  -9.958  -6.867  1.00  0.00    -0.237 OA
ATOM     71  O   UNL     1       1.096  -7.994  -7.280  1.00  0.00    -0.237 OA
ATOM     72  O   UNL     1       2.104 -10.159  -6.680  1.00  0.00    -0.744 OA
ENDBRANCH  68  69
ENDBRANCH  49  63
BRANCH  50  73
ATOM     73  C   UNL     1      -1.696  -7.136   7.546  1.00  0.00    -0.014 A 
ATOM     74  C   UNL     1      -1.621  -5.879   8.176  1.00  0.00     0.010 A 
ATOM     75  C   UNL     1      -1.972  -8.271   8.328  1.00  0.00     0.010 A 
ATOM     76  C   UNL     1      -1.742  -5.769   9.563  1.00  0.00     0.020 A 
ATOM     77  C   UNL     1      -2.137  -8.160   9.713  1.00  0.00     0.020 A 
ATOM     78  C   UNL     1      -1.985  -6.914  10.325  1.00  0.00     0.054 A 
BRANCH  78  79
ATOM     79  S   UNL     1      -2.064  -6.752  12.130  1.00  0.00     0.124 S 
ATOM     80  O   UNL     1      -0.668  -6.480  12.466  1.00  0.00    -0.237 OA
ATOM     81  O   UNL     1      -2.984  -5.632  12.307  1.00  0.00    -0.237 OA
ATOM     82  O   UNL     1      -2.570  -8.049  12.570  1.00  0.00    -0.744 OA
ENDBRANCH  78  79
ENDBRANCH  50  73
BRANCH  62  83
ATOM     83  C   UNL     1      -5.301  -9.397   1.952  1.00  0.00    -0.014 A 
ATOM     84  C   UNL     1      -5.511 -10.711   1.488  1.00  0.00     0.010 A 
ATOM     85  C   UNL     1      -6.405  -8.532   2.061  1.00  0.00     0.010 A 
ATOM     86  C   UNL     1      -6.781 -11.129   1.080  1.00  0.00     0.020 A 
ATOM     87  C   UNL     1      -7.685  -8.960   1.693  1.00  0.00     0.020 A 
ATOM     88  C   UNL     1      -7.858 -10.245   1.173  1.00  0.00     0.054 A 
BRANCH  88  89
ATOM     89  S   UNL     1      -9.482 -10.783   0.567  1.00  0.00     0.124 S 
ATOM     90  O   UNL     1      -9.275 -10.820  -0.877  1.00  0.00    -0.237 OA
ATOM     91  O   UNL     1      -9.649 -12.082   1.214  1.00  0.00    -0.237 OA
ATOM     92  O   UNL     1     -10.389  -9.739   1.040  1.00  0.00    -0.744 OA
ENDBRANCH  88  89
ENDBRANCH  62  83
ENDBRANCH  36  37
ENDBRANCH  29  31
ENDBRANCH  28  29
ENDBRANCH  27  28
ENDBRANCH  26  27
ENDBRANCH  25  26
ENDBRANCH   1  25
TORSDOF 22
