REMARK SMILES Cc1ccc(F)c(O[C@H]2CC[C@]([NH2+]C(C)C)(C(=O)OCCOCCOCCOC(=O)c3ccc(-c4c5nc(c(-c6ccc(S(=O)(=O)[O-])cc6)c6ccc([nH]6)c(-c6ccc(S(=O)(=O)[O-])cc6)c6nc(c(-c7ccc(S(=O)(=O)[O-])cc7)c7ccc4[nH]7)C=C6)C=C5)cc3)C2)c1
REMARK SMILES IDX 24 1 23 2 22 3 21 4 20 5 19 6 17 7 18 8 12 9 9 10 10 11
REMARK SMILES IDX 91 12 11 13 8 14 7 15 1 16 2 17 3 18 92 19 4 20 5 21 6 22
REMARK SMILES IDX 13 23 14 26 15 27 16 28 25 29 26 30 27 31 28 32 29 33 30 34
REMARK SMILES IDX 31 35 32 36 90 37 33 38 89 39 34 40 35 41 36 42 83 43 37 44
REMARK SMILES IDX 88 45 82 46 84 47 38 48 87 49 81 50 80 51 39 53 69 54 50 55
REMARK SMILES IDX 68 56 51 57 54 58 67 59 85 60 52 61 53 62 66 64 86 65 55 66
REMARK SMILES IDX 40 67 41 68 49 69 42 70 48 71 43 72 44 73 45 74 46 75 47 76
REMARK SMILES IDX 70 77 71 78 79 79 72 80 78 81 73 82 74 83 75 84 76 85 77 86
REMARK SMILES IDX 56 87 57 88 65 89 58 90 64 91 59 92 60 93 61 94 62 95 63 96
REMARK H PARENT 13 24 13 25 84 52 54 63
REMARK Flexibility Score: inf
ROOT
ATOM      1  C   UNL     1       3.986  -6.386   0.430  1.00  0.00     0.188 C 
ENDROOT
BRANCH   1   2
ATOM      2  C   UNL     1       4.214  -6.879  -1.007  1.00  0.00     0.188 C 
BRANCH   2   3
ATOM      3  O   UNL     1       5.397  -6.468  -1.683  1.00  0.00    -0.376 OA
BRANCH   3   4
ATOM      4  C   UNL     1       5.722  -5.081  -1.711  1.00  0.00     0.202 C 
BRANCH   4   5
ATOM      5  C   UNL     1       4.630  -4.041  -2.020  1.00  0.00     0.261 C 
BRANCH   5   6
ATOM      6  O   UNL     1       3.451  -4.152  -1.201  1.00  0.00    -0.459 OA
BRANCH   6   7
ATOM      7  C   UNL     1       2.253  -4.031  -1.834  1.00  0.00     0.368 C 
ATOM      8  O   UNL     1       2.146  -3.721  -3.018  1.00  0.00    -0.245 OA
BRANCH   7   9
ATOM      9  C   UNL     1       1.024  -4.332  -0.924  1.00  0.00     0.198 C 
ATOM     10  C   UNL     1      -0.832  -3.166   0.172  1.00  0.00     0.180 C 
ATOM     11  C   UNL     1       0.240  -3.334   1.236  1.00  0.00     0.052 C 
ATOM     12  C   UNL     1      -0.002  -3.190  -1.108  1.00  0.00     0.126 C 
ATOM     13  C   UNL     1       1.293  -4.244   0.611  1.00  0.00     0.085 C 
BRANCH  10  14
ATOM     14  O   UNL     1      -1.733  -4.274   0.136  1.00  0.00    -0.487 OA
BRANCH  14  15
ATOM     15  C   UNL     1      -2.779  -4.298   1.017  1.00  0.00     0.155 A 
ATOM     16  C   UNL     1      -5.835  -6.566   1.330  1.00  0.00     0.044 C 
ATOM     17  C   UNL     1      -4.827  -5.489   1.605  1.00  0.00    -0.047 A 
ATOM     18  C   UNL     1      -5.001  -4.636   2.701  1.00  0.00     0.007 A 
ATOM     19  C   UNL     1      -3.706  -5.320   0.778  1.00  0.00     0.053 A 
ATOM     20  C   UNL     1      -4.083  -3.619   2.948  1.00  0.00     0.043 A 
ATOM     21  C   UNL     1      -2.989  -3.447   2.104  1.00  0.00     0.165 A 
ATOM     22  F   UNL     1      -2.148  -2.442   2.388  1.00  0.00    -0.203 F 
ENDBRANCH  14  15
ENDBRANCH  10  14
BRANCH   9  23
ATOM     23  N   UNL     1       0.469  -5.702  -1.146  1.00  0.00    -0.330 N 
ATOM     24  H   UNL     1      -0.465  -5.711  -0.737  1.00  0.00     0.347 HD
ATOM     25  H   UNL     1       1.172  -6.309  -0.725  1.00  0.00     0.347 HD
BRANCH  23  26
ATOM     26  C   UNL     1       0.339  -6.234  -2.511  1.00  0.00     0.176 C 
ATOM     27  C   UNL     1      -0.196  -7.670  -2.384  1.00  0.00     0.075 C 
ATOM     28  C   UNL     1      -0.604  -5.453  -3.424  1.00  0.00     0.075 C 
ENDBRANCH  23  26
ENDBRANCH   9  23
ENDBRANCH   7   9
ENDBRANCH   6   7
ENDBRANCH   5   6
ENDBRANCH   4   5
ENDBRANCH   3   4
ENDBRANCH   2   3
ENDBRANCH   1   2
BRANCH   1  29
ATOM     29  O   UNL     1       4.920  -5.445   0.902  1.00  0.00    -0.376 OA
BRANCH  29  30
ATOM     30  C   UNL     1       5.931  -5.869   1.798  1.00  0.00     0.202 C 
BRANCH  30  31
ATOM     31  C   UNL     1       6.538  -7.288   1.800  1.00  0.00     0.261 C 
BRANCH  31  32
ATOM     32  O   UNL     1       5.742  -8.371   1.302  1.00  0.00    -0.460 OA
BRANCH  32  33
ATOM     33  C   UNL     1       4.882  -8.963   2.166  1.00  0.00     0.338 C 
ATOM     34  O   UNL     1       4.703  -8.670   3.337  1.00  0.00    -0.246 OA
BRANCH  33  35
ATOM     35  C   UNL     1       4.032  -9.887   1.382  1.00  0.00     0.060 A 
ATOM     36  C   UNL     1       2.665  -9.605   1.232  1.00  0.00     0.016 A 
ATOM     37  C   UNL     1       4.590 -11.006   0.764  1.00  0.00     0.016 A 
ATOM     38  C   UNL     1       1.855 -10.442   0.461  1.00  0.00     0.010 A 
ATOM     39  C   UNL     1       3.772 -11.859   0.017  1.00  0.00     0.010 A 
ATOM     40  C   UNL     1       2.399 -11.590  -0.128  1.00  0.00    -0.014 A 
BRANCH  40  41
ATOM     41  C   UNL     1       1.524 -12.588  -0.793  1.00  0.00     0.031 A 
ATOM     42  C   UNL     1       1.116 -13.816  -0.029  1.00  0.00     0.074 A 
ATOM     43  C   UNL     1       1.120 -12.420  -2.065  1.00  0.00     0.049 A 
ATOM     44  N   UNL     1       0.450 -14.864  -0.437  1.00  0.00    -0.248 NA
ATOM     45  C   UNL     1       1.520 -13.868   1.385  1.00  0.00     0.031 C 
ATOM     46  C   UNL     1       1.402 -11.252  -2.896  1.00  0.00     0.029 A 
ATOM     47  N   UNL     1       0.393 -13.249  -2.883  1.00  0.00    -0.354 N 
ATOM     48  C   UNL     1       0.368 -15.710   0.663  1.00  0.00     0.074 A 
ATOM     49  C   UNL     1       1.073 -15.061   1.748  1.00  0.00     0.031 C 
ATOM     50  C   UNL     1       0.860 -11.442  -4.112  1.00  0.00     0.029 A 
ATOM     51  C   UNL     1       0.238 -12.764  -4.160  1.00  0.00     0.049 A 
ATOM     52  H   UNL     1       0.018 -14.109  -2.584  1.00  0.00     0.167 HD
ATOM     53  C   UNL     1      -0.235 -16.919   0.760  1.00  0.00     0.031 A 
ATOM     54  C   UNL     1      -0.312 -13.335  -5.251  1.00  0.00     0.031 A 
ATOM     55  C   UNL     1      -0.907 -17.574  -0.332  1.00  0.00     0.049 A 
ATOM     56  C   UNL     1      -0.882 -14.727  -5.151  1.00  0.00     0.074 A 
ATOM     57  C   UNL     1      -1.561 -18.794  -0.332  1.00  0.00     0.029 A 
ATOM     58  N   UNL     1      -0.994 -17.075  -1.624  1.00  0.00    -0.354 N 
ATOM     59  N   UNL     1      -0.978 -15.506  -4.100  1.00  0.00    -0.248 NA
ATOM     60  C   UNL     1      -1.414 -15.318  -6.388  1.00  0.00     0.031 C 
ATOM     61  C   UNL     1      -1.981 -19.064  -1.639  1.00  0.00     0.029 A 
ATOM     62  C   UNL     1      -1.652 -17.981  -2.439  1.00  0.00     0.049 A 
ATOM     63  H   UNL     1      -0.640 -16.205  -1.917  1.00  0.00     0.167 HD
ATOM     64  C   UNL     1      -1.595 -16.672  -4.545  1.00  0.00     0.074 A 
ATOM     65  C   UNL     1      -1.869 -16.487  -5.955  1.00  0.00     0.031 C 
ATOM     66  C   UNL     1      -1.906 -17.794  -3.848  1.00  0.00     0.031 A 
BRANCH  53  67
ATOM     67  C   UNL     1      -0.143 -17.632   2.084  1.00  0.00    -0.014 A 
ATOM     68  C   UNL     1      -0.816 -17.155   3.223  1.00  0.00     0.010 A 
ATOM     69  C   UNL     1       0.628 -18.805   2.188  1.00  0.00     0.010 A 
ATOM     70  C   UNL     1      -0.676 -17.805   4.453  1.00  0.00     0.020 A 
ATOM     71  C   UNL     1       0.745 -19.476   3.409  1.00  0.00     0.020 A 
ATOM     72  C   UNL     1       0.110 -18.958   4.539  1.00  0.00     0.054 A 
BRANCH  72  73
ATOM     73  S   UNL     1       0.281 -19.775   6.149  1.00  0.00     0.124 S 
ATOM     74  O   UNL     1       1.130 -18.833   6.875  1.00  0.00    -0.237 OA
ATOM     75  O   UNL     1      -1.101 -19.860   6.613  1.00  0.00    -0.237 OA
ATOM     76  O   UNL     1       0.908 -21.054   5.825  1.00  0.00    -0.744 OA
ENDBRANCH  72  73
ENDBRANCH  53  67
BRANCH  54  77
ATOM     77  C   UNL     1      -0.327 -12.597  -6.545  1.00  0.00    -0.014 A 
ATOM     78  C   UNL     1      -1.538 -12.133  -7.087  1.00  0.00     0.010 A 
ATOM     79  C   UNL     1       0.873 -12.335  -7.233  1.00  0.00     0.010 A 
ATOM     80  C   UNL     1      -1.549 -11.419  -8.289  1.00  0.00     0.020 A 
ATOM     81  C   UNL     1       0.869 -11.597  -8.420  1.00  0.00     0.020 A 
ATOM     82  C   UNL     1      -0.344 -11.148  -8.943  1.00  0.00     0.054 A 
BRANCH  82  83
ATOM     83  S   UNL     1      -0.381 -10.151 -10.459  1.00  0.00     0.124 S 
ATOM     84  O   UNL     1      -0.992 -11.069 -11.414  1.00  0.00    -0.237 OA
ATOM     85  O   UNL     1      -1.203  -9.010 -10.063  1.00  0.00    -0.237 OA
ATOM     86  O   UNL     1       1.027  -9.841 -10.700  1.00  0.00    -0.744 OA
ENDBRANCH  82  83
ENDBRANCH  54  77
BRANCH  66  87
ATOM     87  C   UNL     1      -2.589 -18.913  -4.592  1.00  0.00    -0.014 A 
ATOM     88  C   UNL     1      -1.890 -19.696  -5.529  1.00  0.00     0.010 A 
ATOM     89  C   UNL     1      -3.928 -19.232  -4.300  1.00  0.00     0.010 A 
ATOM     90  C   UNL     1      -2.525 -20.761  -6.176  1.00  0.00     0.020 A 
ATOM     91  C   UNL     1      -4.557 -20.315  -4.922  1.00  0.00     0.020 A 
ATOM     92  C   UNL     1      -3.853 -21.067  -5.864  1.00  0.00     0.054 A 
BRANCH  92  93
ATOM     93  S   UNL     1      -4.633 -22.491  -6.675  1.00  0.00     0.124 S 
ATOM     94  O   UNL     1      -4.797 -22.010  -8.044  1.00  0.00    -0.237 OA
ATOM     95  O   UNL     1      -3.638 -23.545  -6.494  1.00  0.00    -0.237 OA
ATOM     96  O   UNL     1      -5.875 -22.679  -5.928  1.00  0.00    -0.744 OA
ENDBRANCH  92  93
ENDBRANCH  66  87
ENDBRANCH  40  41
ENDBRANCH  33  35
ENDBRANCH  32  33
ENDBRANCH  31  32
ENDBRANCH  30  31
ENDBRANCH  29  30
ENDBRANCH   1  29
TORSDOF 24
