REMARK SMILES CC(=O)Nc1cnc(N2CC=C(c3ccccc3C)CC2)c(C(=O)OCCOCCOCCOC(=O)c2ccc(-c3c4nc(c(-c5ccc(S(=O)(=O)[O-])cc5)c5ccc([nH]5)c(-c5ccc(S(=O)(=O)[O-])cc5)c5nc(c(-c6ccc(S(=O)(=O)[O-])cc6)c6ccc3[nH]6)C=C5)C=C4)cc2)c1
REMARK SMILES IDX 30 1 29 2 28 3 27 4 26 5 25 6 23 7 24 8 22 9 5 10 6 11 97 12
REMARK SMILES IDX 7 13 8 14 4 15 1 16 2 17 3 18 9 20 10 21 21 22 11 23 20 24
REMARK SMILES IDX 12 25 13 26 14 27 18 28 15 29 17 30 19 31 16 32 31 33 32 34
REMARK SMILES IDX 33 35 34 36 35 37 36 38 37 39 38 40 96 41 39 42 95 43 40 44
REMARK SMILES IDX 41 45 42 46 89 47 43 48 94 49 88 50 90 51 44 52 93 53 87 54
REMARK SMILES IDX 86 55 45 57 75 58 56 59 74 60 57 61 60 62 73 63 91 64 58 65
REMARK SMILES IDX 59 66 72 68 92 69 61 70 46 71 47 72 55 73 48 74 54 75 49 76
REMARK SMILES IDX 50 77 51 78 52 79 53 80 76 81 77 82 85 83 78 84 84 85 79 86
REMARK SMILES IDX 80 87 81 88 82 89 83 90 62 91 63 92 71 93 64 94 70 95 65 96
REMARK SMILES IDX 66 97 67 98 68 99 69 100
REMARK H PARENT 4 19 90 56 60 67
REMARK Flexibility Score: inf
ROOT
ATOM      1  C   UNL     1       9.845  -0.164  -2.364  1.00  0.00     0.188 C 
ENDROOT
BRANCH   1   2
ATOM      2  C   UNL     1       9.014   1.115  -2.198  1.00  0.00     0.188 C 
BRANCH   2   3
ATOM      3  O   UNL     1       8.186   1.349  -1.034  1.00  0.00    -0.376 OA
BRANCH   3   4
ATOM      4  C   UNL     1       7.565   0.345  -0.212  1.00  0.00     0.202 C 
BRANCH   4   5
ATOM      5  C   UNL     1       5.900  -0.036   0.014  1.00  0.00     0.261 C 
BRANCH   5   6
ATOM      6  O   UNL     1       4.598  -0.588  -1.126  1.00  0.00    -0.460 OA
BRANCH   6   7
ATOM      7  C   UNL     1       3.710  -0.114  -2.229  1.00  0.00     0.342 C 
ATOM      8  O   UNL     1       3.449   1.045  -2.561  1.00  0.00    -0.246 OA
BRANCH   7   9
ATOM      9  C   UNL     1       2.794  -0.986  -2.973  1.00  0.00     0.104 A 
ATOM     10  C   UNL     1       0.682  -2.056  -2.568  1.00  0.00     0.060 A 
ATOM     11  C   UNL     1       0.434  -1.970  -3.927  1.00  0.00     0.139 A 
ATOM     12  C   UNL     1       1.906  -1.616  -2.099  1.00  0.00     0.047 A 
ATOM     13  N   UNL     1       1.255  -1.361  -4.808  1.00  0.00    -0.236 NA
ATOM     14  C   UNL     1       2.402  -0.788  -4.352  1.00  0.00     0.143 A 
BRANCH  10  15
ATOM     15  N   UNL     1      -0.290  -2.568  -1.705  1.00  0.00    -0.325 N 
ATOM     16  C   UNL     1      -0.328  -0.650  -0.125  1.00  0.00     0.114 C 
ATOM     17  C   UNL     1      -0.659  -2.084  -0.476  1.00  0.00     0.221 C 
ATOM     18  O   UNL     1      -1.336  -2.792   0.269  1.00  0.00    -0.275 OA
ATOM     19  H   UNL     1      -0.766  -3.371  -2.016  1.00  0.00     0.169 HD
ENDBRANCH  10  15
BRANCH  14  20
ATOM     20  N   UNL     1       3.120  -0.107  -5.361  1.00  0.00    -0.352 N 
ATOM     21  C   UNL     1       2.411   0.994  -6.051  1.00  0.00     0.146 C 
ATOM     22  C   UNL     1       3.906  -1.026  -6.190  1.00  0.00     0.123 C 
ATOM     23  C   UNL     1       3.033   1.415  -7.385  1.00  0.00    -0.002 C 
ATOM     24  C   UNL     1       3.881  -0.809  -7.713  1.00  0.00     0.057 C 
ATOM     25  C   UNL     1       3.739   0.605  -8.206  1.00  0.00    -0.041 C 
BRANCH  25  26
ATOM     26  C   UNL     1       4.450   1.030  -9.489  1.00  0.00    -0.020 A 
ATOM     27  C   UNL     1       4.896   2.368  -9.619  1.00  0.00     0.008 A 
ATOM     28  C   UNL     1       4.841   0.155 -10.541  1.00  0.00    -0.044 A 
ATOM     29  C   UNL     1       5.777   2.790 -10.632  1.00  0.00     0.001 A 
ATOM     30  C   UNL     1       5.734   0.595 -11.555  1.00  0.00     0.004 A 
ATOM     31  C   UNL     1       4.417  -1.282 -10.657  1.00  0.00     0.045 C 
ATOM     32  C   UNL     1       6.215   1.895 -11.590  1.00  0.00     0.000 A 
ENDBRANCH  25  26
ENDBRANCH  14  20
ENDBRANCH   7   9
ENDBRANCH   6   7
ENDBRANCH   5   6
ENDBRANCH   4   5
ENDBRANCH   3   4
ENDBRANCH   2   3
ENDBRANCH   1   2
BRANCH   1  33
ATOM     33  O   UNL     1       9.143  -1.276  -1.848  1.00  0.00    -0.376 OA
BRANCH  33  34
ATOM     34  C   UNL     1       9.855  -2.482  -1.698  1.00  0.00     0.202 C 
BRANCH  34  35
ATOM     35  C   UNL     1       9.998  -3.256  -3.012  1.00  0.00     0.261 C 
BRANCH  35  36
ATOM     36  O   UNL     1       8.755  -3.813  -3.505  1.00  0.00    -0.460 OA
BRANCH  36  37
ATOM     37  C   UNL     1       8.177  -3.215  -4.605  1.00  0.00     0.338 C 
ATOM     38  O   UNL     1       8.146  -3.751  -5.703  1.00  0.00    -0.246 OA
BRANCH  37  39
ATOM     39  C   UNL     1       7.338  -2.054  -4.207  1.00  0.00     0.060 A 
ATOM     40  C   UNL     1       7.166  -0.815  -4.828  1.00  0.00     0.016 A 
ATOM     41  C   UNL     1       6.747  -2.186  -3.008  1.00  0.00     0.016 A 
ATOM     42  C   UNL     1       6.523   0.341  -4.170  1.00  0.00     0.010 A 
ATOM     43  C   UNL     1       6.398  -1.004  -2.367  1.00  0.00     0.010 A 
ATOM     44  C   UNL     1       6.166   0.365  -2.823  1.00  0.00    -0.014 A 
BRANCH  44  45
ATOM     45  C   UNL     1       5.633   1.794  -1.879  1.00  0.00     0.031 A 
ATOM     46  C   UNL     1       4.335   2.038  -0.614  1.00  0.00     0.074 A 
ATOM     47  C   UNL     1       6.186   3.011  -2.132  1.00  0.00     0.049 A 
ATOM     48  N   UNL     1       3.812   3.200  -0.240  1.00  0.00    -0.248 NA
ATOM     49  C   UNL     1       3.530   1.014   0.204  1.00  0.00     0.031 C 
ATOM     50  C   UNL     1       6.131   4.173  -1.239  1.00  0.00     0.029 A 
ATOM     51  N   UNL     1       6.832   3.532  -3.248  1.00  0.00    -0.354 N 
ATOM     52  C   UNL     1       2.955   3.021   0.872  1.00  0.00     0.074 A 
ATOM     53  C   UNL     1       2.688   1.655   0.976  1.00  0.00     0.031 C 
ATOM     54  C   UNL     1       6.383   5.282  -1.942  1.00  0.00     0.029 A 
ATOM     55  C   UNL     1       6.499   4.893  -3.327  1.00  0.00     0.049 A 
ATOM     56  H   UNL     1       7.415   3.037  -3.869  1.00  0.00     0.167 HD
ATOM     57  C   UNL     1       2.610   3.985   1.770  1.00  0.00     0.031 A 
ATOM     58  C   UNL     1       5.906   5.510  -4.390  1.00  0.00     0.031 A 
ATOM     59  C   UNL     1       2.957   5.276   1.245  1.00  0.00     0.049 A 
ATOM     60  C   UNL     1       4.664   6.314  -4.027  1.00  0.00     0.074 A 
ATOM     61  C   UNL     1       3.916   6.234   1.495  1.00  0.00     0.029 A 
ATOM     62  N   UNL     1       2.397   5.596   0.031  1.00  0.00    -0.354 N 
ATOM     63  N   UNL     1       4.299   6.609  -2.809  1.00  0.00    -0.248 NA
ATOM     64  C   UNL     1       3.669   6.766  -5.009  1.00  0.00     0.031 C 
ATOM     65  C   UNL     1       3.881   7.167   0.414  1.00  0.00     0.029 A 
ATOM     66  C   UNL     1       2.875   6.784  -0.453  1.00  0.00     0.049 A 
ATOM     67  H   UNL     1       1.733   5.037  -0.435  1.00  0.00     0.167 HD
ATOM     68  C   UNL     1       3.017   7.098  -2.819  1.00  0.00     0.074 A 
ATOM     69  C   UNL     1       2.689   7.247  -4.221  1.00  0.00     0.031 C 
ATOM     70  C   UNL     1       2.276   7.251  -1.685  1.00  0.00     0.031 A 
BRANCH  57  71
ATOM     71  C   UNL     1       2.127   3.713   3.211  1.00  0.00    -0.014 A 
ATOM     72  C   UNL     1       2.294   4.715   4.186  1.00  0.00     0.010 A 
ATOM     73  C   UNL     1       1.612   2.493   3.716  1.00  0.00     0.010 A 
ATOM     74  C   UNL     1       2.111   4.471   5.565  1.00  0.00     0.020 A 
ATOM     75  C   UNL     1       1.471   2.213   5.088  1.00  0.00     0.020 A 
ATOM     76  C   UNL     1       1.746   3.204   6.013  1.00  0.00     0.054 A 
BRANCH  76  77
ATOM     77  S   UNL     1       1.670   2.846   7.789  1.00  0.00     0.124 S 
ATOM     78  O   UNL     1       2.958   3.340   8.270  1.00  0.00    -0.237 OA
ATOM     79  O   UNL     1       0.500   3.608   8.214  1.00  0.00    -0.237 OA
ATOM     80  O   UNL     1       1.516   1.392   7.844  1.00  0.00    -0.744 OA
ENDBRANCH  76  77
ENDBRANCH  57  71
BRANCH  58  81
ATOM     81  C   UNL     1       6.174   4.828  -5.689  1.00  0.00    -0.014 A 
ATOM     82  C   UNL     1       7.436   5.039  -6.290  1.00  0.00     0.010 A 
ATOM     83  C   UNL     1       5.475   3.652  -5.991  1.00  0.00     0.010 A 
ATOM     84  C   UNL     1       8.066   4.022  -7.020  1.00  0.00     0.020 A 
ATOM     85  C   UNL     1       6.126   2.630  -6.695  1.00  0.00     0.020 A 
ATOM     86  C   UNL     1       7.433   2.792  -7.152  1.00  0.00     0.054 A 
BRANCH  86  87
ATOM     87  S   UNL     1       8.401   1.358  -7.713  1.00  0.00     0.124 S 
ATOM     88  O   UNL     1       9.071   1.858  -8.908  1.00  0.00    -0.237 OA
ATOM     89  O   UNL     1       9.269   1.126  -6.557  1.00  0.00    -0.237 OA
ATOM     90  O   UNL     1       7.402   0.318  -7.937  1.00  0.00    -0.744 OA
ENDBRANCH  86  87
ENDBRANCH  58  81
BRANCH  70  91
ATOM     91  C   UNL     1       0.856   7.764  -1.619  1.00  0.00    -0.014 A 
ATOM     92  C   UNL     1       0.491   8.977  -2.216  1.00  0.00     0.010 A 
ATOM     93  C   UNL     1      -0.096   7.152  -0.762  1.00  0.00     0.010 A 
ATOM     94  C   UNL     1      -0.759   9.562  -1.946  1.00  0.00     0.020 A 
ATOM     95  C   UNL     1      -1.331   7.735  -0.472  1.00  0.00     0.020 A 
ATOM     96  C   UNL     1      -1.655   8.944  -1.067  1.00  0.00     0.054 A 
BRANCH  96  97
ATOM     97  S   UNL     1      -3.208   9.773  -0.637  1.00  0.00     0.124 S 
ATOM     98  O   UNL     1      -2.780  11.150  -0.399  1.00  0.00    -0.237 OA
ATOM     99  O   UNL     1      -4.005   9.563  -1.842  1.00  0.00    -0.237 OA
ATOM    100  O   UNL     1      -3.672   9.058   0.549  1.00  0.00    -0.744 OA
ENDBRANCH  96  97
ENDBRANCH  70  91
ENDBRANCH  44  45
ENDBRANCH  37  39
ENDBRANCH  36  37
ENDBRANCH  35  36
ENDBRANCH  34  35
ENDBRANCH  33  34
ENDBRANCH   1  33
TORSDOF 23
