REMARK SMILES O=C(OCCOCCOCCOC(=O)[C@@H](Cc1ccccc1)N1C(=O)/C(=C/c2ccncc2)SC1=S)c1ccc(-c2c3nc(c(-c4ccc(S(=O)(=O)[O-])cc4)c4ccc([nH]4)c(-c4ccc(S(=O)(=O)[O-])cc4)c4nc(c(-c5ccc(S(=O)(=O)[O-])cc5)c5ccc2[nH]5)C=C4)C=C3)cc1
REMARK SMILES IDX 7 1 6 2 5 3 4 4 3 5 2 6 1 7 37 8 38 9 96 10 39 11 95 12
REMARK SMILES IDX 40 13 41 14 42 15 89 16 43 17 94 18 88 19 90 20 44 21 93 22
REMARK SMILES IDX 87 23 86 24 45 26 75 27 56 28 74 29 57 30 60 31 73 32 91 33
REMARK SMILES IDX 58 34 59 35 72 37 92 38 61 39 46 40 47 41 55 42 48 43 54 44
REMARK SMILES IDX 49 45 50 46 51 47 52 48 53 49 76 50 77 51 85 52 78 53 84 54
REMARK SMILES IDX 79 55 80 56 81 57 82 58 83 59 62 60 63 61 71 62 64 63 70 64
REMARK SMILES IDX 65 65 66 66 67 67 68 68 69 69 8 70 9 71 10 72 11 73 12 74
REMARK SMILES IDX 13 75 14 76 15 77 16 78 17 79 18 80 22 81 19 82 21 83 20 84
REMARK SMILES IDX 23 85 24 86 35 87 25 88 26 89 34 90 36 91 27 92 28 93 29 94
REMARK SMILES IDX 33 95 30 96 32 97 31 98
REMARK H PARENT 90 25 60 36
REMARK Flexibility Score: inf
ROOT
ATOM      1  C   UNL     1       2.346   0.256  -1.625  1.00  0.00     0.188 C 
ENDROOT
BRANCH   1   2
ATOM      2  O   UNL     1       3.678   0.597  -1.222  1.00  0.00    -0.376 OA
BRANCH   2   3
ATOM      3  C   UNL     1       4.561  -0.526  -1.124  1.00  0.00     0.202 C 
BRANCH   3   4
ATOM      4  C   UNL     1       4.265  -1.557  -0.020  1.00  0.00     0.261 C 
BRANCH   4   5
ATOM      5  O   UNL     1       2.917  -1.550   0.476  1.00  0.00    -0.460 OA
BRANCH   5   6
ATOM      6  C   UNL     1       2.321  -0.766   1.406  1.00  0.00     0.338 C 
ATOM      7  O   UNL     1       1.134  -0.981   1.654  1.00  0.00    -0.246 OA
BRANCH   6   8
ATOM      8  C   UNL     1       2.988   0.367   2.127  1.00  0.00     0.060 A 
ATOM      9  C   UNL     1       4.268   0.847   1.869  1.00  0.00     0.016 A 
ATOM     10  C   UNL     1       2.252   1.002   3.151  1.00  0.00     0.016 A 
ATOM     11  C   UNL     1       4.825   1.871   2.625  1.00  0.00     0.010 A 
ATOM     12  C   UNL     1       2.806   2.034   3.924  1.00  0.00     0.010 A 
ATOM     13  C   UNL     1       4.116   2.442   3.678  1.00  0.00    -0.014 A 
BRANCH  13  14
ATOM     14  C   UNL     1       4.919   3.247   4.619  1.00  0.00     0.031 A 
ATOM     15  C   UNL     1       5.647   2.502   5.694  1.00  0.00     0.074 A 
ATOM     16  C   UNL     1       5.180   4.540   4.367  1.00  0.00     0.049 A 
ATOM     17  N   UNL     1       6.571   2.928   6.508  1.00  0.00    -0.248 NA
ATOM     18  C   UNL     1       5.287   1.083   5.867  1.00  0.00     0.031 C 
ATOM     19  C   UNL     1       4.555   5.317   3.305  1.00  0.00     0.029 A 
ATOM     20  N   UNL     1       6.090   5.402   4.923  1.00  0.00    -0.354 N 
ATOM     21  C   UNL     1       6.861   1.849   7.330  1.00  0.00     0.074 A 
ATOM     22  C   UNL     1       6.052   0.736   6.889  1.00  0.00     0.031 C 
ATOM     23  C   UNL     1       5.175   6.504   3.211  1.00  0.00     0.029 A 
ATOM     24  C   UNL     1       6.216   6.585   4.227  1.00  0.00     0.049 A 
ATOM     25  H   UNL     1       6.603   5.196   5.737  1.00  0.00     0.167 HD
ATOM     26  C   UNL     1       7.691   1.815   8.396  1.00  0.00     0.031 A 
ATOM     27  C   UNL     1       7.086   7.602   4.392  1.00  0.00     0.031 A 
ATOM     28  C   UNL     1       8.445   2.952   8.842  1.00  0.00     0.049 A 
ATOM     29  C   UNL     1       8.008   7.537   5.583  1.00  0.00     0.074 A 
ATOM     30  C   UNL     1       9.236   3.075   9.969  1.00  0.00     0.029 A 
ATOM     31  N   UNL     1       8.491   4.171   8.180  1.00  0.00    -0.354 N 
ATOM     32  N   UNL     1       8.218   6.539   6.409  1.00  0.00    -0.248 NA
ATOM     33  C   UNL     1       8.763   8.756   5.902  1.00  0.00     0.031 C 
ATOM     34  C   UNL     1       9.711   4.389  10.020  1.00  0.00     0.029 A 
ATOM     35  C   UNL     1       9.285   5.059   8.882  1.00  0.00     0.049 A 
ATOM     36  H   UNL     1       8.027   4.374   7.336  1.00  0.00     0.167 HD
ATOM     37  C   UNL     1       9.114   7.017   7.357  1.00  0.00     0.074 A 
ATOM     38  C   UNL     1       9.452   8.371   6.967  1.00  0.00     0.031 C 
ATOM     39  C   UNL     1       9.595   6.404   8.468  1.00  0.00     0.031 A 
BRANCH  26  40
ATOM     40  C   UNL     1       7.681   0.557   9.216  1.00  0.00    -0.014 A 
ATOM     41  C   UNL     1       8.249  -0.642   8.753  1.00  0.00     0.010 A 
ATOM     42  C   UNL     1       7.026   0.574  10.461  1.00  0.00     0.010 A 
ATOM     43  C   UNL     1       8.122  -1.814   9.504  1.00  0.00     0.020 A 
ATOM     44  C   UNL     1       6.924  -0.587  11.228  1.00  0.00     0.020 A 
ATOM     45  C   UNL     1       7.457  -1.778  10.734  1.00  0.00     0.054 A 
BRANCH  45  46
ATOM     46  S   UNL     1       7.306  -3.312  11.689  1.00  0.00     0.124 S 
ATOM     47  O   UNL     1       6.329  -4.061  10.903  1.00  0.00    -0.237 OA
ATOM     48  O   UNL     1       8.669  -3.837  11.663  1.00  0.00    -0.237 OA
ATOM     49  O   UNL     1       6.840  -2.861  12.998  1.00  0.00    -0.744 OA
ENDBRANCH  45  46
ENDBRANCH  26  40
BRANCH  27  50
ATOM     50  C   UNL     1       7.104   8.786   3.481  1.00  0.00    -0.014 A 
ATOM     51  C   UNL     1       8.280   9.158   2.798  1.00  0.00     0.010 A 
ATOM     52  C   UNL     1       5.965   9.599   3.346  1.00  0.00     0.010 A 
ATOM     53  C   UNL     1       8.325  10.336   2.041  1.00  0.00     0.020 A 
ATOM     54  C   UNL     1       5.992  10.750   2.556  1.00  0.00     0.020 A 
ATOM     55  C   UNL     1       7.178  11.124   1.927  1.00  0.00     0.054 A 
BRANCH  55  56
ATOM     56  S   UNL     1       7.265  12.678   0.997  1.00  0.00     0.124 S 
ATOM     57  O   UNL     1       8.349  13.384   1.671  1.00  0.00    -0.237 OA
ATOM     58  O   UNL     1       7.552  12.206  -0.353  1.00  0.00    -0.237 OA
ATOM     59  O   UNL     1       5.935  13.255   1.187  1.00  0.00    -0.744 OA
ENDBRANCH  55  56
ENDBRANCH  27  50
BRANCH  39  60
ATOM     60  C   UNL     1      10.556   7.186   9.319  1.00  0.00    -0.014 A 
ATOM     61  C   UNL     1      10.132   8.285  10.086  1.00  0.00     0.010 A 
ATOM     62  C   UNL     1      11.899   6.773   9.387  1.00  0.00     0.010 A 
ATOM     63  C   UNL     1      11.046   8.985  10.876  1.00  0.00     0.020 A 
ATOM     64  C   UNL     1      12.807   7.449  10.201  1.00  0.00     0.020 A 
ATOM     65  C   UNL     1      12.379   8.562  10.927  1.00  0.00     0.054 A 
BRANCH  65  66
ATOM     66  S   UNL     1      13.540   9.464  11.985  1.00  0.00     0.124 S 
ATOM     67  O   UNL     1      13.728  10.705  11.239  1.00  0.00    -0.237 OA
ATOM     68  O   UNL     1      12.801   9.589  13.239  1.00  0.00    -0.237 OA
ATOM     69  O   UNL     1      14.709   8.588  12.042  1.00  0.00    -0.744 OA
ENDBRANCH  65  66
ENDBRANCH  39  60
ENDBRANCH  13  14
ENDBRANCH   6   8
ENDBRANCH   5   6
ENDBRANCH   4   5
ENDBRANCH   3   4
ENDBRANCH   2   3
ENDBRANCH   1   2
BRANCH   1  70
ATOM     70  C   UNL     1       1.790   1.121  -2.758  1.00  0.00     0.188 C 
BRANCH  70  71
ATOM     71  O   UNL     1       2.348   0.925  -4.055  1.00  0.00    -0.376 OA
BRANCH  71  72
ATOM     72  C   UNL     1       3.755   1.065  -4.202  1.00  0.00     0.202 C 
BRANCH  72  73
ATOM     73  C   UNL     1       4.352   2.462  -4.039  1.00  0.00     0.261 C 
BRANCH  73  74
ATOM     74  O   UNL     1       4.024   3.097  -2.799  1.00  0.00    -0.462 OA
BRANCH  74  75
ATOM     75  C   UNL     1       3.159   4.140  -2.892  1.00  0.00     0.329 C 
ATOM     76  O   UNL     1       2.511   4.429  -3.894  1.00  0.00    -0.250 OA
BRANCH  75  77
ATOM     77  C   UNL     1       3.097   4.967  -1.616  1.00  0.00     0.206 C 
BRANCH  77  78
ATOM     78  C   UNL     1       3.743   4.413  -0.339  1.00  0.00     0.073 C 
BRANCH  78  79
ATOM     79  C   UNL     1       5.238   4.528  -0.181  1.00  0.00    -0.045 A 
ATOM     80  C   UNL     1       6.041   3.385  -0.236  1.00  0.00     0.004 A 
ATOM     81  C   UNL     1       5.845   5.756   0.111  1.00  0.00     0.004 A 
ATOM     82  C   UNL     1       7.407   3.460   0.041  1.00  0.00     0.000 A 
ATOM     83  C   UNL     1       7.215   5.839   0.358  1.00  0.00     0.000 A 
ATOM     84  C   UNL     1       7.993   4.687   0.340  1.00  0.00     0.000 A 
ENDBRANCH  78  79
ENDBRANCH  77  78
BRANCH  77  85
ATOM     85  N   UNL     1       3.374   6.388  -1.878  1.00  0.00    -0.278 N 
ATOM     86  C   UNL     1       2.587   7.321  -1.214  1.00  0.00     0.267 C 
ATOM     87  C   UNL     1       4.446   6.883  -2.606  1.00  0.00     0.149 C 
ATOM     88  O   UNL     1       1.659   7.072  -0.463  1.00  0.00    -0.268 OA
ATOM     89  C   UNL     1       3.043   8.693  -1.539  1.00  0.00     0.081 C 
ATOM     90  S   UNL     1       4.463   8.628  -2.505  1.00  0.00    -0.054 SA
ATOM     91  S   UNL     1       5.593   6.091  -3.527  1.00  0.00    -0.052 S 
ATOM     92  C   UNL     1       2.391   9.797  -1.149  1.00  0.00     0.029 C 
BRANCH  92  93
ATOM     93  C   UNL     1       2.788  11.134  -1.604  1.00  0.00    -0.021 A 
ATOM     94  C   UNL     1       2.705  11.447  -2.964  1.00  0.00     0.028 A 
ATOM     95  C   UNL     1       3.345  12.060  -0.730  1.00  0.00     0.028 A 
ATOM     96  C   UNL     1       3.212  12.658  -3.395  1.00  0.00     0.111 A 
ATOM     97  C   UNL     1       3.814  13.253  -1.260  1.00  0.00     0.111 A 
ATOM     98  N   UNL     1       3.736  13.583  -2.573  1.00  0.00    -0.265 NA
ENDBRANCH  92  93
ENDBRANCH  77  85
ENDBRANCH  75  77
ENDBRANCH  74  75
ENDBRANCH  73  74
ENDBRANCH  72  73
ENDBRANCH  71  72
ENDBRANCH  70  71
ENDBRANCH   1  70
TORSDOF 24
