REMARK SMILES CCc1cccc(-c2ccc([C@@H](C)C(=O)OCCOCCOCCOC(=O)c3ccc(-c4c5nc(c(-c6ccc(S(=O)(=O)[O-])cc6)c6ccc([nH]6)c(-c6ccc(S(=O)(=O)[O-])cc6)c6nc(c(-c7ccc(S(=O)(=O)[O-])cc7)c7ccc4[nH]7)C=C6)C=C5)cc3)cc2)c1
REMARK SMILES IDX 20 1 19 2 18 3 17 4 16 5 14 6 15 7 12 8 13 9 11 10 8 11 9 12
REMARK SMILES IDX 89 13 10 14 88 15 7 16 3 17 4 18 90 19 5 20 6 21 2 22 1 23
REMARK SMILES IDX 21 24 22 25 23 26 24 27 25 28 26 29 27 30 28 31 29 32 87 33
REMARK SMILES IDX 30 34 86 35 31 36 32 37 33 38 80 39 34 40 85 41 79 42 81 43
REMARK SMILES IDX 35 44 84 45 78 46 77 47 36 49 66 50 47 51 65 52 48 53 51 54
REMARK SMILES IDX 64 55 82 56 49 57 50 58 63 60 83 61 52 62 37 63 38 64 46 65
REMARK SMILES IDX 39 66 45 67 40 68 41 69 42 70 43 71 44 72 67 73 68 74 76 75
REMARK SMILES IDX 69 76 75 77 70 78 71 79 72 80 73 81 74 82 53 83 54 84 62 85
REMARK SMILES IDX 55 86 61 87 56 88 57 89 58 90 59 91 60 92
REMARK H PARENT 81 48 51 59
REMARK Flexibility Score: inf
ROOT
ATOM      1  C   UNL     1       0.139   9.487  -4.168  1.00  0.00     0.188 C 
ENDROOT
BRANCH   1   2
ATOM      2  O   UNL     1      -0.789  10.315  -4.860  1.00  0.00    -0.376 OA
BRANCH   2   3
ATOM      3  C   UNL     1      -1.221   9.937  -6.161  1.00  0.00     0.202 C 
BRANCH   3   4
ATOM      4  C   UNL     1      -0.158   9.666  -7.240  1.00  0.00     0.261 C 
BRANCH   4   5
ATOM      5  O   UNL     1       0.848   8.684  -6.899  1.00  0.00    -0.463 OA
BRANCH   5   6
ATOM      6  C   UNL     1       2.139   9.101  -6.944  1.00  0.00     0.313 C 
ATOM      7  O   UNL     1       2.464  10.224  -7.329  1.00  0.00    -0.252 OA
BRANCH   6   8
ATOM      8  C   UNL     1       3.203   8.104  -6.470  1.00  0.00     0.126 C 
ATOM      9  C   UNL     1       4.218   7.913  -7.596  1.00  0.00     0.025 C 
BRANCH   8  10
ATOM     10  C   UNL     1       2.829   6.751  -5.862  1.00  0.00    -0.034 A 
ATOM     11  C   UNL     1       2.208   4.241  -4.617  1.00  0.00    -0.018 A 
ATOM     12  C   UNL     1       1.677   4.598  -5.870  1.00  0.00     0.009 A 
ATOM     13  C   UNL     1       3.059   5.164  -3.998  1.00  0.00     0.009 A 
ATOM     14  C   UNL     1       1.988   5.825  -6.490  1.00  0.00     0.005 A 
ATOM     15  C   UNL     1       3.371   6.389  -4.611  1.00  0.00     0.005 A 
BRANCH  11  16
ATOM     16  C   UNL     1       1.940   2.919  -4.009  1.00  0.00    -0.018 A 
ATOM     17  C   UNL     1       1.196   1.504  -2.127  1.00  0.00    -0.048 A 
ATOM     18  C   UNL     1       1.506   0.364  -2.879  1.00  0.00     0.004 A 
ATOM     19  C   UNL     1       1.401   2.774  -2.713  1.00  0.00     0.012 A 
ATOM     20  C   UNL     1       2.040   0.485  -4.160  1.00  0.00     0.001 A 
ATOM     21  C   UNL     1       2.257   1.747  -4.715  1.00  0.00     0.009 A 
BRANCH  17  22
ATOM     22  C   UNL     1       0.596   1.405  -0.739  1.00  0.00     0.032 C 
ATOM     23  C   UNL     1       1.018   0.187   0.081  1.00  0.00     0.009 C 
ENDBRANCH  17  22
ENDBRANCH  11  16
ENDBRANCH   8  10
ENDBRANCH   6   8
ENDBRANCH   5   6
ENDBRANCH   4   5
ENDBRANCH   3   4
ENDBRANCH   2   3
ENDBRANCH   1   2
BRANCH   1  24
ATOM     24  C   UNL     1       0.017   7.961  -4.293  1.00  0.00     0.188 C 
BRANCH  24  25
ATOM     25  O   UNL     1      -1.145   7.517  -4.961  1.00  0.00    -0.376 OA
BRANCH  25  26
ATOM     26  C   UNL     1      -1.965   6.602  -4.261  1.00  0.00     0.202 C 
BRANCH  26  27
ATOM     27  C   UNL     1      -2.661   7.174  -3.018  1.00  0.00     0.261 C 
BRANCH  27  28
ATOM     28  O   UNL     1      -1.808   7.852  -2.076  1.00  0.00    -0.460 OA
BRANCH  28  29
ATOM     29  C   UNL     1      -0.965   7.084  -1.351  1.00  0.00     0.338 C 
ATOM     30  O   UNL     1      -0.869   5.864  -1.392  1.00  0.00    -0.246 OA
BRANCH  29  31
ATOM     31  C   UNL     1      -0.009   7.973  -0.654  1.00  0.00     0.060 A 
ATOM     32  C   UNL     1       1.365   7.808  -0.879  1.00  0.00     0.016 A 
ATOM     33  C   UNL     1      -0.463   8.955   0.230  1.00  0.00     0.016 A 
ATOM     34  C   UNL     1       2.291   8.581  -0.175  1.00  0.00     0.010 A 
ATOM     35  C   UNL     1       0.465   9.717   0.947  1.00  0.00     0.010 A 
ATOM     36  C   UNL     1       1.846   9.499   0.785  1.00  0.00    -0.014 A 
BRANCH  36  37
ATOM     37  C   UNL     1       2.805  10.052   1.776  1.00  0.00     0.031 A 
ATOM     38  C   UNL     1       2.865   9.414   3.140  1.00  0.00     0.074 A 
ATOM     39  C   UNL     1       3.615  11.084   1.485  1.00  0.00     0.049 A 
ATOM     40  N   UNL     1       3.592   9.735   4.179  1.00  0.00    -0.248 NA
ATOM     41  C   UNL     1       1.974   8.263   3.360  1.00  0.00     0.031 C 
ATOM     42  C   UNL     1       3.679  11.774   0.199  1.00  0.00     0.029 A 
ATOM     43  N   UNL     1       4.533  11.740   2.268  1.00  0.00    -0.354 N 
ATOM     44  C   UNL     1       3.230   8.841   5.182  1.00  0.00     0.074 A 
ATOM     45  C   UNL     1       2.197   7.989   4.635  1.00  0.00     0.031 C 
ATOM     46  C   UNL     1       4.577  12.772   0.287  1.00  0.00     0.029 A 
ATOM     47  C   UNL     1       5.126  12.810   1.643  1.00  0.00     0.049 A 
ATOM     48  H   UNL     1       4.746  11.470   3.191  1.00  0.00     0.167 HD
ATOM     49  C   UNL     1       3.713   8.735   6.443  1.00  0.00     0.031 A 
ATOM     50  C   UNL     1       5.992  13.731   2.114  1.00  0.00     0.031 A 
ATOM     51  C   UNL     1       4.724   9.598   6.993  1.00  0.00     0.049 A 
ATOM     52  C   UNL     1       6.487  13.629   3.533  1.00  0.00     0.074 A 
ATOM     53  C   UNL     1       5.304   9.554   8.249  1.00  0.00     0.029 A 
ATOM     54  N   UNL     1       5.293  10.676   6.329  1.00  0.00    -0.354 N 
ATOM     55  N   UNL     1       6.172  12.751   4.457  1.00  0.00    -0.248 NA
ATOM     56  C   UNL     1       7.470  14.632   3.968  1.00  0.00     0.031 C 
ATOM     57  C   UNL     1       6.170  10.646   8.369  1.00  0.00     0.029 A 
ATOM     58  C   UNL     1       6.191  11.325   7.160  1.00  0.00     0.049 A 
ATOM     59  H   UNL     1       5.088  10.940   5.403  1.00  0.00     0.167 HD
ATOM     60  C   UNL     1       6.936  13.081   5.574  1.00  0.00     0.074 A 
ATOM     61  C   UNL     1       7.738  14.229   5.204  1.00  0.00     0.031 C 
ATOM     62  C   UNL     1       6.976  12.479   6.790  1.00  0.00     0.031 A 
BRANCH  49  63
ATOM     63  C   UNL     1       3.098   7.678   7.327  1.00  0.00    -0.014 A 
ATOM     64  C   UNL     1       3.264   6.305   7.064  1.00  0.00     0.010 A 
ATOM     65  C   UNL     1       2.320   8.070   8.431  1.00  0.00     0.010 A 
ATOM     66  C   UNL     1       2.604   5.350   7.843  1.00  0.00     0.020 A 
ATOM     67  C   UNL     1       1.689   7.117   9.235  1.00  0.00     0.020 A 
ATOM     68  C   UNL     1       1.812   5.764   8.918  1.00  0.00     0.054 A 
BRANCH  68  69
ATOM     69  S   UNL     1       0.943   4.506   9.894  1.00  0.00     0.124 S 
ATOM     70  O   UNL     1      -0.105   4.080   8.969  1.00  0.00    -0.237 OA
ATOM     71  O   UNL     1       1.990   3.521  10.152  1.00  0.00    -0.237 OA
ATOM     72  O   UNL     1       0.476   5.239  11.068  1.00  0.00    -0.744 OA
ENDBRANCH  68  69
ENDBRANCH  49  63
BRANCH  50  73
ATOM     73  C   UNL     1       6.430  14.841   1.222  1.00  0.00    -0.014 A 
ATOM     74  C   UNL     1       7.736  14.884   0.707  1.00  0.00     0.010 A 
ATOM     75  C   UNL     1       5.511  15.837   0.841  1.00  0.00     0.010 A 
ATOM     76  C   UNL     1       8.113  15.897  -0.182  1.00  0.00     0.020 A 
ATOM     77  C   UNL     1       5.875  16.834  -0.069  1.00  0.00     0.020 A 
ATOM     78  C   UNL     1       7.175  16.857  -0.575  1.00  0.00     0.054 A 
BRANCH  78  79
ATOM     79  S   UNL     1       7.656  18.095  -1.813  1.00  0.00     0.124 S 
ATOM     80  O   UNL     1       8.575  18.941  -1.058  1.00  0.00    -0.237 OA
ATOM     81  O   UNL     1       8.264  17.273  -2.856  1.00  0.00    -0.237 OA
ATOM     82  O   UNL     1       6.389  18.720  -2.183  1.00  0.00    -0.744 OA
ENDBRANCH  78  79
ENDBRANCH  50  73
BRANCH  62  83
ATOM     83  C   UNL     1       7.945  13.025   7.810  1.00  0.00    -0.014 A 
ATOM     84  C   UNL     1       7.754  14.279   8.417  1.00  0.00     0.010 A 
ATOM     85  C   UNL     1       9.045  12.239   8.205  1.00  0.00     0.010 A 
ATOM     86  C   UNL     1       8.666  14.754   9.365  1.00  0.00     0.020 A 
ATOM     87  C   UNL     1       9.940  12.696   9.176  1.00  0.00     0.020 A 
ATOM     88  C   UNL     1       9.755  13.960   9.737  1.00  0.00     0.054 A 
BRANCH  88  89
ATOM     89  S   UNL     1      10.910  14.587  10.987  1.00  0.00     0.124 S 
ATOM     90  O   UNL     1      11.618  15.631  10.251  1.00  0.00    -0.237 OA
ATOM     91  O   UNL     1      10.016  15.058  12.042  1.00  0.00    -0.237 OA
ATOM     92  O   UNL     1      11.714  13.418  11.336  1.00  0.00    -0.744 OA
ENDBRANCH  88  89
ENDBRANCH  62  83
ENDBRANCH  36  37
ENDBRANCH  29  31
ENDBRANCH  28  29
ENDBRANCH  27  28
ENDBRANCH  26  27
ENDBRANCH  25  26
ENDBRANCH  24  25
ENDBRANCH   1  24
TORSDOF 23
