REMARK SMILES Cc1ccccc1C(=O)Nc1cc(C(=O)OCCOCCOCCOC(=O)c2ccc(-c3c4nc(c(-c5ccc(S(=O)(=O)[O-])cc5)c5ccc([nH]5)c(-c5ccc(S(=O)(=O)[O-])cc5)c5nc(c(-c6ccc(S(=O)(=O)[O-])cc6)c6ccc3[nH]6)C=C5)C=C4)cc2)ccc1N1CC[NH+](CC(=O)Nc2ccc(F)cc2)CC1
REMARK SMILES IDX 20 1 19 2 18 3 17 4 16 5 14 6 15 7 13 8 11 9 12 10 90 11
REMARK SMILES IDX 89 12 88 13 10 14 8 15 9 16 7 18 1 19 2 20 3 21 4 22 6 23
REMARK SMILES IDX 5 24 91 25 92 26 107 27 93 28 106 29 94 30 95 32 96 33 97 34
REMARK SMILES IDX 98 35 99 37 100 38 105 39 101 40 104 41 102 42 103 43 21 44
REMARK SMILES IDX 22 45 23 46 24 47 25 48 26 49 27 50 28 51 29 52 87 53 30 54
REMARK SMILES IDX 86 55 31 56 32 57 33 58 80 59 34 60 85 61 79 62 81 63 35 64
REMARK SMILES IDX 84 65 78 66 77 67 36 69 66 70 47 71 65 72 48 73 51 74 64 75
REMARK SMILES IDX 82 76 49 77 50 78 63 80 83 81 52 82 37 83 38 84 46 85 39 86
REMARK SMILES IDX 45 87 40 88 41 89 42 90 43 91 44 92 67 93 68 94 76 95 69 96
REMARK SMILES IDX 75 97 70 98 71 99 72 100 73 101 74 102 53 103 54 104 62 105
REMARK SMILES IDX 55 106 61 107 56 108 57 109 58 110 59 111 60 112
REMARK H PARENT 10 17 94 31 98 36 81 68 51 79
REMARK Flexibility Score: inf
ROOT
ATOM      1  C   UNL     1       6.074  -4.486  -5.744  1.00  0.00     0.188 C 
ENDROOT
BRANCH   1   2
ATOM      2  O   UNL     1       4.817  -4.983  -6.185  1.00  0.00    -0.376 OA
BRANCH   2   3
ATOM      3  C   UNL     1       3.868  -4.929  -5.135  1.00  0.00     0.202 C 
BRANCH   3   4
ATOM      4  C   UNL     1       3.742  -3.611  -4.338  1.00  0.00     0.261 C 
BRANCH   4   5
ATOM      5  O   UNL     1       4.860  -3.207  -3.290  1.00  0.00    -0.460 OA
BRANCH   5   6
ATOM      6  C   UNL     1       5.364  -2.169  -2.457  1.00  0.00     0.338 C 
ATOM      7  O   UNL     1       6.527  -1.847  -2.732  1.00  0.00    -0.246 OA
BRANCH   6   8
ATOM      8  C   UNL     1       4.892  -1.456  -0.987  1.00  0.00     0.062 A 
ATOM      9  C   UNL     1       3.628   0.387   0.315  1.00  0.00     0.065 A 
ATOM     10  C   UNL     1       3.684  -0.799  -0.508  1.00  0.00     0.044 A 
ATOM     11  C   UNL     1       4.873   0.908   0.791  1.00  0.00     0.061 A 
ATOM     12  C   UNL     1       5.989   0.055   0.605  1.00  0.00     0.029 A 
ATOM     13  C   UNL     1       6.006  -1.057  -0.258  1.00  0.00     0.018 A 
BRANCH   9  14
ATOM     14  N   UNL     1       2.449   1.218   0.454  1.00  0.00    -0.320 N 
ATOM     15  C   UNL     1       1.076   1.329   0.755  1.00  0.00     0.255 C 
ATOM     16  O   UNL     1       0.681   2.511   0.791  1.00  0.00    -0.269 OA
ATOM     17  H   UNL     1       2.744   2.132   0.236  1.00  0.00     0.170 HD
BRANCH  15  18
ATOM     18  C   UNL     1      -0.055   0.326   0.996  1.00  0.00     0.043 A 
ATOM     19  C   UNL     1       1.648  -1.839   1.629  1.00  0.00     0.045 C 
ATOM     20  C   UNL     1       0.374  -1.448   0.934  1.00  0.00    -0.038 A 
ATOM     21  C   UNL     1      -0.716  -2.660  -0.008  1.00  0.00     0.004 A 
ATOM     22  C   UNL     1      -2.255  -2.062  -0.884  1.00  0.00     0.000 A 
ATOM     23  C   UNL     1      -1.655   0.911   0.240  1.00  0.00     0.014 A 
ATOM     24  C   UNL     1      -2.730  -0.266  -0.781  1.00  0.00     0.001 A 
ENDBRANCH  15  18
ENDBRANCH   9  14
BRANCH  11  25
ATOM     25  N   UNL     1       5.097   2.183   1.355  1.00  0.00    -0.359 N 
ATOM     26  C   UNL     1       6.495   2.573   1.752  1.00  0.00     0.178 C 
ATOM     27  C   UNL     1       4.098   2.937   2.108  1.00  0.00     0.178 C 
ATOM     28  C   UNL     1       6.710   4.076   2.143  1.00  0.00     0.284 C 
ATOM     29  C   UNL     1       4.373   4.440   1.937  1.00  0.00     0.284 C 
ATOM     30  N   UNL     1       5.575   4.869   2.643  1.00  0.00    -0.324 N 
ATOM     31  H   UNL     1       5.772   5.846   2.422  1.00  0.00     0.348 HD
BRANCH  30  32
ATOM     32  C   UNL     1       5.435   5.011   4.108  1.00  0.00     0.364 C 
BRANCH  32  33
ATOM     33  C   UNL     1       5.307   3.746   4.952  1.00  0.00     0.279 C 
ATOM     34  O   UNL     1       6.337   3.115   5.240  1.00  0.00    -0.268 OA
ATOM     35  N   UNL     1       4.137   3.244   5.455  1.00  0.00    -0.321 N 
ATOM     36  H   UNL     1       4.304   2.567   6.150  1.00  0.00     0.170 HD
BRANCH  35  37
ATOM     37  C   UNL     1       2.752   3.437   5.242  1.00  0.00     0.041 A 
ATOM     38  C   UNL     1       1.904   2.466   5.809  1.00  0.00     0.029 A 
ATOM     39  C   UNL     1       2.168   4.419   4.447  1.00  0.00     0.029 A 
ATOM     40  C   UNL     1       0.534   2.430   5.515  1.00  0.00     0.041 A 
ATOM     41  C   UNL     1       0.807   4.357   4.107  1.00  0.00     0.041 A 
ATOM     42  C   UNL     1       0.003   3.360   4.639  1.00  0.00     0.123 A 
ATOM     43  F   UNL     1      -1.295   3.308   4.314  1.00  0.00    -0.207 F 
ENDBRANCH  35  37
ENDBRANCH  32  33
ENDBRANCH  30  32
ENDBRANCH  11  25
ENDBRANCH   6   8
ENDBRANCH   5   6
ENDBRANCH   4   5
ENDBRANCH   3   4
ENDBRANCH   2   3
ENDBRANCH   1   2
BRANCH   1  44
ATOM     44  C   UNL     1       6.290  -3.039  -6.195  1.00  0.00     0.188 C 
BRANCH  44  45
ATOM     45  O   UNL     1       5.089  -2.267  -6.293  1.00  0.00    -0.376 OA
BRANCH  45  46
ATOM     46  C   UNL     1       4.425  -2.308  -7.551  1.00  0.00     0.202 C 
BRANCH  46  47
ATOM     47  C   UNL     1       5.010  -1.236  -8.474  1.00  0.00     0.261 C 
BRANCH  47  48
ATOM     48  O   UNL     1       4.618   0.105  -8.103  1.00  0.00    -0.460 OA
BRANCH  48  49
ATOM     49  C   UNL     1       5.227   0.605  -6.991  1.00  0.00     0.338 C 
ATOM     50  O   UNL     1       6.364   1.039  -6.958  1.00  0.00    -0.246 OA
BRANCH  49  51
ATOM     51  C   UNL     1       4.290   0.508  -5.840  1.00  0.00     0.060 A 
ATOM     52  C   UNL     1       4.780   0.517  -4.548  1.00  0.00     0.016 A 
ATOM     53  C   UNL     1       2.951   0.178  -6.043  1.00  0.00     0.016 A 
ATOM     54  C   UNL     1       3.972   0.009  -3.522  1.00  0.00     0.010 A 
ATOM     55  C   UNL     1       2.248  -0.495  -5.046  1.00  0.00     0.010 A 
ATOM     56  C   UNL     1       2.807  -0.728  -3.782  1.00  0.00    -0.014 A 
BRANCH  56  57
ATOM     57  C   UNL     1       1.968  -1.651  -2.913  1.00  0.00     0.031 A 
ATOM     58  C   UNL     1       0.812  -0.906  -2.342  1.00  0.00     0.074 A 
ATOM     59  C   UNL     1       2.112  -2.864  -2.209  1.00  0.00     0.049 A 
ATOM     60  N   UNL     1       0.241  -1.415  -1.332  1.00  0.00    -0.248 NA
ATOM     61  C   UNL     1       0.398   0.423  -2.659  1.00  0.00     0.031 C 
ATOM     62  C   UNL     1       1.018  -3.832  -1.935  1.00  0.00     0.029 A 
ATOM     63  N   UNL     1       3.158  -3.650  -1.720  1.00  0.00    -0.354 N 
ATOM     64  C   UNL     1      -0.774  -0.690  -0.633  1.00  0.00     0.074 A 
ATOM     65  C   UNL     1      -0.620   0.550  -1.806  1.00  0.00     0.031 C 
ATOM     66  C   UNL     1       1.431  -4.833  -1.125  1.00  0.00     0.029 A 
ATOM     67  C   UNL     1       2.844  -4.699  -0.902  1.00  0.00     0.049 A 
ATOM     68  H   UNL     1       4.093  -3.455  -1.958  1.00  0.00     0.167 HD
ATOM     69  C   UNL     1      -1.764  -1.074   0.909  1.00  0.00     0.031 A 
ATOM     70  C   UNL     1       3.679  -5.374  -0.072  1.00  0.00     0.031 A 
ATOM     71  C   UNL     1      -1.751  -2.487   1.944  1.00  0.00     0.049 A 
ATOM     72  C   UNL     1       3.046  -5.543   1.292  1.00  0.00     0.074 A 
ATOM     73  C   UNL     1      -2.321  -3.775   1.740  1.00  0.00     0.029 A 
ATOM     74  N   UNL     1      -0.845  -2.725   2.988  1.00  0.00    -0.354 N 
ATOM     75  N   UNL     1       1.879  -5.049   1.629  1.00  0.00    -0.248 NA
ATOM     76  C   UNL     1       3.719  -6.204   2.411  1.00  0.00     0.031 C 
ATOM     77  C   UNL     1      -1.451  -4.750   2.277  1.00  0.00     0.029 A 
ATOM     78  C   UNL     1      -0.454  -4.081   2.950  1.00  0.00     0.049 A 
ATOM     79  H   UNL     1      -0.533  -2.056   3.639  1.00  0.00     0.167 HD
ATOM     80  C   UNL     1       1.708  -5.189   2.987  1.00  0.00     0.074 A 
ATOM     81  C   UNL     1       2.857  -5.972   3.416  1.00  0.00     0.031 C 
ATOM     82  C   UNL     1       0.674  -4.630   3.690  1.00  0.00     0.031 A 
BRANCH  69  83
ATOM     83  C   UNL     1      -3.403  -0.540   1.493  1.00  0.00    -0.014 A 
ATOM     84  C   UNL     1      -4.423  -1.527   1.344  1.00  0.00     0.010 A 
ATOM     85  C   UNL     1      -3.909   0.771   1.679  1.00  0.00     0.010 A 
ATOM     86  C   UNL     1      -5.776  -1.253   1.152  1.00  0.00     0.020 A 
ATOM     87  C   UNL     1      -5.274   1.076   1.400  1.00  0.00     0.020 A 
ATOM     88  C   UNL     1      -6.183   0.060   1.089  1.00  0.00     0.054 A 
BRANCH  88  89
ATOM     89  S   UNL     1      -7.826   0.382   0.386  1.00  0.00     0.124 S 
ATOM     90  O   UNL     1      -7.941  -0.636  -0.660  1.00  0.00    -0.237 OA
ATOM     91  O   UNL     1      -8.703   0.191   1.536  1.00  0.00    -0.237 OA
ATOM     92  O   UNL     1      -7.721   1.750  -0.113  1.00  0.00    -0.744 OA
ENDBRANCH  88  89
ENDBRANCH  69  83
BRANCH  70  93
ATOM     93  C   UNL     1       5.152  -5.377  -0.419  1.00  0.00    -0.014 A 
ATOM     94  C   UNL     1       5.545  -6.058  -1.601  1.00  0.00     0.010 A 
ATOM     95  C   UNL     1       6.121  -4.559   0.184  1.00  0.00     0.010 A 
ATOM     96  C   UNL     1       6.782  -5.818  -2.233  1.00  0.00     0.020 A 
ATOM     97  C   UNL     1       7.370  -4.316  -0.448  1.00  0.00     0.020 A 
ATOM     98  C   UNL     1       7.670  -4.900  -1.683  1.00  0.00     0.054 A 
BRANCH  98  99
ATOM     99  S   UNL     1       9.102  -4.320  -2.679  1.00  0.00     0.124 S 
ATOM    100  O   UNL     1      10.120  -5.317  -2.360  1.00  0.00    -0.237 OA
ATOM    101  O   UNL     1       8.605  -4.377  -4.054  1.00  0.00    -0.237 OA
ATOM    102  O   UNL     1       9.368  -2.982  -2.159  1.00  0.00    -0.744 OA
ENDBRANCH  98  99
ENDBRANCH  70  93
BRANCH  82 103
ATOM    103  C   UNL     1       0.528  -4.689   5.176  1.00  0.00    -0.014 A 
ATOM    104  C   UNL     1       1.595  -4.589   6.076  1.00  0.00     0.010 A 
ATOM    105  C   UNL     1      -0.787  -4.703   5.697  1.00  0.00     0.010 A 
ATOM    106  C   UNL     1       1.352  -4.524   7.452  1.00  0.00     0.020 A 
ATOM    107  C   UNL     1      -1.038  -4.590   7.056  1.00  0.00     0.020 A 
ATOM    108  C   UNL     1       0.037  -4.512   7.929  1.00  0.00     0.054 A 
BRANCH 108 109
ATOM    109  S   UNL     1      -0.288  -4.287   9.690  1.00  0.00     0.124 S 
ATOM    110  O   UNL     1      -0.338  -5.667  10.163  1.00  0.00    -0.237 OA
ATOM    111  O   UNL     1       0.864  -3.507  10.137  1.00  0.00    -0.237 OA
ATOM    112  O   UNL     1      -1.559  -3.567   9.706  1.00  0.00    -0.744 OA
ENDBRANCH 108 109
ENDBRANCH  82 103
ENDBRANCH  56  57
ENDBRANCH  49  51
ENDBRANCH  48  49
ENDBRANCH  47  48
ENDBRANCH  46  47
ENDBRANCH  45  46
ENDBRANCH  44  45
ENDBRANCH   1  44
TORSDOF 26
