REMARK SMILES CCc1ccccc1NC(=O)c1cc(S(=O)(=O)N2CCC[C@H](C(=O)OCCOCCOCCOC(=O)c3ccc(-c4c5nc(c(-c6ccc(S(=O)(=O)[O-])cc6)c6ccc([nH]6)c(-c6ccc(S(=O)(=O)[O-])cc6)c6nc(c(-c7ccc(S(=O)(=O)[O-])cc7)c7ccc4[nH]7)C=C6)C=C5)cc3)C2)ccc1F
REMARK SMILES IDX 29 1 28 2 27 3 26 4 25 5 23 6 24 7 22 8 18 9 19 10 97 11
REMARK SMILES IDX 20 12 21 13 15 14 16 15 17 16 14 17 12 18 13 19 100 20 99 21
REMARK SMILES IDX 101 22 98 23 10 24 9 25 11 27 8 28 3 29 4 30 5 31 7 32 6 33
REMARK SMILES IDX 2 34 1 35 30 36 31 37 32 38 33 39 34 40 35 41 36 42 37 43
REMARK SMILES IDX 38 44 96 45 39 46 95 47 40 48 41 49 42 50 89 51 43 52 94 53
REMARK SMILES IDX 88 54 90 55 44 56 93 57 87 58 86 59 45 61 75 62 56 63 74 64
REMARK SMILES IDX 57 65 60 66 73 67 91 68 58 69 59 70 72 72 92 73 61 74 46 75
REMARK SMILES IDX 47 76 55 77 48 78 54 79 49 80 50 81 51 82 52 83 53 84 76 85
REMARK SMILES IDX 77 86 85 87 78 88 84 89 79 90 80 91 81 92 82 93 83 94 62 95
REMARK SMILES IDX 63 96 71 97 64 98 70 99 65 100 66 101 67 102 68 103 69 104
REMARK H PARENT 9 26 90 60 60 71
REMARK Flexibility Score: inf
ROOT
ATOM      1  C   UNL     1       1.512  12.949 -10.360  1.00  0.00     0.188 C 
ENDROOT
BRANCH   1   2
ATOM      2  O   UNL     1       1.847  14.233  -9.847  1.00  0.00    -0.376 OA
BRANCH   2   3
ATOM      3  C   UNL     1       2.937  14.316  -8.929  1.00  0.00     0.202 C 
BRANCH   3   4
ATOM      4  C   UNL     1       2.781  13.577  -7.596  1.00  0.00     0.261 C 
BRANCH   4   5
ATOM      5  O   UNL     1       2.664  12.151  -7.737  1.00  0.00    -0.463 OA
BRANCH   5   6
ATOM      6  C   UNL     1       1.471  11.634  -7.361  1.00  0.00     0.310 C 
ATOM      7  O   UNL     1       0.524  12.290  -6.936  1.00  0.00    -0.252 OA
BRANCH   6   8
ATOM      8  C   UNL     1       1.361  10.139  -7.540  1.00  0.00     0.114 C 
ATOM      9  N   UNL     1       2.429   9.266  -5.450  1.00  0.00    -0.197 NA
ATOM     10  C   UNL     1       3.516   8.601  -6.199  1.00  0.00     0.102 C 
ATOM     11  C   UNL     1       1.152   9.554  -6.158  1.00  0.00     0.117 C 
ATOM     12  C   UNL     1       3.729   9.224  -7.568  1.00  0.00     0.018 C 
ATOM     13  C   UNL     1       2.427   9.385  -8.333  1.00  0.00     0.018 C 
BRANCH   9  14
ATOM     14  S   UNL     1       2.277   8.843  -3.808  1.00  0.00     0.243 S 
ATOM     15  O   UNL     1       1.477   9.862  -3.168  1.00  0.00    -0.207 OA
ATOM     16  O   UNL     1       3.586   8.481  -3.303  1.00  0.00    -0.207 OA
BRANCH  14  17
ATOM     17  C   UNL     1       1.300   7.352  -3.761  1.00  0.00     0.083 A 
ATOM     18  C   UNL     1       0.081   5.788  -2.410  1.00  0.00     0.077 A 
ATOM     19  C   UNL     1       0.857   6.944  -2.503  1.00  0.00     0.038 A 
ATOM     20  C   UNL     1      -0.390   5.143  -3.553  1.00  0.00     0.136 A 
ATOM     21  C   UNL     1       0.064   5.538  -4.802  1.00  0.00     0.041 A 
ATOM     22  F   UNL     1      -1.191   4.073  -3.465  1.00  0.00    -0.206 F 
ATOM     23  C   UNL     1       0.958   6.606  -4.899  1.00  0.00     0.025 A 
BRANCH  18  24
ATOM     24  C   UNL     1      -0.070   5.170  -1.093  1.00  0.00     0.258 C 
ATOM     25  N   UNL     1       0.424   3.905  -0.852  1.00  0.00    -0.322 N 
ATOM     26  H   UNL     1       0.183   3.542   0.031  1.00  0.00     0.170 HD
ATOM     27  O   UNL     1      -0.646   5.799  -0.208  1.00  0.00    -0.269 OA
BRANCH  25  28
ATOM     28  C   UNL     1       1.214   3.029  -1.641  1.00  0.00     0.044 A 
ATOM     29  C   UNL     1       1.155   1.642  -1.387  1.00  0.00    -0.025 A 
ATOM     30  C   UNL     1       1.736   0.763  -2.325  1.00  0.00     0.006 A 
ATOM     31  C   UNL     1       2.446   1.238  -3.427  1.00  0.00     0.000 A 
ATOM     32  C   UNL     1       2.042   3.483  -2.678  1.00  0.00     0.026 A 
ATOM     33  C   UNL     1       2.633   2.600  -3.582  1.00  0.00     0.002 A 
BRANCH  29  34
ATOM     34  C   UNL     1       0.434   1.101  -0.168  1.00  0.00     0.034 C 
ATOM     35  C   UNL     1       0.838  -0.296   0.289  1.00  0.00     0.009 C 
ENDBRANCH  29  34
ENDBRANCH  25  28
ENDBRANCH  18  24
ENDBRANCH  14  17
ENDBRANCH   9  14
ENDBRANCH   6   8
ENDBRANCH   5   6
ENDBRANCH   4   5
ENDBRANCH   3   4
ENDBRANCH   2   3
ENDBRANCH   1   2
BRANCH   1  36
ATOM     36  C   UNL     1       2.602  12.228 -11.155  1.00  0.00     0.188 C 
BRANCH  36  37
ATOM     37  O   UNL     1       3.864  12.167 -10.500  1.00  0.00    -0.376 OA
BRANCH  37  38
ATOM     38  C   UNL     1       4.914  11.507 -11.213  1.00  0.00     0.202 C 
BRANCH  38  39
ATOM     39  C   UNL     1       5.165  12.012 -12.648  1.00  0.00     0.261 C 
BRANCH  39  40
ATOM     40  O   UNL     1       4.085  11.731 -13.561  1.00  0.00    -0.460 OA
BRANCH  40  41
ATOM     41  C   UNL     1       3.695  10.439 -13.666  1.00  0.00     0.338 C 
ATOM     42  O   UNL     1       4.328   9.462 -13.303  1.00  0.00    -0.246 OA
BRANCH  41  43
ATOM     43  C   UNL     1       2.257  10.414 -14.039  1.00  0.00     0.060 A 
ATOM     44  C   UNL     1       1.442   9.436 -13.452  1.00  0.00     0.016 A 
ATOM     45  C   UNL     1       1.695  11.372 -14.889  1.00  0.00     0.016 A 
ATOM     46  C   UNL     1       0.080   9.382 -13.753  1.00  0.00     0.010 A 
ATOM     47  C   UNL     1       0.332  11.312 -15.197  1.00  0.00     0.010 A 
ATOM     48  C   UNL     1      -0.474  10.295 -14.660  1.00  0.00    -0.014 A 
BRANCH  48  49
ATOM     49  C   UNL     1      -1.823  10.050 -15.228  1.00  0.00     0.031 A 
ATOM     50  C   UNL     1      -1.910   9.298 -16.531  1.00  0.00     0.074 A 
ATOM     51  C   UNL     1      -2.948  10.457 -14.612  1.00  0.00     0.049 A 
ATOM     52  N   UNL     1      -2.961   8.999 -17.248  1.00  0.00    -0.248 NA
ATOM     53  C   UNL     1      -0.637   8.816 -17.096  1.00  0.00     0.031 C 
ATOM     54  C   UNL     1      -3.015  11.149 -13.326  1.00  0.00     0.029 A 
ATOM     55  N   UNL     1      -4.261  10.344 -15.001  1.00  0.00    -0.354 N 
ATOM     56  C   UNL     1      -2.479   8.293 -18.343  1.00  0.00     0.074 A 
ATOM     57  C   UNL     1      -1.040   8.232 -18.214  1.00  0.00     0.031 C 
ATOM     58  C   UNL     1      -4.305  11.406 -13.037  1.00  0.00     0.029 A 
ATOM     59  C   UNL     1      -5.151  10.925 -14.128  1.00  0.00     0.049 A 
ATOM     60  H   UNL     1      -4.539   9.889 -15.829  1.00  0.00     0.167 HD
ATOM     61  C   UNL     1      -3.168   7.733 -19.364  1.00  0.00     0.031 A 
ATOM     62  C   UNL     1      -6.490  11.068 -14.213  1.00  0.00     0.031 A 
ATOM     63  C   UNL     1      -4.593   7.808 -19.519  1.00  0.00     0.049 A 
ATOM     64  C   UNL     1      -7.225  10.525 -15.416  1.00  0.00     0.074 A 
ATOM     65  C   UNL     1      -5.375   7.290 -20.536  1.00  0.00     0.029 A 
ATOM     66  N   UNL     1      -5.450   8.442 -18.635  1.00  0.00    -0.354 N 
ATOM     67  N   UNL     1      -6.753   9.853 -16.440  1.00  0.00    -0.248 NA
ATOM     68  C   UNL     1      -8.677  10.759 -15.470  1.00  0.00     0.031 C 
ATOM     69  C   UNL     1      -6.705   7.647 -20.288  1.00  0.00     0.029 A 
ATOM     70  C   UNL     1      -6.753   8.342 -19.091  1.00  0.00     0.049 A 
ATOM     71  H   UNL     1      -5.174   8.897 -17.807  1.00  0.00     0.167 HD
ATOM     72  C   UNL     1      -7.856   9.558 -17.239  1.00  0.00     0.074 A 
ATOM     73  C   UNL     1      -9.016  10.114 -16.578  1.00  0.00     0.031 C 
ATOM     74  C   UNL     1      -7.902   8.884 -18.415  1.00  0.00     0.031 A 
BRANCH  61  75
ATOM     75  C   UNL     1      -2.375   7.002 -20.409  1.00  0.00    -0.014 A 
ATOM     76  C   UNL     1      -1.832   5.733 -20.141  1.00  0.00     0.010 A 
ATOM     77  C   UNL     1      -2.202   7.572 -21.683  1.00  0.00     0.010 A 
ATOM     78  C   UNL     1      -1.107   5.056 -21.123  1.00  0.00     0.020 A 
ATOM     79  C   UNL     1      -1.496   6.887 -22.675  1.00  0.00     0.020 A 
ATOM     80  C   UNL     1      -0.943   5.638 -22.384  1.00  0.00     0.054 A 
BRANCH  80  81
ATOM     81  S   UNL     1      -0.025   4.721 -23.651  1.00  0.00     0.124 S 
ATOM     82  O   UNL     1       1.352   4.861 -23.184  1.00  0.00    -0.237 OA
ATOM     83  O   UNL     1      -0.590   3.378 -23.546  1.00  0.00    -0.237 OA
ATOM     84  O   UNL     1      -0.339   5.431 -24.888  1.00  0.00    -0.744 OA
ENDBRANCH  80  81
ENDBRANCH  61  75
BRANCH  62  85
ATOM     85  C   UNL     1      -7.245  11.786 -13.149  1.00  0.00    -0.014 A 
ATOM     86  C   UNL     1      -8.148  11.095 -12.320  1.00  0.00     0.010 A 
ATOM     87  C   UNL     1      -7.115  13.179 -13.005  1.00  0.00     0.010 A 
ATOM     88  C   UNL     1      -8.934  11.788 -11.395  1.00  0.00     0.020 A 
ATOM     89  C   UNL     1      -7.881  13.872 -12.062  1.00  0.00     0.020 A 
ATOM     90  C   UNL     1      -8.801  13.174 -11.278  1.00  0.00     0.054 A 
BRANCH  90  91
ATOM     91  S   UNL     1      -9.828  14.058 -10.070  1.00  0.00     0.124 S 
ATOM     92  O   UNL     1     -11.119  14.106 -10.750  1.00  0.00    -0.237 OA
ATOM     93  O   UNL     1      -9.761  13.188  -8.899  1.00  0.00    -0.237 OA
ATOM     94  O   UNL     1      -9.148  15.343  -9.923  1.00  0.00    -0.744 OA
ENDBRANCH  90  91
ENDBRANCH  62  85
BRANCH  74  95
ATOM     95  C   UNL     1      -9.251   8.659 -19.044  1.00  0.00    -0.014 A 
ATOM     96  C   UNL     1      -9.941   9.702 -19.685  1.00  0.00     0.010 A 
ATOM     97  C   UNL     1      -9.801   7.364 -19.055  1.00  0.00     0.010 A 
ATOM     98  C   UNL     1     -11.171   9.458 -20.306  1.00  0.00     0.020 A 
ATOM     99  C   UNL     1     -11.017   7.111 -19.695  1.00  0.00     0.020 A 
ATOM    100  C   UNL     1     -11.701   8.163 -20.306  1.00  0.00     0.054 A 
BRANCH 100 101
ATOM    101  S   UNL     1     -13.270   7.859 -21.164  1.00  0.00     0.124 S 
ATOM    102  O   UNL     1     -14.242   8.415 -20.227  1.00  0.00    -0.237 OA
ATOM    103  O   UNL     1     -13.105   8.600 -22.412  1.00  0.00    -0.237 OA
ATOM    104  O   UNL     1     -13.307   6.405 -21.311  1.00  0.00    -0.744 OA
ENDBRANCH 100 101
ENDBRANCH  74  95
ENDBRANCH  48  49
ENDBRANCH  41  43
ENDBRANCH  40  41
ENDBRANCH  39  40
ENDBRANCH  38  39
ENDBRANCH  37  38
ENDBRANCH  36  37
ENDBRANCH   1  36
TORSDOF 25
