REMARK SMILES C#CCNC(=O)N[C@@]1(C(=O)OCCOCCOCCOC(=O)c2ccc(-c3c4nc(c(-c5ccc(S(=O)(=O)[O-])cc5)c5ccc([nH]5)c(-c5ccc(S(=O)(=O)[O-])cc5)c5nc(c(-c6ccc(S(=O)(=O)[O-])cc6)c6ccc3[nH]6)C=C5)C=C4)cc2)CCc2ccccc21
REMARK SMILES IDX 15 1 14 2 13 3 12 4 11 5 9 6 10 7 8 8 83 9 90 10 84 11 85 12
REMARK SMILES IDX 89 13 86 14 88 15 87 16 7 17 4 18 5 19 6 21 3 23 2 24 1 25
REMARK SMILES IDX 16 26 17 27 18 28 19 29 20 30 21 31 22 32 23 33 24 34 82 35
REMARK SMILES IDX 25 36 81 37 26 38 27 39 28 40 75 41 29 42 80 43 74 44 76 45
REMARK SMILES IDX 30 46 79 47 73 48 72 49 31 51 61 52 42 53 60 54 43 55 46 56
REMARK SMILES IDX 59 57 77 58 44 59 45 60 58 62 78 63 47 64 32 65 33 66 41 67
REMARK SMILES IDX 34 68 40 69 35 70 36 71 37 72 38 73 39 74 62 75 63 76 71 77
REMARK SMILES IDX 64 78 70 79 65 80 66 81 67 82 68 83 69 84 48 85 49 86 57 87
REMARK SMILES IDX 50 88 56 89 51 90 52 91 53 92 54 93 55 94
REMARK H PARENT 4 20 7 22 76 50 46 61
REMARK Flexibility Score: inf
ROOT
ATOM      1  C   UNL     1      -3.217   4.042  -3.531  1.00  0.00     0.188 C 
ENDROOT
BRANCH   1   2
ATOM      2  O   UNL     1      -4.217   4.902  -3.000  1.00  0.00    -0.376 OA
BRANCH   2   3
ATOM      3  C   UNL     1      -5.535   4.368  -2.957  1.00  0.00     0.202 C 
BRANCH   3   4
ATOM      4  C   UNL     1      -5.745   3.314  -1.873  1.00  0.00     0.261 C 
BRANCH   4   5
ATOM      5  O   UNL     1      -4.864   2.196  -1.954  1.00  0.00    -0.461 OA
BRANCH   5   6
ATOM      6  C   UNL     1      -4.877   1.457  -3.099  1.00  0.00     0.336 C 
ATOM      7  O   UNL     1      -5.500   1.749  -4.111  1.00  0.00    -0.249 OA
BRANCH   6   8
ATOM      8  C   UNL     1      -4.175   0.111  -2.844  1.00  0.00     0.165 C 
ATOM      9  C   UNL     1      -3.253  -0.348  -4.008  1.00  0.00     0.050 C 
ATOM     10  C   UNL     1      -5.335  -0.875  -3.001  1.00  0.00    -0.008 A 
ATOM     11  C   UNL     1      -3.568  -1.831  -4.299  1.00  0.00     0.039 C 
ATOM     12  C   UNL     1      -4.987  -1.950  -3.835  1.00  0.00    -0.042 A 
ATOM     13  C   UNL     1      -6.593  -0.821  -2.399  1.00  0.00     0.007 A 
ATOM     14  C   UNL     1      -5.847  -3.024  -4.002  1.00  0.00     0.004 A 
ATOM     15  C   UNL     1      -7.465  -1.894  -2.574  1.00  0.00     0.000 A 
ATOM     16  C   UNL     1      -7.088  -2.994  -3.358  1.00  0.00     0.000 A 
BRANCH   8  17
ATOM     17  N   UNL     1      -3.340   0.273  -1.546  1.00  0.00    -0.318 N 
ATOM     18  N   UNL     1      -3.359  -1.454   0.041  1.00  0.00    -0.327 N 
ATOM     19  C   UNL     1      -2.878  -0.293  -0.415  1.00  0.00     0.316 C 
ATOM     20  H   UNL     1      -2.994  -1.867   0.857  1.00  0.00     0.166 HD
ATOM     21  O   UNL     1      -2.030   0.300   0.249  1.00  0.00    -0.249 OA
ATOM     22  H   UNL     1      -2.998   1.196  -1.551  1.00  0.00     0.166 HD
BRANCH  18  23
ATOM     23  C   UNL     1      -4.387  -2.059  -0.666  1.00  0.00     0.207 C 
BRANCH  23  24
ATOM     24  C   UNL     1      -4.328  -3.567  -0.847  1.00  0.00    -0.085 C 
ATOM     25  C   UNL     1      -4.277  -4.861  -1.002  1.00  0.00     0.006 C 
ENDBRANCH  23  24
ENDBRANCH  18  23
ENDBRANCH   8  17
ENDBRANCH   6   8
ENDBRANCH   5   6
ENDBRANCH   4   5
ENDBRANCH   3   4
ENDBRANCH   2   3
ENDBRANCH   1   2
BRANCH   1  26
ATOM     26  C   UNL     1      -2.223   3.486  -2.494  1.00  0.00     0.188 C 
BRANCH  26  27
ATOM     27  O   UNL     1      -2.373   3.824  -1.128  1.00  0.00    -0.376 OA
BRANCH  27  28
ATOM     28  C   UNL     1      -2.534   5.204  -0.813  1.00  0.00     0.202 C 
BRANCH  28  29
ATOM     29  C   UNL     1      -1.663   6.290  -1.498  1.00  0.00     0.261 C 
BRANCH  29  30
ATOM     30  O   UNL     1      -1.346   6.088  -2.893  1.00  0.00    -0.460 OA
BRANCH  30  31
ATOM     31  C   UNL     1      -0.068   5.723  -3.184  1.00  0.00     0.338 C 
ATOM     32  O   UNL     1       0.870   5.695  -2.400  1.00  0.00    -0.246 OA
BRANCH  31  33
ATOM     33  C   UNL     1      -0.014   5.076  -4.529  1.00  0.00     0.060 A 
ATOM     34  C   UNL     1       0.529   3.780  -4.616  1.00  0.00     0.016 A 
ATOM     35  C   UNL     1      -0.542   5.674  -5.675  1.00  0.00     0.016 A 
ATOM     36  C   UNL     1       0.566   3.095  -5.836  1.00  0.00     0.010 A 
ATOM     37  C   UNL     1      -0.470   5.001  -6.907  1.00  0.00     0.010 A 
ATOM     38  C   UNL     1       0.110   3.720  -7.002  1.00  0.00    -0.014 A 
BRANCH  38  39
ATOM     39  C   UNL     1       0.470   3.155  -8.333  1.00  0.00     0.031 A 
ATOM     40  C   UNL     1       1.747   3.638  -8.975  1.00  0.00     0.074 A 
ATOM     41  C   UNL     1      -0.280   2.232  -8.967  1.00  0.00     0.049 A 
ATOM     42  N   UNL     1       2.250   3.351 -10.149  1.00  0.00    -0.248 NA
ATOM     43  C   UNL     1       2.565   4.569  -8.180  1.00  0.00     0.031 C 
ATOM     44  C   UNL     1      -1.502   1.622  -8.449  1.00  0.00     0.029 A 
ATOM     45  N   UNL     1      -0.116   1.653 -10.205  1.00  0.00    -0.354 N 
ATOM     46  C   UNL     1       3.435   4.074 -10.237  1.00  0.00     0.074 A 
ATOM     47  C   UNL     1       3.567   4.825  -9.008  1.00  0.00     0.031 C 
ATOM     48  C   UNL     1      -1.988   0.768  -9.370  1.00  0.00     0.029 A 
ATOM     49  C   UNL     1      -1.132   0.795 -10.558  1.00  0.00     0.049 A 
ATOM     50  H   UNL     1       0.658   1.837 -10.786  1.00  0.00     0.167 HD
ATOM     51  C   UNL     1       4.336   4.115 -11.246  1.00  0.00     0.031 A 
ATOM     52  C   UNL     1      -1.361   0.131 -11.711  1.00  0.00     0.031 A 
ATOM     53  C   UNL     1       4.207   3.393 -12.482  1.00  0.00     0.049 A 
ATOM     54  C   UNL     1      -0.394   0.270 -12.864  1.00  0.00     0.074 A 
ATOM     55  C   UNL     1       5.076   3.373 -13.559  1.00  0.00     0.029 A 
ATOM     56  N   UNL     1       3.138   2.576 -12.815  1.00  0.00    -0.354 N 
ATOM     57  N   UNL     1       0.731   0.943 -12.924  1.00  0.00    -0.248 NA
ATOM     58  C   UNL     1      -0.731  -0.443 -14.108  1.00  0.00     0.031 C 
ATOM     59  C   UNL     1       4.504   2.590 -14.567  1.00  0.00     0.029 A 
ATOM     60  C   UNL     1       3.310   2.073 -14.093  1.00  0.00     0.049 A 
ATOM     61  H   UNL     1       2.371   2.383 -12.229  1.00  0.00     0.167 HD
ATOM     62  C   UNL     1       1.245   0.714 -14.199  1.00  0.00     0.074 A 
ATOM     63  C   UNL     1       0.319  -0.171 -14.872  1.00  0.00     0.031 C 
ATOM     64  C   UNL     1       2.384   1.193 -14.759  1.00  0.00     0.031 A 
BRANCH  51  65
ATOM     65  C   UNL     1       5.529   5.014 -11.068  1.00  0.00    -0.014 A 
ATOM     66  C   UNL     1       6.567   4.680 -10.179  1.00  0.00     0.010 A 
ATOM     67  C   UNL     1       5.627   6.194 -11.827  1.00  0.00     0.010 A 
ATOM     68  C   UNL     1       7.665   5.530 -10.026  1.00  0.00     0.020 A 
ATOM     69  C   UNL     1       6.737   7.033 -11.697  1.00  0.00     0.020 A 
ATOM     70  C   UNL     1       7.742   6.702 -10.785  1.00  0.00     0.054 A 
BRANCH  70  71
ATOM     71  S   UNL     1       9.191   7.774 -10.586  1.00  0.00     0.124 S 
ATOM     72  O   UNL     1       8.946   8.370  -9.275  1.00  0.00    -0.237 OA
ATOM     73  O   UNL     1      10.301   6.827 -10.648  1.00  0.00    -0.237 OA
ATOM     74  O   UNL     1       9.099   8.696 -11.716  1.00  0.00    -0.744 OA
ENDBRANCH  70  71
ENDBRANCH  51  65
BRANCH  52  75
ATOM     75  C   UNL     1      -2.586  -0.706 -11.866  1.00  0.00    -0.014 A 
ATOM     76  C   UNL     1      -2.494  -2.105 -11.980  1.00  0.00     0.010 A 
ATOM     77  C   UNL     1      -3.855  -0.101 -11.937  1.00  0.00     0.010 A 
ATOM     78  C   UNL     1      -3.643  -2.880 -12.175  1.00  0.00     0.020 A 
ATOM     79  C   UNL     1      -5.008  -0.874 -12.103  1.00  0.00     0.020 A 
ATOM     80  C   UNL     1      -4.894  -2.259 -12.232  1.00  0.00     0.054 A 
BRANCH  80  81
ATOM     81  S   UNL     1      -6.375  -3.288 -12.434  1.00  0.00     0.124 S 
ATOM     82  O   UNL     1      -6.283  -3.684 -13.836  1.00  0.00    -0.237 OA
ATOM     83  O   UNL     1      -6.153  -4.354 -11.459  1.00  0.00    -0.237 OA
ATOM     84  O   UNL     1      -7.471  -2.377 -12.111  1.00  0.00    -0.744 OA
ENDBRANCH  80  81
ENDBRANCH  52  75
BRANCH  64  85
ATOM     85  C   UNL     1       2.721   0.752 -16.162  1.00  0.00    -0.014 A 
ATOM     86  C   UNL     1       2.005   1.234 -17.272  1.00  0.00     0.010 A 
ATOM     87  C   UNL     1       3.815  -0.107 -16.376  1.00  0.00     0.010 A 
ATOM     88  C   UNL     1       2.359   0.843 -18.567  1.00  0.00     0.020 A 
ATOM     89  C   UNL     1       4.190  -0.479 -17.671  1.00  0.00     0.020 A 
ATOM     90  C   UNL     1       3.450  -0.012 -18.758  1.00  0.00     0.054 A 
BRANCH  90  91
ATOM     91  S   UNL     1       3.917  -0.470 -20.451  1.00  0.00     0.124 S 
ATOM     92  O   UNL     1       2.862  -1.412 -20.814  1.00  0.00    -0.237 OA
ATOM     93  O   UNL     1       3.883   0.812 -21.152  1.00  0.00    -0.237 OA
ATOM     94  O   UNL     1       5.247  -1.054 -20.298  1.00  0.00    -0.744 OA
ENDBRANCH  90  91
ENDBRANCH  64  85
ENDBRANCH  38  39
ENDBRANCH  31  33
ENDBRANCH  30  31
ENDBRANCH  29  30
ENDBRANCH  28  29
ENDBRANCH  27  28
ENDBRANCH  26  27
ENDBRANCH   1  26
TORSDOF 23
