REMARK SMILES CC[C@H](C)[C@@H](C(=O)OCCOCCOCCOC(=O)c1ccc(-c2c3nc(c(-c4ccc(S(=O)(=O)[O-])cc4)c4ccc([nH]4)c(-c4ccc(S(=O)(=O)[O-])cc4)c4nc(c(-c5ccc(S(=O)(=O)[O-])cc5)c5ccc2[nH]5)C=C4)C=C3)cc1)[NH+]1CC(C)(C)C1
REMARK SMILES IDX 13 1 12 2 11 3 10 4 9 5 8 6 6 7 7 8 5 9 3 10 4 11 2 12 1 13
REMARK SMILES IDX 80 14 81 15 85 16 82 18 83 19 84 20 14 21 15 22 16 23 17 24
REMARK SMILES IDX 18 25 19 26 20 27 21 28 79 29 22 30 78 31 23 32 24 33 25 34
REMARK SMILES IDX 72 35 26 36 77 37 71 38 73 39 27 40 76 41 70 42 69 43 28 45
REMARK SMILES IDX 58 46 39 47 57 48 40 49 43 50 56 51 74 52 41 53 42 54 55 56
REMARK SMILES IDX 75 57 44 58 29 59 30 60 38 61 31 62 37 63 32 64 33 65 34 66
REMARK SMILES IDX 35 67 36 68 59 69 60 70 68 71 61 72 67 73 62 74 63 75 64 76
REMARK SMILES IDX 65 77 66 78 45 79 46 80 54 81 47 82 53 83 48 84 49 85 50 86
REMARK SMILES IDX 51 87 52 88
REMARK H PARENT 80 17 73 44 43 55
REMARK Flexibility Score: inf
ROOT
ATOM      1  C   UNL     1       3.230   0.590  -3.588  1.00  0.00     0.188 C 
ENDROOT
BRANCH   1   2
ATOM      2  C   UNL     1       3.223   0.698  -5.121  1.00  0.00     0.188 C 
BRANCH   2   3
ATOM      3  O   UNL     1       3.050   1.988  -5.696  1.00  0.00    -0.376 OA
BRANCH   3   4
ATOM      4  C   UNL     1       1.945   2.775  -5.256  1.00  0.00     0.202 C 
BRANCH   4   5
ATOM      5  C   UNL     1       0.564   2.107  -5.131  1.00  0.00     0.261 C 
BRANCH   5   6
ATOM      6  O   UNL     1       0.548   0.984  -4.224  1.00  0.00    -0.459 OA
BRANCH   6   7
ATOM      7  C   UNL     1      -0.313  -0.024  -4.522  1.00  0.00     0.365 C 
ATOM      8  O   UNL     1      -1.108   0.032  -5.458  1.00  0.00    -0.245 OA
BRANCH   7   9
ATOM      9  C   UNL     1      -0.181  -1.291  -3.609  1.00  0.00     0.297 C 
BRANCH   9  10
ATOM     10  C   UNL     1       0.211  -1.092  -2.090  1.00  0.00     0.056 C 
ATOM     11  C   UNL     1      -0.366   0.202  -1.494  1.00  0.00     0.014 C 
BRANCH  10  12
ATOM     12  C   UNL     1      -0.212  -2.329  -1.251  1.00  0.00     0.006 C 
ATOM     13  C   UNL     1      -0.116  -2.195   0.263  1.00  0.00     0.004 C 
ENDBRANCH  10  12
ENDBRANCH   9  10
BRANCH   9  14
ATOM     14  N   UNL     1       0.494  -2.320  -4.441  1.00  0.00    -0.322 N 
ATOM     15  C   UNL     1       1.854  -2.738  -4.093  1.00  0.00     0.275 C 
ATOM     16  C   UNL     1      -0.011  -3.691  -4.274  1.00  0.00     0.275 C 
ATOM     17  H   UNL     1       0.368  -1.814  -5.318  1.00  0.00     0.348 HD
ATOM     18  C   UNL     1       1.451  -4.206  -4.433  1.00  0.00     0.063 C 
ATOM     19  C   UNL     1       1.902  -5.236  -3.401  1.00  0.00     0.023 C 
ATOM     20  C   UNL     1       1.792  -4.667  -5.851  1.00  0.00     0.023 C 
ENDBRANCH   9  14
ENDBRANCH   7   9
ENDBRANCH   6   7
ENDBRANCH   5   6
ENDBRANCH   4   5
ENDBRANCH   3   4
ENDBRANCH   2   3
ENDBRANCH   1   2
BRANCH   1  21
ATOM     21  O   UNL     1       3.029   1.793  -2.890  1.00  0.00    -0.376 OA
BRANCH  21  22
ATOM     22  C   UNL     1       4.115   2.469  -2.290  1.00  0.00     0.202 C 
BRANCH  22  23
ATOM     23  C   UNL     1       5.582   2.365  -2.753  1.00  0.00     0.261 C 
BRANCH  23  24
ATOM     24  O   UNL     1       5.987   1.196  -3.471  1.00  0.00    -0.460 OA
BRANCH  24  25
ATOM     25  C   UNL     1       6.363   0.117  -2.741  1.00  0.00     0.338 C 
ATOM     26  O   UNL     1       6.389   0.026  -1.526  1.00  0.00    -0.246 OA
BRANCH  25  27
ATOM     27  C   UNL     1       6.489  -1.018  -3.685  1.00  0.00     0.060 A 
ATOM     28  C   UNL     1       5.591  -2.088  -3.574  1.00  0.00     0.016 A 
ATOM     29  C   UNL     1       7.428  -0.990  -4.717  1.00  0.00     0.016 A 
ATOM     30  C   UNL     1       5.605  -3.117  -4.517  1.00  0.00     0.010 A 
ATOM     31  C   UNL     1       7.465  -2.042  -5.638  1.00  0.00     0.010 A 
ATOM     32  C   UNL     1       6.553  -3.108  -5.547  1.00  0.00    -0.014 A 
BRANCH  32  33
ATOM     33  C   UNL     1       6.690  -4.276  -6.450  1.00  0.00     0.031 A 
ATOM     34  C   UNL     1       7.682  -5.345  -6.094  1.00  0.00     0.074 A 
ATOM     35  C   UNL     1       5.955  -4.388  -7.572  1.00  0.00     0.049 A 
ATOM     36  N   UNL     1       8.076  -6.375  -6.793  1.00  0.00    -0.248 NA
ATOM     37  C   UNL     1       8.306  -5.236  -4.766  1.00  0.00     0.031 C 
ATOM     38  C   UNL     1       4.887  -3.479  -7.983  1.00  0.00     0.029 A 
ATOM     39  N   UNL     1       6.011  -5.322  -8.579  1.00  0.00    -0.354 N 
ATOM     40  C   UNL     1       9.008  -7.032  -6.000  1.00  0.00     0.074 A 
ATOM     41  C   UNL     1       9.124  -6.278  -4.769  1.00  0.00     0.031 C 
ATOM     42  C   UNL     1       4.398  -3.892  -9.166  1.00  0.00     0.029 A 
ATOM     43  C   UNL     1       5.159  -5.055  -9.624  1.00  0.00     0.049 A 
ATOM     44  H   UNL     1       6.604  -6.107  -8.554  1.00  0.00     0.167 HD
ATOM     45  C   UNL     1       9.713  -8.155  -6.275  1.00  0.00     0.031 A 
ATOM     46  C   UNL     1       5.040  -5.650 -10.830  1.00  0.00     0.031 A 
ATOM     47  C   UNL     1       9.624  -8.880  -7.514  1.00  0.00     0.049 A 
ATOM     48  C   UNL     1       5.946  -6.806 -11.178  1.00  0.00     0.074 A 
ATOM     49  C   UNL     1      10.312 -10.019  -7.894  1.00  0.00     0.029 A 
ATOM     50  N   UNL     1       8.813  -8.527  -8.582  1.00  0.00    -0.354 N 
ATOM     51  N   UNL     1       6.832  -7.417 -10.426  1.00  0.00    -0.248 NA
ATOM     52  C   UNL     1       5.848  -7.343 -12.544  1.00  0.00     0.031 C 
ATOM     53  C   UNL     1       9.969 -10.313  -9.218  1.00  0.00     0.029 A 
ATOM     54  C   UNL     1       9.016  -9.399  -9.639  1.00  0.00     0.049 A 
ATOM     55  H   UNL     1       8.185  -7.769  -8.588  1.00  0.00     0.167 HD
ATOM     56  C   UNL     1       7.383  -8.417 -11.223  1.00  0.00     0.074 A 
ATOM     57  C   UNL     1       6.719  -8.343 -12.507  1.00  0.00     0.031 C 
ATOM     58  C   UNL     1       8.355  -9.314 -10.918  1.00  0.00     0.031 A 
BRANCH  45  59
ATOM     59  C   UNL     1      10.696  -8.621  -5.235  1.00  0.00    -0.014 A 
ATOM     60  C   UNL     1      10.267  -9.174  -4.016  1.00  0.00     0.010 A 
ATOM     61  C   UNL     1      12.075  -8.505  -5.489  1.00  0.00     0.010 A 
ATOM     62  C   UNL     1      11.200  -9.557  -3.049  1.00  0.00     0.020 A 
ATOM     63  C   UNL     1      13.011  -8.915  -4.537  1.00  0.00     0.020 A 
ATOM     64  C   UNL     1      12.566  -9.419  -3.313  1.00  0.00     0.054 A 
BRANCH  64  65
ATOM     65  S   UNL     1      13.754  -9.918  -2.037  1.00  0.00     0.124 S 
ATOM     66  O   UNL     1      13.576  -8.869  -1.036  1.00  0.00    -0.237 OA
ATOM     67  O   UNL     1      13.271 -11.242  -1.652  1.00  0.00    -0.237 OA
ATOM     68  O   UNL     1      15.038  -9.904  -2.732  1.00  0.00    -0.744 OA
ENDBRANCH  64  65
ENDBRANCH  45  59
BRANCH  46  69
ATOM     69  C   UNL     1       4.066  -5.128 -11.830  1.00  0.00    -0.014 A 
ATOM     70  C   UNL     1       2.959  -5.899 -12.225  1.00  0.00     0.010 A 
ATOM     71  C   UNL     1       4.248  -3.855 -12.405  1.00  0.00     0.010 A 
ATOM     72  C   UNL     1       2.058  -5.412 -13.178  1.00  0.00     0.020 A 
ATOM     73  C   UNL     1       3.334  -3.353 -13.336  1.00  0.00     0.020 A 
ATOM     74  C   UNL     1       2.248  -4.139 -13.723  1.00  0.00     0.054 A 
BRANCH  74  75
ATOM     75  S   UNL     1       1.034  -3.508 -14.915  1.00  0.00     0.124 S 
ATOM     76  O   UNL     1       1.302  -4.333 -16.088  1.00  0.00    -0.237 OA
ATOM     77  O   UNL     1      -0.234  -3.765 -14.237  1.00  0.00    -0.237 OA
ATOM     78  O   UNL     1       1.386  -2.096 -15.049  1.00  0.00    -0.744 OA
ENDBRANCH  74  75
ENDBRANCH  46  69
BRANCH  58  79
ATOM     79  C   UNL     1       8.763 -10.304 -11.980  1.00  0.00    -0.014 A 
ATOM     80  C   UNL     1       9.526  -9.903 -13.091  1.00  0.00     0.010 A 
ATOM     81  C   UNL     1       8.461 -11.669 -11.816  1.00  0.00     0.010 A 
ATOM     82  C   UNL     1       9.971 -10.847 -14.022  1.00  0.00     0.020 A 
ATOM     83  C   UNL     1       8.928 -12.619 -12.729  1.00  0.00     0.020 A 
ATOM     84  C   UNL     1       9.677 -12.200 -13.830  1.00  0.00     0.054 A 
BRANCH  84  85
ATOM     85  S   UNL     1      10.337 -13.411 -15.010  1.00  0.00     0.124 S 
ATOM     86  O   UNL     1       9.542 -13.139 -16.204  1.00  0.00    -0.237 OA
ATOM     87  O   UNL     1      11.746 -13.038 -15.094  1.00  0.00    -0.237 OA
ATOM     88  O   UNL     1      10.076 -14.699 -14.369  1.00  0.00    -0.744 OA
ENDBRANCH  84  85
ENDBRANCH  58  79
ENDBRANCH  32  33
ENDBRANCH  25  27
ENDBRANCH  24  25
ENDBRANCH  23  24
ENDBRANCH  22  23
ENDBRANCH  21  22
ENDBRANCH   1  21
TORSDOF 23
