REMARK SMILES O=C(OCCOCCOCCOC(=O)[C@H]1C=NC2=C(CCCC2)C1=O)c1ccc(-c2c3nc(c(-c4ccc(S(=O)(=O)[O-])cc4)c4ccc([nH]4)c(-c4ccc(S(=O)(=O)[O-])cc4)c4nc(c(-c5ccc(S(=O)(=O)[O-])cc5)c5ccc2[nH]5)C=C4)C=C3)cc1
REMARK SMILES IDX 6 1 5 2 4 3 3 4 2 5 1 6 26 7 27 8 85 9 28 10 84 11 29 12
REMARK SMILES IDX 30 13 31 14 78 15 32 16 83 17 77 18 79 19 33 20 82 21 76 22
REMARK SMILES IDX 75 23 34 25 64 26 45 27 63 28 46 29 49 30 62 31 80 32 47 33
REMARK SMILES IDX 48 34 61 36 81 37 50 38 35 39 36 40 44 41 37 42 43 43 38 44
REMARK SMILES IDX 39 45 40 46 41 47 42 48 65 49 66 50 74 51 67 52 73 53 68 54
REMARK SMILES IDX 69 55 70 56 71 57 72 58 51 59 52 60 60 61 53 62 59 63 54 64
REMARK SMILES IDX 55 65 56 66 57 67 58 68 7 69 8 70 9 71 10 72 11 73 12 74
REMARK SMILES IDX 13 75 14 76 15 77 16 78 24 79 17 80 19 81 25 82 18 83 20 84
REMARK SMILES IDX 23 85 21 86 22 87
REMARK H PARENT 79 24 49 35
REMARK Flexibility Score: inf
ROOT
ATOM      1  O   UNL     1       4.026  -1.055  -1.363  1.00  0.00    -0.376 OA
ENDROOT
BRANCH   1   2
ATOM      2  C   UNL     1       4.856  -1.522  -0.290  1.00  0.00     0.202 C 
BRANCH   2   3
ATOM      3  C   UNL     1       4.536  -1.010   1.136  1.00  0.00     0.261 C 
BRANCH   3   4
ATOM      4  O   UNL     1       3.176  -0.592   1.350  1.00  0.00    -0.460 OA
BRANCH   4   5
ATOM      5  C   UNL     1       2.626   0.647   1.262  1.00  0.00     0.338 C 
ATOM      6  O   UNL     1       1.477   0.796   1.676  1.00  0.00    -0.246 OA
BRANCH   5   7
ATOM      7  C   UNL     1       3.304   1.823   0.627  1.00  0.00     0.060 A 
ATOM      8  C   UNL     1       4.492   1.767  -0.100  1.00  0.00     0.016 A 
ATOM      9  C   UNL     1       2.673   3.076   0.740  1.00  0.00     0.016 A 
ATOM     10  C   UNL     1       5.098   2.906  -0.609  1.00  0.00     0.010 A 
ATOM     11  C   UNL     1       3.254   4.228   0.194  1.00  0.00     0.010 A 
ATOM     12  C   UNL     1       4.499   4.147  -0.444  1.00  0.00    -0.014 A 
BRANCH  12  13
ATOM     13  C   UNL     1       5.297   5.350  -0.753  1.00  0.00     0.031 A 
ATOM     14  C   UNL     1       5.848   6.130   0.406  1.00  0.00     0.074 A 
ATOM     15  C   UNL     1       5.649   5.650  -2.017  1.00  0.00     0.049 A 
ATOM     16  N   UNL     1       6.523   7.246   0.404  1.00  0.00    -0.248 NA
ATOM     17  C   UNL     1       5.648   5.548   1.747  1.00  0.00     0.031 C 
ATOM     18  C   UNL     1       5.344   4.845  -3.202  1.00  0.00     0.029 A 
ATOM     19  N   UNL     1       6.333   6.725  -2.521  1.00  0.00    -0.354 N 
ATOM     20  C   UNL     1       6.853   7.482   1.733  1.00  0.00     0.074 A 
ATOM     21  C   UNL     1       6.253   6.433   2.523  1.00  0.00     0.031 C 
ATOM     22  C   UNL     1       5.768   5.495  -4.300  1.00  0.00     0.029 A 
ATOM     23  C   UNL     1       6.327   6.775  -3.896  1.00  0.00     0.049 A 
ATOM     24  H   UNL     1       6.784   7.394  -1.956  1.00  0.00     0.167 HD
ATOM     25  C   UNL     1       7.619   8.474   2.240  1.00  0.00     0.031 A 
ATOM     26  C   UNL     1       6.660   7.783  -4.722  1.00  0.00     0.031 A 
ATOM     27  C   UNL     1       8.173   9.523   1.432  1.00  0.00     0.049 A 
ATOM     28  C   UNL     1       7.237   9.024  -4.117  1.00  0.00     0.074 A 
ATOM     29  C   UNL     1       8.945  10.600   1.820  1.00  0.00     0.029 A 
ATOM     30  N   UNL     1       7.993   9.626   0.059  1.00  0.00    -0.354 N 
ATOM     31  N   UNL     1       7.480   9.282  -2.854  1.00  0.00    -0.248 NA
ATOM     32  C   UNL     1       7.613  10.093  -5.047  1.00  0.00     0.031 C 
ATOM     33  C   UNL     1       9.176  11.392   0.689  1.00  0.00     0.029 A 
ATOM     34  C   UNL     1       8.607  10.770  -0.413  1.00  0.00     0.049 A 
ATOM     35  H   UNL     1       7.501   8.980  -0.497  1.00  0.00     0.167 HD
ATOM     36  C   UNL     1       8.102  10.521  -2.841  1.00  0.00     0.074 A 
ATOM     37  C   UNL     1       8.156  10.975  -4.219  1.00  0.00     0.031 C 
ATOM     38  C   UNL     1       8.623  11.199  -1.790  1.00  0.00     0.031 A 
BRANCH  25  39
ATOM     39  C   UNL     1       7.846   8.478   3.727  1.00  0.00    -0.014 A 
ATOM     40  C   UNL     1       8.651   7.503   4.347  1.00  0.00     0.010 A 
ATOM     41  C   UNL     1       7.229   9.460   4.521  1.00  0.00     0.010 A 
ATOM     42  C   UNL     1       8.800   7.487   5.737  1.00  0.00     0.020 A 
ATOM     43  C   UNL     1       7.396   9.462   5.909  1.00  0.00     0.020 A 
ATOM     44  C   UNL     1       8.166   8.464   6.510  1.00  0.00     0.054 A 
BRANCH  44  45
ATOM     45  S   UNL     1       8.377   8.421   8.311  1.00  0.00     0.124 S 
ATOM     46  O   UNL     1       7.585   7.250   8.679  1.00  0.00    -0.237 OA
ATOM     47  O   UNL     1       9.822   8.273   8.460  1.00  0.00    -0.237 OA
ATOM     48  O   UNL     1       7.836   9.703   8.755  1.00  0.00    -0.744 OA
ENDBRANCH  44  45
ENDBRANCH  25  39
BRANCH  26  49
ATOM     49  C   UNL     1       6.338   7.721  -6.171  1.00  0.00    -0.014 A 
ATOM     50  C   UNL     1       7.271   7.293  -7.127  1.00  0.00     0.010 A 
ATOM     51  C   UNL     1       5.059   8.122  -6.595  1.00  0.00     0.010 A 
ATOM     52  C   UNL     1       6.919   7.247  -8.483  1.00  0.00     0.020 A 
ATOM     53  C   UNL     1       4.700   8.063  -7.943  1.00  0.00     0.020 A 
ATOM     54  C   UNL     1       5.633   7.627  -8.882  1.00  0.00     0.054 A 
BRANCH  54  55
ATOM     55  S   UNL     1       5.147   7.487 -10.626  1.00  0.00     0.124 S 
ATOM     56  O   UNL     1       5.604   8.761 -11.170  1.00  0.00    -0.237 OA
ATOM     57  O   UNL     1       5.881   6.307 -11.076  1.00  0.00    -0.237 OA
ATOM     58  O   UNL     1       3.697   7.318 -10.553  1.00  0.00    -0.744 OA
ENDBRANCH  54  55
ENDBRANCH  26  49
BRANCH  38  59
ATOM     59  C   UNL     1       9.366  12.461  -2.110  1.00  0.00    -0.014 A 
ATOM     60  C   UNL     1       8.695  13.638  -2.476  1.00  0.00     0.010 A 
ATOM     61  C   UNL     1      10.769  12.461  -2.003  1.00  0.00     0.010 A 
ATOM     62  C   UNL     1       9.423  14.794  -2.759  1.00  0.00     0.020 A 
ATOM     63  C   UNL     1      11.496  13.622  -2.252  1.00  0.00     0.020 A 
ATOM     64  C   UNL     1      10.818  14.779  -2.642  1.00  0.00     0.054 A 
BRANCH  64  65
ATOM     65  S   UNL     1      11.736  16.306  -2.961  1.00  0.00     0.124 S 
ATOM     66  O   UNL     1      11.662  16.406  -4.416  1.00  0.00    -0.237 OA
ATOM     67  O   UNL     1      10.966  17.302  -2.221  1.00  0.00    -0.237 OA
ATOM     68  O   UNL     1      13.066  16.030  -2.422  1.00  0.00    -0.744 OA
ENDBRANCH  64  65
ENDBRANCH  38  59
ENDBRANCH  12  13
ENDBRANCH   5   7
ENDBRANCH   4   5
ENDBRANCH   3   4
ENDBRANCH   2   3
ENDBRANCH   1   2
BRANCH   1  69
ATOM     69  C   UNL     1       2.661  -1.455  -1.244  1.00  0.00     0.188 C 
BRANCH  69  70
ATOM     70  C   UNL     1       1.935  -1.739  -2.557  1.00  0.00     0.188 C 
BRANCH  70  71
ATOM     71  O   UNL     1       2.487  -2.683  -3.456  1.00  0.00    -0.376 OA
BRANCH  71  72
ATOM     72  C   UNL     1       3.849  -2.540  -3.829  1.00  0.00     0.202 C 
BRANCH  72  73
ATOM     73  C   UNL     1       4.382  -1.225  -4.439  1.00  0.00     0.261 C 
BRANCH  73  74
ATOM     74  O   UNL     1       3.631  -0.025  -4.215  1.00  0.00    -0.462 OA
BRANCH  74  75
ATOM     75  C   UNL     1       2.697   0.260  -5.162  1.00  0.00     0.322 C 
ATOM     76  O   UNL     1       2.386  -0.502  -6.076  1.00  0.00    -0.251 OA
BRANCH  75  77
ATOM     77  C   UNL     1       2.058   1.603  -4.955  1.00  0.00     0.212 C 
ATOM     78  C   UNL     1       1.891   2.015  -3.527  1.00  0.00     0.107 C 
ATOM     79  C   UNL     1       2.731   2.686  -5.739  1.00  0.00     0.180 C 
ATOM     80  N   UNL     1       1.881   3.240  -3.104  1.00  0.00    -0.264 NA
ATOM     81  C   UNL     1       2.470   4.075  -5.292  1.00  0.00     0.018 C 
ATOM     82  O   UNL     1       3.421   2.465  -6.730  1.00  0.00    -0.293 OA
ATOM     83  C   UNL     1       2.072   4.249  -4.018  1.00  0.00     0.047 C 
ATOM     84  C   UNL     1       2.642   5.181  -6.288  1.00  0.00     0.041 C 
ATOM     85  C   UNL     1       1.837   5.639  -3.459  1.00  0.00     0.056 C 
ATOM     86  C   UNL     1       1.921   6.453  -5.840  1.00  0.00     0.005 C 
ATOM     87  C   UNL     1       2.251   6.779  -4.389  1.00  0.00     0.007 C 
ENDBRANCH  75  77
ENDBRANCH  74  75
ENDBRANCH  73  74
ENDBRANCH  72  73
ENDBRANCH  71  72
ENDBRANCH  70  71
ENDBRANCH  69  70
ENDBRANCH   1  69
TORSDOF 20
