REMARK SMILES O=C(OCCOCCOCCOC(=O)[C@H]1CCCN(C(=O)C2CCN(S(=O)(=O)c3ccccc3)CC2)C1)c1ccc(-c2c3nc(c(-c4ccc(S(=O)(=O)[O-])cc4)c4ccc([nH]4)c(-c4ccc(S(=O)(=O)[O-])cc4)c4nc(c(-c5ccc(S(=O)(=O)[O-])cc5)c5ccc2[nH]5)C=C4)C=C3)cc1
REMARK SMILES IDX 8 1 7 2 6 3 5 4 4 5 3 6 2 7 1 8 38 9 39 10 97 11 40 12 96 13
REMARK SMILES IDX 41 14 42 15 43 16 90 17 44 18 95 19 89 20 91 21 45 22 94 23
REMARK SMILES IDX 88 24 87 25 46 27 76 28 57 29 75 30 58 31 61 32 74 33 92 34
REMARK SMILES IDX 59 35 60 36 73 38 93 39 62 40 47 41 48 42 56 43 49 44 55 45
REMARK SMILES IDX 50 46 51 47 52 48 53 49 54 50 77 51 78 52 86 53 79 54 85 55
REMARK SMILES IDX 80 56 81 57 82 58 83 59 84 60 63 61 64 62 72 63 65 64 71 65
REMARK SMILES IDX 66 66 67 67 68 68 69 69 70 70 9 71 10 72 11 73 12 74 13 75
REMARK SMILES IDX 14 76 15 77 16 78 37 79 17 80 19 81 18 82 20 83 21 84 22 85
REMARK SMILES IDX 23 86 36 87 24 88 35 89 25 90 26 91 27 92 28 93 29 94 30 95
REMARK SMILES IDX 34 96 31 97 33 98 32 99
REMARK H PARENT 91 26 61 37
REMARK Flexibility Score: inf
ROOT
ATOM      1  C   UNL     1       4.915   2.269  -7.715  1.00  0.00     0.188 C 
ENDROOT
BRANCH   1   2
ATOM      2  C   UNL     1       5.930   2.733  -6.668  1.00  0.00     0.188 C 
BRANCH   2   3
ATOM      3  O   UNL     1       5.635   3.948  -5.979  1.00  0.00    -0.376 OA
BRANCH   3   4
ATOM      4  C   UNL     1       6.750   4.844  -5.872  1.00  0.00     0.202 C 
BRANCH   4   5
ATOM      5  C   UNL     1       7.998   4.353  -5.102  1.00  0.00     0.261 C 
BRANCH   5   6
ATOM      6  O   UNL     1       8.157   2.926  -5.063  1.00  0.00    -0.460 OA
BRANCH   6   7
ATOM      7  C   UNL     1       7.800   2.063  -4.082  1.00  0.00     0.338 C 
ATOM      8  O   UNL     1       8.161   0.890  -4.172  1.00  0.00    -0.246 OA
BRANCH   7   9
ATOM      9  C   UNL     1       6.989   2.462  -2.894  1.00  0.00     0.060 A 
ATOM     10  C   UNL     1       6.111   3.547  -2.832  1.00  0.00     0.016 A 
ATOM     11  C   UNL     1       7.086   1.643  -1.766  1.00  0.00     0.016 A 
ATOM     12  C   UNL     1       5.460   3.904  -1.649  1.00  0.00     0.010 A 
ATOM     13  C   UNL     1       6.383   1.956  -0.602  1.00  0.00     0.010 A 
ATOM     14  C   UNL     1       5.602   3.123  -0.509  1.00  0.00    -0.014 A 
BRANCH  14  15
ATOM     15  C   UNL     1       5.110   3.589   0.821  1.00  0.00     0.031 A 
ATOM     16  C   UNL     1       6.146   3.727   1.904  1.00  0.00     0.074 A 
ATOM     17  C   UNL     1       3.807   3.841   1.074  1.00  0.00     0.049 A 
ATOM     18  N   UNL     1       6.005   3.715   3.199  1.00  0.00    -0.248 NA
ATOM     19  C   UNL     1       7.547   3.837   1.452  1.00  0.00     0.031 C 
ATOM     20  C   UNL     1       2.737   3.813   0.081  1.00  0.00     0.029 A 
ATOM     21  N   UNL     1       3.141   4.089   2.255  1.00  0.00    -0.354 N 
ATOM     22  C   UNL     1       7.295   3.796   3.713  1.00  0.00     0.074 A 
ATOM     23  C   UNL     1       8.208   3.764   2.596  1.00  0.00     0.031 C 
ATOM     24  C   UNL     1       1.547   3.906   0.697  1.00  0.00     0.029 A 
ATOM     25  C   UNL     1       1.762   3.995   2.132  1.00  0.00     0.049 A 
ATOM     26  H   UNL     1       3.597   4.309   3.099  1.00  0.00     0.167 HD
ATOM     27  C   UNL     1       7.672   3.933   5.005  1.00  0.00     0.031 A 
ATOM     28  C   UNL     1       0.804   3.888   3.080  1.00  0.00     0.031 A 
ATOM     29  C   UNL     1       6.723   4.001   6.080  1.00  0.00     0.049 A 
ATOM     30  C   UNL     1       1.262   3.903   4.516  1.00  0.00     0.074 A 
ATOM     31  C   UNL     1       6.943   4.256   7.419  1.00  0.00     0.029 A 
ATOM     32  N   UNL     1       5.353   3.831   5.917  1.00  0.00    -0.354 N 
ATOM     33  N   UNL     1       2.483   3.859   4.996  1.00  0.00    -0.248 NA
ATOM     34  C   UNL     1       0.208   3.949   5.537  1.00  0.00     0.031 C 
ATOM     35  C   UNL     1       5.707   4.204   8.075  1.00  0.00     0.029 A 
ATOM     36  C   UNL     1       4.716   3.962   7.135  1.00  0.00     0.049 A 
ATOM     37  H   UNL     1       4.904   3.646   5.061  1.00  0.00     0.167 HD
ATOM     38  C   UNL     1       2.343   3.850   6.376  1.00  0.00     0.074 A 
ATOM     39  C   UNL     1       0.919   3.868   6.653  1.00  0.00     0.031 C 
ATOM     40  C   UNL     1       3.296   3.872   7.340  1.00  0.00     0.031 A 
BRANCH  27  41
ATOM     41  C   UNL     1       9.146   4.062   5.293  1.00  0.00    -0.014 A 
ATOM     42  C   UNL     1       9.870   5.182   4.840  1.00  0.00     0.010 A 
ATOM     43  C   UNL     1       9.823   3.066   6.018  1.00  0.00     0.010 A 
ATOM     44  C   UNL     1      11.248   5.274   5.049  1.00  0.00     0.020 A 
ATOM     45  C   UNL     1      11.199   3.169   6.259  1.00  0.00     0.020 A 
ATOM     46  C   UNL     1      11.906   4.263   5.753  1.00  0.00     0.054 A 
BRANCH  46  47
ATOM     47  S   UNL     1      13.695   4.415   6.015  1.00  0.00     0.124 S 
ATOM     48  O   UNL     1      14.219   4.116   4.684  1.00  0.00    -0.237 OA
ATOM     49  O   UNL     1      13.838   5.802   6.448  1.00  0.00    -0.237 OA
ATOM     50  O   UNL     1      13.981   3.413   7.038  1.00  0.00    -0.744 OA
ENDBRANCH  46  47
ENDBRANCH  27  41
BRANCH  28  51
ATOM     51  C   UNL     1      -0.623   3.553   2.743  1.00  0.00    -0.014 A 
ATOM     52  C   UNL     1      -1.445   4.354   1.933  1.00  0.00     0.010 A 
ATOM     53  C   UNL     1      -1.163   2.344   3.221  1.00  0.00     0.010 A 
ATOM     54  C   UNL     1      -2.719   3.907   1.532  1.00  0.00     0.020 A 
ATOM     55  C   UNL     1      -2.430   1.895   2.836  1.00  0.00     0.020 A 
ATOM     56  C   UNL     1      -3.189   2.662   1.961  1.00  0.00     0.054 A 
BRANCH  56  57
ATOM     57  S   UNL     1      -4.735   1.959   1.319  1.00  0.00     0.124 S 
ATOM     58  O   UNL     1      -5.583   1.927   2.507  1.00  0.00    -0.237 OA
ATOM     59  O   UNL     1      -5.142   2.913   0.289  1.00  0.00    -0.237 OA
ATOM     60  O   UNL     1      -4.310   0.657   0.809  1.00  0.00    -0.744 OA
ENDBRANCH  56  57
ENDBRANCH  28  51
BRANCH  40  61
ATOM     61  C   UNL     1       2.794   3.944   8.748  1.00  0.00    -0.014 A 
ATOM     62  C   UNL     1       2.368   2.796   9.435  1.00  0.00     0.010 A 
ATOM     63  C   UNL     1       2.739   5.201   9.376  1.00  0.00     0.010 A 
ATOM     64  C   UNL     1       1.862   2.913  10.731  1.00  0.00     0.020 A 
ATOM     65  C   UNL     1       2.251   5.316  10.674  1.00  0.00     0.020 A 
ATOM     66  C   UNL     1       1.801   4.173  11.337  1.00  0.00     0.054 A 
BRANCH  66  67
ATOM     67  S   UNL     1       1.149   4.305  13.022  1.00  0.00     0.124 S 
ATOM     68  O   UNL     1      -0.286   4.150  12.802  1.00  0.00    -0.237 OA
ATOM     69  O   UNL     1       1.806   3.195  13.708  1.00  0.00    -0.237 OA
ATOM     70  O   UNL     1       1.574   5.635  13.452  1.00  0.00    -0.744 OA
ENDBRANCH  66  67
ENDBRANCH  40  61
ENDBRANCH  14  15
ENDBRANCH   7   9
ENDBRANCH   6   7
ENDBRANCH   5   6
ENDBRANCH   4   5
ENDBRANCH   3   4
ENDBRANCH   2   3
ENDBRANCH   1   2
BRANCH   1  71
ATOM     71  O   UNL     1       4.459   3.192  -8.692  1.00  0.00    -0.376 OA
BRANCH  71  72
ATOM     72  C   UNL     1       3.881   4.415  -8.257  1.00  0.00     0.202 C 
BRANCH  72  73
ATOM     73  C   UNL     1       2.713   4.422  -7.254  1.00  0.00     0.261 C 
BRANCH  73  74
ATOM     74  O   UNL     1       2.763   3.415  -6.242  1.00  0.00    -0.463 OA
BRANCH  74  75
ATOM     75  C   UNL     1       1.885   2.372  -6.349  1.00  0.00     0.310 C 
ATOM     76  O   UNL     1       1.091   2.215  -7.264  1.00  0.00    -0.252 OA
BRANCH  75  77
ATOM     77  C   UNL     1       2.109   1.404  -5.196  1.00  0.00     0.119 C 
ATOM     78  C   UNL     1       2.165   2.212  -3.889  1.00  0.00     0.019 C 
ATOM     79  C   UNL     1       1.033   0.295  -5.192  1.00  0.00     0.134 C 
ATOM     80  C   UNL     1       2.078   1.311  -2.679  1.00  0.00     0.022 C 
ATOM     81  N   UNL     1       0.951  -0.425  -3.907  1.00  0.00    -0.342 N 
ATOM     82  C   UNL     1       0.824   0.467  -2.783  1.00  0.00     0.119 C 
BRANCH  81  83
ATOM     83  C   UNL     1       1.017  -1.805  -3.850  1.00  0.00     0.225 C 
ATOM     84  O   UNL     1       1.286  -2.440  -4.881  1.00  0.00    -0.275 OA
BRANCH  83  85
ATOM     85  C   UNL     1       0.805  -2.640  -2.549  1.00  0.00     0.081 C 
ATOM     86  C   UNL     1      -0.509  -2.540  -1.785  1.00  0.00     0.030 C 
ATOM     87  C   UNL     1       1.983  -2.753  -1.596  1.00  0.00     0.030 C 
ATOM     88  C   UNL     1      -0.539  -1.647  -0.552  1.00  0.00     0.103 C 
ATOM     89  C   UNL     1       2.019  -1.698  -0.513  1.00  0.00     0.103 C 
ATOM     90  N   UNL     1       0.753  -1.541   0.231  1.00  0.00    -0.198 NA
BRANCH  90  91
ATOM     91  S   UNL     1       0.646  -0.098   1.211  1.00  0.00     0.243 S 
ATOM     92  O   UNL     1       0.616   1.021   0.293  1.00  0.00    -0.207 OA
ATOM     93  O   UNL     1      -0.440  -0.363   2.131  1.00  0.00    -0.207 OA
BRANCH  91  94
ATOM     94  C   UNL     1       2.127   0.074   2.176  1.00  0.00     0.082 A 
ATOM     95  C   UNL     1       2.015   0.187   3.567  1.00  0.00     0.022 A 
ATOM     96  C   UNL     1       3.365   0.289   1.568  1.00  0.00     0.022 A 
ATOM     97  C   UNL     1       3.136   0.487   4.340  1.00  0.00     0.001 A 
ATOM     98  C   UNL     1       4.496   0.496   2.357  1.00  0.00     0.001 A 
ATOM     99  C   UNL     1       4.381   0.619   3.737  1.00  0.00     0.000 A 
ENDBRANCH  91  94
ENDBRANCH  90  91
ENDBRANCH  83  85
ENDBRANCH  81  83
ENDBRANCH  75  77
ENDBRANCH  74  75
ENDBRANCH  73  74
ENDBRANCH  72  73
ENDBRANCH  71  72
ENDBRANCH   1  71
TORSDOF 24
