REMARK SMILES O=C(OCCOCCOCCOC(=O)[C@H]1C[C@H]2CCCC[C@@H]2[N@@H+]1CC[C@@H]1CCCO1)c1ccc(-c2c3nc(c(-c4ccc(S(=O)(=O)[O-])cc4)c4ccc([nH]4)c(-c4ccc(S(=O)(=O)[O-])cc4)c4nc(c(-c5ccc(S(=O)(=O)[O-])cc5)c5ccc2[nH]5)C=C4)C=C3)cc1
REMARK SMILES IDX 7 1 6 2 5 3 4 4 3 5 2 6 1 7 31 8 32 9 90 10 33 11 89 12
REMARK SMILES IDX 34 13 35 14 36 15 83 16 37 17 88 18 82 19 84 20 38 21 87 22
REMARK SMILES IDX 81 23 80 24 39 26 69 27 50 28 68 29 51 30 54 31 67 32 85 33
REMARK SMILES IDX 52 34 53 35 66 37 86 38 55 39 40 40 41 41 49 42 42 43 48 44
REMARK SMILES IDX 43 45 44 46 45 47 46 48 47 49 70 50 71 51 79 52 72 53 78 54
REMARK SMILES IDX 73 55 74 56 75 57 76 58 77 59 56 60 57 61 65 62 58 63 64 64
REMARK SMILES IDX 59 65 60 66 61 67 62 68 63 69 8 70 9 71 10 72 11 73 12 74
REMARK SMILES IDX 13 75 14 76 15 77 16 78 23 79 17 80 22 81 18 83 21 84 19 85
REMARK SMILES IDX 20 86 24 87 25 88 26 89 27 90 30 91 28 92 29 93
REMARK H PARENT 84 25 54 36 23 82
REMARK Flexibility Score: inf
ROOT
ATOM      1  C   UNL     1      -1.336   2.711   1.932  1.00  0.00     0.188 C 
ENDROOT
BRANCH   1   2
ATOM      2  O   UNL     1      -0.947   4.075   1.758  1.00  0.00    -0.376 OA
BRANCH   2   3
ATOM      3  C   UNL     1      -1.744   4.811   0.824  1.00  0.00     0.202 C 
BRANCH   3   4
ATOM      4  C   UNL     1      -1.597   4.414  -0.658  1.00  0.00     0.261 C 
BRANCH   4   5
ATOM      5  O   UNL     1      -1.223   3.039  -0.863  1.00  0.00    -0.460 OA
BRANCH   5   6
ATOM      6  C   UNL     1       0.018   2.531  -1.069  1.00  0.00     0.338 C 
ATOM      7  O   UNL     1       0.128   1.337  -1.363  1.00  0.00    -0.246 OA
BRANCH   6   8
ATOM      8  C   UNL     1       1.268   3.338  -0.953  1.00  0.00     0.060 A 
ATOM      9  C   UNL     1       1.383   4.494  -0.186  1.00  0.00     0.016 A 
ATOM     10  C   UNL     1       2.419   2.873  -1.611  1.00  0.00     0.016 A 
ATOM     11  C   UNL     1       2.542   5.247  -0.173  1.00  0.00     0.010 A 
ATOM     12  C   UNL     1       3.621   3.590  -1.548  1.00  0.00     0.010 A 
ATOM     13  C   UNL     1       3.666   4.807  -0.861  1.00  0.00    -0.014 A 
BRANCH  13  14
ATOM     14  C   UNL     1       4.803   5.742  -0.943  1.00  0.00     0.031 A 
ATOM     15  C   UNL     1       5.037   6.457  -2.240  1.00  0.00     0.074 A 
ATOM     16  C   UNL     1       5.462   6.078   0.183  1.00  0.00     0.049 A 
ATOM     17  N   UNL     1       5.943   7.346  -2.538  1.00  0.00    -0.248 NA
ATOM     18  C   UNL     1       4.113   6.144  -3.346  1.00  0.00     0.031 C 
ATOM     19  C   UNL     1       5.194   5.522   1.514  1.00  0.00     0.029 A 
ATOM     20  N   UNL     1       6.451   6.997   0.402  1.00  0.00    -0.354 N 
ATOM     21  C   UNL     1       5.710   7.686  -3.865  1.00  0.00     0.074 A 
ATOM     22  C   UNL     1       4.594   6.894  -4.325  1.00  0.00     0.031 C 
ATOM     23  C   UNL     1       5.978   6.136   2.414  1.00  0.00     0.029 A 
ATOM     24  C   UNL     1       6.853   7.068   1.716  1.00  0.00     0.049 A 
ATOM     25  H   UNL     1       6.838   7.553  -0.311  1.00  0.00     0.167 HD
ATOM     26  C   UNL     1       6.372   8.586  -4.627  1.00  0.00     0.031 A 
ATOM     27  C   UNL     1       7.846   7.783   2.277  1.00  0.00     0.031 A 
ATOM     28  C   UNL     1       7.490   9.345  -4.142  1.00  0.00     0.049 A 
ATOM     29  C   UNL     1       8.650   8.683   1.375  1.00  0.00     0.074 A 
ATOM     30  C   UNL     1       8.309  10.219  -4.832  1.00  0.00     0.029 A 
ATOM     31  N   UNL     1       7.941   9.320  -2.828  1.00  0.00    -0.354 N 
ATOM     32  N   UNL     1       8.475   8.935   0.097  1.00  0.00    -0.248 NA
ATOM     33  C   UNL     1       9.785   9.387   1.981  1.00  0.00     0.031 C 
ATOM     34  C   UNL     1       9.286  10.683  -3.945  1.00  0.00     0.029 A 
ATOM     35  C   UNL     1       9.035  10.152  -2.688  1.00  0.00     0.049 A 
ATOM     36  H   UNL     1       7.540   8.787  -2.104  1.00  0.00     0.167 HD
ATOM     37  C   UNL     1       9.469   9.841  -0.250  1.00  0.00     0.074 A 
ATOM     38  C   UNL     1      10.220  10.113   0.961  1.00  0.00     0.031 C 
ATOM     39  C   UNL     1       9.748  10.394  -1.457  1.00  0.00     0.031 A 
BRANCH  26  40
ATOM     40  C   UNL     1       5.936   8.729  -6.059  1.00  0.00    -0.014 A 
ATOM     41  C   UNL     1       4.718   9.348  -6.397  1.00  0.00     0.010 A 
ATOM     42  C   UNL     1       6.752   8.221  -7.086  1.00  0.00     0.010 A 
ATOM     43  C   UNL     1       4.308   9.421  -7.731  1.00  0.00     0.020 A 
ATOM     44  C   UNL     1       6.358   8.316  -8.424  1.00  0.00     0.020 A 
ATOM     45  C   UNL     1       5.130   8.902  -8.737  1.00  0.00     0.054 A 
BRANCH  45  46
ATOM     46  S   UNL     1       4.577   9.028 -10.460  1.00  0.00     0.124 S 
ATOM     47  O   UNL     1       3.479   8.064 -10.495  1.00  0.00    -0.237 OA
ATOM     48  O   UNL     1       4.190  10.427 -10.571  1.00  0.00    -0.237 OA
ATOM     49  O   UNL     1       5.762   8.646 -11.232  1.00  0.00    -0.744 OA
ENDBRANCH  45  46
ENDBRANCH  26  40
BRANCH  27  50
ATOM     50  C   UNL     1       8.185   7.614   3.720  1.00  0.00    -0.014 A 
ATOM     51  C   UNL     1       8.103   8.684   4.627  1.00  0.00     0.010 A 
ATOM     52  C   UNL     1       8.628   6.362   4.192  1.00  0.00     0.010 A 
ATOM     53  C   UNL     1       8.492   8.517   5.962  1.00  0.00     0.020 A 
ATOM     54  C   UNL     1       8.982   6.180   5.531  1.00  0.00     0.020 A 
ATOM     55  C   UNL     1       8.934   7.266   6.404  1.00  0.00     0.054 A 
BRANCH  55  56
ATOM     56  S   UNL     1       9.437   7.071   8.136  1.00  0.00     0.124 S 
ATOM     57  O   UNL     1      10.702   7.796   8.167  1.00  0.00    -0.237 OA
ATOM     58  O   UNL     1       8.331   7.694   8.858  1.00  0.00    -0.237 OA
ATOM     59  O   UNL     1       9.542   5.622   8.301  1.00  0.00    -0.744 OA
ENDBRANCH  55  56
ENDBRANCH  27  50
BRANCH  39  60
ATOM     60  C   UNL     1      10.885  11.375  -1.506  1.00  0.00    -0.014 A 
ATOM     61  C   UNL     1      12.219  10.951  -1.386  1.00  0.00     0.010 A 
ATOM     62  C   UNL     1      10.608  12.737  -1.724  1.00  0.00     0.010 A 
ATOM     63  C   UNL     1      13.258  11.880  -1.444  1.00  0.00     0.020 A 
ATOM     64  C   UNL     1      11.646  13.664  -1.817  1.00  0.00     0.020 A 
ATOM     65  C   UNL     1      12.964  13.231  -1.659  1.00  0.00     0.054 A 
BRANCH  65  66
ATOM     66  S   UNL     1      14.333  14.413  -1.769  1.00  0.00     0.124 S 
ATOM     67  O   UNL     1      14.759  14.512  -0.376  1.00  0.00    -0.237 OA
ATOM     68  O   UNL     1      15.267  13.738  -2.666  1.00  0.00    -0.237 OA
ATOM     69  O   UNL     1      13.709  15.615  -2.317  1.00  0.00    -0.744 OA
ENDBRANCH  65  66
ENDBRANCH  39  60
ENDBRANCH  13  14
ENDBRANCH   6   8
ENDBRANCH   5   6
ENDBRANCH   4   5
ENDBRANCH   3   4
ENDBRANCH   2   3
ENDBRANCH   1   2
BRANCH   1  70
ATOM     70  C   UNL     1      -1.227   2.223   3.377  1.00  0.00     0.188 C 
BRANCH  70  71
ATOM     71  O   UNL     1      -2.046   2.880   4.342  1.00  0.00    -0.376 OA
BRANCH  71  72
ATOM     72  C   UNL     1      -1.946   4.298   4.420  1.00  0.00     0.202 C 
BRANCH  72  73
ATOM     73  C   UNL     1      -0.610   4.923   4.860  1.00  0.00     0.261 C 
BRANCH  73  74
ATOM     74  O   UNL     1       0.561   4.421   4.191  1.00  0.00    -0.459 OA
BRANCH  74  75
ATOM     75  C   UNL     1       1.374   3.644   4.968  1.00  0.00     0.365 C 
ATOM     76  O   UNL     1       1.145   3.397   6.151  1.00  0.00    -0.245 OA
BRANCH  75  77
ATOM     77  C   UNL     1       2.603   3.100   4.181  1.00  0.00     0.295 C 
ATOM     78  C   UNL     1       3.828   3.297   5.095  1.00  0.00     0.087 C 
ATOM     79  N   UNL     1       2.472   1.622   3.991  1.00  0.00    -0.320 N 
ATOM     80  C   UNL     1       4.146   1.897   5.614  1.00  0.00     0.054 C 
ATOM     81  C   UNL     1       2.926   1.064   5.261  1.00  0.00     0.188 C 
ATOM     82  H   UNL     1       1.508   1.345   3.802  1.00  0.00     0.349 HD
ATOM     83  C   UNL     1       4.466   1.747   7.093  1.00  0.00     0.010 C 
ATOM     84  C   UNL     1       3.184  -0.420   5.438  1.00  0.00     0.065 C 
ATOM     85  C   UNL     1       4.650   0.268   7.469  1.00  0.00     0.001 C 
ATOM     86  C   UNL     1       3.600  -0.697   6.890  1.00  0.00     0.006 C 
BRANCH  79  87
ATOM     87  C   UNL     1       2.992   1.048   2.742  1.00  0.00     0.265 C 
BRANCH  87  88
ATOM     88  C   UNL     1       4.401   1.310   2.146  1.00  0.00     0.093 C 
BRANCH  88  89
ATOM     89  C   UNL     1       5.580   0.326   2.335  1.00  0.00     0.123 C 
ATOM     90  C   UNL     1       5.322  -1.172   2.375  1.00  0.00     0.034 C 
ATOM     91  O   UNL     1       6.366   0.675   3.473  1.00  0.00    -0.378 OA
ATOM     92  C   UNL     1       6.195  -1.703   3.490  1.00  0.00     0.031 C 
ATOM     93  C   UNL     1       6.698  -0.486   4.224  1.00  0.00     0.160 C 
ENDBRANCH  88  89
ENDBRANCH  87  88
ENDBRANCH  79  87
ENDBRANCH  75  77
ENDBRANCH  74  75
ENDBRANCH  73  74
ENDBRANCH  72  73
ENDBRANCH  71  72
ENDBRANCH  70  71
ENDBRANCH   1  70
TORSDOF 23
