REMARK SMILES CC[N@@H+]1CC[C@H](C[NH2+]Cc2cc(C(=O)OCCOCCOCCOC(=O)c3ccc(-c4c5nc(c(-c6ccc(S(=O)(=O)[O-])cc6)c6ccc([nH]6)c(-c6ccc(S(=O)(=O)[O-])cc6)c6nc(c(-c7ccc(S(=O)(=O)[O-])cc7)c7ccc4[nH]7)C=C6)C=C5)cc3)cs2)C1
REMARK SMILES IDX 19 1 18 2 17 3 16 4 15 5 13 6 14 7 12 8 10 9 11 10 88 11
REMARK SMILES IDX 87 12 9 13 8 14 7 17 6 18 3 19 4 20 89 21 5 23 2 24 1 25
REMARK SMILES IDX 20 26 21 27 22 28 23 29 24 30 25 31 26 32 27 33 28 34 86 35
REMARK SMILES IDX 29 36 85 37 30 38 31 39 32 40 79 41 33 42 84 43 78 44 80 45
REMARK SMILES IDX 34 46 83 47 77 48 76 49 35 51 65 52 46 53 64 54 47 55 50 56
REMARK SMILES IDX 63 57 81 58 48 59 49 60 62 62 82 63 51 64 36 65 37 66 45 67
REMARK SMILES IDX 38 68 44 69 39 70 40 71 41 72 42 73 43 74 66 75 67 76 75 77
REMARK SMILES IDX 68 78 74 79 69 80 70 81 71 82 72 83 73 84 52 85 53 86 61 87
REMARK SMILES IDX 54 88 60 89 55 90 56 91 57 92 58 93 59 94
REMARK H PARENT 8 15 8 16 3 22 80 50 50 61
REMARK Flexibility Score: inf
ROOT
ATOM      1  C   UNL     1       4.430   1.806   6.929  1.00  0.00     0.188 C 
ENDROOT
BRANCH   1   2
ATOM      2  O   UNL     1       3.915   0.486   7.077  1.00  0.00    -0.376 OA
BRANCH   2   3
ATOM      3  C   UNL     1       3.868  -0.400   5.970  1.00  0.00     0.202 C 
BRANCH   3   4
ATOM      4  C   UNL     1       2.875  -0.071   4.855  1.00  0.00     0.261 C 
BRANCH   4   5
ATOM      5  O   UNL     1       3.103   1.217   4.265  1.00  0.00    -0.460 OA
BRANCH   5   6
ATOM      6  C   UNL     1       2.169   2.167   4.561  1.00  0.00     0.339 C 
ATOM      7  O   UNL     1       1.118   1.950   5.150  1.00  0.00    -0.246 OA
BRANCH   6   8
ATOM      8  C   UNL     1       2.588   3.509   4.166  1.00  0.00     0.071 A 
ATOM      9  C   UNL     1       3.598   5.239   2.939  1.00  0.00     0.059 A 
ATOM     10  C   UNL     1       3.555   3.873   3.169  1.00  0.00     0.037 A 
ATOM     11  S   UNL     1       2.680   6.088   4.110  1.00  0.00    -0.142 S 
ATOM     12  C   UNL     1       2.064   4.640   4.765  1.00  0.00     0.081 A 
BRANCH   9  13
ATOM     13  C   UNL     1       4.250   6.003   1.816  1.00  0.00     0.308 C 
BRANCH  13  14
ATOM     14  N   UNL     1       4.127   5.319   0.516  1.00  0.00    -0.341 N 
ATOM     15  H   UNL     1       4.564   5.898  -0.200  1.00  0.00     0.346 HD
ATOM     16  H   UNL     1       4.588   4.412   0.599  1.00  0.00     0.346 HD
BRANCH  14  17
ATOM     17  C   UNL     1       2.727   5.076   0.137  1.00  0.00     0.270 C 
BRANCH  17  18
ATOM     18  C   UNL     1       2.604   4.067  -1.012  1.00  0.00     0.105 C 
ATOM     19  N   UNL     1       1.173   2.109  -1.267  1.00  0.00    -0.335 N 
ATOM     20  C   UNL     1       2.566   1.762  -1.575  1.00  0.00     0.262 C 
ATOM     21  C   UNL     1       1.153   3.592  -1.220  1.00  0.00     0.271 C 
ATOM     22  H   UNL     1       0.552   1.712  -1.972  1.00  0.00     0.348 HD
ATOM     23  C   UNL     1       3.386   2.772  -0.804  1.00  0.00     0.076 C 
BRANCH  19  24
ATOM     24  C   UNL     1       0.686   1.552   0.010  1.00  0.00     0.258 C 
ATOM     25  C   UNL     1       0.754   0.028   0.089  1.00  0.00     0.071 C 
ENDBRANCH  19  24
ENDBRANCH  17  18
ENDBRANCH  14  17
ENDBRANCH  13  14
ENDBRANCH   9  13
ENDBRANCH   6   8
ENDBRANCH   5   6
ENDBRANCH   4   5
ENDBRANCH   3   4
ENDBRANCH   2   3
ENDBRANCH   1   2
BRANCH   1  26
ATOM     26  C   UNL     1       5.563   2.099   5.926  1.00  0.00     0.188 C 
BRANCH  26  27
ATOM     27  O   UNL     1       6.386   0.984   5.616  1.00  0.00    -0.376 OA
BRANCH  27  28
ATOM     28  C   UNL     1       7.712   1.032   6.125  1.00  0.00     0.202 C 
BRANCH  28  29
ATOM     29  C   UNL     1       7.793   0.690   7.615  1.00  0.00     0.261 C 
BRANCH  29  30
ATOM     30  O   UNL     1       7.169   1.652   8.481  1.00  0.00    -0.460 OA
BRANCH  30  31
ATOM     31  C   UNL     1       7.701   2.895   8.483  1.00  0.00     0.338 C 
ATOM     32  O   UNL     1       8.670   3.277   7.852  1.00  0.00    -0.246 OA
BRANCH  31  33
ATOM     33  C   UNL     1       6.804   3.783   9.250  1.00  0.00     0.060 A 
ATOM     34  C   UNL     1       6.364   4.967   8.650  1.00  0.00     0.016 A 
ATOM     35  C   UNL     1       6.414   3.459  10.553  1.00  0.00     0.016 A 
ATOM     36  C   UNL     1       5.561   5.852   9.370  1.00  0.00     0.010 A 
ATOM     37  C   UNL     1       5.617   4.352  11.276  1.00  0.00     0.010 A 
ATOM     38  C   UNL     1       5.212   5.567  10.699  1.00  0.00    -0.014 A 
BRANCH  38  39
ATOM     39  C   UNL     1       4.542   6.610  11.515  1.00  0.00     0.031 A 
ATOM     40  C   UNL     1       5.379   7.502  12.392  1.00  0.00     0.074 A 
ATOM     41  C   UNL     1       3.211   6.793  11.448  1.00  0.00     0.049 A 
ATOM     42  N   UNL     1       5.015   8.536  13.107  1.00  0.00    -0.248 NA
ATOM     43  C   UNL     1       6.814   7.187  12.472  1.00  0.00     0.031 C 
ATOM     44  C   UNL     1       2.285   6.001  10.641  1.00  0.00     0.029 A 
ATOM     45  N   UNL     1       2.410   7.717  12.072  1.00  0.00    -0.354 N 
ATOM     46  C   UNL     1       6.176   9.005  13.709  1.00  0.00     0.074 A 
ATOM     47  C   UNL     1       7.248   8.118  13.310  1.00  0.00     0.031 C 
ATOM     48  C   UNL     1       1.039   6.478  10.814  1.00  0.00     0.029 A 
ATOM     49  C   UNL     1       1.079   7.602  11.749  1.00  0.00     0.049 A 
ATOM     50  H   UNL     1       2.756   8.398  12.693  1.00  0.00     0.167 HD
ATOM     51  C   UNL     1       6.342  10.083  14.512  1.00  0.00     0.031 A 
ATOM     52  C   UNL     1       0.016   8.322  12.157  1.00  0.00     0.031 A 
ATOM     53  C   UNL     1       5.278  10.953  14.938  1.00  0.00     0.049 A 
ATOM     54  C   UNL     1       0.218   9.490  13.086  1.00  0.00     0.074 A 
ATOM     55  C   UNL     1       5.355  12.083  15.734  1.00  0.00     0.029 A 
ATOM     56  N   UNL     1       3.941  10.783  14.616  1.00  0.00    -0.354 N 
ATOM     57  N   UNL     1       1.333   9.957  13.597  1.00  0.00    -0.248 NA
ATOM     58  C   UNL     1      -0.985  10.240  13.477  1.00  0.00     0.031 C 
ATOM     59  C   UNL     1       4.057  12.569  15.931  1.00  0.00     0.029 A 
ATOM     60  C   UNL     1       3.179  11.771  15.217  1.00  0.00     0.049 A 
ATOM     61  H   UNL     1       3.585  10.065  14.043  1.00  0.00     0.167 HD
ATOM     62  C   UNL     1       0.967  11.068  14.352  1.00  0.00     0.074 A 
ATOM     63  C   UNL     1      -0.468  11.213  14.216  1.00  0.00     0.031 C 
ATOM     64  C   UNL     1       1.749  11.896  15.089  1.00  0.00     0.031 A 
BRANCH  51  65
ATOM     65  C   UNL     1       7.737  10.366  14.999  1.00  0.00    -0.014 A 
ATOM     66  C   UNL     1       8.715  10.883  14.129  1.00  0.00     0.010 A 
ATOM     67  C   UNL     1       8.070  10.133  16.345  1.00  0.00     0.010 A 
ATOM     68  C   UNL     1      10.012  11.122  14.587  1.00  0.00     0.020 A 
ATOM     69  C   UNL     1       9.361  10.393  16.813  1.00  0.00     0.020 A 
ATOM     70  C   UNL     1      10.329  10.869  15.925  1.00  0.00     0.054 A 
BRANCH  70  71
ATOM     71  S   UNL     1      12.019  11.197  16.499  1.00  0.00     0.124 S 
ATOM     72  O   UNL     1      12.751  10.066  15.933  1.00  0.00    -0.237 OA
ATOM     73  O   UNL     1      12.315  12.497  15.903  1.00  0.00    -0.237 OA
ATOM     74  O   UNL     1      11.897  11.195  17.954  1.00  0.00    -0.744 OA
ENDBRANCH  70  71
ENDBRANCH  51  65
BRANCH  52  75
ATOM     75  C   UNL     1      -1.347   7.968  11.678  1.00  0.00    -0.014 A 
ATOM     76  C   UNL     1      -2.017   8.784  10.750  1.00  0.00     0.010 A 
ATOM     77  C   UNL     1      -1.985   6.809  12.157  1.00  0.00     0.010 A 
ATOM     78  C   UNL     1      -3.307   8.457  10.322  1.00  0.00     0.020 A 
ATOM     79  C   UNL     1      -3.265   6.467  11.714  1.00  0.00     0.020 A 
ATOM     80  C   UNL     1      -3.923   7.300  10.806  1.00  0.00     0.054 A 
BRANCH  80  81
ATOM     81  S   UNL     1      -5.576   6.864  10.198  1.00  0.00     0.124 S 
ATOM     82  O   UNL     1      -6.426   7.787  10.942  1.00  0.00    -0.237 OA
ATOM     83  O   UNL     1      -5.464   7.121   8.764  1.00  0.00    -0.237 OA
ATOM     84  O   UNL     1      -5.711   5.455  10.560  1.00  0.00    -0.744 OA
ENDBRANCH  80  81
ENDBRANCH  52  75
BRANCH  64  85
ATOM     85  C   UNL     1       1.069  13.043  15.789  1.00  0.00    -0.014 A 
ATOM     86  C   UNL     1       0.251  12.829  16.913  1.00  0.00     0.010 A 
ATOM     87  C   UNL     1       1.264  14.357  15.325  1.00  0.00     0.010 A 
ATOM     88  C   UNL     1      -0.401  13.902  17.529  1.00  0.00     0.020 A 
ATOM     89  C   UNL     1       0.634  15.435  15.954  1.00  0.00     0.020 A 
ATOM     90  C   UNL     1      -0.212  15.197  17.039  1.00  0.00     0.054 A 
BRANCH  90  91
ATOM     91  S   UNL     1      -1.062  16.578  17.854  1.00  0.00     0.124 S 
ATOM     92  O   UNL     1      -2.415  16.460  17.317  1.00  0.00    -0.237 OA
ATOM     93  O   UNL     1      -0.919  16.256  19.272  1.00  0.00    -0.237 OA
ATOM     94  O   UNL     1      -0.315  17.753  17.411  1.00  0.00    -0.744 OA
ENDBRANCH  90  91
ENDBRANCH  64  85
ENDBRANCH  38  39
ENDBRANCH  31  33
ENDBRANCH  30  31
ENDBRANCH  29  30
ENDBRANCH  28  29
ENDBRANCH  27  28
ENDBRANCH  26  27
ENDBRANCH   1  26
TORSDOF 25
