REMARK SMILES CC[NH+]1CC[NH+]([C@@H]2CC(=O)N(c3ccc(C(=O)OCCOCCOCCOC(=O)c4ccc(-c5c6nc(c(-c7ccc(S(=O)(=O)[O-])cc7)c7ccc([nH]7)c(-c7ccc(S(=O)(=O)[O-])cc7)c7nc(c(-c8ccc(S(=O)(=O)[O-])cc8)c8ccc5[nH]8)C=C7)C=C6)cc4)cc3)C2=O)CC1
REMARK SMILES IDX 22 1 21 2 20 3 19 4 18 5 16 6 17 7 15 8 12 9 13 10 91 11
REMARK SMILES IDX 14 12 90 13 11 14 7 15 8 16 92 17 9 18 93 19 10 20 6 21 3 22
REMARK SMILES IDX 4 23 95 24 5 26 94 27 2 29 1 30 23 31 24 32 25 33 26 34
REMARK SMILES IDX 27 35 28 36 29 37 30 38 31 39 89 40 32 41 88 42 33 43 34 44
REMARK SMILES IDX 35 45 82 46 36 47 87 48 81 49 83 50 37 51 86 52 80 53 79 54
REMARK SMILES IDX 38 56 68 57 49 58 67 59 50 60 53 61 66 62 84 63 51 64 52 65
REMARK SMILES IDX 65 67 85 68 54 69 39 70 40 71 48 72 41 73 47 74 42 75 43 76
REMARK SMILES IDX 44 77 45 78 46 79 69 80 70 81 78 82 71 83 77 84 72 85 73 86
REMARK SMILES IDX 74 87 75 88 76 89 55 90 56 91 64 92 57 93 63 94 58 95 59 96
REMARK SMILES IDX 60 97 61 98 62 99
REMARK H PARENT 3 25 6 28 83 55 53 66
REMARK Flexibility Score: inf
ROOT
ATOM      1  C   UNL     1       4.715  -9.123  -5.285  1.00  0.00     0.188 C 
ENDROOT
BRANCH   1   2
ATOM      2  O   UNL     1       4.381 -10.354  -5.897  1.00  0.00    -0.376 OA
BRANCH   2   3
ATOM      3  C   UNL     1       3.747 -10.385  -7.165  1.00  0.00     0.202 C 
BRANCH   3   4
ATOM      4  C   UNL     1       2.684  -9.365  -7.600  1.00  0.00     0.261 C 
BRANCH   4   5
ATOM      5  O   UNL     1       2.981  -8.000  -7.297  1.00  0.00    -0.460 OA
BRANCH   5   6
ATOM      6  C   UNL     1       2.143  -7.421  -6.394  1.00  0.00     0.338 C 
ATOM      7  O   UNL     1       1.175  -7.916  -5.866  1.00  0.00    -0.246 OA
BRANCH   6   8
ATOM      8  C   UNL     1       2.696  -6.107  -6.002  1.00  0.00     0.060 A 
ATOM      9  C   UNL     1       3.624  -3.596  -5.181  1.00  0.00     0.052 A 
ATOM     10  C   UNL     1       3.305  -4.576  -4.230  1.00  0.00     0.028 A 
ATOM     11  C   UNL     1       3.548  -3.922  -6.544  1.00  0.00     0.028 A 
ATOM     12  C   UNL     1       2.805  -5.814  -4.639  1.00  0.00     0.018 A 
ATOM     13  C   UNL     1       3.109  -5.181  -6.958  1.00  0.00     0.018 A 
BRANCH   9  14
ATOM     14  N   UNL     1       3.891  -2.268  -4.768  1.00  0.00    -0.245 N 
ATOM     15  C   UNL     1       4.340  -0.444  -3.350  1.00  0.00     0.285 C 
ATOM     16  C   UNL     1       3.706   0.061  -4.636  1.00  0.00     0.176 C 
ATOM     17  C   UNL     1       4.559  -1.932  -3.613  1.00  0.00     0.292 C 
ATOM     18  C   UNL     1       3.403  -1.169  -5.428  1.00  0.00     0.240 C 
ATOM     19  O   UNL     1       5.224  -2.674  -2.900  1.00  0.00    -0.267 OA
ATOM     20  O   UNL     1       2.775  -1.124  -6.479  1.00  0.00    -0.274 OA
BRANCH  15  21
ATOM     21  N   UNL     1       3.645  -0.227  -2.069  1.00  0.00    -0.315 N 
ATOM     22  N   UNL     1       0.891   0.982  -1.915  1.00  0.00    -0.326 N 
ATOM     23  C   UNL     1       2.092   1.810  -2.077  1.00  0.00     0.324 C 
ATOM     24  C   UNL     1       1.115  -0.420  -2.285  1.00  0.00     0.324 C 
ATOM     25  H   UNL     1       0.225   1.337  -2.602  1.00  0.00     0.348 HD
ATOM     26  C   UNL     1       3.444   1.173  -1.677  1.00  0.00     0.325 C 
ATOM     27  C   UNL     1       2.446  -1.030  -1.796  1.00  0.00     0.325 C 
ATOM     28  H   UNL     1       4.360  -0.613  -1.452  1.00  0.00     0.349 HD
BRANCH  22  29
ATOM     29  C   UNL     1       0.178   1.178  -0.649  1.00  0.00     0.259 C 
ATOM     30  C   UNL     1       0.651   0.402   0.574  1.00  0.00     0.071 C 
ENDBRANCH  22  29
ENDBRANCH  15  21
ENDBRANCH   9  14
ENDBRANCH   6   8
ENDBRANCH   5   6
ENDBRANCH   4   5
ENDBRANCH   3   4
ENDBRANCH   2   3
ENDBRANCH   1   2
BRANCH   1  31
ATOM     31  C   UNL     1       5.671  -8.139  -5.991  1.00  0.00     0.188 C 
BRANCH  31  32
ATOM     32  O   UNL     1       6.080  -8.417  -7.309  1.00  0.00    -0.376 OA
BRANCH  32  33
ATOM     33  C   UNL     1       7.022  -9.441  -7.574  1.00  0.00     0.202 C 
BRANCH  33  34
ATOM     34  C   UNL     1       7.910 -10.156  -6.536  1.00  0.00     0.261 C 
BRANCH  34  35
ATOM     35  O   UNL     1       7.531 -10.095  -5.162  1.00  0.00    -0.460 OA
BRANCH  35  36
ATOM     36  C   UNL     1       8.289  -9.276  -4.388  1.00  0.00     0.338 C 
ATOM     37  O   UNL     1       9.213  -8.569  -4.749  1.00  0.00    -0.246 OA
BRANCH  36  38
ATOM     38  C   UNL     1       7.710  -9.236  -3.033  1.00  0.00     0.060 A 
ATOM     39  C   UNL     1       7.153  -8.036  -2.574  1.00  0.00     0.016 A 
ATOM     40  C   UNL     1       7.753 -10.363  -2.211  1.00  0.00     0.016 A 
ATOM     41  C   UNL     1       6.653  -7.953  -1.275  1.00  0.00     0.010 A 
ATOM     42  C   UNL     1       7.269 -10.272  -0.903  1.00  0.00     0.010 A 
ATOM     43  C   UNL     1       6.742  -9.060  -0.420  1.00  0.00    -0.014 A 
BRANCH  43  44
ATOM     44  C   UNL     1       6.441  -8.907   1.024  1.00  0.00     0.031 A 
ATOM     45  C   UNL     1       7.585  -8.704   1.981  1.00  0.00     0.074 A 
ATOM     46  C   UNL     1       5.176  -8.942   1.480  1.00  0.00     0.049 A 
ATOM     47  N   UNL     1       7.568  -8.604   3.284  1.00  0.00    -0.248 NA
ATOM     48  C   UNL     1       8.928  -8.606   1.385  1.00  0.00     0.031 C 
ATOM     49  C   UNL     1       3.980  -9.088   0.652  1.00  0.00     0.029 A 
ATOM     50  N   UNL     1       4.691  -8.866   2.763  1.00  0.00    -0.354 N 
ATOM     51  C   UNL     1       8.894  -8.440   3.667  1.00  0.00     0.074 A 
ATOM     52  C   UNL     1       9.692  -8.483   2.461  1.00  0.00     0.031 C 
ATOM     53  C   UNL     1       2.898  -9.102   1.450  1.00  0.00     0.029 A 
ATOM     54  C   UNL     1       3.326  -9.002   2.845  1.00  0.00     0.049 A 
ATOM     55  H   UNL     1       5.267  -8.727   3.549  1.00  0.00     0.167 HD
ATOM     56  C   UNL     1       9.403  -8.266   4.910  1.00  0.00     0.031 A 
ATOM     57  C   UNL     1       2.518  -9.063   3.923  1.00  0.00     0.031 A 
ATOM     58  C   UNL     1       8.609  -8.241   6.110  1.00  0.00     0.049 A 
ATOM     59  C   UNL     1       3.116  -8.947   5.303  1.00  0.00     0.074 A 
ATOM     60  C   UNL     1       9.030  -8.057   7.415  1.00  0.00     0.029 A 
ATOM     61  N   UNL     1       7.234  -8.415   6.154  1.00  0.00    -0.354 N 
ATOM     62  N   UNL     1       4.369  -8.767   5.649  1.00  0.00    -0.248 NA
ATOM     63  C   UNL     1       2.186  -9.035   6.439  1.00  0.00     0.031 C 
ATOM     64  C   UNL     1       7.917  -8.182   8.254  1.00  0.00     0.029 A 
ATOM     65  C   UNL     1       6.793  -8.373   7.466  1.00  0.00     0.049 A 
ATOM     66  H   UNL     1       6.656  -8.549   5.368  1.00  0.00     0.167 HD
ATOM     67  C   UNL     1       4.372  -8.688   7.039  1.00  0.00     0.074 A 
ATOM     68  C   UNL     1       2.996  -8.828   7.468  1.00  0.00     0.031 C 
ATOM     69  C   UNL     1       5.420  -8.512   7.882  1.00  0.00     0.031 A 
BRANCH  56  70
ATOM     70  C   UNL     1      10.897  -8.127   5.037  1.00  0.00    -0.014 A 
ATOM     71  C   UNL     1      11.566  -6.975   4.585  1.00  0.00     0.010 A 
ATOM     72  C   UNL     1      11.640  -9.153   5.649  1.00  0.00     0.010 A 
ATOM     73  C   UNL     1      12.954  -6.869   4.709  1.00  0.00     0.020 A 
ATOM     74  C   UNL     1      13.024  -9.038   5.802  1.00  0.00     0.020 A 
ATOM     75  C   UNL     1      13.675  -7.902   5.316  1.00  0.00     0.054 A 
BRANCH  75  76
ATOM     76  S   UNL     1      15.472  -7.727   5.484  1.00  0.00     0.124 S 
ATOM     77  O   UNL     1      15.921  -7.888   4.104  1.00  0.00    -0.237 OA
ATOM     78  O   UNL     1      15.612  -6.382   6.037  1.00  0.00    -0.237 OA
ATOM     79  O   UNL     1      15.844  -8.811   6.390  1.00  0.00    -0.744 OA
ENDBRANCH  75  76
ENDBRANCH  56  70
BRANCH  57  80
ATOM     80  C   UNL     1       1.053  -9.263   3.745  1.00  0.00    -0.014 A 
ATOM     81  C   UNL     1       0.144  -8.240   4.066  1.00  0.00     0.010 A 
ATOM     82  C   UNL     1       0.557 -10.488   3.260  1.00  0.00     0.010 A 
ATOM     83  C   UNL     1      -1.232  -8.443   3.922  1.00  0.00     0.020 A 
ATOM     84  C   UNL     1      -0.816 -10.684   3.087  1.00  0.00     0.020 A 
ATOM     85  C   UNL     1      -1.703  -9.663   3.430  1.00  0.00     0.054 A 
BRANCH  85  86
ATOM     86  S   UNL     1      -3.490  -9.884   3.206  1.00  0.00     0.124 S 
ATOM     87  O   UNL     1      -3.959  -9.993   4.584  1.00  0.00    -0.237 OA
ATOM     88  O   UNL     1      -3.872  -8.662   2.502  1.00  0.00    -0.237 OA
ATOM     89  O   UNL     1      -3.587 -11.108   2.413  1.00  0.00    -0.744 OA
ENDBRANCH  85  86
ENDBRANCH  57  80
BRANCH  69  90
ATOM     90  C   UNL     1       5.122  -8.414   9.357  1.00  0.00    -0.014 A 
ATOM     91  C   UNL     1       4.719  -9.536  10.102  1.00  0.00     0.010 A 
ATOM     92  C   UNL     1       5.307  -7.185  10.019  1.00  0.00     0.010 A 
ATOM     93  C   UNL     1       4.474  -9.424  11.474  1.00  0.00     0.020 A 
ATOM     94  C   UNL     1       5.093  -7.076  11.396  1.00  0.00     0.020 A 
ATOM     95  C   UNL     1       4.663  -8.194  12.113  1.00  0.00     0.054 A 
BRANCH  95  96
ATOM     96  S   UNL     1       4.378  -8.083  13.901  1.00  0.00     0.124 S 
ATOM     97  O   UNL     1       2.922  -8.154  13.982  1.00  0.00    -0.237 OA
ATOM     98  O   UNL     1       5.094  -9.250  14.412  1.00  0.00    -0.237 OA
ATOM     99  O   UNL     1       4.960  -6.794  14.267  1.00  0.00    -0.744 OA
ENDBRANCH  95  96
ENDBRANCH  69  90
ENDBRANCH  43  44
ENDBRANCH  36  38
ENDBRANCH  35  36
ENDBRANCH  34  35
ENDBRANCH  33  34
ENDBRANCH  32  33
ENDBRANCH  31  32
ENDBRANCH   1  31
TORSDOF 23
