REMARK SMILES COc1cc2c(CC(=O)OCCOCCOCCOC(=O)c3ccc(-c4c5nc(c(-c6ccc(S(=O)(=O)[O-])cc6)c6ccc([nH]6)c(-c6ccc(S(=O)(=O)[O-])cc6)c6nc(c(-c7ccc(S(=O)(=O)[O-])cc7)c7ccc4[nH]7)C=C6)C=C5)cc3)c(C)n(C(=O)c3ccc(Cl)cc3)c2cc1Cl
REMARK SMILES IDX 14 1 13 2 12 3 11 4 10 5 8 6 9 7 7 8 6 9 3 10 4 11 96 12
REMARK SMILES IDX 5 13 95 14 97 15 94 16 82 17 84 18 83 19 2 20 1 21 85 22
REMARK SMILES IDX 86 23 87 24 88 25 93 26 89 27 92 28 90 29 91 30 15 31 16 32
REMARK SMILES IDX 17 33 18 34 19 35 20 36 21 37 22 38 23 39 81 40 24 41 80 42
REMARK SMILES IDX 25 43 26 44 27 45 74 46 28 47 79 48 73 49 75 50 29 51 78 52
REMARK SMILES IDX 72 53 71 54 30 56 60 57 41 58 59 59 42 60 45 61 58 62 76 63
REMARK SMILES IDX 43 64 44 65 57 67 77 68 46 69 31 70 32 71 40 72 33 73 39 74
REMARK SMILES IDX 34 75 35 76 36 77 37 78 38 79 61 80 62 81 70 82 63 83 69 84
REMARK SMILES IDX 64 85 65 86 66 87 67 88 68 89 47 90 48 91 56 92 49 93 55 94
REMARK SMILES IDX 50 95 51 96 52 97 53 98 54 99
REMARK H PARENT 75 55 45 66
REMARK Flexibility Score: inf
ROOT
ATOM      1  C   UNL     1      -2.397  -2.496   4.706  1.00  0.00     0.188 C 
ENDROOT
BRANCH   1   2
ATOM      2  O   UNL     1      -2.743  -2.313   6.058  1.00  0.00    -0.376 OA
BRANCH   2   3
ATOM      3  C   UNL     1      -2.211  -3.264   6.967  1.00  0.00     0.202 C 
BRANCH   3   4
ATOM      4  C   UNL     1      -2.285  -4.738   6.529  1.00  0.00     0.261 C 
BRANCH   4   5
ATOM      5  O   UNL     1      -1.347  -5.038   5.450  1.00  0.00    -0.463 OA
BRANCH   5   6
ATOM      6  C   UNL     1      -1.811  -5.854   4.465  1.00  0.00     0.310 C 
ATOM      7  O   UNL     1      -2.812  -6.548   4.623  1.00  0.00    -0.252 OA
BRANCH   6   8
ATOM      8  C   UNL     1      -1.193  -5.663   3.071  1.00  0.00     0.160 C 
BRANCH   8   9
ATOM      9  C   UNL     1       0.290  -5.699   2.736  1.00  0.00    -0.008 A 
ATOM     10  C   UNL     1       1.772  -2.703   0.677  1.00  0.00     0.138 A 
ATOM     11  C   UNL     1       1.005  -3.379   1.651  1.00  0.00     0.058 A 
ATOM     12  C   UNL     1       2.823  -3.396   0.136  1.00  0.00     0.085 A 
ATOM     13  C   UNL     1       1.097  -4.735   2.017  1.00  0.00     0.008 A 
ATOM     14  C   UNL     1       3.055  -4.721   0.559  1.00  0.00     0.051 A 
ATOM     15  Cl  UNL     1       3.993  -2.700  -0.927  1.00  0.00    -0.080 Cl
ATOM     16  C   UNL     1       2.215  -5.381   1.511  1.00  0.00     0.058 A 
ATOM     17  C   UNL     1       1.030  -6.875   2.724  1.00  0.00     0.028 A 
ATOM     18  N   UNL     1       2.294  -6.604   2.198  1.00  0.00    -0.280 N 
ATOM     19  C   UNL     1       0.539  -8.217   3.164  1.00  0.00     0.065 C 
BRANCH  10  20
ATOM     20  O   UNL     1       1.323  -1.434   0.467  1.00  0.00    -0.495 OA
ATOM     21  C   UNL     1       1.729  -0.614  -0.618  1.00  0.00     0.278 C 
ENDBRANCH  10  20
BRANCH  18  22
ATOM     22  C   UNL     1       3.481  -7.353   2.367  1.00  0.00     0.262 C 
ATOM     23  O   UNL     1       3.446  -8.466   2.894  1.00  0.00    -0.268 OA
BRANCH  22  24
ATOM     24  C   UNL     1       4.793  -6.805   2.004  1.00  0.00     0.040 A 
ATOM     25  C   UNL     1       5.293  -5.720   2.739  1.00  0.00     0.015 A 
ATOM     26  C   UNL     1       5.367  -7.196   0.792  1.00  0.00     0.015 A 
ATOM     27  C   UNL     1       6.347  -4.975   2.215  1.00  0.00     0.021 A 
ATOM     28  C   UNL     1       6.415  -6.436   0.271  1.00  0.00     0.021 A 
ATOM     29  C   UNL     1       6.888  -5.324   0.975  1.00  0.00     0.041 A 
ATOM     30  Cl  UNL     1       8.105  -4.330   0.274  1.00  0.00    -0.084 Cl
ENDBRANCH  22  24
ENDBRANCH  18  22
ENDBRANCH   8   9
ENDBRANCH   6   8
ENDBRANCH   5   6
ENDBRANCH   4   5
ENDBRANCH   3   4
ENDBRANCH   2   3
ENDBRANCH   1   2
BRANCH   1  31
ATOM     31  C   UNL     1      -0.904  -2.551   4.364  1.00  0.00     0.188 C 
BRANCH  31  32
ATOM     32  O   UNL     1       0.065  -2.090   5.268  1.00  0.00    -0.376 OA
BRANCH  32  33
ATOM     33  C   UNL     1       0.206  -0.684   5.367  1.00  0.00     0.202 C 
BRANCH  33  34
ATOM     34  C   UNL     1      -0.160   0.226   4.156  1.00  0.00     0.261 C 
BRANCH  34  35
ATOM     35  O   UNL     1      -1.475  -0.020   3.565  1.00  0.00    -0.460 OA
BRANCH  35  36
ATOM     36  C   UNL     1      -1.568  -0.001   2.195  1.00  0.00     0.338 C 
ATOM     37  O   UNL     1      -0.782   0.587   1.466  1.00  0.00    -0.246 OA
BRANCH  36  38
ATOM     38  C   UNL     1      -2.493  -1.089   1.680  1.00  0.00     0.060 A 
ATOM     39  C   UNL     1      -3.866  -1.204   1.861  1.00  0.00     0.016 A 
ATOM     40  C   UNL     1      -1.870  -2.145   1.013  1.00  0.00     0.016 A 
ATOM     41  C   UNL     1      -4.527  -2.416   1.489  1.00  0.00     0.010 A 
ATOM     42  C   UNL     1      -2.495  -3.344   0.657  1.00  0.00     0.010 A 
ATOM     43  C   UNL     1      -3.833  -3.531   0.945  1.00  0.00    -0.014 A 
BRANCH  43  44
ATOM     44  C   UNL     1      -4.512  -4.683   0.294  1.00  0.00     0.031 A 
ATOM     45  C   UNL     1      -5.179  -4.224  -0.928  1.00  0.00     0.074 A 
ATOM     46  C   UNL     1      -4.576  -6.025   0.494  1.00  0.00     0.049 A 
ATOM     47  N   UNL     1      -6.386  -3.784  -0.925  1.00  0.00    -0.248 NA
ATOM     48  C   UNL     1      -4.439  -4.020  -2.174  1.00  0.00     0.031 C 
ATOM     49  C   UNL     1      -3.949  -6.840   1.516  1.00  0.00     0.029 A 
ATOM     50  N   UNL     1      -5.270  -6.978  -0.224  1.00  0.00    -0.354 N 
ATOM     51  C   UNL     1      -6.656  -3.459  -2.230  1.00  0.00     0.074 A 
ATOM     52  C   UNL     1      -5.376  -3.402  -2.900  1.00  0.00     0.031 C 
ATOM     53  C   UNL     1      -4.102  -8.164   1.261  1.00  0.00     0.029 A 
ATOM     54  C   UNL     1      -5.018  -8.305   0.140  1.00  0.00     0.049 A 
ATOM     55  H   UNL     1      -5.900  -6.740  -0.942  1.00  0.00     0.167 HD
ATOM     56  C   UNL     1      -7.934  -3.514  -2.682  1.00  0.00     0.031 A 
ATOM     57  C   UNL     1      -5.715  -9.440  -0.159  1.00  0.00     0.031 A 
ATOM     58  C   UNL     1      -8.884  -3.669  -1.599  1.00  0.00     0.049 A 
ATOM     59  C   UNL     1      -7.094  -9.012  -0.479  1.00  0.00     0.074 A 
ATOM     60  C   UNL     1      -9.128  -2.965  -0.431  1.00  0.00     0.029 A 
ATOM     61  N   UNL     1      -9.426  -4.920  -1.398  1.00  0.00    -0.354 N 
ATOM     62  N   UNL     1      -7.945  -8.601   0.415  1.00  0.00    -0.248 NA
ATOM     63  C   UNL     1      -7.399  -8.660  -1.855  1.00  0.00     0.031 C 
ATOM     64  C   UNL     1      -9.368  -3.957   0.564  1.00  0.00     0.029 A 
ATOM     65  C   UNL     1      -9.350  -5.207  -0.055  1.00  0.00     0.049 A 
ATOM     66  H   UNL     1      -9.802  -5.506  -2.094  1.00  0.00     0.167 HD
ATOM     67  C   UNL     1      -8.624  -7.569  -0.210  1.00  0.00     0.074 A 
ATOM     68  C   UNL     1      -8.308  -7.711  -1.630  1.00  0.00     0.031 C 
ATOM     69  C   UNL     1      -9.162  -6.537   0.500  1.00  0.00     0.031 A 
BRANCH  56  70
ATOM     70  C   UNL     1      -8.258  -3.759  -4.118  1.00  0.00    -0.014 A 
ATOM     71  C   UNL     1      -7.333  -4.303  -5.033  1.00  0.00     0.010 A 
ATOM     72  C   UNL     1      -9.584  -3.600  -4.551  1.00  0.00     0.010 A 
ATOM     73  C   UNL     1      -7.680  -4.587  -6.349  1.00  0.00     0.020 A 
ATOM     74  C   UNL     1      -9.957  -3.934  -5.856  1.00  0.00     0.020 A 
ATOM     75  C   UNL     1      -8.994  -4.397  -6.753  1.00  0.00     0.054 A 
BRANCH  75  76
ATOM     76  S   UNL     1      -9.415  -4.795  -8.461  1.00  0.00     0.124 S 
ATOM     77  O   UNL     1      -8.699  -3.753  -9.193  1.00  0.00    -0.237 OA
ATOM     78  O   UNL     1      -8.884  -6.147  -8.606  1.00  0.00    -0.237 OA
ATOM     79  O   UNL     1     -10.871  -4.689  -8.486  1.00  0.00    -0.744 OA
ENDBRANCH  75  76
ENDBRANCH  56  70
BRANCH  57  80
ATOM     80  C   UNL     1      -5.175 -10.721  -0.714  1.00  0.00    -0.014 A 
ATOM     81  C   UNL     1      -3.837 -10.828  -1.131  1.00  0.00     0.010 A 
ATOM     82  C   UNL     1      -6.066 -11.749  -1.110  1.00  0.00     0.010 A 
ATOM     83  C   UNL     1      -3.439 -11.828  -2.031  1.00  0.00     0.020 A 
ATOM     84  C   UNL     1      -5.676 -12.749  -2.017  1.00  0.00     0.020 A 
ATOM     85  C   UNL     1      -4.375 -12.745  -2.515  1.00  0.00     0.054 A 
BRANCH  85  86
ATOM     86  S   UNL     1      -3.892 -13.836  -3.888  1.00  0.00     0.124 S 
ATOM     87  O   UNL     1      -3.714 -12.883  -4.980  1.00  0.00    -0.237 OA
ATOM     88  O   UNL     1      -2.665 -14.451  -3.389  1.00  0.00    -0.237 OA
ATOM     89  O   UNL     1      -5.027 -14.744  -4.030  1.00  0.00    -0.744 OA
ENDBRANCH  85  86
ENDBRANCH  57  80
BRANCH  69  90
ATOM     90  C   UNL     1      -9.353  -6.674   2.002  1.00  0.00    -0.014 A 
ATOM     91  C   UNL     1     -10.603  -6.276   2.516  1.00  0.00     0.010 A 
ATOM     92  C   UNL     1      -8.333  -6.994   2.921  1.00  0.00     0.010 A 
ATOM     93  C   UNL     1     -10.816  -6.139   3.889  1.00  0.00     0.020 A 
ATOM     94  C   UNL     1      -8.550  -6.888   4.308  1.00  0.00     0.020 A 
ATOM     95  C   UNL     1      -9.782  -6.428   4.779  1.00  0.00     0.054 A 
BRANCH  95  96
ATOM     96  S   UNL     1     -10.084  -6.150   6.547  1.00  0.00     0.124 S 
ATOM     97  O   UNL     1     -10.128  -4.691   6.627  1.00  0.00    -0.237 OA
ATOM     98  O   UNL     1     -11.364  -6.822   6.766  1.00  0.00    -0.237 OA
ATOM     99  O   UNL     1      -8.940  -6.773   7.207  1.00  0.00    -0.744 OA
ENDBRANCH  95  96
ENDBRANCH  69  90
ENDBRANCH  43  44
ENDBRANCH  36  38
ENDBRANCH  35  36
ENDBRANCH  34  35
ENDBRANCH  33  34
ENDBRANCH  32  33
ENDBRANCH  31  32
ENDBRANCH   1  31
TORSDOF 24
