REMARK SMILES CCCCN(c1ccccc1C(=O)OCCOCCOCCOC(=O)c1ccc(-c2c3nc(c(-c4ccc(S(=O)(=O)[O-])cc4)c4ccc([nH]4)c(-c4ccc(S(=O)(=O)[O-])cc4)c4nc(c(-c5ccc(S(=O)(=O)[O-])cc5)c5ccc2[nH]5)C=C4)C=C3)cc1)S(=O)(=O)c1ccc2c(c1)oc(=O)n2C
REMARK SMILES IDX 18 1 17 2 16 3 15 4 14 5 12 6 13 7 11 8 6 9 7 10 8 11 10 12
REMARK SMILES IDX 9 13 5 14 4 15 3 16 2 17 1 18 86 19 87 20 88 21 89 22 90 23
REMARK SMILES IDX 94 24 91 25 93 26 92 27 95 28 98 29 96 30 99 31 97 32 19 33
REMARK SMILES IDX 20 34 21 35 22 36 23 37 24 38 25 39 26 40 27 41 85 42 28 43
REMARK SMILES IDX 84 44 29 45 30 46 31 47 78 48 32 49 83 50 77 51 79 52 33 53
REMARK SMILES IDX 82 54 76 55 75 56 34 58 64 59 45 60 63 61 46 62 49 63 62 64
REMARK SMILES IDX 80 65 47 66 48 67 61 69 81 70 50 71 35 72 36 73 44 74 37 75
REMARK SMILES IDX 43 76 38 77 39 78 40 79 41 80 42 81 65 82 66 83 74 84 67 85
REMARK SMILES IDX 73 86 68 87 69 88 70 89 71 90 72 91 51 92 52 93 60 94 53 95
REMARK SMILES IDX 59 96 54 97 55 98 56 99 57 100 58 101
REMARK H PARENT 79 57 49 68
REMARK Flexibility Score: inf
ROOT
ATOM      1  C   UNL     1       0.060  -6.440  -0.354  1.00  0.00     0.188 C 
ENDROOT
BRANCH   1   2
ATOM      2  O   UNL     1       1.351  -6.489   0.239  1.00  0.00    -0.376 OA
BRANCH   2   3
ATOM      3  C   UNL     1       2.191  -5.340   0.144  1.00  0.00     0.202 C 
BRANCH   3   4
ATOM      4  C   UNL     1       2.262  -4.578  -1.188  1.00  0.00     0.261 C 
BRANCH   4   5
ATOM      5  O   UNL     1       0.978  -4.105  -1.642  1.00  0.00    -0.460 OA
BRANCH   5   6
ATOM      6  C   UNL     1       0.683  -4.304  -2.944  1.00  0.00     0.340 C 
ATOM      7  O   UNL     1       1.425  -4.796  -3.780  1.00  0.00    -0.246 OA
BRANCH   6   8
ATOM      8  C   UNL     1      -0.730  -3.971  -3.256  1.00  0.00     0.084 A 
ATOM      9  C   UNL     1      -1.368  -2.713  -3.127  1.00  0.00     0.066 A 
ATOM     10  C   UNL     1      -2.619  -2.581  -3.764  1.00  0.00     0.028 A 
ATOM     11  C   UNL     1      -3.304  -3.673  -4.311  1.00  0.00     0.002 A 
ATOM     12  C   UNL     1      -1.424  -5.066  -3.824  1.00  0.00     0.018 A 
ATOM     13  C   UNL     1      -2.719  -4.929  -4.308  1.00  0.00     0.001 A 
BRANCH   9  14
ATOM     14  N   UNL     1      -0.862  -1.529  -2.430  1.00  0.00    -0.265 N 
BRANCH  14  15
ATOM     15  C   UNL     1       0.611  -1.356  -2.248  1.00  0.00     0.136 C 
BRANCH  15  16
ATOM     16  C   UNL     1       1.173   0.042  -2.494  1.00  0.00     0.022 C 
BRANCH  16  17
ATOM     17  C   UNL     1       1.146   1.052  -1.345  1.00  0.00    -0.002 C 
ATOM     18  C   UNL     1       1.692   0.556  -0.015  1.00  0.00     0.004 C 
ENDBRANCH  16  17
ENDBRANCH  15  16
ENDBRANCH  14  15
BRANCH  14  19
ATOM     19  S   UNL     1      -1.834  -0.704  -1.255  1.00  0.00     0.264 S 
ATOM     20  O   UNL     1      -1.247  -0.887   0.055  1.00  0.00    -0.201 OA
ATOM     21  O   UNL     1      -2.039   0.634  -1.782  1.00  0.00    -0.201 OA
BRANCH  19  22
ATOM     22  C   UNL     1      -3.463  -1.421  -1.138  1.00  0.00     0.091 A 
ATOM     23  C   UNL     1      -4.599  -0.636  -1.456  1.00  0.00     0.025 A 
ATOM     24  C   UNL     1      -3.601  -2.749  -0.730  1.00  0.00     0.071 A 
ATOM     25  C   UNL     1      -5.877  -1.206  -1.474  1.00  0.00     0.032 A 
ATOM     26  C   UNL     1      -4.862  -3.297  -0.814  1.00  0.00     0.157 A 
ATOM     27  C   UNL     1      -5.964  -2.551  -1.190  1.00  0.00     0.090 A 
ATOM     28  O   UNL     1      -5.159  -4.636  -0.620  1.00  0.00    -0.408 OA
ATOM     29  N   UNL     1      -7.013  -3.436  -1.241  1.00  0.00    -0.277 N 
ATOM     30  C   UNL     1      -6.520  -4.691  -0.946  1.00  0.00     0.419 A 
ATOM     31  C   UNL     1      -8.355  -3.163  -1.662  1.00  0.00     0.157 C 
ATOM     32  O   UNL     1      -7.153  -5.741  -0.990  1.00  0.00    -0.223 OA
ENDBRANCH  19  22
ENDBRANCH  14  19
ENDBRANCH   9  14
ENDBRANCH   6   8
ENDBRANCH   5   6
ENDBRANCH   4   5
ENDBRANCH   3   4
ENDBRANCH   2   3
ENDBRANCH   1   2
BRANCH   1  33
ATOM     33  C   UNL     1      -0.894  -5.301   0.056  1.00  0.00     0.188 C 
BRANCH  33  34
ATOM     34  O   UNL     1      -0.295  -4.283   0.822  1.00  0.00    -0.376 OA
BRANCH  34  35
ATOM     35  C   UNL     1      -0.489  -4.268   2.226  1.00  0.00     0.202 C 
BRANCH  35  36
ATOM     36  C   UNL     1      -0.643  -5.541   3.086  1.00  0.00     0.261 C 
BRANCH  36  37
ATOM     37  O   UNL     1      -1.070  -6.748   2.447  1.00  0.00    -0.460 OA
BRANCH  37  38
ATOM     38  C   UNL     1      -2.405  -6.945   2.316  1.00  0.00     0.338 C 
ATOM     39  O   UNL     1      -3.292  -6.183   2.649  1.00  0.00    -0.246 OA
BRANCH  38  40
ATOM     40  C   UNL     1      -2.584  -8.153   1.478  1.00  0.00     0.060 A 
ATOM     41  C   UNL     1      -3.196  -8.039   0.220  1.00  0.00     0.016 A 
ATOM     42  C   UNL     1      -2.105  -9.387   1.921  1.00  0.00     0.016 A 
ATOM     43  C   UNL     1      -3.344  -9.167  -0.593  1.00  0.00     0.010 A 
ATOM     44  C   UNL     1      -2.283 -10.517   1.122  1.00  0.00     0.010 A 
ATOM     45  C   UNL     1      -2.927 -10.418  -0.125  1.00  0.00    -0.014 A 
BRANCH  45  46
ATOM     46  C   UNL     1      -3.359 -11.667  -0.799  1.00  0.00     0.031 A 
ATOM     47  C   UNL     1      -4.572 -12.367  -0.249  1.00  0.00     0.074 A 
ATOM     48  C   UNL     1      -2.675 -12.200  -1.826  1.00  0.00     0.049 A 
ATOM     49  N   UNL     1      -5.046 -13.552  -0.528  1.00  0.00    -0.248 NA
ATOM     50  C   UNL     1      -5.342 -11.632   0.769  1.00  0.00     0.031 C 
ATOM     51  C   UNL     1      -1.521 -11.593  -2.487  1.00  0.00     0.029 A 
ATOM     52  N   UNL     1      -2.844 -13.398  -2.477  1.00  0.00    -0.354 N 
ATOM     53  C   UNL     1      -6.152 -13.715   0.297  1.00  0.00     0.074 A 
ATOM     54  C   UNL     1      -6.267 -12.519   1.101  1.00  0.00     0.031 C 
ATOM     55  C   UNL     1      -1.070 -12.435  -3.435  1.00  0.00     0.029 A 
ATOM     56  C   UNL     1      -1.871 -13.659  -3.413  1.00  0.00     0.049 A 
ATOM     57  H   UNL     1      -3.591 -14.012  -2.290  1.00  0.00     0.167 HD
ATOM     58  C   UNL     1      -6.995 -14.770   0.382  1.00  0.00     0.031 A 
ATOM     59  C   UNL     1      -1.633 -14.772  -4.137  1.00  0.00     0.031 A 
ATOM     60  C   UNL     1      -6.865 -15.964  -0.408  1.00  0.00     0.049 A 
ATOM     61  C   UNL     1      -2.536 -15.971  -3.969  1.00  0.00     0.074 A 
ATOM     62  C   UNL     1      -7.670 -17.089  -0.405  1.00  0.00     0.029 A 
ATOM     63  N   UNL     1      -5.860 -16.192  -1.336  1.00  0.00    -0.354 N 
ATOM     64  N   UNL     1      -3.583 -16.114  -3.190  1.00  0.00    -0.248 NA
ATOM     65  C   UNL     1      -2.227 -17.159  -4.780  1.00  0.00     0.031 C 
ATOM     66  C   UNL     1      -7.116 -18.022  -1.285  1.00  0.00     0.029 A 
ATOM     67  C   UNL     1      -6.012 -17.448  -1.896  1.00  0.00     0.049 A 
ATOM     68  H   UNL     1      -5.144 -15.555  -1.563  1.00  0.00     0.167 HD
ATOM     69  C   UNL     1      -4.082 -17.388  -3.452  1.00  0.00     0.074 A 
ATOM     70  C   UNL     1      -3.224 -17.974  -4.460  1.00  0.00     0.031 C 
ATOM     71  C   UNL     1      -5.160 -18.011  -2.914  1.00  0.00     0.031 A 
BRANCH  58  72
ATOM     72  C   UNL     1      -8.105 -14.695   1.398  1.00  0.00    -0.014 A 
ATOM     73  C   UNL     1      -9.181 -13.803   1.244  1.00  0.00     0.010 A 
ATOM     74  C   UNL     1      -8.083 -15.555   2.511  1.00  0.00     0.010 A 
ATOM     75  C   UNL     1     -10.195 -13.746   2.204  1.00  0.00     0.020 A 
ATOM     76  C   UNL     1      -9.111 -15.524   3.457  1.00  0.00     0.020 A 
ATOM     77  C   UNL     1     -10.153 -14.607   3.305  1.00  0.00     0.054 A 
BRANCH  77  78
ATOM     78  S   UNL     1     -11.497 -14.530   4.520  1.00  0.00     0.124 S 
ATOM     79  O   UNL     1     -11.239 -13.250   5.175  1.00  0.00    -0.237 OA
ATOM     80  O   UNL     1     -12.690 -14.577   3.680  1.00  0.00    -0.237 OA
ATOM     81  O   UNL     1     -11.279 -15.709   5.355  1.00  0.00    -0.744 OA
ENDBRANCH  77  78
ENDBRANCH  58  72
BRANCH  59  82
ATOM     82  C   UNL     1      -0.475 -14.823  -5.075  1.00  0.00    -0.014 A 
ATOM     83  C   UNL     1      -0.681 -14.891  -6.465  1.00  0.00     0.010 A 
ATOM     84  C   UNL     1       0.844 -14.815  -4.583  1.00  0.00     0.010 A 
ATOM     85  C   UNL     1       0.406 -14.967  -7.342  1.00  0.00     0.020 A 
ATOM     86  C   UNL     1       1.934 -14.859  -5.458  1.00  0.00     0.020 A 
ATOM     87  C   UNL     1       1.707 -14.946  -6.832  1.00  0.00     0.054 A 
BRANCH  87  88
ATOM     88  S   UNL     1       3.101 -14.995  -7.994  1.00  0.00     0.124 S 
ATOM     89  O   UNL     1       3.037 -16.367  -8.488  1.00  0.00    -0.237 OA
ATOM     90  O   UNL     1       2.742 -13.958  -8.958  1.00  0.00    -0.237 OA
ATOM     91  O   UNL     1       4.257 -14.684  -7.157  1.00  0.00    -0.744 OA
ENDBRANCH  87  88
ENDBRANCH  59  82
BRANCH  71  92
ATOM     92  C   UNL     1      -5.533 -19.371  -3.448  1.00  0.00    -0.014 A 
ATOM     93  C   UNL     1      -4.772 -20.517  -3.158  1.00  0.00     0.010 A 
ATOM     94  C   UNL     1      -6.728 -19.512  -4.181  1.00  0.00     0.010 A 
ATOM     95  C   UNL     1      -5.189 -21.774  -3.608  1.00  0.00     0.020 A 
ATOM     96  C   UNL     1      -7.164 -20.769  -4.605  1.00  0.00     0.020 A 
ATOM     97  C   UNL     1      -6.386 -21.892  -4.324  1.00  0.00     0.054 A 
BRANCH  97  98
ATOM     98  S   UNL     1      -6.938 -23.542  -4.837  1.00  0.00     0.124 S 
ATOM     99  O   UNL     1      -5.985 -23.868  -5.894  1.00  0.00    -0.237 OA
ATOM    100  O   UNL     1      -6.804 -24.320  -3.608  1.00  0.00    -0.237 OA
ATOM    101  O   UNL     1      -8.312 -23.326  -5.284  1.00  0.00    -0.744 OA
ENDBRANCH  97  98
ENDBRANCH  71  92
ENDBRANCH  45  46
ENDBRANCH  38  40
ENDBRANCH  37  38
ENDBRANCH  36  37
ENDBRANCH  35  36
ENDBRANCH  34  35
ENDBRANCH  33  34
ENDBRANCH   1  33
TORSDOF 26
