REMARK SMILES C/C(=N/[NH+]=C1\NC(=O)[C@H](CC(=O)OCCOCCOCCOC(=O)c2ccc(-c3c4nc(c(-c5ccc(S(=O)(=O)[O-])cc5)c5ccc([nH]5)c(-c5ccc(S(=O)(=O)[O-])cc5)c5nc(c(-c6ccc(S(=O)(=O)[O-])cc6)c6ccc3[nH]6)C=C5)C=C4)cc2)S1)c1ccc(OC(C)C)cc1
REMARK SMILES IDX 17 1 16 2 15 3 14 4 13 5 11 6 12 7 10 8 9 9 4 10 5 11 6 13
REMARK SMILES IDX 85 14 7 15 8 17 3 18 1 19 2 20 86 21 87 22 95 23 88 24 94 25
REMARK SMILES IDX 89 26 90 27 91 28 92 29 93 30 18 31 19 32 20 33 21 34 22 35
REMARK SMILES IDX 23 36 24 37 25 38 26 39 84 40 27 41 83 42 28 43 29 44 30 45
REMARK SMILES IDX 77 46 31 47 82 48 76 49 78 50 32 51 81 52 75 53 74 54 33 56
REMARK SMILES IDX 63 57 44 58 62 59 45 60 48 61 61 62 79 63 46 64 47 65 60 67
REMARK SMILES IDX 80 68 49 69 34 70 35 71 43 72 36 73 42 74 37 75 38 76 39 77
REMARK SMILES IDX 40 78 41 79 64 80 65 81 73 82 66 83 72 84 67 85 68 86 69 87
REMARK SMILES IDX 70 88 71 89 50 90 51 91 59 92 52 93 58 94 53 95 54 96 55 97
REMARK SMILES IDX 56 98 57 99
REMARK H PARENT 4 12 6 16 78 55 48 66
REMARK Flexibility Score: inf
ROOT
ATOM      1  C   UNL     1       4.184   6.420  -7.000  1.00  0.00     0.188 C 
ENDROOT
BRANCH   1   2
ATOM      2  O   UNL     1       5.396   7.059  -6.612  1.00  0.00    -0.376 OA
BRANCH   2   3
ATOM      3  C   UNL     1       5.966   6.606  -5.385  1.00  0.00     0.202 C 
BRANCH   3   4
ATOM      4  C   UNL     1       5.037   6.642  -4.165  1.00  0.00     0.261 C 
BRANCH   4   5
ATOM      5  O   UNL     1       3.842   5.823  -4.261  1.00  0.00    -0.463 OA
BRANCH   5   6
ATOM      6  C   UNL     1       2.660   6.438  -4.028  1.00  0.00     0.307 C 
ATOM      7  O   UNL     1       2.553   7.626  -3.731  1.00  0.00    -0.252 OA
BRANCH   6   8
ATOM      8  C   UNL     1       1.420   5.594  -4.218  1.00  0.00     0.150 C 
BRANCH   8   9
ATOM      9  C   UNL     1       1.486   4.161  -4.720  1.00  0.00     0.184 C 
ATOM     10  N   UNL     1      -0.716   1.543  -2.969  1.00  0.00    -0.142 N 
ATOM     11  C   UNL     1       0.153   2.194  -3.669  1.00  0.00     0.337 C 
ATOM     12  H   UNL     1      -1.682   1.702  -3.069  1.00  0.00     0.343 HD
ATOM     13  N   UNL     1       1.489   2.049  -3.585  1.00  0.00    -0.202 N 
ATOM     14  S   UNL     1      -0.251   3.498  -4.736  1.00  0.00    -0.020 SA
ATOM     15  C   UNL     1       2.252   3.136  -3.893  1.00  0.00     0.322 C 
ATOM     16  H   UNL     1       1.897   1.195  -3.314  1.00  0.00     0.316 HD
ATOM     17  O   UNL     1       3.401   3.238  -3.485  1.00  0.00    -0.246 OA
BRANCH  10  18
ATOM     18  N   UNL     1      -0.216   0.591  -2.056  1.00  0.00    -0.090 NA
ATOM     19  C   UNL     1       0.805  -0.036   0.035  1.00  0.00     0.071 C 
ATOM     20  C   UNL     1       0.332   1.014  -0.947  1.00  0.00     0.088 C 
BRANCH  20  21
ATOM     21  C   UNL     1       0.673   2.426  -0.616  1.00  0.00    -0.000 A 
ATOM     22  C   UNL     1      -0.251   3.459  -0.756  1.00  0.00     0.014 A 
ATOM     23  C   UNL     1       2.018   2.727  -0.365  1.00  0.00     0.014 A 
ATOM     24  C   UNL     1       0.190   4.785  -0.699  1.00  0.00     0.047 A 
ATOM     25  C   UNL     1       2.448   4.056  -0.315  1.00  0.00     0.047 A 
ATOM     26  C   UNL     1       1.541   5.095  -0.490  1.00  0.00     0.119 A 
BRANCH  26  27
ATOM     27  O   UNL     1       1.833   6.423  -0.556  1.00  0.00    -0.491 OA
BRANCH  27  28
ATOM     28  C   UNL     1       3.055   6.988  -0.068  1.00  0.00     0.167 C 
ATOM     29  C   UNL     1       3.366   6.654   1.385  1.00  0.00     0.052 C 
ATOM     30  C   UNL     1       4.247   6.793  -0.992  1.00  0.00     0.052 C 
ENDBRANCH  27  28
ENDBRANCH  26  27
ENDBRANCH  20  21
ENDBRANCH  10  18
ENDBRANCH   8   9
ENDBRANCH   6   8
ENDBRANCH   5   6
ENDBRANCH   4   5
ENDBRANCH   3   4
ENDBRANCH   2   3
ENDBRANCH   1   2
BRANCH   1  31
ATOM     31  C   UNL     1       4.303   4.907  -7.189  1.00  0.00     0.188 C 
BRANCH  31  32
ATOM     32  O   UNL     1       4.986   4.210  -6.162  1.00  0.00    -0.376 OA
BRANCH  32  33
ATOM     33  C   UNL     1       5.487   2.903  -6.445  1.00  0.00     0.202 C 
BRANCH  33  34
ATOM     34  C   UNL     1       6.309   2.716  -7.741  1.00  0.00     0.261 C 
BRANCH  34  35
ATOM     35  O   UNL     1       5.644   3.047  -8.982  1.00  0.00    -0.460 OA
BRANCH  35  36
ATOM     36  C   UNL     1       4.398   2.554  -9.176  1.00  0.00     0.338 C 
ATOM     37  O   UNL     1       3.904   1.611  -8.576  1.00  0.00    -0.246 OA
BRANCH  36  38
ATOM     38  C   UNL     1       3.611   3.523  -9.998  1.00  0.00     0.060 A 
ATOM     39  C   UNL     1       2.263   3.717  -9.654  1.00  0.00     0.016 A 
ATOM     40  C   UNL     1       4.182   4.317 -11.000  1.00  0.00     0.016 A 
ATOM     41  C   UNL     1       1.477   4.646 -10.340  1.00  0.00     0.010 A 
ATOM     42  C   UNL     1       3.386   5.236 -11.704  1.00  0.00     0.010 A 
ATOM     43  C   UNL     1       2.016   5.370 -11.410  1.00  0.00    -0.014 A 
BRANCH  43  44
ATOM     44  C   UNL     1       1.086   6.031 -12.369  1.00  0.00     0.031 A 
ATOM     45  C   UNL     1       0.699   5.260 -13.608  1.00  0.00     0.074 A 
ATOM     46  C   UNL     1       0.526   7.234 -12.136  1.00  0.00     0.049 A 
ATOM     47  N   UNL     1      -0.129   5.583 -14.568  1.00  0.00    -0.248 NA
ATOM     48  C   UNL     1       1.331   3.941 -13.780  1.00  0.00     0.031 C 
ATOM     49  C   UNL     1       0.764   8.074 -10.964  1.00  0.00     0.029 A 
ATOM     50  N   UNL     1      -0.375   7.955 -12.886  1.00  0.00    -0.354 N 
ATOM     51  C   UNL     1      -0.114   4.511 -15.455  1.00  0.00     0.074 A 
ATOM     52  C   UNL     1       0.834   3.549 -14.942  1.00  0.00     0.031 C 
ATOM     53  C   UNL     1       0.025   9.194 -11.073  1.00  0.00     0.029 A 
ATOM     54  C   UNL     1      -0.720   9.166 -12.332  1.00  0.00     0.049 A 
ATOM     55  H   UNL     1      -0.740   7.633 -13.742  1.00  0.00     0.167 HD
ATOM     56  C   UNL     1      -0.829   4.331 -16.591  1.00  0.00     0.031 A 
ATOM     57  C   UNL     1      -1.535  10.141 -12.789  1.00  0.00     0.031 A 
ATOM     58  C   UNL     1      -1.762   5.289 -17.122  1.00  0.00     0.049 A 
ATOM     59  C   UNL     1      -2.264   9.953 -14.099  1.00  0.00     0.074 A 
ATOM     60  C   UNL     1      -2.537   5.190 -18.264  1.00  0.00     0.029 A 
ATOM     61  N   UNL     1      -2.038   6.523 -16.556  1.00  0.00    -0.354 N 
ATOM     62  N   UNL     1      -2.257   8.922 -14.911  1.00  0.00    -0.248 NA
ATOM     63  C   UNL     1      -3.125  11.059 -14.544  1.00  0.00     0.031 C 
ATOM     64  C   UNL     1      -3.234   6.392 -18.424  1.00  0.00     0.029 A 
ATOM     65  C   UNL     1      -2.951   7.209 -17.341  1.00  0.00     0.049 A 
ATOM     66  H   UNL     1      -1.645   6.863 -15.720  1.00  0.00     0.167 HD
ATOM     67  C   UNL     1      -3.136   9.244 -15.944  1.00  0.00     0.074 A 
ATOM     68  C   UNL     1      -3.671  10.555 -15.642  1.00  0.00     0.031 C 
ATOM     69  C   UNL     1      -3.472   8.519 -17.041  1.00  0.00     0.031 A 
BRANCH  56  70
ATOM     70  C   UNL     1      -0.596   3.056 -17.359  1.00  0.00    -0.014 A 
ATOM     71  C   UNL     1      -1.020   1.811 -16.858  1.00  0.00     0.010 A 
ATOM     72  C   UNL     1       0.040   3.108 -18.612  1.00  0.00     0.010 A 
ATOM     73  C   UNL     1      -0.777   0.639 -17.580  1.00  0.00     0.020 A 
ATOM     74  C   UNL     1       0.256   1.942 -19.352  1.00  0.00     0.020 A 
ATOM     75  C   UNL     1      -0.140   0.713 -18.822  1.00  0.00     0.054 A 
BRANCH  75  76
ATOM     76  S   UNL     1       0.143  -0.822 -19.746  1.00  0.00     0.124 S 
ATOM     77  O   UNL     1       1.190  -1.462 -18.953  1.00  0.00    -0.237 OA
ATOM     78  O   UNL     1      -1.165  -1.469 -19.699  1.00  0.00    -0.237 OA
ATOM     79  O   UNL     1       0.560  -0.360 -21.068  1.00  0.00    -0.744 OA
ENDBRANCH  75  76
ENDBRANCH  56  70
BRANCH  57  80
ATOM     80  C   UNL     1      -1.704  11.406 -12.013  1.00  0.00    -0.014 A 
ATOM     81  C   UNL     1      -2.938  11.736 -11.425  1.00  0.00     0.010 A 
ATOM     82  C   UNL     1      -0.630  12.306 -11.887  1.00  0.00     0.010 A 
ATOM     83  C   UNL     1      -3.100  12.948 -10.744  1.00  0.00     0.020 A 
ATOM     84  C   UNL     1      -0.778  13.504 -11.180  1.00  0.00     0.020 A 
ATOM     85  C   UNL     1      -2.017  13.823 -10.622  1.00  0.00     0.054 A 
BRANCH  85  86
ATOM     86  S   UNL     1      -2.235  15.365  -9.690  1.00  0.00     0.124 S 
ATOM     87  O   UNL     1      -3.079  16.148 -10.588  1.00  0.00    -0.237 OA
ATOM     88  O   UNL     1      -2.876  14.902  -8.462  1.00  0.00    -0.237 OA
ATOM     89  O   UNL     1      -0.871  15.861  -9.524  1.00  0.00    -0.744 OA
ENDBRANCH  85  86
ENDBRANCH  57  80
BRANCH  69  90
ATOM     90  C   UNL     1      -4.497   9.107 -17.981  1.00  0.00    -0.014 A 
ATOM     91  C   UNL     1      -4.215  10.242 -18.764  1.00  0.00     0.010 A 
ATOM     92  C   UNL     1      -5.760   8.496 -18.101  1.00  0.00     0.010 A 
ATOM     93  C   UNL     1      -5.195  10.789 -19.599  1.00  0.00     0.020 A 
ATOM     94  C   UNL     1      -6.729   9.018 -18.962  1.00  0.00     0.020 A 
ATOM     95  C   UNL     1      -6.449  10.176 -19.688  1.00  0.00     0.054 A 
BRANCH  95  96
ATOM     96  S   UNL     1      -7.703  10.904 -20.777  1.00  0.00     0.124 S 
ATOM     97  O   UNL     1      -8.091  12.101 -20.036  1.00  0.00    -0.237 OA
ATOM     98  O   UNL     1      -6.958  11.143 -22.011  1.00  0.00    -0.237 OA
ATOM     99  O   UNL     1      -8.729   9.868 -20.867  1.00  0.00    -0.744 OA
ENDBRANCH  95  96
ENDBRANCH  69  90
ENDBRANCH  43  44
ENDBRANCH  36  38
ENDBRANCH  35  36
ENDBRANCH  34  35
ENDBRANCH  33  34
ENDBRANCH  32  33
ENDBRANCH  31  32
ENDBRANCH   1  31
TORSDOF 25
