REMARK SMILES CC(C)CC1(CNc2ccnc(C(=O)OCCOCCOCCOC(=O)c3ccc(-c4c5nc(c(-c6ccc(S(=O)(=O)[O-])cc6)c6ccc([nH]6)c(-c6ccc(S(=O)(=O)[O-])cc6)c6nc(c(-c7ccc(S(=O)(=O)[O-])cc7)c7ccc4[nH]7)C=C6)C=C5)cc3)c2)CCCC1
REMARK SMILES IDX 19 1 18 2 17 3 16 4 15 5 13 6 14 7 12 8 8 9 9 10 87 11 10 12
REMARK SMILES IDX 11 13 7 14 6 16 5 17 88 18 91 19 89 20 90 21 4 22 2 23 1 24
REMARK SMILES IDX 3 25 20 26 21 27 22 28 23 29 24 30 25 31 26 32 27 33 28 34
REMARK SMILES IDX 86 35 29 36 85 37 30 38 31 39 32 40 79 41 33 42 84 43 78 44
REMARK SMILES IDX 80 45 34 46 83 47 77 48 76 49 35 51 65 52 46 53 64 54 47 55
REMARK SMILES IDX 50 56 63 57 81 58 48 59 49 60 62 62 82 63 51 64 36 65 37 66
REMARK SMILES IDX 45 67 38 68 44 69 39 70 40 71 41 72 42 73 43 74 66 75 67 76
REMARK SMILES IDX 75 77 68 78 74 79 69 80 70 81 71 82 72 83 73 84 52 85 53 86
REMARK SMILES IDX 61 87 54 88 60 89 55 90 56 91 57 92 58 93 59 94
REMARK H PARENT 7 15 80 50 50 61
REMARK Flexibility Score: inf
ROOT
ATOM      1  C   UNL     1      -0.709  -6.074   1.486  1.00  0.00     0.188 C 
ENDROOT
BRANCH   1   2
ATOM      2  O   UNL     1      -1.194  -7.342   1.082  1.00  0.00    -0.376 OA
BRANCH   2   3
ATOM      3  C   UNL     1      -2.468  -7.453   0.468  1.00  0.00     0.202 C 
BRANCH   3   4
ATOM      4  C   UNL     1      -3.667  -6.585   0.878  1.00  0.00     0.261 C 
BRANCH   4   5
ATOM      5  O   UNL     1      -3.375  -5.194   1.059  1.00  0.00    -0.459 OA
BRANCH   5   6
ATOM      6  C   UNL     1      -3.728  -4.680   2.270  1.00  0.00     0.357 C 
ATOM      7  O   UNL     1      -4.389  -5.241   3.130  1.00  0.00    -0.244 OA
BRANCH   6   8
ATOM      8  C   UNL     1      -3.082  -3.353   2.445  1.00  0.00     0.150 A 
ATOM      9  C   UNL     1      -2.651  -1.107   1.702  1.00  0.00     0.038 A 
ATOM     10  C   UNL     1      -1.789  -0.985   2.792  1.00  0.00     0.046 A 
ATOM     11  C   UNL     1      -3.302  -2.333   1.528  1.00  0.00     0.061 A 
ATOM     12  C   UNL     1      -1.626  -2.057   3.658  1.00  0.00     0.114 A 
ATOM     13  N   UNL     1      -2.250  -3.240   3.509  1.00  0.00    -0.249 NA
BRANCH   9  14
ATOM     14  N   UNL     1      -2.846  -0.116   0.762  1.00  0.00    -0.384 N 
ATOM     15  H   UNL     1      -3.661  -0.179   0.213  1.00  0.00     0.160 HD
BRANCH  14  16
ATOM     16  C   UNL     1      -1.964   1.016   0.501  1.00  0.00     0.119 C 
BRANCH  16  17
ATOM     17  C   UNL     1      -1.552   1.071  -1.005  1.00  0.00    -0.012 C 
ATOM     18  C   UNL     1      -0.707   2.327  -1.304  1.00  0.00     0.009 C 
ATOM     19  C   UNL     1      -2.785   1.367  -1.901  1.00  0.00     0.009 C 
ATOM     20  C   UNL     1      -1.698   3.485  -1.366  1.00  0.00     0.001 C 
ATOM     21  C   UNL     1      -3.024   2.873  -1.804  1.00  0.00     0.001 C 
BRANCH  17  22
ATOM     22  C   UNL     1      -0.853  -0.246  -1.462  1.00  0.00     0.012 C 
BRANCH  22  23
ATOM     23  C   UNL     1       0.675  -0.392  -1.273  1.00  0.00    -0.017 C 
ATOM     24  C   UNL     1       1.178  -0.201   0.155  1.00  0.00     0.007 C 
ATOM     25  C   UNL     1       1.108  -1.781  -1.765  1.00  0.00     0.007 C 
ENDBRANCH  22  23
ENDBRANCH  17  22
ENDBRANCH  16  17
ENDBRANCH  14  16
ENDBRANCH   9  14
ENDBRANCH   6   8
ENDBRANCH   5   6
ENDBRANCH   4   5
ENDBRANCH   3   4
ENDBRANCH   2   3
ENDBRANCH   1   2
BRANCH   1  26
ATOM     26  C   UNL     1      -0.485  -4.972   0.431  1.00  0.00     0.188 C 
BRANCH  26  27
ATOM     27  O   UNL     1      -0.915  -5.181  -0.895  1.00  0.00    -0.376 OA
BRANCH  27  28
ATOM     28  C   UNL     1      -0.240  -6.090  -1.749  1.00  0.00     0.202 C 
BRANCH  28  29
ATOM     29  C   UNL     1       1.180  -6.647  -1.545  1.00  0.00     0.261 C 
BRANCH  29  30
ATOM     30  O   UNL     1       1.728  -6.626  -0.229  1.00  0.00    -0.460 OA
BRANCH  30  31
ATOM     31  C   UNL     1       2.688  -5.698  -0.020  1.00  0.00     0.338 C 
ATOM     32  O   UNL     1       3.094  -4.856  -0.817  1.00  0.00    -0.246 OA
BRANCH  31  33
ATOM     33  C   UNL     1       3.083  -5.731   1.394  1.00  0.00     0.060 A 
ATOM     34  C   UNL     1       2.787  -4.625   2.201  1.00  0.00     0.016 A 
ATOM     35  C   UNL     1       3.774  -6.829   1.911  1.00  0.00     0.016 A 
ATOM     36  C   UNL     1       3.200  -4.607   3.531  1.00  0.00     0.010 A 
ATOM     37  C   UNL     1       4.204  -6.799   3.239  1.00  0.00     0.010 A 
ATOM     38  C   UNL     1       3.942  -5.678   4.047  1.00  0.00    -0.014 A 
BRANCH  38  39
ATOM     39  C   UNL     1       4.581  -5.558   5.378  1.00  0.00     0.031 A 
ATOM     40  C   UNL     1       6.031  -5.164   5.448  1.00  0.00     0.074 A 
ATOM     41  C   UNL     1       3.885  -5.788   6.506  1.00  0.00     0.049 A 
ATOM     42  N   UNL     1       6.808  -5.045   6.493  1.00  0.00    -0.248 NA
ATOM     43  C   UNL     1       6.694  -4.864   4.167  1.00  0.00     0.031 C 
ATOM     44  C   UNL     1       2.465  -6.133   6.570  1.00  0.00     0.029 A 
ATOM     45  N   UNL     1       4.288  -5.772   7.818  1.00  0.00    -0.354 N 
ATOM     46  C   UNL     1       8.051  -4.669   5.998  1.00  0.00     0.074 A 
ATOM     47  C   UNL     1       7.932  -4.601   4.558  1.00  0.00     0.031 C 
ATOM     48  C   UNL     1       2.119  -6.310   7.857  1.00  0.00     0.029 A 
ATOM     49  C   UNL     1       3.297  -6.125   8.703  1.00  0.00     0.049 A 
ATOM     50  H   UNL     1       5.200  -5.531   8.098  1.00  0.00     0.167 HD
ATOM     51  C   UNL     1       9.188  -4.400   6.682  1.00  0.00     0.031 A 
ATOM     52  C   UNL     1       3.344  -6.303  10.038  1.00  0.00     0.031 A 
ATOM     53  C   UNL     1       9.308  -4.485   8.113  1.00  0.00     0.049 A 
ATOM     54  C   UNL     1       4.643  -6.073  10.769  1.00  0.00     0.074 A 
ATOM     55  C   UNL     1      10.414  -4.218   8.900  1.00  0.00     0.029 A 
ATOM     56  N   UNL     1       8.291  -4.876   8.971  1.00  0.00    -0.354 N 
ATOM     57  N   UNL     1       5.803  -5.688  10.292  1.00  0.00    -0.248 NA
ATOM     58  C   UNL     1       4.635  -6.295  12.223  1.00  0.00     0.031 C 
ATOM     59  C   UNL     1      10.084  -4.505  10.228  1.00  0.00     0.029 A 
ATOM     60  C   UNL     1       8.752  -4.886  10.276  1.00  0.00     0.049 A 
ATOM     61  H   UNL     1       7.377  -5.112   8.693  1.00  0.00     0.167 HD
ATOM     62  C   UNL     1       6.653  -5.592  11.390  1.00  0.00     0.074 A 
ATOM     63  C   UNL     1       5.871  -5.947  12.556  1.00  0.00     0.031 C 
ATOM     64  C   UNL     1       7.962  -5.238  11.429  1.00  0.00     0.031 A 
BRANCH  51  65
ATOM     65  C   UNL     1      10.408  -4.025   5.883  1.00  0.00    -0.014 A 
ATOM     66  C   UNL     1      10.502  -2.779   5.237  1.00  0.00     0.010 A 
ATOM     67  C   UNL     1      11.492  -4.918   5.810  1.00  0.00     0.010 A 
ATOM     68  C   UNL     1      11.646  -2.447   4.506  1.00  0.00     0.020 A 
ATOM     69  C   UNL     1      12.648  -4.579   5.103  1.00  0.00     0.020 A 
ATOM     70  C   UNL     1      12.712  -3.351   4.442  1.00  0.00     0.054 A 
BRANCH  70  71
ATOM     71  S   UNL     1      14.195  -2.882   3.509  1.00  0.00     0.124 S 
ATOM     72  O   UNL     1      13.723  -2.971   2.129  1.00  0.00    -0.237 OA
ATOM     73  O   UNL     1      14.464  -1.531   3.994  1.00  0.00    -0.237 OA
ATOM     74  O   UNL     1      15.181  -3.888   3.896  1.00  0.00    -0.744 OA
ENDBRANCH  70  71
ENDBRANCH  51  65
BRANCH  52  75
ATOM     75  C   UNL     1       2.127  -6.746  10.775  1.00  0.00    -0.014 A 
ATOM     76  C   UNL     1       1.476  -5.883  11.674  1.00  0.00     0.010 A 
ATOM     77  C   UNL     1       1.620  -8.045  10.589  1.00  0.00     0.010 A 
ATOM     78  C   UNL     1       0.355  -6.317  12.389  1.00  0.00     0.020 A 
ATOM     79  C   UNL     1       0.483  -8.474  11.279  1.00  0.00     0.020 A 
ATOM     80  C   UNL     1      -0.135  -7.611  12.186  1.00  0.00     0.054 A 
BRANCH  80  81
ATOM     81  S   UNL     1      -1.612  -8.140  13.098  1.00  0.00     0.124 S 
ATOM     82  O   UNL     1      -1.088  -8.316  14.448  1.00  0.00    -0.237 OA
ATOM     83  O   UNL     1      -2.518  -7.009  12.913  1.00  0.00    -0.237 OA
ATOM     84  O   UNL     1      -2.012  -9.369  12.417  1.00  0.00    -0.744 OA
ENDBRANCH  80  81
ENDBRANCH  52  75
BRANCH  64  85
ATOM     85  C   UNL     1       8.629  -5.173  12.779  1.00  0.00    -0.014 A 
ATOM     86  C   UNL     1       8.940  -6.338  13.501  1.00  0.00     0.010 A 
ATOM     87  C   UNL     1       9.005  -3.922  13.304  1.00  0.00     0.010 A 
ATOM     88  C   UNL     1       9.588  -6.252  14.737  1.00  0.00     0.020 A 
ATOM     89  C   UNL     1       9.679  -3.833  14.524  1.00  0.00     0.020 A 
ATOM     90  C   UNL     1       9.954  -5.000  15.241  1.00  0.00     0.054 A 
BRANCH  90  91
ATOM     91  S   UNL     1      10.834  -4.917  16.825  1.00  0.00     0.124 S 
ATOM     92  O   UNL     1       9.772  -5.221  17.780  1.00  0.00    -0.237 OA
ATOM     93  O   UNL     1      11.860  -5.946  16.677  1.00  0.00    -0.237 OA
ATOM     94  O   UNL     1      11.338  -3.546  16.871  1.00  0.00    -0.744 OA
ENDBRANCH  90  91
ENDBRANCH  64  85
ENDBRANCH  38  39
ENDBRANCH  31  33
ENDBRANCH  30  31
ENDBRANCH  29  30
ENDBRANCH  28  29
ENDBRANCH  27  28
ENDBRANCH  26  27
ENDBRANCH   1  26
TORSDOF 25
