REMARK SMILES O=C1O[C@@H](c2ccc(O)c(O)c2)[C@H](C(=O)OCCOCCOCCOC(=O)c2ccc(-c3c4nc(c(-c5ccc(S(=O)(=O)[O-])cc5)c5ccc([nH]5)c(-c5ccc(S(=O)(=O)[O-])cc5)c5nc(c(-c6ccc(S(=O)(=O)[O-])cc6)c6ccc3[nH]6)C=C5)C=C4)cc2)/C1=C\c1ccc(O)c(O)c1
REMARK SMILES IDX 21 1 20 2 19 3 18 4 17 5 16 6 14 7 15 8 13 9 1 10 2 11 3 12
REMARK SMILES IDX 88 13 4 14 89 15 5 16 6 17 12 18 7 19 10 20 8 21 11 22 9 24
REMARK SMILES IDX 90 26 91 27 97 28 92 29 95 30 93 31 96 32 94 34 22 36 23 37
REMARK SMILES IDX 24 38 25 39 26 40 27 41 28 42 29 43 87 44 30 45 86 46 31 47
REMARK SMILES IDX 32 48 33 49 80 50 34 51 85 52 79 53 81 54 35 55 84 56 78 57
REMARK SMILES IDX 77 58 36 60 66 61 47 62 65 63 48 64 51 65 64 66 82 67 49 68
REMARK SMILES IDX 50 69 63 71 83 72 52 73 37 74 38 75 46 76 39 77 45 78 40 79
REMARK SMILES IDX 41 80 42 81 43 82 44 83 67 84 68 85 76 86 69 87 75 88 70 89
REMARK SMILES IDX 71 90 72 91 73 92 74 93 53 94 54 95 62 96 55 97 61 98 56 99
REMARK SMILES IDX 57 100 58 101 59 102 60 103
REMARK H PARENT 11 23 9 25 96 33 94 35 81 59 51 70
REMARK Flexibility Score: inf
ROOT
ATOM      1  C   UNL     1       3.121   3.381   1.488  1.00  0.00     0.188 C 
ENDROOT
BRANCH   1   2
ATOM      2  C   UNL     1       1.966   3.363   2.522  1.00  0.00     0.188 C 
BRANCH   2   3
ATOM      3  O   UNL     1       2.294   3.367   3.884  1.00  0.00    -0.376 OA
BRANCH   3   4
ATOM      4  C   UNL     1       2.807   2.204   4.485  1.00  0.00     0.202 C 
BRANCH   4   5
ATOM      5  C   UNL     1       2.818   0.810   3.824  1.00  0.00     0.261 C 
BRANCH   5   6
ATOM      6  O   UNL     1       2.598   0.730   2.405  1.00  0.00    -0.463 OA
BRANCH   6   7
ATOM      7  C   UNL     1       1.357   0.326   1.992  1.00  0.00     0.317 C 
ATOM      8  O   UNL     1       0.483  -0.085   2.740  1.00  0.00    -0.251 OA
BRANCH   7   9
ATOM      9  C   UNL     1       1.223   0.505   0.477  1.00  0.00     0.182 C 
ATOM     10  O   UNL     1      -1.790  -1.167  -0.263  1.00  0.00    -0.247 OA
ATOM     11  C   UNL     1      -0.644  -0.782  -0.146  1.00  0.00     0.335 C 
ATOM     12  O   UNL     1       0.463  -1.585  -0.184  1.00  0.00    -0.453 OA
ATOM     13  C   UNL     1      -0.190   0.623   0.035  1.00  0.00     0.056 C 
ATOM     14  C   UNL     1       1.662  -0.792  -0.165  1.00  0.00     0.226 C 
ATOM     15  C   UNL     1      -0.968   1.675  -0.291  1.00  0.00     0.020 C 
BRANCH  14  16
ATOM     16  C   UNL     1       2.279  -0.659  -1.556  1.00  0.00    -0.002 A 
ATOM     17  C   UNL     1       3.373   0.203  -1.789  1.00  0.00     0.012 A 
ATOM     18  C   UNL     1       1.826  -1.456  -2.619  1.00  0.00     0.057 A 
ATOM     19  C   UNL     1       3.981   0.280  -3.051  1.00  0.00     0.050 A 
ATOM     20  C   UNL     1       2.441  -1.382  -3.861  1.00  0.00     0.157 A 
ATOM     21  C   UNL     1       3.511  -0.522  -4.081  1.00  0.00     0.157 A 
BRANCH  20  22
ATOM     22  O   UNL     1       1.990  -2.183  -4.871  1.00  0.00    -0.504 OA
ATOM     23  H   UNL     1       2.394  -2.145  -5.715  1.00  0.00     0.293 HD
ENDBRANCH  20  22
BRANCH  21  24
ATOM     24  O   UNL     1       4.077  -0.517  -5.326  1.00  0.00    -0.504 OA
ATOM     25  H   UNL     1       4.799   0.050  -5.510  1.00  0.00     0.293 HD
ENDBRANCH  21  24
ENDBRANCH  14  16
BRANCH  15  26
ATOM     26  C   UNL     1      -0.644   3.126  -0.267  1.00  0.00    -0.021 A 
ATOM     27  C   UNL     1       0.011   3.894  -1.726  1.00  0.00     0.012 A 
ATOM     28  C   UNL     1      -1.048   4.030   1.175  1.00  0.00     0.058 A 
ATOM     29  C   UNL     1       0.340   5.629  -1.871  1.00  0.00     0.051 A 
ATOM     30  C   UNL     1      -0.779   5.816   1.213  1.00  0.00     0.157 A 
ATOM     31  C   UNL     1      -0.012   6.701  -0.453  1.00  0.00     0.157 A 
BRANCH  30  32
ATOM     32  O   UNL     1      -1.110   6.195   2.519  1.00  0.00    -0.504 OA
ATOM     33  H   UNL     1      -1.046   7.094   2.776  1.00  0.00     0.293 HD
ENDBRANCH  30  32
BRANCH  31  34
ATOM     34  O   UNL     1       0.470   7.970  -0.775  1.00  0.00    -0.504 OA
ATOM     35  H   UNL     1       0.782   8.147  -1.641  1.00  0.00     0.293 HD
ENDBRANCH  31  34
ENDBRANCH  15  26
ENDBRANCH   7   9
ENDBRANCH   6   7
ENDBRANCH   5   6
ENDBRANCH   4   5
ENDBRANCH   3   4
ENDBRANCH   2   3
ENDBRANCH   1   2
BRANCH   1  36
ATOM     36  O   UNL     1       4.436   3.176   1.938  1.00  0.00    -0.376 OA
BRANCH  36  37
ATOM     37  C   UNL     1       5.019   4.209   2.717  1.00  0.00     0.202 C 
BRANCH  37  38
ATOM     38  C   UNL     1       4.549   5.683   2.690  1.00  0.00     0.261 C 
BRANCH  38  39
ATOM     39  O   UNL     1       3.140   5.916   2.545  1.00  0.00    -0.460 OA
BRANCH  39  40
ATOM     40  C   UNL     1       2.756   6.461   1.367  1.00  0.00     0.338 C 
ATOM     41  O   UNL     1       3.470   6.868   0.465  1.00  0.00    -0.246 OA
BRANCH  40  42
ATOM     42  C   UNL     1       1.307   6.340   1.194  1.00  0.00     0.060 A 
ATOM     43  C   UNL     1       0.581   5.027   0.165  1.00  0.00     0.016 A 
ATOM     44  C   UNL     1       0.358   7.770   1.546  1.00  0.00     0.016 A 
ATOM     45  C   UNL     1      -1.300   5.316  -0.537  1.00  0.00     0.010 A 
ATOM     46  C   UNL     1      -1.282   8.015   0.919  1.00  0.00     0.010 A 
ATOM     47  C   UNL     1      -2.126   6.858  -0.107  1.00  0.00    -0.014 A 
BRANCH  47  48
ATOM     48  C   UNL     1      -3.444   7.207  -0.641  1.00  0.00     0.031 A 
ATOM     49  C   UNL     1      -3.609   8.449  -1.465  1.00  0.00     0.074 A 
ATOM     50  C   UNL     1      -4.477   6.421  -0.303  1.00  0.00     0.049 A 
ATOM     51  N   UNL     1      -4.699   8.964  -1.966  1.00  0.00    -0.248 NA
ATOM     52  C   UNL     1      -2.401   9.239  -1.746  1.00  0.00     0.031 C 
ATOM     53  C   UNL     1      -4.386   5.232   0.545  1.00  0.00     0.029 A 
ATOM     54  N   UNL     1      -5.804   6.502  -0.611  1.00  0.00    -0.354 N 
ATOM     55  C   UNL     1      -4.303  10.137  -2.602  1.00  0.00     0.074 A 
ATOM     56  C   UNL     1      -2.888  10.291  -2.383  1.00  0.00     0.031 C 
ATOM     57  C   UNL     1      -5.594   4.666   0.654  1.00  0.00     0.029 A 
ATOM     58  C   UNL     1      -6.555   5.495  -0.053  1.00  0.00     0.049 A 
ATOM     59  H   UNL     1      -6.186   7.212  -1.176  1.00  0.00     0.167 HD
ATOM     60  C   UNL     1      -5.061  11.001  -3.313  1.00  0.00     0.031 A 
ATOM     61  C   UNL     1      -7.881   5.284  -0.090  1.00  0.00     0.031 A 
ATOM     62  C   UNL     1      -6.478  10.823  -3.475  1.00  0.00     0.049 A 
ATOM     63  C   UNL     1      -8.707   6.272  -0.858  1.00  0.00     0.074 A 
ATOM     64  C   UNL     1      -7.372  11.601  -4.182  1.00  0.00     0.029 A 
ATOM     65  N   UNL     1      -7.205   9.787  -2.900  1.00  0.00    -0.354 N 
ATOM     66  N   UNL     1      -8.310   7.348  -1.500  1.00  0.00    -0.248 NA
ATOM     67  C   UNL     1     -10.147   6.020  -0.918  1.00  0.00     0.031 C 
ATOM     68  C   UNL     1      -8.651  11.077  -3.973  1.00  0.00     0.029 A 
ATOM     69  C   UNL     1      -8.543   9.921  -3.211  1.00  0.00     0.049 A 
ATOM     70  H   UNL     1      -6.822   9.064  -2.353  1.00  0.00     0.167 HD
ATOM     71  C   UNL     1      -9.453   7.890  -2.067  1.00  0.00     0.074 A 
ATOM     72  C   UNL     1     -10.547   7.005  -1.709  1.00  0.00     0.031 C 
ATOM     73  C   UNL     1      -9.594   9.013  -2.816  1.00  0.00     0.031 A 
BRANCH  60  74
ATOM     74  C   UNL     1      -4.380  12.204  -3.917  1.00  0.00    -0.014 A 
ATOM     75  C   UNL     1      -3.414  12.069  -4.934  1.00  0.00     0.010 A 
ATOM     76  C   UNL     1      -4.715  13.495  -3.469  1.00  0.00     0.010 A 
ATOM     77  C   UNL     1      -2.773  13.194  -5.462  1.00  0.00     0.020 A 
ATOM     78  C   UNL     1      -4.102  14.626  -4.019  1.00  0.00     0.020 A 
ATOM     79  C   UNL     1      -3.126  14.467  -5.004  1.00  0.00     0.054 A 
BRANCH  79  80
ATOM     80  S   UNL     1      -2.310  15.909  -5.742  1.00  0.00     0.124 S 
ATOM     81  O   UNL     1      -0.940  15.768  -5.254  1.00  0.00    -0.237 OA
ATOM     82  O   UNL     1      -2.492  15.678  -7.173  1.00  0.00    -0.237 OA
ATOM     83  O   UNL     1      -3.050  17.045  -5.197  1.00  0.00    -0.744 OA
ENDBRANCH  79  80
ENDBRANCH  60  74
BRANCH  61  84
ATOM     84  C   UNL     1      -8.473   4.113   0.612  1.00  0.00    -0.014 A 
ATOM     85  C   UNL     1      -9.071   3.068  -0.112  1.00  0.00     0.010 A 
ATOM     86  C   UNL     1      -8.403   4.014   2.015  1.00  0.00     0.010 A 
ATOM     87  C   UNL     1      -9.611   1.962   0.553  1.00  0.00     0.020 A 
ATOM     88  C   UNL     1      -8.905   2.894   2.681  1.00  0.00     0.020 A 
ATOM     89  C   UNL     1      -9.523   1.882   1.946  1.00  0.00     0.054 A 
BRANCH  89  90
ATOM     90  S   UNL     1     -10.213   0.428   2.783  1.00  0.00     0.124 S 
ATOM     91  O   UNL     1     -11.646   0.609   2.570  1.00  0.00    -0.237 OA
ATOM     92  O   UNL     1      -9.598  -0.676   2.052  1.00  0.00    -0.237 OA
ATOM     93  O   UNL     1      -9.763   0.582   4.165  1.00  0.00    -0.744 OA
ENDBRANCH  89  90
ENDBRANCH  61  84
BRANCH  73  94
ATOM     94  C   UNL     1     -10.976   9.306  -3.323  1.00  0.00    -0.014 A 
ATOM     95  C   UNL     1     -12.011   9.687  -2.451  1.00  0.00     0.010 A 
ATOM     96  C   UNL     1     -11.224   9.229  -4.705  1.00  0.00     0.010 A 
ATOM     97  C   UNL     1     -13.288   9.935  -2.951  1.00  0.00     0.020 A 
ATOM     98  C   UNL     1     -12.487   9.522  -5.213  1.00  0.00     0.020 A 
ATOM     99  C   UNL     1     -13.516   9.854  -4.329  1.00  0.00     0.054 A 
BRANCH  99 100
ATOM    100  S   UNL     1     -15.175  10.218  -4.954  1.00  0.00     0.124 S 
ATOM    101  O   UNL     1     -15.937   9.067  -4.477  1.00  0.00    -0.237 OA
ATOM    102  O   UNL     1     -15.484  11.491  -4.308  1.00  0.00    -0.237 OA
ATOM    103  O   UNL     1     -14.993  10.287  -6.402  1.00  0.00    -0.744 OA
ENDBRANCH  99 100
ENDBRANCH  73  94
ENDBRANCH  47  48
ENDBRANCH  40  42
ENDBRANCH  39  40
ENDBRANCH  38  39
ENDBRANCH  37  38
ENDBRANCH  36  37
ENDBRANCH   1  36
TORSDOF 26
