REMARK SMILES C[C@@H]1CC[C@H](C)[N@H+]1Cc1cc2c(cc1Cl)C=C(C(=O)OCCOCCOCCOC(=O)c1ccc(-c3c4nc(c(-c5ccc(S(=O)(=O)[O-])cc5)c5ccc([nH]5)c(-c5ccc(S(=O)(=O)[O-])cc5)c5nc(c(-c6ccc(S(=O)(=O)[O-])cc6)c6ccc3[nH]6)C=C5)C=C4)cc1)[C@@H](C(F)(F)F)O2
REMARK SMILES IDX 25 1 24 2 23 3 22 4 21 5 20 6 18 7 19 8 17 9 9 10 10 11
REMARK SMILES IDX 14 12 11 13 13 14 15 15 12 16 97 17 16 18 92 19 8 20 7 21
REMARK SMILES IDX 6 22 5 23 4 24 3 25 2 26 1 28 93 29 94 30 95 31 96 32 26 33
REMARK SMILES IDX 27 34 28 35 29 36 30 37 31 38 32 39 33 40 91 41 34 42 90 43
REMARK SMILES IDX 35 44 36 45 37 46 84 47 38 48 89 49 83 50 85 51 39 52 88 53
REMARK SMILES IDX 82 54 81 55 40 57 70 58 51 59 69 60 52 61 55 62 68 63 86 64
REMARK SMILES IDX 53 65 54 66 67 68 87 69 56 70 41 71 42 72 50 73 43 74 49 75
REMARK SMILES IDX 44 76 45 77 46 78 47 79 48 80 71 81 72 82 80 83 73 84 79 85
REMARK SMILES IDX 74 86 75 87 76 88 77 89 78 90 57 91 58 92 66 93 59 94 65 95
REMARK SMILES IDX 60 96 61 97 62 98 63 99 64 100
REMARK H PARENT 7 27 85 56 55 67
REMARK Flexibility Score: inf
ROOT
ATOM      1  C   UNL     1      -7.490  -2.961   0.558  1.00  0.00     0.188 C 
ENDROOT
BRANCH   1   2
ATOM      2  C   UNL     1      -8.104  -4.197   1.252  1.00  0.00     0.188 C 
BRANCH   2   3
ATOM      3  O   UNL     1      -9.512  -4.124   1.352  1.00  0.00    -0.376 OA
BRANCH   3   4
ATOM      4  C   UNL     1     -10.076  -3.952   2.640  1.00  0.00     0.202 C 
BRANCH   4   5
ATOM      5  C   UNL     1      -9.687  -2.716   3.472  1.00  0.00     0.261 C 
BRANCH   5   6
ATOM      6  O   UNL     1      -8.328  -2.271   3.345  1.00  0.00    -0.460 OA
BRANCH   6   7
ATOM      7  C   UNL     1      -7.437  -2.795   4.211  1.00  0.00     0.338 C 
ATOM      8  O   UNL     1      -7.681  -3.593   5.102  1.00  0.00    -0.246 OA
BRANCH   7   9
ATOM      9  C   UNL     1      -6.074  -2.359   3.839  1.00  0.00     0.087 C 
ATOM     10  C   UNL     1      -1.075  -2.061   3.226  1.00  0.00     0.029 A 
ATOM     11  C   UNL     1      -2.159  -1.193   2.947  1.00  0.00     0.058 A 
ATOM     12  C   UNL     1      -1.384  -3.333   3.739  1.00  0.00     0.050 A 
ATOM     13  C   UNL     1      -3.487  -1.586   3.171  1.00  0.00     0.128 A 
ATOM     14  C   UNL     1      -2.711  -3.759   3.857  1.00  0.00     0.033 A 
ATOM     15  Cl  UNL     1      -0.202  -4.401   4.412  1.00  0.00    -0.084 Cl
ATOM     16  C   UNL     1      -3.762  -2.883   3.594  1.00  0.00     0.019 A 
ATOM     17  O   UNL     1      -4.464  -0.651   2.961  1.00  0.00    -0.475 OA
ATOM     18  C   UNL     1      -5.127  -3.304   3.846  1.00  0.00     0.027 C 
ATOM     19  C   UNL     1      -5.800  -0.917   3.495  1.00  0.00     0.316 C 
BRANCH  10  20
ATOM     20  C   UNL     1       0.348  -1.555   3.038  1.00  0.00     0.301 C 
BRANCH  20  21
ATOM     21  N   UNL     1       1.032  -1.838   1.768  1.00  0.00    -0.327 N 
ATOM     22  C   UNL     1       0.986   0.071   0.203  1.00  0.00     0.075 C 
ATOM     23  C   UNL     1       0.420  -1.302   0.546  1.00  0.00     0.181 C 
ATOM     24  C   UNL     1       0.748  -2.323  -0.542  1.00  0.00     0.071 C 
ATOM     25  C   UNL     1       0.800  -3.627   0.223  1.00  0.00     0.071 C 
ATOM     26  C   UNL     1       1.442  -3.229   1.544  1.00  0.00     0.181 C 
ATOM     27  H   UNL     1       1.876  -1.291   1.938  1.00  0.00     0.348 HD
ATOM     28  C   UNL     1       2.969  -3.307   1.496  1.00  0.00     0.075 C 
ENDBRANCH  20  21
ENDBRANCH  10  20
BRANCH  19  29
ATOM     29  C   UNL     1      -6.084   0.005   4.689  1.00  0.00     0.430 C 
ATOM     30  F   UNL     1      -5.824   1.301   4.389  1.00  0.00    -0.167 F 
ATOM     31  F   UNL     1      -7.388  -0.051   5.056  1.00  0.00    -0.167 F 
ATOM     32  F   UNL     1      -5.345  -0.315   5.774  1.00  0.00    -0.167 F 
ENDBRANCH  19  29
ENDBRANCH   7   9
ENDBRANCH   6   7
ENDBRANCH   5   6
ENDBRANCH   4   5
ENDBRANCH   3   4
ENDBRANCH   2   3
ENDBRANCH   1   2
BRANCH   1  33
ATOM     33  O   UNL     1      -8.342  -1.935   0.061  1.00  0.00    -0.376 OA
BRANCH  33  34
ATOM     34  C   UNL     1      -9.477  -2.299  -0.719  1.00  0.00     0.202 C 
BRANCH  34  35
ATOM     35  C   UNL     1      -9.283  -3.172  -1.969  1.00  0.00     0.261 C 
BRANCH  35  36
ATOM     36  O   UNL     1      -8.553  -4.390  -1.752  1.00  0.00    -0.460 OA
BRANCH  36  37
ATOM     37  C   UNL     1      -7.326  -4.449  -2.333  1.00  0.00     0.338 C 
ATOM     38  O   UNL     1      -6.801  -3.597  -3.029  1.00  0.00    -0.246 OA
BRANCH  37  39
ATOM     39  C   UNL     1      -6.602  -5.632  -1.822  1.00  0.00     0.060 A 
ATOM     40  C   UNL     1      -7.133  -6.916  -1.949  1.00  0.00     0.016 A 
ATOM     41  C   UNL     1      -5.353  -5.438  -1.213  1.00  0.00     0.016 A 
ATOM     42  C   UNL     1      -6.393  -8.011  -1.491  1.00  0.00     0.010 A 
ATOM     43  C   UNL     1      -4.625  -6.531  -0.740  1.00  0.00     0.010 A 
ATOM     44  C   UNL     1      -5.129  -7.828  -0.899  1.00  0.00    -0.014 A 
BRANCH  44  45
ATOM     45  C   UNL     1      -4.261  -9.001  -0.633  1.00  0.00     0.031 A 
ATOM     46  C   UNL     1      -4.111  -9.592   0.735  1.00  0.00     0.074 A 
ATOM     47  C   UNL     1      -3.594  -9.534  -1.676  1.00  0.00     0.049 A 
ATOM     48  N   UNL     1      -3.486 -10.687   1.083  1.00  0.00    -0.248 NA
ATOM     49  C   UNL     1      -4.732  -8.869   1.853  1.00  0.00     0.031 C 
ATOM     50  C   UNL     1      -3.643  -9.018  -3.046  1.00  0.00     0.029 A 
ATOM     51  N   UNL     1      -2.766 -10.624  -1.758  1.00  0.00    -0.354 N 
ATOM     52  C   UNL     1      -3.663 -10.808   2.455  1.00  0.00     0.074 A 
ATOM     53  C   UNL     1      -4.410  -9.643   2.884  1.00  0.00     0.031 C 
ATOM     54  C   UNL     1      -2.910  -9.812  -3.838  1.00  0.00     0.029 A 
ATOM     55  C   UNL     1      -2.319 -10.879  -3.033  1.00  0.00     0.049 A 
ATOM     56  H   UNL     1      -2.515 -11.171  -0.979  1.00  0.00     0.167 HD
ATOM     57  C   UNL     1      -3.256 -11.812   3.268  1.00  0.00     0.031 A 
ATOM     58  C   UNL     1      -1.538 -11.867  -3.513  1.00  0.00     0.031 A 
ATOM     59  C   UNL     1      -2.490 -12.953   2.827  1.00  0.00     0.049 A 
ATOM     60  C   UNL     1      -1.065 -12.946  -2.582  1.00  0.00     0.074 A 
ATOM     61  C   UNL     1      -2.075 -14.044   3.573  1.00  0.00     0.029 A 
ATOM     62  N   UNL     1      -2.014 -13.151   1.539  1.00  0.00    -0.354 N 
ATOM     63  N   UNL     1      -1.320 -13.095  -1.305  1.00  0.00    -0.248 NA
ATOM     64  C   UNL     1      -0.216 -13.999  -3.155  1.00  0.00     0.031 C 
ATOM     65  C   UNL     1      -1.287 -14.859   2.759  1.00  0.00     0.029 A 
ATOM     66  C   UNL     1      -1.276 -14.323   1.481  1.00  0.00     0.049 A 
ATOM     67  H   UNL     1      -2.176 -12.548   0.778  1.00  0.00     0.167 HD
ATOM     68  C   UNL     1      -0.677 -14.267  -0.923  1.00  0.00     0.074 A 
ATOM     69  C   UNL     1      -0.037 -14.797  -2.110  1.00  0.00     0.031 C 
ATOM     70  C   UNL     1      -0.626 -14.845   0.301  1.00  0.00     0.031 A 
BRANCH  57  71
ATOM     71  C   UNL     1      -3.641 -11.761   4.726  1.00  0.00    -0.014 A 
ATOM     72  C   UNL     1      -2.646 -11.648   5.716  1.00  0.00     0.010 A 
ATOM     73  C   UNL     1      -4.972 -11.987   5.120  1.00  0.00     0.010 A 
ATOM     74  C   UNL     1      -2.968 -11.799   7.068  1.00  0.00     0.020 A 
ATOM     75  C   UNL     1      -5.303 -12.111   6.473  1.00  0.00     0.020 A 
ATOM     76  C   UNL     1      -4.294 -12.042   7.437  1.00  0.00     0.054 A 
BRANCH  76  77
ATOM     77  S   UNL     1      -4.687 -12.280   9.193  1.00  0.00     0.124 S 
ATOM     78  O   UNL     1      -4.161 -13.617   9.449  1.00  0.00    -0.237 OA
ATOM     79  O   UNL     1      -3.964 -11.183   9.832  1.00  0.00    -0.237 OA
ATOM     80  O   UNL     1      -6.143 -12.161   9.236  1.00  0.00    -0.744 OA
ENDBRANCH  76  77
ENDBRANCH  57  71
BRANCH  58  81
ATOM     81  C   UNL     1      -1.228 -11.891  -4.968  1.00  0.00    -0.014 A 
ATOM     82  C   UNL     1      -0.420 -10.890  -5.540  1.00  0.00     0.010 A 
ATOM     83  C   UNL     1      -1.827 -12.847  -5.805  1.00  0.00     0.010 A 
ATOM     84  C   UNL     1      -0.269 -10.806  -6.925  1.00  0.00     0.020 A 
ATOM     85  C   UNL     1      -1.653 -12.785  -7.191  1.00  0.00     0.020 A 
ATOM     86  C   UNL     1      -0.902 -11.745  -7.743  1.00  0.00     0.054 A 
BRANCH  86  87
ATOM     87  S   UNL     1      -0.751 -11.574  -9.543  1.00  0.00     0.124 S 
ATOM     88  O   UNL     1      -1.650 -10.455  -9.813  1.00  0.00    -0.237 OA
ATOM     89  O   UNL     1       0.672 -11.294  -9.718  1.00  0.00    -0.237 OA
ATOM     90  O   UNL     1      -1.196 -12.870 -10.048  1.00  0.00    -0.744 OA
ENDBRANCH  86  87
ENDBRANCH  58  81
BRANCH  70  91
ATOM     91  C   UNL     1       0.161 -16.122   0.456  1.00  0.00    -0.014 A 
ATOM     92  C   UNL     1      -0.504 -17.321   0.778  1.00  0.00     0.010 A 
ATOM     93  C   UNL     1       1.567 -16.111   0.417  1.00  0.00     0.010 A 
ATOM     94  C   UNL     1       0.221 -18.471   1.102  1.00  0.00     0.020 A 
ATOM     95  C   UNL     1       2.295 -17.268   0.711  1.00  0.00     0.020 A 
ATOM     96  C   UNL     1       1.617 -18.433   1.079  1.00  0.00     0.054 A 
BRANCH  96  97
ATOM     97  S   UNL     1       2.541 -19.922   1.550  1.00  0.00     0.124 S 
ATOM     98  O   UNL     1       2.387 -19.933   3.001  1.00  0.00    -0.237 OA
ATOM     99  O   UNL     1       1.832 -20.980   0.833  1.00  0.00    -0.237 OA
ATOM    100  O   UNL     1       3.894 -19.653   1.067  1.00  0.00    -0.744 OA
ENDBRANCH  96  97
ENDBRANCH  70  91
ENDBRANCH  44  45
ENDBRANCH  37  39
ENDBRANCH  36  37
ENDBRANCH  35  36
ENDBRANCH  34  35
ENDBRANCH  33  34
ENDBRANCH   1  33
TORSDOF 23
