REMARK SMILES O=C(OCCOCCOCCOC(=O)[C@H]1Cc2c([nH]c3ccccc23)[C@H](c2c[nH]c3ccccc23)[NH2+]1)c1ccc(-c2c3nc(c(-c4ccc(S(=O)(=O)[O-])cc4)c4ccc([nH]4)c(-c4ccc(S(=O)(=O)[O-])cc4)c4nc(c(-c5ccc(S(=O)(=O)[O-])cc5)c5ccc2[nH]5)C=C4)C=C3)cc1
REMARK SMILES IDX 7 1 6 2 5 3 4 4 3 5 2 6 1 7 37 8 38 9 96 10 39 11 95 12
REMARK SMILES IDX 40 13 41 14 42 15 89 16 43 17 94 18 88 19 90 20 44 21 93 22
REMARK SMILES IDX 87 23 86 24 45 26 75 27 56 28 74 29 57 30 60 31 73 32 91 33
REMARK SMILES IDX 58 34 59 35 72 37 92 38 61 39 46 40 47 41 55 42 48 43 54 44
REMARK SMILES IDX 49 45 50 46 51 47 52 48 53 49 76 50 77 51 85 52 78 53 84 54
REMARK SMILES IDX 79 55 80 56 81 57 82 58 83 59 62 60 63 61 71 62 64 63 70 64
REMARK SMILES IDX 65 65 66 66 67 67 68 68 69 69 8 70 9 71 10 72 11 73 12 74
REMARK SMILES IDX 13 75 14 76 15 77 16 78 36 79 17 80 26 81 18 84 25 85 19 86
REMARK SMILES IDX 20 87 24 88 21 90 23 91 22 92 27 93 28 94 35 95 29 96 30 97
REMARK SMILES IDX 34 98 31 100 33 101 32 102
REMARK H PARENT 90 25 60 36 36 82 36 83 19 89 29 99
REMARK Flexibility Score: inf
ROOT
ATOM      1  C   UNL     1       2.756  -1.772  -0.351  1.00  0.00     0.188 C 
ENDROOT
BRANCH   1   2
ATOM      2  O   UNL     1       4.147  -1.630  -0.610  1.00  0.00    -0.376 OA
BRANCH   2   3
ATOM      3  C   UNL     1       5.017  -1.349   0.486  1.00  0.00     0.202 C 
BRANCH   3   4
ATOM      4  C   UNL     1       4.603  -0.334   1.566  1.00  0.00     0.261 C 
BRANCH   4   5
ATOM      5  O   UNL     1       3.249   0.134   1.518  1.00  0.00    -0.460 OA
BRANCH   5   6
ATOM      6  C   UNL     1       2.729   1.192   0.858  1.00  0.00     0.338 C 
ATOM      7  O   UNL     1       1.560   1.503   1.082  1.00  0.00    -0.246 OA
BRANCH   6   8
ATOM      8  C   UNL     1       3.478   1.974  -0.165  1.00  0.00     0.060 A 
ATOM      9  C   UNL     1       4.456   1.475  -1.031  1.00  0.00     0.016 A 
ATOM     10  C   UNL     1       3.061   3.289  -0.353  1.00  0.00     0.016 A 
ATOM     11  C   UNL     1       5.088   2.271  -1.994  1.00  0.00     0.010 A 
ATOM     12  C   UNL     1       3.636   4.065  -1.358  1.00  0.00     0.010 A 
ATOM     13  C   UNL     1       4.676   3.578  -2.180  1.00  0.00    -0.014 A 
BRANCH  13  14
ATOM     14  C   UNL     1       5.378   4.537  -3.076  1.00  0.00     0.031 A 
ATOM     15  C   UNL     1       5.863   5.791  -2.411  1.00  0.00     0.074 A 
ATOM     16  C   UNL     1       5.546   4.368  -4.406  1.00  0.00     0.049 A 
ATOM     17  N   UNL     1       6.144   6.956  -2.918  1.00  0.00    -0.248 NA
ATOM     18  C   UNL     1       6.011   5.717  -0.941  1.00  0.00     0.031 C 
ATOM     19  C   UNL     1       5.302   3.145  -5.166  1.00  0.00     0.029 A 
ATOM     20  N   UNL     1       5.902   5.280  -5.380  1.00  0.00    -0.354 N 
ATOM     21  C   UNL     1       6.477   7.751  -1.829  1.00  0.00     0.074 A 
ATOM     22  C   UNL     1       6.237   6.981  -0.634  1.00  0.00     0.031 C 
ATOM     23  C   UNL     1       5.381   3.408  -6.483  1.00  0.00     0.029 A 
ATOM     24  C   UNL     1       5.646   4.824  -6.662  1.00  0.00     0.049 A 
ATOM     25  H   UNL     1       6.295   6.160  -5.184  1.00  0.00     0.167 HD
ATOM     26  C   UNL     1       7.004   8.995  -1.833  1.00  0.00     0.031 A 
ATOM     27  C   UNL     1       5.555   5.495  -7.829  1.00  0.00     0.031 A 
ATOM     28  C   UNL     1       7.263   9.712  -3.045  1.00  0.00     0.049 A 
ATOM     29  C   UNL     1       5.916   6.951  -7.816  1.00  0.00     0.074 A 
ATOM     30  C   UNL     1       7.850  10.949  -3.212  1.00  0.00     0.029 A 
ATOM     31  N   UNL     1       6.945   9.234  -4.311  1.00  0.00    -0.354 N 
ATOM     32  N   UNL     1       6.205   7.714  -6.789  1.00  0.00    -0.248 NA
ATOM     33  C   UNL     1       6.010   7.617  -9.119  1.00  0.00     0.031 C 
ATOM     34  C   UNL     1       7.841  11.241  -4.580  1.00  0.00     0.029 A 
ATOM     35  C   UNL     1       7.306  10.159  -5.267  1.00  0.00     0.049 A 
ATOM     36  H   UNL     1       6.524   8.363  -4.497  1.00  0.00     0.167 HD
ATOM     37  C   UNL     1       6.620   8.923  -7.327  1.00  0.00     0.074 A 
ATOM     38  C   UNL     1       6.468   8.812  -8.766  1.00  0.00     0.031 C 
ATOM     39  C   UNL     1       7.144   9.999  -6.692  1.00  0.00     0.031 A 
BRANCH  26  40
ATOM     40  C   UNL     1       7.314   9.601  -0.492  1.00  0.00    -0.014 A 
ATOM     41  C   UNL     1       8.285   9.032   0.357  1.00  0.00     0.010 A 
ATOM     42  C   UNL     1       6.566  10.698  -0.034  1.00  0.00     0.010 A 
ATOM     43  C   UNL     1       8.432   9.485   1.670  1.00  0.00     0.020 A 
ATOM     44  C   UNL     1       6.740  11.181   1.266  1.00  0.00     0.020 A 
ATOM     45  C   UNL     1       7.647  10.549   2.120  1.00  0.00     0.054 A 
BRANCH  45  46
ATOM     46  S   UNL     1       7.825  11.085   3.842  1.00  0.00     0.124 S 
ATOM     47  O   UNL     1       7.152  10.010   4.564  1.00  0.00    -0.237 OA
ATOM     48  O   UNL     1       9.272  11.148   4.013  1.00  0.00    -0.237 OA
ATOM     49  O   UNL     1       7.140  12.380   3.872  1.00  0.00    -0.744 OA
ENDBRANCH  45  46
ENDBRANCH  26  40
BRANCH  27  50
ATOM     50  C   UNL     1       5.075   4.834  -9.081  1.00  0.00    -0.014 A 
ATOM     51  C   UNL     1       5.939   4.116  -9.922  1.00  0.00     0.010 A 
ATOM     52  C   UNL     1       3.718   4.922  -9.442  1.00  0.00     0.010 A 
ATOM     53  C   UNL     1       5.446   3.461 -11.063  1.00  0.00     0.020 A 
ATOM     54  C   UNL     1       3.214   4.255 -10.564  1.00  0.00     0.020 A 
ATOM     55  C   UNL     1       4.082   3.520 -11.368  1.00  0.00     0.054 A 
BRANCH  55  56
ATOM     56  S   UNL     1       3.416   2.558 -12.761  1.00  0.00     0.124 S 
ATOM     57  O   UNL     1       3.599   3.474 -13.881  1.00  0.00    -0.237 OA
ATOM     58  O   UNL     1       4.262   1.369 -12.766  1.00  0.00    -0.237 OA
ATOM     59  O   UNL     1       2.027   2.318 -12.366  1.00  0.00    -0.744 OA
ENDBRANCH  55  56
ENDBRANCH  27  50
BRANCH  39  60
ATOM     60  C   UNL     1       7.700  11.094  -7.550  1.00  0.00    -0.014 A 
ATOM     61  C   UNL     1       6.869  12.030  -8.183  1.00  0.00     0.010 A 
ATOM     62  C   UNL     1       9.099  11.245  -7.609  1.00  0.00     0.010 A 
ATOM     63  C   UNL     1       7.433  13.112  -8.859  1.00  0.00     0.020 A 
ATOM     64  C   UNL     1       9.663  12.341  -8.257  1.00  0.00     0.020 A 
ATOM     65  C   UNL     1       8.825  13.268  -8.878  1.00  0.00     0.054 A 
BRANCH  65  66
ATOM     66  S   UNL     1       9.525  14.745  -9.658  1.00  0.00     0.124 S 
ATOM     67  O   UNL     1       9.335  14.458 -11.076  1.00  0.00    -0.237 OA
ATOM     68  O   UNL     1       8.692  15.816  -9.114  1.00  0.00    -0.237 OA
ATOM     69  O   UNL     1      10.913  14.753  -9.203  1.00  0.00    -0.744 OA
ENDBRANCH  65  66
ENDBRANCH  39  60
ENDBRANCH  13  14
ENDBRANCH   6   8
ENDBRANCH   5   6
ENDBRANCH   4   5
ENDBRANCH   3   4
ENDBRANCH   2   3
ENDBRANCH   1   2
BRANCH   1  70
ATOM     70  C   UNL     1       1.988  -2.607  -1.379  1.00  0.00     0.188 C 
BRANCH  70  71
ATOM     71  O   UNL     1       2.515  -3.868  -1.753  1.00  0.00    -0.376 OA
BRANCH  71  72
ATOM     72  C   UNL     1       3.895  -3.933  -2.080  1.00  0.00     0.202 C 
BRANCH  72  73
ATOM     73  C   UNL     1       4.485  -3.047  -3.204  1.00  0.00     0.261 C 
BRANCH  73  74
ATOM     74  O   UNL     1       3.871  -1.771  -3.476  1.00  0.00    -0.459 OA
BRANCH  74  75
ATOM     75  C   UNL     1       2.884  -1.849  -4.407  1.00  0.00     0.365 C 
ATOM     76  O   UNL     1       2.449  -2.924  -4.823  1.00  0.00    -0.245 OA
BRANCH  75  77
ATOM     77  C   UNL     1       2.449  -0.515  -5.041  1.00  0.00     0.298 C 
ATOM     78  C   UNL     1       2.483   0.777  -4.186  1.00  0.00     0.115 C 
ATOM     79  N   UNL     1       3.196  -0.421  -6.328  1.00  0.00    -0.323 N 
ATOM     80  C   UNL     1       2.163   1.958  -5.069  1.00  0.00    -0.006 A 
ATOM     81  C   UNL     1       2.706   0.630  -7.223  1.00  0.00     0.264 C 
ATOM     82  H   UNL     1       3.117  -1.316  -6.811  1.00  0.00     0.347 HD
ATOM     83  H   UNL     1       4.160  -0.185  -6.094  1.00  0.00     0.347 HD
ATOM     84  C   UNL     1       2.310   1.841  -6.439  1.00  0.00     0.083 A 
ATOM     85  C   UNL     1       1.823   3.327  -4.807  1.00  0.00     0.003 A 
ATOM     86  N   UNL     1       2.115   3.073  -7.002  1.00  0.00    -0.353 N 
ATOM     87  C   UNL     1       1.933   4.016  -6.019  1.00  0.00     0.046 A 
ATOM     88  C   UNL     1       1.512   4.088  -3.664  1.00  0.00     0.010 A 
ATOM     89  H   UNL     1       2.106   3.257  -7.969  1.00  0.00     0.166 HD
ATOM     90  C   UNL     1       1.895   5.415  -6.110  1.00  0.00     0.026 A 
ATOM     91  C   UNL     1       1.499   5.493  -3.736  1.00  0.00     0.001 A 
ATOM     92  C   UNL     1       1.731   6.147  -4.938  1.00  0.00     0.002 A 
BRANCH  81  93
ATOM     93  C   UNL     1       1.608   0.183  -8.162  1.00  0.00     0.041 A 
ATOM     94  C   UNL     1       1.389   0.823  -9.371  1.00  0.00     0.093 A 
ATOM     95  C   UNL     1       0.600  -0.850  -8.091  1.00  0.00     0.009 A 
ATOM     96  N   UNL     1       0.264   0.325  -9.957  1.00  0.00    -0.361 N 
ATOM     97  C   UNL     1      -0.276  -0.658  -9.166  1.00  0.00     0.046 A 
ATOM     98  C   UNL     1       0.304  -1.930  -7.230  1.00  0.00     0.011 A 
ATOM     99  H   UNL     1      -0.106   0.625 -10.819  1.00  0.00     0.166 HD
ATOM    100  C   UNL     1      -1.454  -1.402  -9.334  1.00  0.00     0.026 A 
ATOM    101  C   UNL     1      -0.864  -2.681  -7.373  1.00  0.00     0.001 A 
ATOM    102  C   UNL     1      -1.745  -2.402  -8.403  1.00  0.00     0.002 A 
ENDBRANCH  81  93
ENDBRANCH  75  77
ENDBRANCH  74  75
ENDBRANCH  73  74
ENDBRANCH  72  73
ENDBRANCH  71  72
ENDBRANCH  70  71
ENDBRANCH   1  70
TORSDOF 21
