REMARK SMILES CSc1ncc(Cl)c(C(=O)Nc2ccsc2C(=O)OCCOCCOCCOC(=O)c2ccc(-c3c4nc(c(-c5ccc(S(=O)(=O)[O-])cc5)c5ccc([nH]5)c(-c5ccc(S(=O)(=O)[O-])cc5)c5nc(c(-c6ccc(S(=O)(=O)[O-])cc6)c6ccc3[nH]6)C=C5)C=C4)cc2)n1
REMARK SMILES IDX 23 1 22 2 21 3 20 4 19 5 17 6 18 7 16 8 12 9 13 10 14 11
REMARK SMILES IDX 15 12 11 13 9 14 10 15 8 17 3 18 4 19 91 20 5 21 6 22 7 23
REMARK SMILES IDX 2 24 1 25 24 26 25 27 26 28 27 29 28 30 29 31 30 32 31 33
REMARK SMILES IDX 32 34 90 35 33 36 89 37 34 38 35 39 36 40 83 41 37 42 88 43
REMARK SMILES IDX 82 44 84 45 38 46 87 47 81 48 80 49 39 51 69 52 50 53 68 54
REMARK SMILES IDX 51 55 54 56 67 57 85 58 52 59 53 60 66 62 86 63 55 64 40 65
REMARK SMILES IDX 41 66 49 67 42 68 48 69 43 70 44 71 45 72 46 73 47 74 70 75
REMARK SMILES IDX 71 76 79 77 72 78 78 79 73 80 74 81 75 82 76 83 77 84 56 85
REMARK SMILES IDX 57 86 65 87 58 88 64 89 59 90 60 91 61 92 62 93 63 94
REMARK H PARENT 11 16 84 50 54 61
REMARK Flexibility Score: inf
ROOT
ATOM      1  C   UNL     1       6.208   6.826   5.634  1.00  0.00     0.188 C 
ENDROOT
BRANCH   1   2
ATOM      2  O   UNL     1       6.984   6.549   6.794  1.00  0.00    -0.376 OA
BRANCH   2   3
ATOM      3  C   UNL     1       6.972   5.255   7.372  1.00  0.00     0.202 C 
BRANCH   3   4
ATOM      4  C   UNL     1       5.676   4.814   8.054  1.00  0.00     0.261 C 
BRANCH   4   5
ATOM      5  O   UNL     1       4.512   4.868   7.204  1.00  0.00    -0.459 OA
BRANCH   5   6
ATOM      6  C   UNL     1       3.527   5.722   7.627  1.00  0.00     0.350 C 
ATOM      7  O   UNL     1       3.585   6.346   8.680  1.00  0.00    -0.245 OA
BRANCH   6   8
ATOM      8  C   UNL     1       2.425   5.794   6.671  1.00  0.00     0.136 A 
ATOM      9  C   UNL     1       2.034   5.006   5.586  1.00  0.00     0.067 A 
ATOM     10  C   UNL     1       0.788   5.467   5.046  1.00  0.00     0.039 A 
ATOM     11  C   UNL     1       0.360   6.648   5.604  1.00  0.00     0.068 A 
ATOM     12  S   UNL     1       1.377   7.155   6.861  1.00  0.00    -0.135 S 
BRANCH   9  13
ATOM     13  N   UNL     1       2.760   3.900   5.154  1.00  0.00    -0.319 N 
ATOM     14  C   UNL     1       2.681   3.125   4.012  1.00  0.00     0.276 C 
ATOM     15  O   UNL     1       3.367   2.099   3.955  1.00  0.00    -0.267 OA
ATOM     16  H   UNL     1       3.465   3.617   5.781  1.00  0.00     0.170 HD
BRANCH  14  17
ATOM     17  C   UNL     1       1.853   3.461   2.818  1.00  0.00     0.151 A 
ATOM     18  C   UNL     1       0.412   2.604   1.244  1.00  0.00     0.188 A 
ATOM     19  N   UNL     1       0.416   3.738   0.530  1.00  0.00    -0.230 NA
ATOM     20  N   UNL     1       1.076   2.426   2.392  1.00  0.00    -0.216 NA
ATOM     21  C   UNL     1       1.209   4.731   0.981  1.00  0.00     0.137 A 
ATOM     22  C   UNL     1       1.989   4.641   2.112  1.00  0.00     0.090 A 
ATOM     23  Cl  UNL     1       3.052   5.925   2.488  1.00  0.00    -0.080 Cl
BRANCH  18  24
ATOM     24  S   UNL     1      -0.454   1.225   0.549  1.00  0.00    -0.090 SA
ATOM     25  C   UNL     1       0.912   0.039   0.552  1.00  0.00     0.094 C 
ENDBRANCH  18  24
ENDBRANCH  14  17
ENDBRANCH   9  13
ENDBRANCH   6   8
ENDBRANCH   5   6
ENDBRANCH   4   5
ENDBRANCH   3   4
ENDBRANCH   2   3
ENDBRANCH   1   2
BRANCH   1  26
ATOM     26  C   UNL     1       5.880   5.716   4.623  1.00  0.00     0.188 C 
BRANCH  26  27
ATOM     27  O   UNL     1       6.805   4.641   4.591  1.00  0.00    -0.376 OA
BRANCH  27  28
ATOM     28  C   UNL     1       7.448   4.425   3.342  1.00  0.00     0.202 C 
BRANCH  28  29
ATOM     29  C   UNL     1       8.635   5.371   3.146  1.00  0.00     0.261 C 
BRANCH  29  30
ATOM     30  O   UNL     1       8.273   6.758   3.042  1.00  0.00    -0.460 OA
BRANCH  30  31
ATOM     31  C   UNL     1       7.516   7.105   1.977  1.00  0.00     0.338 C 
ATOM     32  O   UNL     1       7.110   6.373   1.093  1.00  0.00    -0.246 OA
BRANCH  31  33
ATOM     33  C   UNL     1       7.108   8.511   2.148  1.00  0.00     0.060 A 
ATOM     34  C   UNL     1       5.746   8.828   2.108  1.00  0.00     0.016 A 
ATOM     35  C   UNL     1       8.065   9.511   2.336  1.00  0.00     0.016 A 
ATOM     36  C   UNL     1       5.335  10.155   2.237  1.00  0.00     0.010 A 
ATOM     37  C   UNL     1       7.654  10.840   2.448  1.00  0.00     0.010 A 
ATOM     38  C   UNL     1       6.290  11.170   2.377  1.00  0.00    -0.014 A 
BRANCH  38  39
ATOM     39  C   UNL     1       5.882  12.592   2.316  1.00  0.00     0.031 A 
ATOM     40  C   UNL     1       5.977  13.318   1.003  1.00  0.00     0.074 A 
ATOM     41  C   UNL     1       5.444  13.233   3.414  1.00  0.00     0.049 A 
ATOM     42  N   UNL     1       5.719  14.570   0.730  1.00  0.00    -0.248 NA
ATOM     43  C   UNL     1       6.421  12.525  -0.156  1.00  0.00     0.031 C 
ATOM     44  C   UNL     1       5.277  12.632   4.737  1.00  0.00     0.029 A 
ATOM     45  N   UNL     1       5.069  14.541   3.587  1.00  0.00    -0.354 N 
ATOM     46  C   UNL     1       5.971  14.719  -0.628  1.00  0.00     0.074 A 
ATOM     47  C   UNL     1       6.424  13.435  -1.119  1.00  0.00     0.031 C 
ATOM     48  C   UNL     1       4.844  13.576   5.591  1.00  0.00     0.029 A 
ATOM     49  C   UNL     1       4.732  14.851   4.883  1.00  0.00     0.049 A 
ATOM     50  H   UNL     1       5.044  15.197   2.852  1.00  0.00     0.167 HD
ATOM     51  C   UNL     1       5.837  15.824  -1.399  1.00  0.00     0.031 A 
ATOM     52  C   UNL     1       4.393  16.031   5.437  1.00  0.00     0.031 A 
ATOM     53  C   UNL     1       5.414  17.107  -0.908  1.00  0.00     0.049 A 
ATOM     54  C   UNL     1       4.324  17.265   4.575  1.00  0.00     0.074 A 
ATOM     55  C   UNL     1       5.240  18.284  -1.616  1.00  0.00     0.029 A 
ATOM     56  N   UNL     1       5.109  17.386   0.415  1.00  0.00    -0.354 N 
ATOM     57  N   UNL     1       4.537  17.383   3.285  1.00  0.00    -0.248 NA
ATOM     58  C   UNL     1       3.963  18.523   5.243  1.00  0.00     0.031 C 
ATOM     59  C   UNL     1       4.875  19.287  -0.711  1.00  0.00     0.029 A 
ATOM     60  C   UNL     1       4.771  18.722   0.550  1.00  0.00     0.049 A 
ATOM     61  H   UNL     1       5.130  16.731   1.150  1.00  0.00     0.167 HD
ATOM     62  C   UNL     1       4.310  18.722   2.985  1.00  0.00     0.074 A 
ATOM     63  C   UNL     1       3.935  19.372   4.224  1.00  0.00     0.031 C 
ATOM     64  C   UNL     1       4.399  19.356   1.789  1.00  0.00     0.031 A 
BRANCH  51  65
ATOM     65  C   UNL     1       6.186  15.692  -2.855  1.00  0.00    -0.014 A 
ATOM     66  C   UNL     1       5.338  15.008  -3.744  1.00  0.00     0.010 A 
ATOM     67  C   UNL     1       7.366  16.280  -3.344  1.00  0.00     0.010 A 
ATOM     68  C   UNL     1       5.684  14.882  -5.091  1.00  0.00     0.020 A 
ATOM     69  C   UNL     1       7.704  16.175  -4.696  1.00  0.00     0.020 A 
ATOM     70  C   UNL     1       6.868  15.460  -5.558  1.00  0.00     0.054 A 
BRANCH  70  71
ATOM     71  S   UNL     1       7.288  15.291  -7.314  1.00  0.00     0.124 S 
ATOM     72  O   UNL     1       7.734  13.902  -7.382  1.00  0.00    -0.237 OA
ATOM     73  O   UNL     1       6.019  15.576  -7.978  1.00  0.00    -0.237 OA
ATOM     74  O   UNL     1       8.333  16.292  -7.518  1.00  0.00    -0.744 OA
ENDBRANCH  70  71
ENDBRANCH  51  65
BRANCH  52  75
ATOM     75  C   UNL     1       4.109  16.112   6.895  1.00  0.00    -0.014 A 
ATOM     76  C   UNL     1       2.798  16.319   7.358  1.00  0.00     0.010 A 
ATOM     77  C   UNL     1       5.154  15.988   7.829  1.00  0.00     0.010 A 
ATOM     78  C   UNL     1       2.539  16.416   8.729  1.00  0.00     0.020 A 
ATOM     79  C   UNL     1       4.896  16.060   9.200  1.00  0.00     0.020 A 
ATOM     80  C   UNL     1       3.590  16.286   9.641  1.00  0.00     0.054 A 
BRANCH  80  81
ATOM     81  S   UNL     1       3.226  16.368  11.417  1.00  0.00     0.124 S 
ATOM     82  O   UNL     1       3.036  17.800  11.621  1.00  0.00    -0.237 OA
ATOM     83  O   UNL     1       2.023  15.547  11.532  1.00  0.00    -0.237 OA
ATOM     84  O   UNL     1       4.421  15.799  12.036  1.00  0.00    -0.744 OA
ENDBRANCH  80  81
ENDBRANCH  52  75
BRANCH  64  85
ATOM     85  C   UNL     1       4.052  20.820   1.749  1.00  0.00    -0.014 A 
ATOM     86  C   UNL     1       4.930  21.792   2.260  1.00  0.00     0.010 A 
ATOM     87  C   UNL     1       2.857  21.232   1.131  1.00  0.00     0.010 A 
ATOM     88  C   UNL     1       4.605  23.149   2.178  1.00  0.00     0.020 A 
ATOM     89  C   UNL     1       2.540  22.588   1.027  1.00  0.00     0.020 A 
ATOM     90  C   UNL     1       3.411  23.539   1.563  1.00  0.00     0.054 A 
BRANCH  90  91
ATOM     91  S   UNL     1       3.032  25.308   1.424  1.00  0.00     0.124 S 
ATOM     92  O   UNL     1       2.599  25.633   2.780  1.00  0.00    -0.237 OA
ATOM     93  O   UNL     1       4.313  25.882   1.018  1.00  0.00    -0.237 OA
ATOM     94  O   UNL     1       1.985  25.358   0.406  1.00  0.00    -0.744 OA
ENDBRANCH  90  91
ENDBRANCH  64  85
ENDBRANCH  38  39
ENDBRANCH  31  33
ENDBRANCH  30  31
ENDBRANCH  29  30
ENDBRANCH  28  29
ENDBRANCH  27  28
ENDBRANCH  26  27
ENDBRANCH   1  26
TORSDOF 23
