REMARK SMILES O=C(OCCOCCOCCOC(=O)[C@H]1CC2(CC[NH+](C(=O)C3CC3)CC2)CN1C(=O)CCn1cccn1)c1ccc(-c2c3nc(c(-c4ccc(S(=O)(=O)[O-])cc4)c4ccc([nH]4)c(-c4ccc(S(=O)(=O)[O-])cc4)c4nc(c(-c5ccc(S(=O)(=O)[O-])cc5)c5ccc2[nH]5)C=C4)C=C3)cc1
REMARK SMILES IDX 8 1 7 2 6 3 5 4 4 5 3 6 2 7 1 8 39 9 40 10 98 11 41 12 97 13
REMARK SMILES IDX 42 14 43 15 44 16 91 17 45 18 96 19 90 20 92 21 46 22 95 23
REMARK SMILES IDX 89 24 88 25 47 27 77 28 58 29 76 30 59 31 62 32 75 33 93 34
REMARK SMILES IDX 60 35 61 36 74 38 94 39 63 40 48 41 49 42 57 43 50 44 56 45
REMARK SMILES IDX 51 46 52 47 53 48 54 49 55 50 78 51 79 52 87 53 80 54 86 55
REMARK SMILES IDX 81 56 82 57 83 58 84 59 85 60 64 61 65 62 73 63 66 64 72 65
REMARK SMILES IDX 67 66 68 67 69 68 70 69 71 70 9 71 10 72 11 73 12 74 13 75
REMARK SMILES IDX 14 76 15 77 16 78 29 79 17 80 28 81 18 82 27 83 19 84 26 85
REMARK SMILES IDX 20 86 30 88 31 89 32 90 33 91 34 92 35 93 38 94 36 95 37 96
REMARK SMILES IDX 21 97 22 98 23 99 24 100 25 101
REMARK H PARENT 92 26 62 37 20 87
REMARK Flexibility Score: inf
ROOT
ATOM      1  C   UNL     1       1.042  -2.503  -8.868  1.00  0.00     0.188 C 
ENDROOT
BRANCH   1   2
ATOM      2  C   UNL     1       0.405  -1.083  -8.803  1.00  0.00     0.188 C 
BRANCH   2   3
ATOM      3  O   UNL     1      -0.680  -0.841  -7.916  1.00  0.00    -0.376 OA
BRANCH   3   4
ATOM      4  C   UNL     1      -1.833  -1.643  -8.011  1.00  0.00     0.202 C 
BRANCH   4   5
ATOM      5  C   UNL     1      -2.734  -1.305  -9.191  1.00  0.00     0.261 C 
BRANCH   5   6
ATOM      6  O   UNL     1      -2.378  -0.179 -10.016  1.00  0.00    -0.460 OA
BRANCH   6   7
ATOM      7  C   UNL     1      -1.826   0.998  -9.648  1.00  0.00     0.338 C 
ATOM      8  O   UNL     1      -1.099   1.597 -10.440  1.00  0.00    -0.246 OA
BRANCH   7   9
ATOM      9  C   UNL     1      -2.128   1.641  -8.346  1.00  0.00     0.060 A 
ATOM     10  C   UNL     1      -3.318   1.417  -7.650  1.00  0.00     0.016 A 
ATOM     11  C   UNL     1      -1.260   2.679  -7.952  1.00  0.00     0.016 A 
ATOM     12  C   UNL     1      -3.712   2.324  -6.681  1.00  0.00     0.010 A 
ATOM     13  C   UNL     1      -1.664   3.604  -7.006  1.00  0.00     0.010 A 
ATOM     14  C   UNL     1      -2.933   3.464  -6.458  1.00  0.00    -0.014 A 
BRANCH  14  15
ATOM     15  C   UNL     1      -3.598   4.593  -5.833  1.00  0.00     0.031 A 
ATOM     16  C   UNL     1      -3.694   4.580  -4.361  1.00  0.00     0.074 A 
ATOM     17  C   UNL     1      -4.119   5.575  -6.597  1.00  0.00     0.049 A 
ATOM     18  N   UNL     1      -4.748   4.372  -3.645  1.00  0.00    -0.248 NA
ATOM     19  C   UNL     1      -2.452   4.713  -3.591  1.00  0.00     0.031 C 
ATOM     20  C   UNL     1      -3.875   5.840  -8.020  1.00  0.00     0.029 A 
ATOM     21  N   UNL     1      -4.917   6.610  -6.226  1.00  0.00    -0.354 N 
ATOM     22  C   UNL     1      -4.348   4.535  -2.324  1.00  0.00     0.074 A 
ATOM     23  C   UNL     1      -2.906   4.588  -2.343  1.00  0.00     0.031 C 
ATOM     24  C   UNL     1      -4.321   7.080  -8.323  1.00  0.00     0.029 A 
ATOM     25  C   UNL     1      -4.999   7.631  -7.162  1.00  0.00     0.049 A 
ATOM     26  H   UNL     1      -5.397   6.633  -5.367  1.00  0.00     0.167 HD
ATOM     27  C   UNL     1      -5.234   4.833  -1.334  1.00  0.00     0.031 A 
ATOM     28  C   UNL     1      -5.511   8.871  -6.959  1.00  0.00     0.031 A 
ATOM     29  C   UNL     1      -6.597   4.620  -1.744  1.00  0.00     0.049 A 
ATOM     30  C   UNL     1      -6.415   8.787  -5.783  1.00  0.00     0.074 A 
ATOM     31  C   UNL     1      -7.325   3.523  -2.160  1.00  0.00     0.029 A 
ATOM     32  N   UNL     1      -7.322   5.726  -2.123  1.00  0.00    -0.354 N 
ATOM     33  N   UNL     1      -7.533   8.115  -5.788  1.00  0.00    -0.248 NA
ATOM     34  C   UNL     1      -5.857   9.050  -4.464  1.00  0.00     0.031 C 
ATOM     35  C   UNL     1      -8.193   4.022  -3.173  1.00  0.00     0.029 A 
ATOM     36  C   UNL     1      -7.989   5.400  -3.277  1.00  0.00     0.049 A 
ATOM     37  H   UNL     1      -7.357   6.590  -1.653  1.00  0.00     0.167 HD
ATOM     38  C   UNL     1      -7.595   7.511  -4.539  1.00  0.00     0.074 A 
ATOM     39  C   UNL     1      -6.585   8.197  -3.736  1.00  0.00     0.031 C 
ATOM     40  C   UNL     1      -8.259   6.331  -4.352  1.00  0.00     0.031 A 
BRANCH  27  41
ATOM     41  C   UNL     1      -4.890   5.674  -0.131  1.00  0.00    -0.014 A 
ATOM     42  C   UNL     1      -5.851   5.842   0.885  1.00  0.00     0.010 A 
ATOM     43  C   UNL     1      -3.767   6.527  -0.102  1.00  0.00     0.010 A 
ATOM     44  C   UNL     1      -5.729   6.862   1.837  1.00  0.00     0.020 A 
ATOM     45  C   UNL     1      -3.614   7.517   0.869  1.00  0.00     0.020 A 
ATOM     46  C   UNL     1      -4.616   7.704   1.810  1.00  0.00     0.054 A 
BRANCH  46  47
ATOM     47  S   UNL     1      -4.527   9.097   2.961  1.00  0.00     0.124 S 
ATOM     48  O   UNL     1      -5.626   9.939   2.498  1.00  0.00    -0.237 OA
ATOM     49  O   UNL     1      -4.727   8.445   4.252  1.00  0.00    -0.237 OA
ATOM     50  O   UNL     1      -3.188   9.637   2.741  1.00  0.00    -0.744 OA
ENDBRANCH  46  47
ENDBRANCH  27  41
BRANCH  28  51
ATOM     51  C   UNL     1      -4.957  10.149  -7.477  1.00  0.00    -0.014 A 
ATOM     52  C   UNL     1      -5.672  11.356  -7.375  1.00  0.00     0.010 A 
ATOM     53  C   UNL     1      -3.594  10.227  -7.836  1.00  0.00     0.010 A 
ATOM     54  C   UNL     1      -5.031  12.595  -7.568  1.00  0.00     0.020 A 
ATOM     55  C   UNL     1      -2.952  11.453  -8.038  1.00  0.00     0.020 A 
ATOM     56  C   UNL     1      -3.668  12.635  -7.878  1.00  0.00     0.054 A 
BRANCH  56  57
ATOM     57  S   UNL     1      -2.803  14.232  -7.944  1.00  0.00     0.124 S 
ATOM     58  O   UNL     1      -3.335  14.823  -9.168  1.00  0.00    -0.237 OA
ATOM     59  O   UNL     1      -3.220  14.871  -6.699  1.00  0.00    -0.237 OA
ATOM     60  O   UNL     1      -1.391  13.857  -8.001  1.00  0.00    -0.744 OA
ENDBRANCH  56  57
ENDBRANCH  28  51
BRANCH  40  61
ATOM     61  C   UNL     1      -9.157   5.825  -5.458  1.00  0.00    -0.014 A 
ATOM     62  C   UNL     1      -8.691   5.485  -6.744  1.00  0.00     0.010 A 
ATOM     63  C   UNL     1     -10.490   5.525  -5.127  1.00  0.00     0.010 A 
ATOM     64  C   UNL     1      -9.547   4.882  -7.679  1.00  0.00     0.020 A 
ATOM     65  C   UNL     1     -11.341   4.909  -6.048  1.00  0.00     0.020 A 
ATOM     66  C   UNL     1     -10.868   4.597  -7.323  1.00  0.00     0.054 A 
BRANCH  66  67
ATOM     67  S   UNL     1     -11.956   3.768  -8.516  1.00  0.00     0.124 S 
ATOM     68  O   UNL     1     -12.161   4.799  -9.529  1.00  0.00    -0.237 OA
ATOM     69  O   UNL     1     -11.158   2.619  -8.939  1.00  0.00    -0.237 OA
ATOM     70  O   UNL     1     -13.142   3.429  -7.730  1.00  0.00    -0.744 OA
ENDBRANCH  66  67
ENDBRANCH  40  61
ENDBRANCH  14  15
ENDBRANCH   7   9
ENDBRANCH   6   7
ENDBRANCH   5   6
ENDBRANCH   4   5
ENDBRANCH   3   4
ENDBRANCH   2   3
ENDBRANCH   1   2
BRANCH   1  71
ATOM     71  O   UNL     1       0.807  -3.371  -7.730  1.00  0.00    -0.376 OA
BRANCH  71  72
ATOM     72  C   UNL     1       1.889  -4.273  -7.426  1.00  0.00     0.202 C 
BRANCH  72  73
ATOM     73  C   UNL     1       2.166  -4.621  -5.893  1.00  0.00     0.261 C 
BRANCH  73  74
ATOM     74  O   UNL     1       2.107  -3.555  -4.872  1.00  0.00    -0.462 OA
BRANCH  74  75
ATOM     75  C   UNL     1       3.153  -3.139  -4.085  1.00  0.00     0.328 C 
ATOM     76  O   UNL     1       4.221  -3.750  -4.030  1.00  0.00    -0.250 OA
BRANCH  75  77
ATOM     77  C   UNL     1       2.874  -1.815  -3.138  1.00  0.00     0.195 C 
ATOM     78  C   UNL     1       4.056  -0.777  -3.208  1.00  0.00     0.046 C 
ATOM     79  N   UNL     1       1.754  -0.845  -2.998  1.00  0.00    -0.328 N 
ATOM     80  C   UNL     1       3.561   0.597  -2.599  1.00  0.00     0.001 C 
ATOM     81  C   UNL     1       2.124   0.295  -2.191  1.00  0.00     0.128 C 
ATOM     82  C   UNL     1       3.526   1.846  -3.531  1.00  0.00     0.071 C 
ATOM     83  C   UNL     1       4.405   1.008  -1.390  1.00  0.00     0.071 C 
ATOM     84  C   UNL     1       4.877   2.469  -3.882  1.00  0.00     0.270 C 
ATOM     85  C   UNL     1       5.790   1.476  -1.832  1.00  0.00     0.270 C 
ATOM     86  N   UNL     1       5.712   2.654  -2.701  1.00  0.00    -0.272 N 
ATOM     87  H   UNL     1       6.682   2.639  -2.536  1.00  0.00     0.356 HD
BRANCH  79  88
ATOM     88  C   UNL     1       0.441  -0.931  -3.346  1.00  0.00     0.225 C 
ATOM     89  O   UNL     1      -0.456  -0.246  -2.853  1.00  0.00    -0.275 OA
BRANCH  88  90
ATOM     90  C   UNL     1       0.186  -1.774  -4.511  1.00  0.00     0.124 C 
BRANCH  90  91
ATOM     91  C   UNL     1       0.884  -1.138  -5.726  1.00  0.00     0.154 C 
BRANCH  91  92
ATOM     92  N   UNL     1       2.293  -0.923  -6.061  1.00  0.00    -0.272 N 
ATOM     93  C   UNL     1       2.858   0.273  -6.452  1.00  0.00     0.108 A 
ATOM     94  N   UNL     1       3.114  -1.929  -6.445  1.00  0.00    -0.182 NA
ATOM     95  C   UNL     1       4.140   0.014  -6.889  1.00  0.00     0.042 A 
ATOM     96  C   UNL     1       4.244  -1.374  -6.866  1.00  0.00     0.135 A 
ENDBRANCH  91  92
ENDBRANCH  90  91
ENDBRANCH  88  90
ENDBRANCH  79  88
BRANCH  86  97
ATOM     97  C   UNL     1       6.557   3.725  -2.387  1.00  0.00     0.315 C 
ATOM     98  O   UNL     1       7.350   3.628  -1.448  1.00  0.00    -0.231 OA
BRANCH  97  99
ATOM     99  C   UNL     1       6.587   5.051  -3.077  1.00  0.00     0.119 C 
ATOM    100  C   UNL     1       6.248   5.440  -4.484  1.00  0.00     0.019 C 
ATOM    101  C   UNL     1       5.334   5.840  -3.356  1.00  0.00     0.019 C 
ENDBRANCH  97  99
ENDBRANCH  86  97
ENDBRANCH  75  77
ENDBRANCH  74  75
ENDBRANCH  73  74
ENDBRANCH  72  73
ENDBRANCH  71  72
ENDBRANCH   1  71
TORSDOF 26
