REMARK SMILES Cc1ccccc1-c1c(Cl)ccc2c1C=C(C(=O)OCCOCCOCCOC(=O)c1ccc(-c3c4nc(c(-c5ccc(S(=O)(=O)[O-])cc5)c5ccc([nH]5)c(-c5ccc(S(=O)(=O)[O-])cc5)c5nc(c(-c6ccc(S(=O)(=O)[O-])cc6)c6ccc3[nH]6)C=C5)C=C4)cc1)[C@@H](C(F)(F)F)O2
REMARK SMILES IDX 24 1 23 2 22 3 21 4 20 5 19 6 17 7 18 8 16 9 8 10 9 11 14 12
REMARK SMILES IDX 10 13 11 14 13 15 15 16 12 17 96 18 91 19 7 20 1 21 2 22
REMARK SMILES IDX 3 23 4 24 6 25 5 26 92 27 93 28 94 29 95 30 25 31 26 32
REMARK SMILES IDX 27 33 28 34 29 35 30 36 31 37 32 38 90 39 33 40 89 41 34 42
REMARK SMILES IDX 35 43 36 44 83 45 37 46 88 47 82 48 84 49 38 50 87 51 81 52
REMARK SMILES IDX 80 53 39 55 69 56 50 57 68 58 51 59 54 60 67 61 85 62 52 63
REMARK SMILES IDX 53 64 66 66 86 67 55 68 40 69 41 70 49 71 42 72 48 73 43 74
REMARK SMILES IDX 44 75 45 76 46 77 47 78 70 79 71 80 79 81 72 82 78 83 73 84
REMARK SMILES IDX 74 85 75 86 76 87 77 88 56 89 57 90 65 91 58 92 64 93 59 94
REMARK SMILES IDX 60 95 61 96 62 97 63 98
REMARK H PARENT 84 54 54 65
REMARK Flexibility Score: inf
ROOT
ATOM      1  C   UNL     1      10.056   0.643  -3.557  1.00  0.00     0.188 C 
ENDROOT
BRANCH   1   2
ATOM      2  C   UNL     1       9.462   1.143  -2.264  1.00  0.00     0.188 C 
BRANCH   2   3
ATOM      3  O   UNL     1       8.709   0.323  -1.373  1.00  0.00    -0.376 OA
BRANCH   3   4
ATOM      4  C   UNL     1       7.904  -0.845  -1.597  1.00  0.00     0.202 C 
BRANCH   4   5
ATOM      5  C   UNL     1       6.261  -1.208  -2.034  1.00  0.00     0.261 C 
BRANCH   5   6
ATOM      6  O   UNL     1       4.737  -0.299  -2.252  1.00  0.00    -0.460 OA
BRANCH   6   7
ATOM      7  C   UNL     1       3.915   0.785  -1.813  1.00  0.00     0.338 C 
ATOM      8  O   UNL     1       3.972   1.344  -0.720  1.00  0.00    -0.246 OA
BRANCH   7   9
ATOM      9  C   UNL     1       2.824   1.318  -2.719  1.00  0.00     0.087 C 
ATOM     10  C   UNL     1       0.310   2.306  -0.112  1.00  0.00     0.012 A 
ATOM     11  C   UNL     1       0.160   3.376   0.807  1.00  0.00     0.049 A 
ATOM     12  C   UNL     1       1.304   2.413  -1.124  1.00  0.00     0.027 A 
ATOM     13  Cl  UNL     1      -0.947   3.299   2.140  1.00  0.00    -0.084 Cl
ATOM     14  C   UNL     1       0.926   4.538   0.700  1.00  0.00     0.025 A 
ATOM     15  C   UNL     1       2.064   3.595  -1.209  1.00  0.00     0.128 A 
ATOM     16  C   UNL     1       1.640   1.268  -2.051  1.00  0.00     0.028 C 
ATOM     17  C   UNL     1       1.874   4.649  -0.311  1.00  0.00     0.049 A 
ATOM     18  O   UNL     1       3.072   3.766  -2.123  1.00  0.00    -0.475 OA
ATOM     19  C   UNL     1       3.149   2.770  -3.178  1.00  0.00     0.316 C 
BRANCH  10  20
ATOM     20  C   UNL     1      -0.534   1.099  -0.009  1.00  0.00    -0.013 A 
ATOM     21  C   UNL     1       1.397  -0.343   0.836  1.00  0.00     0.045 C 
ATOM     22  C   UNL     1      -0.021  -0.153   0.384  1.00  0.00    -0.043 A 
ATOM     23  C   UNL     1      -0.860  -1.280   0.383  1.00  0.00     0.004 A 
ATOM     24  C   UNL     1      -2.207  -1.166   0.051  1.00  0.00     0.000 A 
ATOM     25  C   UNL     1      -1.903   1.194  -0.322  1.00  0.00     0.009 A 
ATOM     26  C   UNL     1      -2.735   0.076  -0.282  1.00  0.00     0.001 A 
ENDBRANCH  10  20
BRANCH  19  27
ATOM     27  C   UNL     1       2.275   3.244  -4.358  1.00  0.00     0.430 C 
ATOM     28  F   UNL     1       2.600   4.498  -4.757  1.00  0.00    -0.167 F 
ATOM     29  F   UNL     1       2.423   2.434  -5.435  1.00  0.00    -0.167 F 
ATOM     30  F   UNL     1       0.951   3.262  -4.065  1.00  0.00    -0.167 F 
ENDBRANCH  19  27
ENDBRANCH   7   9
ENDBRANCH   6   7
ENDBRANCH   5   6
ENDBRANCH   4   5
ENDBRANCH   3   4
ENDBRANCH   2   3
ENDBRANCH   1   2
BRANCH   1  31
ATOM     31  O   UNL     1       9.256  -0.398  -4.075  1.00  0.00    -0.376 OA
BRANCH  31  32
ATOM     32  C   UNL     1       9.835  -1.043  -5.191  1.00  0.00     0.202 C 
BRANCH  32  33
ATOM     33  C   UNL     1       9.834  -0.176  -6.456  1.00  0.00     0.261 C 
BRANCH  33  34
ATOM     34  O   UNL     1       8.498   0.086  -6.934  1.00  0.00    -0.460 OA
BRANCH  34  35
ATOM     35  C   UNL     1       8.056   1.401  -6.897  1.00  0.00     0.338 C 
ATOM     36  O   UNL     1       7.998   2.091  -7.871  1.00  0.00    -0.246 OA
BRANCH  35  37
ATOM     37  C   UNL     1       7.379   1.665  -5.585  1.00  0.00     0.060 A 
ATOM     38  C   UNL     1       7.342   2.805  -4.793  1.00  0.00     0.016 A 
ATOM     39  C   UNL     1       6.655   0.646  -5.099  1.00  0.00     0.016 A 
ATOM     40  C   UNL     1       6.901   2.796  -3.386  1.00  0.00     0.010 A 
ATOM     41  C   UNL     1       6.235   0.699  -3.764  1.00  0.00     0.010 A 
ATOM     42  C   UNL     1       6.480   1.643  -2.699  1.00  0.00    -0.014 A 
BRANCH  42  43
ATOM     43  C   UNL     1       6.479   1.487  -0.915  1.00  0.00     0.031 A 
ATOM     44  C   UNL     1       5.881   0.269   0.244  1.00  0.00     0.074 A 
ATOM     45  C   UNL     1       7.243   2.389  -0.216  1.00  0.00     0.049 A 
ATOM     46  N   UNL     1       6.224   0.186   1.519  1.00  0.00    -0.248 NA
ATOM     47  C   UNL     1       4.935  -0.923   0.089  1.00  0.00     0.031 C 
ATOM     48  C   UNL     1       7.593   2.445   1.217  1.00  0.00     0.029 A 
ATOM     49  N   UNL     1       7.872   3.540  -0.696  1.00  0.00    -0.354 N 
ATOM     50  C   UNL     1       5.508  -0.847   2.111  1.00  0.00     0.074 A 
ATOM     51  C   UNL     1       5.218  -1.760   1.078  1.00  0.00     0.031 C 
ATOM     52  C   UNL     1       8.077   3.652   1.536  1.00  0.00     0.029 A 
ATOM     53  C   UNL     1       7.997   4.460   0.349  1.00  0.00     0.049 A 
ATOM     54  H   UNL     1       8.178   3.681  -1.621  1.00  0.00     0.167 HD
ATOM     55  C   UNL     1       4.719  -0.758   3.223  1.00  0.00     0.031 A 
ATOM     56  C   UNL     1       7.367   5.656   0.251  1.00  0.00     0.031 A 
ATOM     57  C   UNL     1       4.796   0.550   3.812  1.00  0.00     0.049 A 
ATOM     58  C   UNL     1       6.203   5.679   1.209  1.00  0.00     0.074 A 
ATOM     59  C   UNL     1       5.693   1.083   4.713  1.00  0.00     0.029 A 
ATOM     60  N   UNL     1       4.133   1.622   3.204  1.00  0.00    -0.354 N 
ATOM     61  N   UNL     1       5.563   4.618   1.635  1.00  0.00    -0.248 NA
ATOM     62  C   UNL     1       5.780   6.905   1.871  1.00  0.00     0.031 C 
ATOM     63  C   UNL     1       5.616   2.493   4.605  1.00  0.00     0.029 A 
ATOM     64  C   UNL     1       4.619   2.821   3.696  1.00  0.00     0.049 A 
ATOM     65  H   UNL     1       3.425   1.536   2.526  1.00  0.00     0.167 HD
ATOM     66  C   UNL     1       4.712   4.986   2.642  1.00  0.00     0.074 A 
ATOM     67  C   UNL     1       4.872   6.430   2.737  1.00  0.00     0.031 C 
ATOM     68  C   UNL     1       3.999   4.114   3.417  1.00  0.00     0.031 A 
BRANCH  55  69
ATOM     69  C   UNL     1       3.921  -1.965   3.721  1.00  0.00    -0.014 A 
ATOM     70  C   UNL     1       4.134  -2.453   5.019  1.00  0.00     0.010 A 
ATOM     71  C   UNL     1       3.090  -2.761   2.892  1.00  0.00     0.010 A 
ATOM     72  C   UNL     1       3.677  -3.732   5.409  1.00  0.00     0.020 A 
ATOM     73  C   UNL     1       2.665  -4.054   3.249  1.00  0.00     0.020 A 
ATOM     74  C   UNL     1       2.993  -4.548   4.503  1.00  0.00     0.054 A 
BRANCH  74  75
ATOM     75  S   UNL     1       2.652  -6.285   4.926  1.00  0.00     0.124 S 
ATOM     76  O   UNL     1       3.950  -6.757   5.403  1.00  0.00    -0.237 OA
ATOM     77  O   UNL     1       1.612  -6.168   5.943  1.00  0.00    -0.237 OA
ATOM     78  O   UNL     1       2.220  -6.874   3.659  1.00  0.00    -0.744 OA
ENDBRANCH  74  75
ENDBRANCH  55  69
BRANCH  56  79
ATOM     79  C   UNL     1       7.514   6.254  -1.110  1.00  0.00    -0.014 A 
ATOM     80  C   UNL     1       8.852   6.455  -1.546  1.00  0.00     0.010 A 
ATOM     81  C   UNL     1       6.497   6.261  -2.077  1.00  0.00     0.010 A 
ATOM     82  C   UNL     1       9.183   6.502  -2.901  1.00  0.00     0.020 A 
ATOM     83  C   UNL     1       6.826   6.348  -3.450  1.00  0.00     0.020 A 
ATOM     84  C   UNL     1       8.170   6.422  -3.849  1.00  0.00     0.054 A 
BRANCH  84  85
ATOM     85  S   UNL     1       8.685   6.216  -5.587  1.00  0.00     0.124 S 
ATOM     86  O   UNL     1       9.347   7.482  -5.875  1.00  0.00    -0.237 OA
ATOM     87  O   UNL     1       9.573   5.055  -5.503  1.00  0.00    -0.237 OA
ATOM     88  O   UNL     1       7.423   5.984  -6.283  1.00  0.00    -0.744 OA
ENDBRANCH  84  85
ENDBRANCH  56  79
BRANCH  68  89
ATOM     89  C   UNL     1       2.793   4.516   4.239  1.00  0.00    -0.014 A 
ATOM     90  C   UNL     1       2.132   5.746   4.098  1.00  0.00     0.010 A 
ATOM     91  C   UNL     1       2.216   3.587   5.137  1.00  0.00     0.010 A 
ATOM     92  C   UNL     1       1.038   6.088   4.897  1.00  0.00     0.020 A 
ATOM     93  C   UNL     1       1.091   3.897   5.907  1.00  0.00     0.020 A 
ATOM     94  C   UNL     1       0.533   5.166   5.810  1.00  0.00     0.054 A 
BRANCH  94  95
ATOM     95  S   UNL     1      -0.885   5.632   6.827  1.00  0.00     0.124 S 
ATOM     96  O   UNL     1      -0.249   6.412   7.887  1.00  0.00    -0.237 OA
ATOM     97  O   UNL     1      -1.710   6.403   5.899  1.00  0.00    -0.237 OA
ATOM     98  O   UNL     1      -1.452   4.353   7.245  1.00  0.00    -0.744 OA
ENDBRANCH  94  95
ENDBRANCH  68  89
ENDBRANCH  42  43
ENDBRANCH  35  37
ENDBRANCH  34  35
ENDBRANCH  33  34
ENDBRANCH  32  33
ENDBRANCH  31  32
ENDBRANCH   1  31
TORSDOF 22
