REMARK SMILES CCCC[C@H](C(=O)OCCOCCOCCOC(=O)c1ccc(-c2c3nc(c(-c4ccc(S(=O)(=O)[O-])cc4)c4ccc([nH]4)c(-c4ccc(S(=O)(=O)[O-])cc4)c4nc(c(-c5ccc(S(=O)(=O)[O-])cc5)c5ccc2[nH]5)C=C4)C=C3)cc1)[C@H](O)c1ccc(C(F)(F)F)cc1
REMARK SMILES IDX 12 1 11 2 10 3 9 4 8 5 6 6 7 7 5 8 4 9 3 10 2 11 1 12 80 13
REMARK SMILES IDX 82 14 83 15 91 16 84 17 90 18 85 19 86 20 87 21 88 22 89 23
REMARK SMILES IDX 81 24 13 26 14 27 15 28 16 29 17 30 18 31 19 32 20 33 21 34
REMARK SMILES IDX 79 35 22 36 78 37 23 38 24 39 25 40 72 41 26 42 77 43 71 44
REMARK SMILES IDX 73 45 27 46 76 47 70 48 69 49 28 51 58 52 39 53 57 54 40 55
REMARK SMILES IDX 43 56 56 57 74 58 41 59 42 60 55 62 75 63 44 64 29 65 30 66
REMARK SMILES IDX 38 67 31 68 37 69 32 70 33 71 34 72 35 73 36 74 59 75 60 76
REMARK SMILES IDX 68 77 61 78 67 79 62 80 63 81 64 82 65 83 66 84 45 85 46 86
REMARK SMILES IDX 54 87 47 88 53 89 48 90 49 91 50 92 51 93 52 94
REMARK H PARENT 81 25 73 50 43 61
REMARK Flexibility Score: inf
ROOT
ATOM      1  C   UNL     1      -2.488   5.842   3.944  1.00  0.00     0.188 C 
ENDROOT
BRANCH   1   2
ATOM      2  O   UNL     1      -3.033   6.993   3.307  1.00  0.00    -0.376 OA
BRANCH   2   3
ATOM      3  C   UNL     1      -3.811   6.696   2.144  1.00  0.00     0.202 C 
BRANCH   3   4
ATOM      4  C   UNL     1      -2.968   6.485   0.870  1.00  0.00     0.261 C 
BRANCH   4   5
ATOM      5  O   UNL     1      -2.532   5.113   0.698  1.00  0.00    -0.463 OA
BRANCH   5   6
ATOM      6  C   UNL     1      -1.355   4.766   1.275  1.00  0.00     0.312 C 
ATOM      7  O   UNL     1      -0.615   5.584   1.807  1.00  0.00    -0.252 OA
BRANCH   6   8
ATOM      8  C   UNL     1      -1.075   3.261   1.209  1.00  0.00     0.132 C 
BRANCH   8   9
ATOM      9  C   UNL     1       0.488   3.114   1.371  1.00  0.00     0.018 C 
BRANCH   9  10
ATOM     10  C   UNL     1       1.244   2.634   0.132  1.00  0.00     0.001 C 
BRANCH  10  11
ATOM     11  C   UNL     1       0.998   3.417  -1.157  1.00  0.00    -0.003 C 
ATOM     12  C   UNL     1       1.395   4.883  -1.088  1.00  0.00     0.004 C 
ENDBRANCH  10  11
ENDBRANCH   9  10
ENDBRANCH   8   9
BRANCH   8  13
ATOM     13  C   UNL     1      -1.788   2.380   2.289  1.00  0.00     0.158 C 
BRANCH  13  14
ATOM     14  C   UNL     1      -3.294   2.110   2.371  1.00  0.00    -0.019 A 
ATOM     15  C   UNL     1      -4.293   2.921   1.835  1.00  0.00     0.007 A 
ATOM     16  C   UNL     1      -3.744   1.019   3.152  1.00  0.00     0.007 A 
ATOM     17  C   UNL     1      -5.653   2.724   2.128  1.00  0.00     0.013 A 
ATOM     18  C   UNL     1      -5.103   0.788   3.417  1.00  0.00     0.013 A 
ATOM     19  C   UNL     1      -6.074   1.661   2.929  1.00  0.00     0.056 A 
BRANCH  19  20
ATOM     20  C   UNL     1      -7.524   1.505   3.304  1.00  0.00     0.416 C 
ATOM     21  F   UNL     1      -7.833   2.119   4.481  1.00  0.00    -0.166 F 
ATOM     22  F   UNL     1      -8.377   2.039   2.380  1.00  0.00    -0.166 F 
ATOM     23  F   UNL     1      -7.913   0.206   3.446  1.00  0.00    -0.166 F 
ENDBRANCH  19  20
ENDBRANCH  13  14
BRANCH  13  24
ATOM     24  O   UNL     1      -1.210   1.059   2.162  1.00  0.00    -0.388 OA
ATOM     25  H   UNL     1      -1.473   0.672   1.312  1.00  0.00     0.211 HD
ENDBRANCH  13  24
ENDBRANCH   8  13
ENDBRANCH   6   8
ENDBRANCH   5   6
ENDBRANCH   4   5
ENDBRANCH   3   4
ENDBRANCH   2   3
ENDBRANCH   1   2
BRANCH   1  26
ATOM     26  C   UNL     1      -3.287   5.393   5.145  1.00  0.00     0.188 C 
BRANCH  26  27
ATOM     27  O   UNL     1      -4.607   5.012   4.752  1.00  0.00    -0.376 OA
BRANCH  27  28
ATOM     28  C   UNL     1      -5.604   5.430   5.682  1.00  0.00     0.202 C 
BRANCH  28  29
ATOM     29  C   UNL     1      -5.729   4.512   6.903  1.00  0.00     0.261 C 
BRANCH  29  30
ATOM     30  O   UNL     1      -4.489   4.453   7.630  1.00  0.00    -0.460 OA
BRANCH  30  31
ATOM     31  C   UNL     1      -3.799   3.288   7.522  1.00  0.00     0.338 C 
ATOM     32  O   UNL     1      -4.198   2.244   7.031  1.00  0.00    -0.246 OA
BRANCH  31  33
ATOM     33  C   UNL     1      -2.381   3.512   7.910  1.00  0.00     0.060 A 
ATOM     34  C   UNL     1      -1.397   2.748   7.263  1.00  0.00     0.016 A 
ATOM     35  C   UNL     1      -2.006   4.482   8.845  1.00  0.00     0.016 A 
ATOM     36  C   UNL     1      -0.048   2.919   7.579  1.00  0.00     0.010 A 
ATOM     37  C   UNL     1      -0.655   4.650   9.165  1.00  0.00     0.010 A 
ATOM     38  C   UNL     1       0.327   3.845   8.560  1.00  0.00    -0.014 A 
BRANCH  38  39
ATOM     39  C   UNL     1       1.705   3.832   9.109  1.00  0.00     0.031 A 
ATOM     40  C   UNL     1       1.949   3.071  10.385  1.00  0.00     0.074 A 
ATOM     41  C   UNL     1       2.717   4.475   8.500  1.00  0.00     0.049 A 
ATOM     42  N   UNL     1       3.046   2.955  11.085  1.00  0.00    -0.248 NA
ATOM     43  C   UNL     1       0.794   2.349  10.947  1.00  0.00     0.031 C 
ATOM     44  C   UNL     1       2.622   5.216   7.244  1.00  0.00     0.029 A 
ATOM     45  N   UNL     1       4.032   4.611   8.872  1.00  0.00    -0.354 N 
ATOM     46  C   UNL     1       2.713   2.158  12.175  1.00  0.00     0.074 A 
ATOM     47  C   UNL     1       1.306   1.842  12.057  1.00  0.00     0.031 C 
ATOM     48  C   UNL     1       3.827   5.740   6.955  1.00  0.00     0.029 A 
ATOM     49  C   UNL     1       4.770   5.397   8.019  1.00  0.00     0.049 A 
ATOM     50  H   UNL     1       4.412   4.186   9.675  1.00  0.00     0.167 HD
ATOM     51  C   UNL     1       3.505   1.722  13.182  1.00  0.00     0.031 A 
ATOM     52  C   UNL     1       6.052   5.809   8.099  1.00  0.00     0.031 A 
ATOM     53  C   UNL     1       4.898   2.051  13.310  1.00  0.00     0.049 A 
ATOM     54  C   UNL     1       6.899   5.367   9.267  1.00  0.00     0.074 A 
ATOM     55  C   UNL     1       5.790   1.648  14.289  1.00  0.00     0.029 A 
ATOM     56  N   UNL     1       5.600   2.869  12.439  1.00  0.00    -0.354 N 
ATOM     57  N   UNL     1       6.578   4.589  10.274  1.00  0.00    -0.248 NA
ATOM     58  C   UNL     1       8.286   5.855   9.304  1.00  0.00     0.031 C 
ATOM     59  C   UNL     1       7.019   2.267  14.037  1.00  0.00     0.029 A 
ATOM     60  C   UNL     1       6.908   3.006  12.870  1.00  0.00     0.049 A 
ATOM     61  H   UNL     1       5.223   3.291  11.633  1.00  0.00     0.167 HD
ATOM     62  C   UNL     1       7.729   4.474  11.048  1.00  0.00     0.074 A 
ATOM     63  C   UNL     1       8.757   5.252  10.387  1.00  0.00     0.031 C 
ATOM     64  C   UNL     1       7.919   3.785  12.201  1.00  0.00     0.031 A 
BRANCH  51  65
ATOM     65  C   UNL     1       2.862   0.873  14.244  1.00  0.00    -0.014 A 
ATOM     66  C   UNL     1       2.466  -0.451  13.977  1.00  0.00     0.010 A 
ATOM     67  C   UNL     1       2.662   1.402  15.531  1.00  0.00     0.010 A 
ATOM     68  C   UNL     1       1.841  -1.214  14.967  1.00  0.00     0.020 A 
ATOM     69  C   UNL     1       2.063   0.633  16.532  1.00  0.00     0.020 A 
ATOM     70  C   UNL     1       1.639  -0.664  16.237  1.00  0.00     0.054 A 
BRANCH  70  71
ATOM     71  S   UNL     1       0.835  -1.680  17.506  1.00  0.00     0.124 S 
ATOM     72  O   UNL     1      -0.554  -1.679  17.055  1.00  0.00    -0.237 OA
ATOM     73  O   UNL     1       1.533  -2.957  17.385  1.00  0.00    -0.237 OA
ATOM     74  O   UNL     1       1.088  -0.950  18.746  1.00  0.00    -0.744 OA
ENDBRANCH  70  71
ENDBRANCH  51  65
BRANCH  52  75
ATOM     75  C   UNL     1       6.615   6.704   7.051  1.00  0.00    -0.014 A 
ATOM     76  C   UNL     1       7.588   6.233   6.151  1.00  0.00     0.010 A 
ATOM     77  C   UNL     1       6.185   8.040   6.952  1.00  0.00     0.010 A 
ATOM     78  C   UNL     1       8.127   7.084   5.180  1.00  0.00     0.020 A 
ATOM     79  C   UNL     1       6.703   8.886   5.967  1.00  0.00     0.020 A 
ATOM     80  C   UNL     1       7.679   8.405   5.093  1.00  0.00     0.054 A 
BRANCH  80  81
ATOM     81  S   UNL     1       8.353   9.475   3.790  1.00  0.00     0.124 S 
ATOM     82  O   UNL     1       9.693   9.759   4.293  1.00  0.00    -0.237 OA
ATOM     83  O   UNL     1       8.289   8.614   2.611  1.00  0.00    -0.237 OA
ATOM     84  O   UNL     1       7.435  10.611   3.773  1.00  0.00    -0.744 OA
ENDBRANCH  80  81
ENDBRANCH  52  75
BRANCH  64  85
ATOM     85  C   UNL     1       9.297   3.807  12.809  1.00  0.00    -0.014 A 
ATOM     86  C   UNL     1       9.793   4.953  13.453  1.00  0.00     0.010 A 
ATOM     87  C   UNL     1      10.081   2.637  12.790  1.00  0.00     0.010 A 
ATOM     88  C   UNL     1      11.061   4.939  14.042  1.00  0.00     0.020 A 
ATOM     89  C   UNL     1      11.337   2.611  13.401  1.00  0.00     0.020 A 
ATOM     90  C   UNL     1      11.825   3.768  14.011  1.00  0.00     0.054 A 
BRANCH  90  91
ATOM     91  S   UNL     1      13.449   3.760  14.821  1.00  0.00     0.124 S 
ATOM     92  O   UNL     1      14.261   4.527  13.880  1.00  0.00    -0.237 OA
ATOM     93  O   UNL     1      13.176   4.418  16.096  1.00  0.00    -0.237 OA
ATOM     94  O   UNL     1      13.781   2.341  14.918  1.00  0.00    -0.744 OA
ENDBRANCH  90  91
ENDBRANCH  64  85
ENDBRANCH  38  39
ENDBRANCH  31  33
ENDBRANCH  30  31
ENDBRANCH  29  30
ENDBRANCH  28  29
ENDBRANCH  27  28
ENDBRANCH  26  27
ENDBRANCH   1  26
TORSDOF 27
