REMARK SMILES C=C[C@@H]1[C@@H](O)C[C@H]2[C@]3(CC[C@]4(C)[C@@H]([C@H](C)CCC=C(C)C)CC[C@]24C)C[C@]13CCC(=O)OCCOCCOCCOC(=O)c1ccc(-c2c3nc(c(-c4ccc(S(=O)(=O)[O-])cc4)c4ccc([nH]4)c(-c4ccc(S(=O)(=O)[O-])cc4)c4nc(c(-c5ccc(S(=O)(=O)[O-])cc5)c5ccc2[nH]5)C=C4)C=C3)cc1
REMARK SMILES IDX 35 1 34 2 33 3 32 4 30 5 31 6 29 7 28 8 27 9 3 10 4 11 6 12
REMARK SMILES IDX 8 13 26 14 7 15 9 16 24 17 10 18 11 19 23 20 25 21 13 22
REMARK SMILES IDX 12 23 22 24 2 25 1 26 5 27 14 29 15 30 16 31 17 32 18 33
REMARK SMILES IDX 19 34 20 35 21 36 36 37 37 38 38 39 39 40 40 41 41 42 42 43
REMARK SMILES IDX 43 44 44 45 45 46 103 47 46 48 102 49 47 50 48 51 49 52
REMARK SMILES IDX 96 53 50 54 101 55 95 56 97 57 51 58 100 59 94 60 93 61
REMARK SMILES IDX 52 63 82 64 63 65 81 66 64 67 67 68 80 69 98 70 65 71 66 72
REMARK SMILES IDX 79 74 99 75 68 76 53 77 54 78 62 79 55 80 61 81 56 82 57 83
REMARK SMILES IDX 58 84 59 85 60 86 83 87 84 88 92 89 85 90 91 91 86 92 87 93
REMARK SMILES IDX 88 94 89 95 90 96 69 97 70 98 78 99 71 100 77 101 72 102
REMARK SMILES IDX 73 103 74 104 75 105 76 106
REMARK H PARENT 5 28 97 62 67 73
REMARK Flexibility Score: inf
ROOT
ATOM      1  O   UNL     1       1.761   1.385   4.177  1.00  0.00    -0.376 OA
ENDROOT
BRANCH   1   2
ATOM      2  C   UNL     1       2.369   0.713   3.077  1.00  0.00     0.202 C 
BRANCH   2   3
ATOM      3  C   UNL     1       1.482  -0.323   2.386  1.00  0.00     0.261 C 
BRANCH   3   4
ATOM      4  O   UNL     1       0.303   0.281   1.825  1.00  0.00    -0.463 OA
BRANCH   4   5
ATOM      5  C   UNL     1      -0.891  -0.230   2.216  1.00  0.00     0.305 C 
ATOM      6  O   UNL     1      -1.028  -1.213   2.934  1.00  0.00    -0.252 OA
BRANCH   5   7
ATOM      7  C   UNL     1      -2.086   0.520   1.655  1.00  0.00     0.123 C 
BRANCH   7   8
ATOM      8  C   UNL     1      -1.884   1.768   0.777  1.00  0.00     0.020 C 
BRANCH   8   9
ATOM      9  C   UNL     1      -1.670   1.523  -0.730  1.00  0.00    -0.014 C 
ATOM     10  C   UNL     1      -0.777   0.293  -1.059  1.00  0.00     0.047 C 
ATOM     11  C   UNL     1      -1.451  -0.660  -2.058  1.00  0.00     0.122 C 
ATOM     12  C   UNL     1      -1.998   0.104  -3.246  1.00  0.00     0.037 C 
ATOM     13  C   UNL     1      -2.758   2.048  -1.748  1.00  0.00    -0.019 C 
ATOM     14  C   UNL     1      -1.423   2.724  -1.643  1.00  0.00     0.016 C 
ATOM     15  C   UNL     1      -3.158   1.039  -2.841  1.00  0.00     0.005 C 
ATOM     16  C   UNL     1      -3.895   2.990  -1.373  1.00  0.00     0.008 C 
ATOM     17  C   UNL     1      -3.873   1.685  -4.095  1.00  0.00    -0.023 C 
ATOM     18  C   UNL     1      -4.469   3.683  -2.614  1.00  0.00     0.008 C 
ATOM     19  C   UNL     1      -5.009   2.714  -3.683  1.00  0.00    -0.024 C 
ATOM     20  C   UNL     1      -4.705   0.597  -4.830  1.00  0.00     0.008 C 
ATOM     21  C   UNL     1      -2.817   2.262  -5.062  1.00  0.00     0.012 C 
ATOM     22  C   UNL     1      -6.138   1.745  -3.174  1.00  0.00    -0.002 C 
ATOM     23  C   UNL     1      -5.470   3.561  -4.894  1.00  0.00     0.012 C 
ATOM     24  C   UNL     1      -6.084   0.564  -4.166  1.00  0.00     0.005 C 
BRANCH  10  25
ATOM     25  C   UNL     1       0.666   0.625  -1.415  1.00  0.00    -0.028 C 
ATOM     26  C   UNL     1       1.670  -0.262  -1.405  1.00  0.00     0.004 C 
ENDBRANCH  10  25
BRANCH  11  27
ATOM     27  O   UNL     1      -2.507  -1.407  -1.440  1.00  0.00    -0.392 OA
ATOM     28  H   UNL     1      -3.194  -0.797  -1.127  1.00  0.00     0.210 HD
ENDBRANCH  11  27
BRANCH  22  29
ATOM     29  C   UNL     1      -7.609   2.167  -2.851  1.00  0.00    -0.010 C 
ATOM     30  C   UNL     1      -8.361   2.901  -3.963  1.00  0.00     0.008 C 
BRANCH  29  31
ATOM     31  C   UNL     1      -7.766   2.941  -1.513  1.00  0.00     0.008 C 
BRANCH  31  32
ATOM     32  C   UNL     1      -8.120   2.076  -0.287  1.00  0.00     0.027 C 
BRANCH  32  33
ATOM     33  C   UNL     1      -7.193   0.922  -0.069  1.00  0.00    -0.028 C 
ATOM     34  C   UNL     1      -6.240   0.799   0.871  1.00  0.00    -0.080 C 
ATOM     35  C   UNL     1      -5.347  -0.406   0.836  1.00  0.00     0.039 C 
ATOM     36  C   UNL     1      -5.942   1.833   1.919  1.00  0.00     0.039 C 
ENDBRANCH  32  33
ENDBRANCH  31  32
ENDBRANCH  29  31
ENDBRANCH  22  29
ENDBRANCH   8   9
ENDBRANCH   7   8
ENDBRANCH   5   7
ENDBRANCH   4   5
ENDBRANCH   3   4
ENDBRANCH   2   3
ENDBRANCH   1   2
BRANCH   1  37
ATOM     37  C   UNL     1       0.655   2.219   3.866  1.00  0.00     0.188 C 
BRANCH  37  38
ATOM     38  C   UNL     1       0.945   3.390   2.935  1.00  0.00     0.188 C 
BRANCH  38  39
ATOM     39  O   UNL     1       1.552   3.155   1.668  1.00  0.00    -0.376 OA
BRANCH  39  40
ATOM     40  C   UNL     1       1.567   4.324   0.825  1.00  0.00     0.202 C 
BRANCH  40  41
ATOM     41  C   UNL     1       2.185   5.606   1.439  1.00  0.00     0.261 C 
BRANCH  41  42
ATOM     42  O   UNL     1       1.543   6.094   2.644  1.00  0.00    -0.460 OA
BRANCH  42  43
ATOM     43  C   UNL     1       0.209   6.350   2.598  1.00  0.00     0.338 C 
ATOM     44  O   UNL     1      -0.446   6.502   1.585  1.00  0.00    -0.246 OA
BRANCH  43  45
ATOM     45  C   UNL     1      -0.382   6.108   3.960  1.00  0.00     0.060 A 
ATOM     46  C   UNL     1      -1.690   5.601   4.031  1.00  0.00     0.016 A 
ATOM     47  C   UNL     1       0.358   6.236   5.142  1.00  0.00     0.016 A 
ATOM     48  C   UNL     1      -2.273   5.282   5.268  1.00  0.00     0.010 A 
ATOM     49  C   UNL     1      -0.228   5.923   6.380  1.00  0.00     0.010 A 
ATOM     50  C   UNL     1      -1.562   5.483   6.458  1.00  0.00    -0.014 A 
BRANCH  50  51
ATOM     51  C   UNL     1      -2.277   5.488   7.770  1.00  0.00     0.031 A 
ATOM     52  C   UNL     1      -2.714   6.827   8.319  1.00  0.00     0.074 A 
ATOM     53  C   UNL     1      -2.557   4.369   8.469  1.00  0.00     0.049 A 
ATOM     54  N   UNL     1      -3.304   7.111   9.451  1.00  0.00    -0.248 NA
ATOM     55  C   UNL     1      -2.445   8.002   7.471  1.00  0.00     0.031 C 
ATOM     56  C   UNL     1      -2.243   3.002   8.061  1.00  0.00     0.029 A 
ATOM     57  N   UNL     1      -3.172   4.216   9.694  1.00  0.00    -0.354 N 
ATOM     58  C   UNL     1      -3.457   8.493   9.461  1.00  0.00     0.074 A 
ATOM     59  C   UNL     1      -2.886   8.994   8.231  1.00  0.00     0.031 C 
ATOM     60  C   UNL     1      -2.651   2.152   9.024  1.00  0.00     0.029 A 
ATOM     61  C   UNL     1      -3.229   2.911  10.134  1.00  0.00     0.049 A 
ATOM     62  H   UNL     1      -3.537   4.971  10.209  1.00  0.00     0.167 HD
ATOM     63  C   UNL     1      -4.022   9.283  10.403  1.00  0.00     0.031 A 
ATOM     64  C   UNL     1      -3.671   2.392  11.301  1.00  0.00     0.031 A 
ATOM     65  C   UNL     1      -4.602   8.804  11.628  1.00  0.00     0.049 A 
ATOM     66  C   UNL     1      -4.240   3.305  12.367  1.00  0.00     0.074 A 
ATOM     67  C   UNL     1      -5.231   9.539  12.619  1.00  0.00     0.029 A 
ATOM     68  N   UNL     1      -4.620   7.482  12.036  1.00  0.00    -0.354 N 
ATOM     69  N   UNL     1      -4.422   4.604  12.333  1.00  0.00    -0.248 NA
ATOM     70  C   UNL     1      -4.669   2.678  13.629  1.00  0.00     0.031 C 
ATOM     71  C   UNL     1      -5.570   8.670  13.658  1.00  0.00     0.029 A 
ATOM     72  C   UNL     1      -5.217   7.385  13.281  1.00  0.00     0.049 A 
ATOM     73  H   UNL     1      -4.262   6.725  11.519  1.00  0.00     0.167 HD
ATOM     74  C   UNL     1      -5.019   4.938  13.548  1.00  0.00     0.074 A 
ATOM     75  C   UNL     1      -5.181   3.707  14.290  1.00  0.00     0.031 C 
ATOM     76  C   UNL     1      -5.398   6.156  14.008  1.00  0.00     0.031 A 
BRANCH  63  77
ATOM     77  C   UNL     1      -4.017  10.769  10.171  1.00  0.00    -0.014 A 
ATOM     78  C   UNL     1      -4.882  11.365   9.237  1.00  0.00     0.010 A 
ATOM     79  C   UNL     1      -3.196  11.586  10.969  1.00  0.00     0.010 A 
ATOM     80  C   UNL     1      -4.919  12.755   9.100  1.00  0.00     0.020 A 
ATOM     81  C   UNL     1      -3.249  12.976  10.853  1.00  0.00     0.020 A 
ATOM     82  C   UNL     1      -4.107  13.552   9.914  1.00  0.00     0.054 A 
BRANCH  82  83
ATOM     83  S   UNL     1      -4.231  15.354   9.766  1.00  0.00     0.124 S 
ATOM     84  O   UNL     1      -3.598  15.594   8.471  1.00  0.00    -0.237 OA
ATOM     85  O   UNL     1      -5.674  15.579   9.810  1.00  0.00    -0.237 OA
ATOM     86  O   UNL     1      -3.490  15.851  10.922  1.00  0.00    -0.744 OA
ENDBRANCH  82  83
ENDBRANCH  63  77
BRANCH  64  87
ATOM     87  C   UNL     1      -3.556   0.927  11.579  1.00  0.00    -0.014 A 
ATOM     88  C   UNL     1      -4.702   0.129  11.759  1.00  0.00     0.010 A 
ATOM     89  C   UNL     1      -2.290   0.339  11.754  1.00  0.00     0.010 A 
ATOM     90  C   UNL     1      -4.584  -1.210  12.151  1.00  0.00     0.020 A 
ATOM     91  C   UNL     1      -2.167  -1.007  12.113  1.00  0.00     0.020 A 
ATOM     92  C   UNL     1      -3.316  -1.768  12.332  1.00  0.00     0.054 A 
BRANCH  92  93
ATOM     93  S   UNL     1      -3.182  -3.505  12.843  1.00  0.00     0.124 S 
ATOM     94  O   UNL     1      -3.572  -3.438  14.248  1.00  0.00    -0.237 OA
ATOM     95  O   UNL     1      -4.130  -4.171  11.954  1.00  0.00    -0.237 OA
ATOM     96  O   UNL     1      -1.778  -3.826  12.598  1.00  0.00    -0.744 OA
ENDBRANCH  92  93
ENDBRANCH  64  87
BRANCH  76  97
ATOM     97  C   UNL     1      -6.083   6.231  15.350  1.00  0.00    -0.014 A 
ATOM     98  C   UNL     1      -5.381   6.021  16.550  1.00  0.00     0.010 A 
ATOM     99  C   UNL     1      -7.442   6.596  15.412  1.00  0.00     0.010 A 
ATOM    100  C   UNL     1      -6.032   6.143  17.783  1.00  0.00     0.020 A 
ATOM    101  C   UNL     1      -8.088   6.748  16.642  1.00  0.00     0.020 A 
ATOM    102  C   UNL     1      -7.381   6.506  17.821  1.00  0.00     0.054 A 
BRANCH 102 103
ATOM    103  S   UNL     1      -8.191   6.703  19.433  1.00  0.00     0.124 S 
ATOM    104  O   UNL     1      -8.329   5.318  19.875  1.00  0.00    -0.237 OA
ATOM    105  O   UNL     1      -7.227   7.508  20.180  1.00  0.00    -0.237 OA
ATOM    106  O   UNL     1      -9.444   7.382  19.113  1.00  0.00    -0.744 OA
ENDBRANCH 102 103
ENDBRANCH  76  97
ENDBRANCH  50  51
ENDBRANCH  43  45
ENDBRANCH  42  43
ENDBRANCH  41  42
ENDBRANCH  40  41
ENDBRANCH  39  40
ENDBRANCH  38  39
ENDBRANCH  37  38
ENDBRANCH   1  37
TORSDOF 28
