REMARK SMILES Cc1nsc(NC(=O)[C@]2([NH3+])CCC[C@@H](C)C2)c1C(=O)OCCOCCOCCOC(=O)c1ccc(-c2c3nc(c(-c4ccc(S(=O)(=O)[O-])cc4)c4ccc([nH]4)c(-c4ccc(S(=O)(=O)[O-])cc4)c4nc(c(-c5ccc(S(=O)(=O)[O-])cc5)c5ccc2[nH]5)C=C4)C=C3)cc1
REMARK SMILES IDX 24 1 23 2 22 3 21 4 20 5 18 6 19 7 17 8 1 9 2 10 3 11 4 12
REMARK SMILES IDX 5 13 6 14 7 15 8 17 9 18 11 19 16 20 12 21 14 22 13 23 15 24
REMARK SMILES IDX 10 25 25 29 26 30 27 31 28 32 29 33 30 34 31 35 32 36 33 37
REMARK SMILES IDX 91 38 34 39 90 40 35 41 36 42 37 43 84 44 38 45 89 46 83 47
REMARK SMILES IDX 85 48 39 49 88 50 82 51 81 52 40 54 70 55 51 56 69 57 52 58
REMARK SMILES IDX 55 59 68 60 86 61 53 62 54 63 67 65 87 66 56 67 41 68 42 69
REMARK SMILES IDX 50 70 43 71 49 72 44 73 45 74 46 75 47 76 48 77 71 78 72 79
REMARK SMILES IDX 80 80 73 81 79 82 74 83 75 84 76 85 77 86 78 87 57 88 58 89
REMARK SMILES IDX 66 90 59 91 65 92 60 93 61 94 62 95 63 96 64 97
REMARK H PARENT 6 16 10 26 10 27 10 28 85 53 55 64
REMARK Flexibility Score: inf
ROOT
ATOM      1  C   UNL     1       3.718   0.054   9.367  1.00  0.00     0.188 C 
ENDROOT
BRANCH   1   2
ATOM      2  O   UNL     1       4.051  -0.681  10.536  1.00  0.00    -0.376 OA
BRANCH   2   3
ATOM      3  C   UNL     1       4.920  -1.801  10.440  1.00  0.00     0.202 C 
BRANCH   3   4
ATOM      4  C   UNL     1       4.555  -2.952   9.480  1.00  0.00     0.261 C 
BRANCH   4   5
ATOM      5  O   UNL     1       4.325  -2.560   8.113  1.00  0.00    -0.460 OA
BRANCH   5   6
ATOM      6  C   UNL     1       3.045  -2.629   7.652  1.00  0.00     0.343 C 
ATOM      7  O   UNL     1       2.120  -3.188   8.239  1.00  0.00    -0.246 OA
BRANCH   6   8
ATOM      8  C   UNL     1       2.828  -1.750   6.513  1.00  0.00     0.117 A 
ATOM      9  C   UNL     1       5.014  -2.196   5.121  1.00  0.00     0.069 C 
ATOM     10  C   UNL     1       3.727  -1.506   5.404  1.00  0.00     0.068 A 
ATOM     11  N   UNL     1       3.396  -0.495   4.602  1.00  0.00    -0.195 NA
ATOM     12  S   UNL     1       2.084   0.266   5.229  1.00  0.00    -0.017 S 
ATOM     13  C   UNL     1       1.738  -0.886   6.435  1.00  0.00     0.131 A 
BRANCH  13  14
ATOM     14  N   UNL     1       0.665  -0.780   7.308  1.00  0.00    -0.310 N 
ATOM     15  C   UNL     1      -0.578  -0.208   7.217  1.00  0.00     0.286 C 
ATOM     16  H   UNL     1       0.832  -1.207   8.179  1.00  0.00     0.171 HD
ATOM     17  O   UNL     1      -1.215  -0.118   8.275  1.00  0.00    -0.267 OA
BRANCH  15  18
ATOM     18  C   UNL     1      -1.208   0.273   5.872  1.00  0.00     0.174 C 
ATOM     19  C   UNL     1      -2.742   0.477   6.018  1.00  0.00     0.079 C 
ATOM     20  C   UNL     1      -1.038  -0.830   4.797  1.00  0.00     0.082 C 
ATOM     21  C   UNL     1      -3.419   0.829   4.682  1.00  0.00     0.007 C 
ATOM     22  C   UNL     1      -1.641  -0.520   3.427  1.00  0.00    -0.008 C 
ATOM     23  C   UNL     1      -3.126  -0.190   3.579  1.00  0.00     0.004 C 
ATOM     24  C   UNL     1      -0.862   0.550   2.659  1.00  0.00     0.008 C 
BRANCH  18  25
ATOM     25  N   UNL     1      -0.672   1.613   5.562  1.00  0.00    -0.345 N 
ATOM     26  H   UNL     1      -1.073   1.945   4.685  1.00  0.00     0.345 HD
ATOM     27  H   UNL     1       0.343   1.561   5.474  1.00  0.00     0.345 HD
ATOM     28  H   UNL     1      -0.916   2.258   6.314  1.00  0.00     0.345 HD
ENDBRANCH  18  25
ENDBRANCH  15  18
ENDBRANCH  13  14
ENDBRANCH   6   8
ENDBRANCH   5   6
ENDBRANCH   4   5
ENDBRANCH   3   4
ENDBRANCH   2   3
ENDBRANCH   1   2
BRANCH   1  29
ATOM     29  C   UNL     1       4.781   0.339   8.283  1.00  0.00     0.188 C 
BRANCH  29  30
ATOM     30  O   UNL     1       6.041  -0.268   8.503  1.00  0.00    -0.376 OA
BRANCH  30  31
ATOM     31  C   UNL     1       7.163   0.598   8.611  1.00  0.00     0.202 C 
BRANCH  31  32
ATOM     32  C   UNL     1       7.202   1.511   9.836  1.00  0.00     0.261 C 
BRANCH  32  33
ATOM     33  O   UNL     1       5.948   2.088  10.157  1.00  0.00    -0.460 OA
BRANCH  33  34
ATOM     34  C   UNL     1       5.522   3.061   9.328  1.00  0.00     0.338 C 
ATOM     35  O   UNL     1       6.061   3.438   8.303  1.00  0.00    -0.246 OA
BRANCH  34  36
ATOM     36  C   UNL     1       4.274   3.607   9.879  1.00  0.00     0.060 A 
ATOM     37  C   UNL     1       3.634   4.582   9.113  1.00  0.00     0.016 A 
ATOM     38  C   UNL     1       4.049   3.453  11.253  1.00  0.00     0.016 A 
ATOM     39  C   UNL     1       3.081   5.641   9.787  1.00  0.00     0.010 A 
ATOM     40  C   UNL     1       3.543   4.527  11.926  1.00  0.00     0.010 A 
ATOM     41  C   UNL     1       3.200   5.650  11.178  1.00  0.00    -0.014 A 
BRANCH  41  42
ATOM     42  C   UNL     1       3.128   6.924  11.847  1.00  0.00     0.031 A 
ATOM     43  C   UNL     1       1.779   7.285  12.299  1.00  0.00     0.074 A 
ATOM     44  C   UNL     1       4.252   7.612  12.123  1.00  0.00     0.049 A 
ATOM     45  N   UNL     1       1.001   8.190  11.812  1.00  0.00    -0.248 NA
ATOM     46  C   UNL     1       1.146   6.396  13.284  1.00  0.00     0.031 C 
ATOM     47  C   UNL     1       5.644   7.157  12.014  1.00  0.00     0.029 A 
ATOM     48  N   UNL     1       4.372   8.826  12.710  1.00  0.00    -0.354 N 
ATOM     49  C   UNL     1      -0.157   8.114  12.573  1.00  0.00     0.074 A 
ATOM     50  C   UNL     1      -0.103   6.854  13.267  1.00  0.00     0.031 C 
ATOM     51  C   UNL     1       6.428   7.971  12.758  1.00  0.00     0.029 A 
ATOM     52  C   UNL     1       5.612   9.053  13.288  1.00  0.00     0.049 A 
ATOM     53  H   UNL     1       3.644   9.489  12.724  1.00  0.00     0.167 HD
ATOM     54  C   UNL     1      -0.939   9.203  12.803  1.00  0.00     0.031 A 
ATOM     55  C   UNL     1       5.883   9.985  14.237  1.00  0.00     0.031 A 
ATOM     56  C   UNL     1      -0.585  10.304  11.946  1.00  0.00     0.049 A 
ATOM     57  C   UNL     1       4.768  10.974  14.211  1.00  0.00     0.074 A 
ATOM     58  C   UNL     1      -0.572  10.504  10.581  1.00  0.00     0.029 A 
ATOM     59  N   UNL     1       0.217  11.284  12.489  1.00  0.00    -0.354 N 
ATOM     60  N   UNL     1       4.527  11.765  13.200  1.00  0.00    -0.248 NA
ATOM     61  C   UNL     1       3.635  10.754  15.101  1.00  0.00     0.031 C 
ATOM     62  C   UNL     1       0.578  11.307  10.335  1.00  0.00     0.029 A 
ATOM     63  C   UNL     1       1.178  11.598  11.563  1.00  0.00     0.049 A 
ATOM     64  H   UNL     1       0.118  11.686  13.382  1.00  0.00     0.167 HD
ATOM     65  C   UNL     1       3.142  11.806  13.091  1.00  0.00     0.074 A 
ATOM     66  C   UNL     1       2.647  11.243  14.345  1.00  0.00     0.031 C 
ATOM     67  C   UNL     1       2.527  12.020  11.889  1.00  0.00     0.031 A 
BRANCH  54  68
ATOM     68  C   UNL     1      -1.731   9.398  14.071  1.00  0.00    -0.014 A 
ATOM     69  C   UNL     1      -2.547  10.539  14.183  1.00  0.00     0.010 A 
ATOM     70  C   UNL     1      -1.502   8.656  15.249  1.00  0.00     0.010 A 
ATOM     71  C   UNL     1      -3.031  10.962  15.427  1.00  0.00     0.020 A 
ATOM     72  C   UNL     1      -2.021   9.039  16.483  1.00  0.00     0.020 A 
ATOM     73  C   UNL     1      -2.744  10.217  16.571  1.00  0.00     0.054 A 
BRANCH  73  74
ATOM     74  S   UNL     1      -3.239  10.846  18.191  1.00  0.00     0.124 S 
ATOM     75  O   UNL     1      -2.386  12.023  18.324  1.00  0.00    -0.237 OA
ATOM     76  O   UNL     1      -4.662  11.108  18.000  1.00  0.00    -0.237 OA
ATOM     77  O   UNL     1      -2.928   9.741  19.096  1.00  0.00    -0.744 OA
ENDBRANCH  73  74
ENDBRANCH  54  68
BRANCH  55  78
ATOM     78  C   UNL     1       6.809   9.823  15.391  1.00  0.00    -0.014 A 
ATOM     79  C   UNL     1       7.182  10.919  16.190  1.00  0.00     0.010 A 
ATOM     80  C   UNL     1       7.138   8.534  15.863  1.00  0.00     0.010 A 
ATOM     81  C   UNL     1       7.816  10.726  17.433  1.00  0.00     0.020 A 
ATOM     82  C   UNL     1       7.779   8.334  17.090  1.00  0.00     0.020 A 
ATOM     83  C   UNL     1       8.096   9.432  17.882  1.00  0.00     0.054 A 
BRANCH  83  84
ATOM     84  S   UNL     1       8.763   9.180  19.553  1.00  0.00     0.124 S 
ATOM     85  O   UNL     1      10.128   9.682  19.423  1.00  0.00    -0.237 OA
ATOM     86  O   UNL     1       7.868   9.986  20.378  1.00  0.00    -0.237 OA
ATOM     87  O   UNL     1       8.651   7.736  19.754  1.00  0.00    -0.744 OA
ENDBRANCH  83  84
ENDBRANCH  55  78
BRANCH  67  88
ATOM     88  C   UNL     1       3.364  12.486  10.719  1.00  0.00    -0.014 A 
ATOM     89  C   UNL     1       4.387  11.707  10.142  1.00  0.00     0.010 A 
ATOM     90  C   UNL     1       2.956  13.656  10.055  1.00  0.00     0.010 A 
ATOM     91  C   UNL     1       4.986  12.095   8.934  1.00  0.00     0.020 A 
ATOM     92  C   UNL     1       3.537  14.038   8.844  1.00  0.00     0.020 A 
ATOM     93  C   UNL     1       4.551  13.256   8.289  1.00  0.00     0.054 A 
BRANCH  93  94
ATOM     94  S   UNL     1       5.262  13.703   6.679  1.00  0.00     0.124 S 
ATOM     95  O   UNL     1       6.613  14.127   7.036  1.00  0.00    -0.237 OA
ATOM     96  O   UNL     1       5.172  12.455   5.925  1.00  0.00    -0.237 OA
ATOM     97  O   UNL     1       4.386  14.771   6.196  1.00  0.00    -0.744 OA
ENDBRANCH  93  94
ENDBRANCH  67  88
ENDBRANCH  41  42
ENDBRANCH  34  36
ENDBRANCH  33  34
ENDBRANCH  32  33
ENDBRANCH  31  32
ENDBRANCH  30  31
ENDBRANCH  29  30
ENDBRANCH   1  29
TORSDOF 23
