REMARK SMILES C[C@H](C(=O)OCCOCCOCCOC(=O)c1ccc(-c2c3nc(c(-c4ccc(S(=O)(=O)[O-])cc4)c4ccc([nH]4)c(-c4ccc(S(=O)(=O)[O-])cc4)c4nc(c(-c5ccc(S(=O)(=O)[O-])cc5)c5ccc2[nH]5)C=C4)C=C3)cc1)c1ccc2c(c1)[nH]c1ccc(Cl)cc12
REMARK SMILES IDX 10 1 9 2 8 3 7 4 6 5 5 6 3 7 4 8 2 9 1 10 77 11 78 12 82 13
REMARK SMILES IDX 79 14 81 15 80 16 83 17 90 18 84 19 89 21 85 22 87 23 86 24
REMARK SMILES IDX 88 25 11 26 12 27 13 28 14 29 15 30 16 31 17 32 18 33 76 34
REMARK SMILES IDX 19 35 75 36 20 37 21 38 22 39 69 40 23 41 74 42 68 43 70 44
REMARK SMILES IDX 24 45 73 46 67 47 66 48 25 50 55 51 36 52 54 53 37 54 40 55
REMARK SMILES IDX 53 56 71 57 38 58 39 59 52 61 72 62 41 63 26 64 27 65 35 66
REMARK SMILES IDX 28 67 34 68 29 69 30 70 31 71 32 72 33 73 56 74 57 75 65 76
REMARK SMILES IDX 58 77 64 78 59 79 60 80 61 81 62 82 63 83 42 84 43 85 51 86
REMARK SMILES IDX 44 87 50 88 45 89 46 90 47 91 48 92 49 93
REMARK H PARENT 83 20 70 49 40 60
REMARK Flexibility Score: inf
ROOT
ATOM      1  C   UNL     1      -0.933  -0.172   1.814  1.00  0.00     0.188 C 
ENDROOT
BRANCH   1   2
ATOM      2  C   UNL     1       0.310  -1.081   1.774  1.00  0.00     0.188 C 
BRANCH   2   3
ATOM      3  O   UNL     1       1.490  -0.653   2.454  1.00  0.00    -0.376 OA
BRANCH   3   4
ATOM      4  C   UNL     1       1.787   0.736   2.444  1.00  0.00     0.202 C 
BRANCH   4   5
ATOM      5  C   UNL     1       2.139   1.307   1.071  1.00  0.00     0.261 C 
BRANCH   5   6
ATOM      6  O   UNL     1       1.129   1.025   0.080  1.00  0.00    -0.463 OA
BRANCH   6   7
ATOM      7  C   UNL     1       1.569   1.071  -1.198  1.00  0.00     0.313 C 
ATOM      8  O   UNL     1       2.688   1.481  -1.502  1.00  0.00    -0.252 OA
BRANCH   7   9
ATOM      9  C   UNL     1       0.601   0.536  -2.252  1.00  0.00     0.126 C 
ATOM     10  C   UNL     1       1.315  -0.625  -2.961  1.00  0.00     0.025 C 
BRANCH   9  11
ATOM     11  C   UNL     1      -0.855   0.208  -1.881  1.00  0.00    -0.032 A 
ATOM     12  C   UNL     1      -1.787   1.250  -1.731  1.00  0.00     0.005 A 
ATOM     13  C   UNL     1      -1.334  -1.117  -1.831  1.00  0.00     0.031 A 
ATOM     14  C   UNL     1      -3.164   1.002  -1.545  1.00  0.00     0.011 A 
ATOM     15  C   UNL     1      -2.711  -1.347  -1.650  1.00  0.00     0.047 A 
ATOM     16  C   UNL     1      -3.640  -0.324  -1.490  1.00  0.00     0.007 A 
ATOM     17  N   UNL     1      -3.413  -2.530  -1.604  1.00  0.00    -0.355 N 
ATOM     18  C   UNL     1      -4.919  -0.939  -1.256  1.00  0.00     0.009 A 
ATOM     19  C   UNL     1      -4.711  -2.317  -1.214  1.00  0.00     0.047 A 
ATOM     20  H   UNL     1      -3.033  -3.412  -1.823  1.00  0.00     0.167 HD
ATOM     21  C   UNL     1      -6.227  -0.461  -1.022  1.00  0.00     0.031 A 
ATOM     22  C   UNL     1      -5.700  -3.237  -0.847  1.00  0.00     0.028 A 
ATOM     23  C   UNL     1      -7.236  -1.374  -0.682  1.00  0.00     0.041 A 
ATOM     24  C   UNL     1      -6.972  -2.736  -0.564  1.00  0.00     0.022 A 
ATOM     25  Cl  UNL     1      -8.834  -0.795  -0.392  1.00  0.00    -0.084 Cl
ENDBRANCH   9  11
ENDBRANCH   7   9
ENDBRANCH   6   7
ENDBRANCH   5   6
ENDBRANCH   4   5
ENDBRANCH   3   4
ENDBRANCH   2   3
ENDBRANCH   1   2
BRANCH   1  26
ATOM     26  O   UNL     1      -1.099   0.459   3.081  1.00  0.00    -0.376 OA
BRANCH  26  27
ATOM     27  C   UNL     1      -2.387   0.268   3.649  1.00  0.00     0.202 C 
BRANCH  27  28
ATOM     28  C   UNL     1      -2.412  -1.010   4.484  1.00  0.00     0.261 C 
BRANCH  28  29
ATOM     29  O   UNL     1      -2.054  -2.183   3.730  1.00  0.00    -0.460 OA
BRANCH  29  30
ATOM     30  C   UNL     1      -3.049  -2.751   3.015  1.00  0.00     0.338 C 
ATOM     31  O   UNL     1      -4.203  -2.378   2.937  1.00  0.00    -0.246 OA
BRANCH  30  32
ATOM     32  C   UNL     1      -2.497  -3.908   2.286  1.00  0.00     0.060 A 
ATOM     33  C   UNL     1      -1.976  -3.729   1.004  1.00  0.00     0.016 A 
ATOM     34  C   UNL     1      -2.579  -5.184   2.833  1.00  0.00     0.016 A 
ATOM     35  C   UNL     1      -1.612  -4.829   0.226  1.00  0.00     0.010 A 
ATOM     36  C   UNL     1      -2.185  -6.286   2.065  1.00  0.00     0.010 A 
ATOM     37  C   UNL     1      -1.750  -6.123   0.736  1.00  0.00    -0.014 A 
BRANCH  37  38
ATOM     38  C   UNL     1      -1.585  -7.311  -0.145  1.00  0.00     0.031 A 
ATOM     39  C   UNL     1      -2.793  -8.159  -0.457  1.00  0.00     0.074 A 
ATOM     40  C   UNL     1      -0.395  -7.633  -0.688  1.00  0.00     0.049 A 
ATOM     41  N   UNL     1      -2.859  -9.334  -1.026  1.00  0.00    -0.248 NA
ATOM     42  C   UNL     1      -4.102  -7.601  -0.074  1.00  0.00     0.031 C 
ATOM     43  C   UNL     1       0.838  -6.856  -0.563  1.00  0.00     0.029 A 
ATOM     44  N   UNL     1      -0.030  -8.718  -1.448  1.00  0.00    -0.354 N 
ATOM     45  C   UNL     1      -4.206  -9.681  -1.023  1.00  0.00     0.074 A 
ATOM     46  C   UNL     1      -4.923  -8.588  -0.401  1.00  0.00     0.031 C 
ATOM     47  C   UNL     1       1.824  -7.492  -1.218  1.00  0.00     0.029 A 
ATOM     48  C   UNL     1       1.313  -8.756  -1.743  1.00  0.00     0.049 A 
ATOM     49  H   UNL     1      -0.669  -9.403  -1.753  1.00  0.00     0.167 HD
ATOM     50  C   UNL     1      -4.793 -10.811  -1.485  1.00  0.00     0.031 A 
ATOM     51  C   UNL     1       2.059  -9.720  -2.318  1.00  0.00     0.031 A 
ATOM     52  C   UNL     1      -4.081 -11.893  -2.110  1.00  0.00     0.049 A 
ATOM     53  C   UNL     1       1.406 -11.008  -2.744  1.00  0.00     0.074 A 
ATOM     54  C   UNL     1      -4.581 -13.091  -2.591  1.00  0.00     0.029 A 
ATOM     55  N   UNL     1      -2.715 -11.907  -2.346  1.00  0.00    -0.354 N 
ATOM     56  N   UNL     1       0.142 -11.354  -2.673  1.00  0.00    -0.248 NA
ATOM     57  C   UNL     1       2.282 -12.040  -3.317  1.00  0.00     0.031 C 
ATOM     58  C   UNL     1      -3.510 -13.847  -3.079  1.00  0.00     0.029 A 
ATOM     59  C   UNL     1      -2.352 -13.097  -2.952  1.00  0.00     0.049 A 
ATOM     60  H   UNL     1      -2.095 -11.177  -2.118  1.00  0.00     0.167 HD
ATOM     61  C   UNL     1       0.070 -12.637  -3.207  1.00  0.00     0.074 A 
ATOM     62  C   UNL     1       1.414 -12.999  -3.610  1.00  0.00     0.031 C 
ATOM     63  C   UNL     1      -1.011 -13.443  -3.348  1.00  0.00     0.031 A 
BRANCH  50  64
ATOM     64  C   UNL     1      -6.275 -10.957  -1.271  1.00  0.00    -0.014 A 
ATOM     65  C   UNL     1      -7.203 -10.216  -2.024  1.00  0.00     0.010 A 
ATOM     66  C   UNL     1      -6.745 -11.866  -0.305  1.00  0.00     0.010 A 
ATOM     67  C   UNL     1      -8.574 -10.351  -1.784  1.00  0.00     0.020 A 
ATOM     68  C   UNL     1      -8.115 -12.021  -0.079  1.00  0.00     0.020 A 
ATOM     69  C   UNL     1      -9.020 -11.247  -0.807  1.00  0.00     0.054 A 
BRANCH  69  70
ATOM     70  S   UNL     1     -10.804 -11.406  -0.516  1.00  0.00     0.124 S 
ATOM     71  O   UNL     1     -11.097 -10.178   0.218  1.00  0.00    -0.237 OA
ATOM     72  O   UNL     1     -11.346 -11.473  -1.870  1.00  0.00    -0.237 OA
ATOM     73  O   UNL     1     -10.920 -12.639   0.260  1.00  0.00    -0.744 OA
ENDBRANCH  69  70
ENDBRANCH  50  64
BRANCH  51  74
ATOM     74  C   UNL     1       3.530  -9.531  -2.462  1.00  0.00    -0.014 A 
ATOM     75  C   UNL     1       4.111  -9.357  -3.730  1.00  0.00     0.010 A 
ATOM     76  C   UNL     1       4.356  -9.517  -1.323  1.00  0.00     0.010 A 
ATOM     77  C   UNL     1       5.493  -9.177  -3.855  1.00  0.00     0.020 A 
ATOM     78  C   UNL     1       5.732  -9.309  -1.442  1.00  0.00     0.020 A 
ATOM     79  C   UNL     1       6.294  -9.150  -2.710  1.00  0.00     0.054 A 
BRANCH  79  80
ATOM     80  S   UNL     1       8.074  -8.846  -2.889  1.00  0.00     0.124 S 
ATOM     81  O   UNL     1       8.553 -10.136  -3.375  1.00  0.00    -0.237 OA
ATOM     82  O   UNL     1       8.112  -7.751  -3.855  1.00  0.00    -0.237 OA
ATOM     83  O   UNL     1       8.496  -8.488  -1.536  1.00  0.00    -0.744 OA
ENDBRANCH  79  80
ENDBRANCH  51  74
BRANCH  63  84
ATOM     84  C   UNL     1      -0.797 -14.784  -3.999  1.00  0.00    -0.014 A 
ATOM     85  C   UNL     1      -0.172 -15.837  -3.310  1.00  0.00     0.010 A 
ATOM     86  C   UNL     1      -1.283 -15.006  -5.300  1.00  0.00     0.010 A 
ATOM     87  C   UNL     1      -0.011 -17.083  -3.923  1.00  0.00     0.020 A 
ATOM     88  C   UNL     1      -1.146 -16.257  -5.907  1.00  0.00     0.020 A 
ATOM     89  C   UNL     1      -0.498 -17.285  -5.218  1.00  0.00     0.054 A 
BRANCH  89  90
ATOM     90  S   UNL     1      -0.318 -18.923  -5.977  1.00  0.00     0.124 S 
ATOM     91  O   UNL     1       1.097 -18.937  -6.335  1.00  0.00    -0.237 OA
ATOM     92  O   UNL     1      -0.701 -19.824  -4.893  1.00  0.00    -0.237 OA
ATOM     93  O   UNL     1      -1.247 -18.886  -7.104  1.00  0.00    -0.744 OA
ENDBRANCH  89  90
ENDBRANCH  63  84
ENDBRANCH  37  38
ENDBRANCH  30  32
ENDBRANCH  29  30
ENDBRANCH  28  29
ENDBRANCH  27  28
ENDBRANCH  26  27
ENDBRANCH   1  26
TORSDOF 21
