REMARK SMILES C[C@@H](C(=O)OCCOCCOCCOC(=O)c1ccc(-c2c3nc(c(-c4ccc(S(=O)(=O)[O-])cc4)c4ccc([nH]4)c(-c4ccc(S(=O)(=O)[O-])cc4)c4nc(c(-c5ccc(S(=O)(=O)[O-])cc5)c5ccc2[nH]5)C=C4)C=C3)cc1)c1ccc(C[C@H]2CCCC2=O)c(-c2ccc(F)cc2)c1
REMARK SMILES IDX 9 1 8 2 7 3 6 4 5 5 3 6 4 7 2 8 1 9 77 10 78 11 96 12 79 13
REMARK SMILES IDX 88 14 80 15 89 16 90 17 95 18 91 19 94 20 92 21 93 22 81 23
REMARK SMILES IDX 82 24 83 25 86 26 84 27 85 28 87 29 10 30 11 31 12 32 13 33
REMARK SMILES IDX 14 34 15 35 16 36 17 37 18 38 76 39 19 40 75 41 20 42 21 43
REMARK SMILES IDX 22 44 69 45 23 46 74 47 68 48 70 49 24 50 73 51 67 52 66 53
REMARK SMILES IDX 25 55 55 56 36 57 54 58 37 59 40 60 53 61 71 62 38 63 39 64
REMARK SMILES IDX 52 66 72 67 41 68 26 69 27 70 35 71 28 72 34 73 29 74 30 75
REMARK SMILES IDX 31 76 32 77 33 78 56 79 57 80 65 81 58 82 64 83 59 84 60 85
REMARK SMILES IDX 61 86 62 87 63 88 42 89 43 90 51 91 44 92 50 93 45 94 46 95
REMARK SMILES IDX 47 96 48 97 49 98
REMARK H PARENT 70 54 40 65
REMARK Flexibility Score: inf
ROOT
ATOM      1  C   UNL     1       0.802   3.956   0.244  1.00  0.00     0.188 C 
ENDROOT
BRANCH   1   2
ATOM      2  O   UNL     1       1.759   4.912   0.631  1.00  0.00    -0.376 OA
BRANCH   2   3
ATOM      3  C   UNL     1       2.737   4.543   1.591  1.00  0.00     0.202 C 
BRANCH   3   4
ATOM      4  C   UNL     1       2.685   3.264   2.462  1.00  0.00     0.261 C 
BRANCH   4   5
ATOM      5  O   UNL     1       2.178   2.059   1.858  1.00  0.00    -0.463 OA
BRANCH   5   6
ATOM      6  C   UNL     1       1.392   1.276   2.658  1.00  0.00     0.313 C 
ATOM      7  O   UNL     1       1.150   1.544   3.832  1.00  0.00    -0.252 OA
BRANCH   6   8
ATOM      8  C   UNL     1       0.772   0.045   1.962  1.00  0.00     0.126 C 
ATOM      9  C   UNL     1       1.489  -0.475   0.713  1.00  0.00     0.025 C 
BRANCH   8  10
ATOM     10  C   UNL     1      -0.735   0.154   1.740  1.00  0.00    -0.033 A 
ATOM     11  C   UNL     1      -1.370   1.381   1.615  1.00  0.00     0.005 A 
ATOM     12  C   UNL     1      -1.547  -0.987   1.666  1.00  0.00     0.013 A 
ATOM     13  C   UNL     1      -2.740   1.482   1.443  1.00  0.00     0.004 A 
ATOM     14  C   UNL     1      -2.967  -0.911   1.622  1.00  0.00    -0.015 A 
ATOM     15  C   UNL     1      -3.567   0.365   1.567  1.00  0.00    -0.039 A 
BRANCH  14  16
ATOM     16  C   UNL     1      -3.734  -2.168   1.710  1.00  0.00    -0.018 A 
ATOM     17  C   UNL     1      -4.681  -2.538   0.739  1.00  0.00     0.012 A 
ATOM     18  C   UNL     1      -3.518  -3.042   2.793  1.00  0.00     0.012 A 
ATOM     19  C   UNL     1      -5.412  -3.724   0.868  1.00  0.00     0.040 A 
ATOM     20  C   UNL     1      -4.235  -4.231   2.915  1.00  0.00     0.040 A 
ATOM     21  C   UNL     1      -5.182  -4.557   1.955  1.00  0.00     0.123 A 
ATOM     22  F   UNL     1      -5.882  -5.692   2.082  1.00  0.00    -0.207 F 
ENDBRANCH  14  16
BRANCH  15  23
ATOM     23  C   UNL     1      -5.044   0.663   1.747  1.00  0.00     0.047 C 
BRANCH  23  24
ATOM     24  C   UNL     1      -5.448   1.275   3.107  1.00  0.00     0.060 C 
ATOM     25  C   UNL     1      -5.339   0.303   4.293  1.00  0.00     0.012 C 
ATOM     26  C   UNL     1      -4.645   2.469   3.622  1.00  0.00     0.136 C 
ATOM     27  C   UNL     1      -4.162   0.784   5.136  1.00  0.00     0.009 C 
ATOM     28  C   UNL     1      -4.211   2.294   5.044  1.00  0.00     0.076 C 
ATOM     29  O   UNL     1      -4.378   3.485   2.992  1.00  0.00    -0.299 OA
ENDBRANCH  23  24
ENDBRANCH  15  23
ENDBRANCH   8  10
ENDBRANCH   6   8
ENDBRANCH   5   6
ENDBRANCH   4   5
ENDBRANCH   3   4
ENDBRANCH   2   3
ENDBRANCH   1   2
BRANCH   1  30
ATOM     30  C   UNL     1       1.262   2.829  -0.694  1.00  0.00     0.188 C 
BRANCH  30  31
ATOM     31  O   UNL     1       2.571   2.819  -1.227  1.00  0.00    -0.376 OA
BRANCH  31  32
ATOM     32  C   UNL     1       3.060   4.001  -1.836  1.00  0.00     0.202 C 
BRANCH  32  33
ATOM     33  C   UNL     1       2.209   4.813  -2.831  1.00  0.00     0.261 C 
BRANCH  33  34
ATOM     34  O   UNL     1       0.789   4.838  -2.620  1.00  0.00    -0.460 OA
BRANCH  34  35
ATOM     35  C   UNL     1       0.064   4.020  -3.421  1.00  0.00     0.338 C 
ATOM     36  O   UNL     1       0.500   3.271  -4.291  1.00  0.00    -0.246 OA
BRANCH  35  37
ATOM     37  C   UNL     1      -1.349   4.017  -2.992  1.00  0.00     0.060 A 
ATOM     38  C   UNL     1      -1.922   2.822  -2.530  1.00  0.00     0.016 A 
ATOM     39  C   UNL     1      -2.129   5.168  -3.107  1.00  0.00     0.016 A 
ATOM     40  C   UNL     1      -3.281   2.770  -2.207  1.00  0.00     0.010 A 
ATOM     41  C   UNL     1      -3.496   5.106  -2.812  1.00  0.00     0.010 A 
ATOM     42  C   UNL     1      -4.087   3.901  -2.390  1.00  0.00    -0.014 A 
BRANCH  42  43
ATOM     43  C   UNL     1      -5.566   3.788  -2.295  1.00  0.00     0.031 A 
ATOM     44  C   UNL     1      -6.362   3.572  -3.548  1.00  0.00     0.074 A 
ATOM     45  C   UNL     1      -6.209   3.914  -1.121  1.00  0.00     0.049 A 
ATOM     46  N   UNL     1      -7.660   3.498  -3.694  1.00  0.00    -0.248 NA
ATOM     47  C   UNL     1      -5.602   3.469  -4.802  1.00  0.00     0.031 C 
ATOM     48  C   UNL     1      -5.561   4.195   0.150  1.00  0.00     0.029 A 
ATOM     49  N   UNL     1      -7.547   3.832  -0.808  1.00  0.00    -0.354 N 
ATOM     50  C   UNL     1      -7.877   3.394  -5.060  1.00  0.00     0.074 A 
ATOM     51  C   UNL     1      -6.577   3.407  -5.698  1.00  0.00     0.031 C 
ATOM     52  C   UNL     1      -6.499   4.231   1.110  1.00  0.00     0.029 A 
ATOM     53  C   UNL     1      -7.810   3.980   0.534  1.00  0.00     0.049 A 
ATOM     54  H   UNL     1      -8.250   3.681  -1.481  1.00  0.00     0.167 HD
ATOM     55  C   UNL     1      -9.055   3.322  -5.724  1.00  0.00     0.031 A 
ATOM     56  C   UNL     1      -8.963   3.924   1.233  1.00  0.00     0.031 A 
ATOM     57  C   UNL     1     -10.348   3.335  -5.090  1.00  0.00     0.049 A 
ATOM     58  C   UNL     1     -10.255   3.778   0.478  1.00  0.00     0.074 A 
ATOM     59  C   UNL     1     -11.595   3.252  -5.687  1.00  0.00     0.029 A 
ATOM     60  N   UNL     1     -10.567   3.446  -3.725  1.00  0.00    -0.354 N 
ATOM     61  N   UNL     1     -10.440   3.645  -0.813  1.00  0.00    -0.248 NA
ATOM     62  C   UNL     1     -11.495   3.813   1.266  1.00  0.00     0.031 C 
ATOM     63  C   UNL     1     -12.568   3.370  -4.689  1.00  0.00     0.029 A 
ATOM     64  C   UNL     1     -11.929   3.451  -3.463  1.00  0.00     0.049 A 
ATOM     65  H   UNL     1      -9.861   3.511  -3.043  1.00  0.00     0.167 HD
ATOM     66  C   UNL     1     -11.816   3.594  -0.993  1.00  0.00     0.074 A 
ATOM     67  C   UNL     1     -12.415   3.656   0.324  1.00  0.00     0.031 C 
ATOM     68  C   UNL     1     -12.519   3.526  -2.150  1.00  0.00     0.031 A 
BRANCH  55  69
ATOM     69  C   UNL     1      -8.995   3.280  -7.227  1.00  0.00    -0.014 A 
ATOM     70  C   UNL     1      -8.515   2.149  -7.909  1.00  0.00     0.010 A 
ATOM     71  C   UNL     1      -9.455   4.385  -7.967  1.00  0.00     0.010 A 
ATOM     72  C   UNL     1      -8.462   2.137  -9.305  1.00  0.00     0.020 A 
ATOM     73  C   UNL     1      -9.434   4.364  -9.364  1.00  0.00     0.020 A 
ATOM     74  C   UNL     1      -8.923   3.245 -10.023  1.00  0.00     0.054 A 
BRANCH  74  75
ATOM     75  S   UNL     1      -8.872   3.187 -11.834  1.00  0.00     0.124 S 
ATOM     76  O   UNL     1      -7.439   3.288 -12.098  1.00  0.00    -0.237 OA
ATOM     77  O   UNL     1      -9.475   1.889 -12.128  1.00  0.00    -0.237 OA
ATOM     78  O   UNL     1      -9.663   4.345 -12.242  1.00  0.00    -0.744 OA
ENDBRANCH  74  75
ENDBRANCH  55  69
BRANCH  56  79
ATOM     79  C   UNL     1      -8.960   4.001   2.726  1.00  0.00    -0.014 A 
ATOM     80  C   UNL     1      -9.383   2.898   3.493  1.00  0.00     0.010 A 
ATOM     81  C   UNL     1      -8.534   5.163   3.395  1.00  0.00     0.010 A 
ATOM     82  C   UNL     1      -9.389   2.960   4.891  1.00  0.00     0.020 A 
ATOM     83  C   UNL     1      -8.499   5.215   4.792  1.00  0.00     0.020 A 
ATOM     84  C   UNL     1      -8.938   4.116   5.532  1.00  0.00     0.054 A 
BRANCH  84  85
ATOM     85  S   UNL     1      -8.885   4.147   7.345  1.00  0.00     0.124 S 
ATOM     86  O   UNL     1     -10.298   4.266   7.689  1.00  0.00    -0.237 OA
ATOM     87  O   UNL     1      -8.261   2.863   7.659  1.00  0.00    -0.237 OA
ATOM     88  O   UNL     1      -8.064   5.317   7.644  1.00  0.00    -0.744 OA
ENDBRANCH  84  85
ENDBRANCH  56  79
BRANCH  68  89
ATOM     89  C   UNL     1     -14.021   3.500  -2.045  1.00  0.00    -0.014 A 
ATOM     90  C   UNL     1     -14.747   4.639  -1.653  1.00  0.00     0.010 A 
ATOM     91  C   UNL     1     -14.720   2.328  -2.388  1.00  0.00     0.010 A 
ATOM     92  C   UNL     1     -16.141   4.595  -1.570  1.00  0.00     0.020 A 
ATOM     93  C   UNL     1     -16.115   2.289  -2.336  1.00  0.00     0.020 A 
ATOM     94  C   UNL     1     -16.816   3.420  -1.913  1.00  0.00     0.054 A 
BRANCH  94  95
ATOM     95  S   UNL     1     -18.628   3.400  -1.835  1.00  0.00     0.124 S 
ATOM     96  O   UNL     1     -18.870   3.404  -0.394  1.00  0.00    -0.237 OA
ATOM     97  O   UNL     1     -18.992   4.628  -2.537  1.00  0.00    -0.237 OA
ATOM     98  O   UNL     1     -18.992   2.163  -2.523  1.00  0.00    -0.744 OA
ENDBRANCH  94  95
ENDBRANCH  68  89
ENDBRANCH  42  43
ENDBRANCH  35  37
ENDBRANCH  34  35
ENDBRANCH  33  34
ENDBRANCH  32  33
ENDBRANCH  31  32
ENDBRANCH  30  31
ENDBRANCH   1  30
TORSDOF 24
