REMARK SMILES Nc1cc(C(=O)OCCOCCOCCOC(=O)c2ccc(-c3c4nc(c(-c5ccc(S(=O)(=O)[O-])cc5)c5ccc([nH]5)c(-c5ccc(S(=O)(=O)[O-])cc5)c5nc(c(-c6ccc(S(=O)(=O)[O-])cc6)c6ccc3[nH]6)C=C5)C=C4)cc2)ccc1N1CC2(CCOCC2)C1
REMARK SMILES IDX 12 1 11 2 10 3 9 4 8 5 7 6 5 7 6 8 4 9 2 10 3 11 81 12 80 13
REMARK SMILES IDX 79 14 1 15 82 18 83 19 90 20 84 21 85 22 89 23 86 24 88 25
REMARK SMILES IDX 87 26 13 27 14 28 15 29 16 30 17 31 18 32 19 33 20 34 78 35
REMARK SMILES IDX 21 36 77 37 22 38 23 39 24 40 71 41 25 42 76 43 70 44 72 45
REMARK SMILES IDX 26 46 75 47 69 48 68 49 27 51 57 52 38 53 56 54 39 55 42 56
REMARK SMILES IDX 55 57 73 58 40 59 41 60 54 62 74 63 43 64 28 65 29 66 37 67
REMARK SMILES IDX 30 68 36 69 31 70 32 71 33 72 34 73 35 74 58 75 59 76 67 77
REMARK SMILES IDX 60 78 66 79 61 80 62 81 63 82 64 83 65 84 44 85 45 86 53 87
REMARK SMILES IDX 46 88 52 89 47 90 48 91 49 92 50 93 51 94
REMARK H PARENT 1 16 1 17 72 50 42 61
REMARK Flexibility Score: inf
ROOT
ATOM      1  C   UNL     1      -2.191  -2.605  -2.204  1.00  0.00     0.188 C 
ENDROOT
BRANCH   1   2
ATOM      2  C   UNL     1      -1.624  -3.817  -1.435  1.00  0.00     0.188 C 
BRANCH   2   3
ATOM      3  O   UNL     1      -2.466  -4.897  -1.080  1.00  0.00    -0.376 OA
BRANCH   3   4
ATOM      4  C   UNL     1      -3.626  -4.674  -0.297  1.00  0.00     0.202 C 
BRANCH   4   5
ATOM      5  C   UNL     1      -3.643  -3.707   0.894  1.00  0.00     0.261 C 
BRANCH   5   6
ATOM      6  O   UNL     1      -3.044  -2.428   0.649  1.00  0.00    -0.460 OA
BRANCH   6   7
ATOM      7  C   UNL     1      -1.967  -2.150   1.434  1.00  0.00     0.338 C 
ATOM      8  O   UNL     1      -1.524  -2.827   2.333  1.00  0.00    -0.246 OA
BRANCH   7   9
ATOM      9  C   UNL     1      -1.272  -0.949   0.923  1.00  0.00     0.062 A 
ATOM     10  C   UNL     1       0.860   0.054   0.274  1.00  0.00     0.056 A 
ATOM     11  C   UNL     1       0.103  -1.052   0.686  1.00  0.00     0.043 A 
ATOM     12  C   UNL     1       0.208   1.293   0.090  1.00  0.00     0.060 A 
ATOM     13  C   UNL     1      -1.190   1.362   0.297  1.00  0.00     0.029 A 
ATOM     14  C   UNL     1      -1.935   0.250   0.696  1.00  0.00     0.018 A 
BRANCH  10  15
ATOM     15  N   UNL     1       2.207  -0.162   0.006  1.00  0.00    -0.397 N 
ATOM     16  H   UNL     1       2.602  -1.051   0.156  1.00  0.00     0.156 HD
ATOM     17  H   UNL     1       2.765   0.574  -0.334  1.00  0.00     0.156 HD
ENDBRANCH  10  15
BRANCH  12  18
ATOM     18  N   UNL     1       0.857   2.518  -0.191  1.00  0.00    -0.369 N 
ATOM     19  C   UNL     1       1.998   2.891  -0.961  1.00  0.00     0.125 C 
ATOM     20  C   UNL     1       1.033   3.559   0.782  1.00  0.00     0.125 C 
ATOM     21  C   UNL     1       2.446   3.794   0.216  1.00  0.00     0.010 C 
ATOM     22  C   UNL     1       2.739   5.260  -0.109  1.00  0.00     0.039 C 
ATOM     23  C   UNL     1       3.564   3.223   1.102  1.00  0.00     0.039 C 
ATOM     24  C   UNL     1       4.131   5.369  -0.720  1.00  0.00     0.161 C 
ATOM     25  C   UNL     1       4.905   3.440   0.411  1.00  0.00     0.161 C 
ATOM     26  O   UNL     1       5.109   4.836   0.174  1.00  0.00    -0.381 OA
ENDBRANCH  12  18
ENDBRANCH   7   9
ENDBRANCH   6   7
ENDBRANCH   5   6
ENDBRANCH   4   5
ENDBRANCH   3   4
ENDBRANCH   2   3
ENDBRANCH   1   2
BRANCH   1  27
ATOM     27  O   UNL     1      -3.566  -2.548  -2.509  1.00  0.00    -0.376 OA
BRANCH  27  28
ATOM     28  C   UNL     1      -4.142  -3.431  -3.454  1.00  0.00     0.202 C 
BRANCH  28  29
ATOM     29  C   UNL     1      -3.383  -4.181  -4.561  1.00  0.00     0.261 C 
BRANCH  29  30
ATOM     30  O   UNL     1      -2.001  -4.462  -4.346  1.00  0.00    -0.460 OA
BRANCH  30  31
ATOM     31  C   UNL     1      -1.144  -3.732  -5.103  1.00  0.00     0.338 C 
ATOM     32  O   UNL     1      -1.425  -2.852  -5.899  1.00  0.00    -0.246 OA
BRANCH  31  33
ATOM     33  C   UNL     1       0.236  -4.053  -4.702  1.00  0.00     0.060 A 
ATOM     34  C   UNL     1       1.005  -3.061  -4.080  1.00  0.00     0.016 A 
ATOM     35  C   UNL     1       0.778  -5.308  -4.980  1.00  0.00     0.016 A 
ATOM     36  C   UNL     1       2.335  -3.318  -3.750  1.00  0.00     0.010 A 
ATOM     37  C   UNL     1       2.116  -5.556  -4.667  1.00  0.00     0.010 A 
ATOM     38  C   UNL     1       2.908  -4.554  -4.076  1.00  0.00    -0.014 A 
BRANCH  38  39
ATOM     39  C   UNL     1       4.372  -4.748  -3.952  1.00  0.00     0.031 A 
ATOM     40  C   UNL     1       5.226  -4.588  -5.181  1.00  0.00     0.074 A 
ATOM     41  C   UNL     1       4.935  -5.059  -2.770  1.00  0.00     0.049 A 
ATOM     42  N   UNL     1       6.513  -4.766  -5.322  1.00  0.00    -0.248 NA
ATOM     43  C   UNL     1       4.535  -4.174  -6.413  1.00  0.00     0.031 C 
ATOM     44  C   UNL     1       4.221  -5.199  -1.501  1.00  0.00     0.029 A 
ATOM     45  N   UNL     1       6.244  -5.323  -2.451  1.00  0.00    -0.354 N 
ATOM     46  C   UNL     1       6.785  -4.500  -6.660  1.00  0.00     0.074 A 
ATOM     47  C   UNL     1       5.527  -4.169  -7.291  1.00  0.00     0.031 C 
ATOM     48  C   UNL     1       5.101  -5.537  -0.542  1.00  0.00     0.029 A 
ATOM     49  C   UNL     1       6.431  -5.671  -1.134  1.00  0.00     0.049 A 
ATOM     50  H   UNL     1       6.979  -5.268  -3.103  1.00  0.00     0.167 HD
ATOM     51  C   UNL     1       7.976  -4.528  -7.303  1.00  0.00     0.031 A 
ATOM     52  C   UNL     1       7.543  -6.078  -0.489  1.00  0.00     0.031 A 
ATOM     53  C   UNL     1       9.224  -4.870  -6.675  1.00  0.00     0.049 A 
ATOM     54  C   UNL     1       8.844  -6.176  -1.248  1.00  0.00     0.074 A 
ATOM     55  C   UNL     1      10.488  -4.905  -7.239  1.00  0.00     0.029 A 
ATOM     56  N   UNL     1       9.368  -5.245  -5.349  1.00  0.00    -0.354 N 
ATOM     57  N   UNL     1       9.091  -5.888  -2.504  1.00  0.00    -0.248 NA
ATOM     58  C   UNL     1      10.017  -6.649  -0.498  1.00  0.00     0.031 C 
ATOM     59  C   UNL     1      11.386  -5.361  -6.270  1.00  0.00     0.029 A 
ATOM     60  C   UNL     1      10.693  -5.543  -5.083  1.00  0.00     0.049 A 
ATOM     61  H   UNL     1       8.635  -5.293  -4.693  1.00  0.00     0.167 HD
ATOM     62  C   UNL     1      10.454  -6.111  -2.683  1.00  0.00     0.074 A 
ATOM     63  C   UNL     1      10.978  -6.546  -1.406  1.00  0.00     0.031 C 
ATOM     64  C   UNL     1      11.204  -5.966  -3.804  1.00  0.00     0.031 A 
BRANCH  51  65
ATOM     65  C   UNL     1       7.984  -4.212  -8.775  1.00  0.00    -0.014 A 
ATOM     66  C   UNL     1       7.776  -2.902  -9.242  1.00  0.00     0.010 A 
ATOM     67  C   UNL     1       8.260  -5.234  -9.701  1.00  0.00     0.010 A 
ATOM     68  C   UNL     1       7.818  -2.626 -10.611  1.00  0.00     0.020 A 
ATOM     69  C   UNL     1       8.331  -4.957 -11.069  1.00  0.00     0.020 A 
ATOM     70  C   UNL     1       8.097  -3.655 -11.516  1.00  0.00     0.054 A 
BRANCH  70  71
ATOM     71  S   UNL     1       8.189  -3.258 -13.283  1.00  0.00     0.124 S 
ATOM     72  O   UNL     1       6.786  -3.013 -13.610  1.00  0.00    -0.237 OA
ATOM     73  O   UNL     1       9.053  -2.080 -13.302  1.00  0.00    -0.237 OA
ATOM     74  O   UNL     1       8.766  -4.460 -13.880  1.00  0.00    -0.744 OA
ENDBRANCH  70  71
ENDBRANCH  51  65
BRANCH  52  75
ATOM     75  C   UNL     1       7.483  -6.449   0.952  1.00  0.00    -0.014 A 
ATOM     76  C   UNL     1       8.142  -5.672   1.922  1.00  0.00     0.010 A 
ATOM     77  C   UNL     1       6.788  -7.602   1.360  1.00  0.00     0.010 A 
ATOM     78  C   UNL     1       8.131  -6.056   3.266  1.00  0.00     0.020 A 
ATOM     79  C   UNL     1       6.748  -7.973   2.708  1.00  0.00     0.020 A 
ATOM     80  C   UNL     1       7.434  -7.206   3.650  1.00  0.00     0.054 A 
BRANCH  80  81
ATOM     81  S   UNL     1       7.410  -7.668   5.404  1.00  0.00     0.124 S 
ATOM     82  O   UNL     1       8.770  -8.158   5.608  1.00  0.00    -0.237 OA
ATOM     83  O   UNL     1       7.088  -6.403   6.059  1.00  0.00    -0.237 OA
ATOM     84  O   UNL     1       6.362  -8.684   5.476  1.00  0.00    -0.744 OA
ENDBRANCH  80  81
ENDBRANCH  52  75
BRANCH  64  85
ATOM     85  C   UNL     1      12.684  -6.229  -3.695  1.00  0.00    -0.014 A 
ATOM     86  C   UNL     1      13.190  -7.532  -3.543  1.00  0.00     0.010 A 
ATOM     87  C   UNL     1      13.587  -5.155  -3.811  1.00  0.00     0.010 A 
ATOM     88  C   UNL     1      14.569  -7.752  -3.476  1.00  0.00     0.020 A 
ATOM     89  C   UNL     1      14.966  -5.373  -3.776  1.00  0.00     0.020 A 
ATOM     90  C   UNL     1      15.449  -6.670  -3.594  1.00  0.00     0.054 A 
BRANCH  90  91
ATOM     91  S   UNL     1      17.235  -6.987  -3.550  1.00  0.00     0.124 S 
ATOM     92  O   UNL     1      17.455  -7.288  -2.138  1.00  0.00    -0.237 OA
ATOM     93  O   UNL     1      17.383  -8.116  -4.465  1.00  0.00    -0.237 OA
ATOM     94  O   UNL     1      17.821  -5.733  -4.017  1.00  0.00    -0.744 OA
ENDBRANCH  90  91
ENDBRANCH  64  85
ENDBRANCH  38  39
ENDBRANCH  31  33
ENDBRANCH  30  31
ENDBRANCH  29  30
ENDBRANCH  28  29
ENDBRANCH  27  28
ENDBRANCH   1  27
TORSDOF 22
