REMARK SMILES CC[C@@H](Oc1cccc(/C=C2/SC(=O)N(c3cccc(OC)c3)C2=O)c1)C(=O)OCCOCCOCCOC(=O)c1ccc(-c2c3nc(c(-c4ccc(S(=O)(=O)[O-])cc4)c4ccc([nH]4)c(-c4ccc(S(=O)(=O)[O-])cc4)c4nc(c(-c5ccc(S(=O)(=O)[O-])cc5)c5ccc2[nH]5)C=C4)C=C3)cc1
REMARK SMILES IDX 33 1 32 2 31 3 30 4 29 5 27 6 28 7 3 8 2 9 1 10 4 11 5 12
REMARK SMILES IDX 6 13 26 14 7 15 9 16 8 17 10 18 11 19 12 20 24 21 13 22
REMARK SMILES IDX 15 23 25 24 14 25 16 26 17 27 23 28 18 29 20 30 19 31 21 32
REMARK SMILES IDX 22 33 34 34 35 35 36 36 37 37 38 38 39 39 40 40 41 41 42 42
REMARK SMILES IDX 100 43 43 44 99 45 44 46 45 47 46 48 93 49 47 50 98 51 92 52
REMARK SMILES IDX 94 53 48 54 97 55 91 56 90 57 49 59 79 60 60 61 78 62 61 63
REMARK SMILES IDX 64 64 77 65 95 66 62 67 63 68 76 70 96 71 65 72 50 73 51 74
REMARK SMILES IDX 59 75 52 76 58 77 53 78 54 79 55 80 56 81 57 82 80 83 81 84
REMARK SMILES IDX 89 85 82 86 88 87 83 88 84 89 85 90 86 91 87 92 66 93 67 94
REMARK SMILES IDX 75 95 68 96 74 97 69 98 70 99 71 100 72 101 73 102
REMARK H PARENT 94 58 64 69
REMARK Flexibility Score: inf
ROOT
ATOM      1  C   UNL     1       1.334  -1.614   5.193  1.00  0.00     0.188 C 
ENDROOT
BRANCH   1   2
ATOM      2  O   UNL     1       0.737  -1.234   6.426  1.00  0.00    -0.376 OA
BRANCH   2   3
ATOM      3  C   UNL     1      -0.664  -0.979   6.419  1.00  0.00     0.202 C 
BRANCH   3   4
ATOM      4  C   UNL     1      -1.146   0.266   5.661  1.00  0.00     0.261 C 
BRANCH   4   5
ATOM      5  O   UNL     1      -0.719   0.332   4.290  1.00  0.00    -0.461 OA
BRANCH   5   6
ATOM      6  C   UNL     1       0.195   1.302   3.988  1.00  0.00     0.347 C 
ATOM      7  O   UNL     1       0.621   2.124   4.794  1.00  0.00    -0.248 OA
BRANCH   6   8
ATOM      8  C   UNL     1       0.645   1.275   2.520  1.00  0.00     0.282 C 
BRANCH   8   9
ATOM      9  C   UNL     1       0.245  -0.007   1.755  1.00  0.00     0.054 C 
ATOM     10  C   UNL     1       1.322  -0.489   0.781  1.00  0.00     0.008 C 
ENDBRANCH   8   9
BRANCH   8  11
ATOM     11  O   UNL     1       0.015   2.464   1.997  1.00  0.00    -0.479 OA
BRANCH  11  12
ATOM     12  C   UNL     1       0.634   2.977   0.896  1.00  0.00     0.121 A 
ATOM     13  C   UNL     1       1.510   4.050   0.993  1.00  0.00     0.046 A 
ATOM     14  C   UNL     1       0.264   2.493  -0.350  1.00  0.00     0.054 A 
ATOM     15  C   UNL     1       2.046   4.600  -0.177  1.00  0.00     0.004 A 
ATOM     16  C   UNL     1       0.788   3.029  -1.531  1.00  0.00    -0.021 A 
ATOM     17  C   UNL     1       1.700   4.082  -1.435  1.00  0.00     0.008 A 
BRANCH  16  18
ATOM     18  C   UNL     1       0.461   2.381  -2.812  1.00  0.00     0.029 C 
ATOM     19  C   UNL     1      -0.766   1.968  -3.176  1.00  0.00     0.083 C 
ATOM     20  S   UNL     1      -1.048   0.826  -4.425  1.00  0.00    -0.022 SA
ATOM     21  C   UNL     1      -2.055   2.260  -2.481  1.00  0.00     0.272 C 
ATOM     22  C   UNL     1      -2.626   0.390  -3.760  1.00  0.00     0.298 C 
ATOM     23  N   UNL     1      -2.976   1.255  -2.739  1.00  0.00    -0.236 N 
ATOM     24  O   UNL     1      -2.205   3.265  -1.800  1.00  0.00    -0.268 OA
ATOM     25  O   UNL     1      -3.262  -0.534  -4.239  1.00  0.00    -0.260 OA
BRANCH  23  26
ATOM     26  C   UNL     1      -4.212   1.140  -2.012  1.00  0.00     0.057 A 
ATOM     27  C   UNL     1      -4.814   2.261  -1.417  1.00  0.00     0.027 A 
ATOM     28  C   UNL     1      -4.842  -0.108  -1.830  1.00  0.00     0.073 A 
ATOM     29  C   UNL     1      -5.992   2.151  -0.675  1.00  0.00     0.006 A 
ATOM     30  C   UNL     1      -6.011  -0.228  -1.064  1.00  0.00     0.120 A 
ATOM     31  C   UNL     1      -6.586   0.909  -0.501  1.00  0.00     0.046 A 
BRANCH  30  32
ATOM     32  O   UNL     1      -6.684  -1.389  -0.794  1.00  0.00    -0.497 OA
ATOM     33  C   UNL     1      -6.009  -2.607  -1.084  1.00  0.00     0.278 C 
ENDBRANCH  30  32
ENDBRANCH  23  26
ENDBRANCH  16  18
ENDBRANCH  11  12
ENDBRANCH   8  11
ENDBRANCH   6   8
ENDBRANCH   5   6
ENDBRANCH   4   5
ENDBRANCH   3   4
ENDBRANCH   2   3
ENDBRANCH   1   2
BRANCH   1  34
ATOM     34  C   UNL     1       0.797  -2.878   4.522  1.00  0.00     0.188 C 
BRANCH  34  35
ATOM     35  O   UNL     1      -0.610  -2.904   4.298  1.00  0.00    -0.376 OA
BRANCH  35  36
ATOM     36  C   UNL     1      -1.080  -3.970   3.464  1.00  0.00     0.202 C 
BRANCH  36  37
ATOM     37  C   UNL     1      -0.630  -5.393   3.856  1.00  0.00     0.261 C 
BRANCH  37  38
ATOM     38  O   UNL     1       0.794  -5.611   3.779  1.00  0.00    -0.460 OA
BRANCH  38  39
ATOM     39  C   UNL     1       1.398  -5.364   2.591  1.00  0.00     0.338 C 
ATOM     40  O   UNL     1       0.841  -5.198   1.520  1.00  0.00    -0.246 OA
BRANCH  39  41
ATOM     41  C   UNL     1       2.830  -5.051   2.852  1.00  0.00     0.060 A 
ATOM     42  C   UNL     1       3.433  -4.038   2.094  1.00  0.00     0.016 A 
ATOM     43  C   UNL     1       3.551  -5.679   3.873  1.00  0.00     0.016 A 
ATOM     44  C   UNL     1       4.767  -3.685   2.321  1.00  0.00     0.010 A 
ATOM     45  C   UNL     1       4.889  -5.331   4.095  1.00  0.00     0.010 A 
ATOM     46  C   UNL     1       5.515  -4.359   3.296  1.00  0.00    -0.014 A 
BRANCH  46  47
ATOM     47  C   UNL     1       6.993  -4.209   3.330  1.00  0.00     0.031 A 
ATOM     48  C   UNL     1       7.824  -5.233   2.601  1.00  0.00     0.074 A 
ATOM     49  C   UNL     1       7.598  -3.188   3.964  1.00  0.00     0.049 A 
ATOM     50  N   UNL     1       9.124  -5.328   2.499  1.00  0.00    -0.248 NA
ATOM     51  C   UNL     1       7.084  -6.290   1.891  1.00  0.00     0.031 C 
ATOM     52  C   UNL     1       6.922  -2.105   4.675  1.00  0.00     0.029 A 
ATOM     53  N   UNL     1       8.935  -2.904   4.112  1.00  0.00    -0.354 N 
ATOM     54  C   UNL     1       9.358  -6.451   1.715  1.00  0.00     0.074 A 
ATOM     55  C   UNL     1       8.069  -7.024   1.396  1.00  0.00     0.031 C 
ATOM     56  C   UNL     1       7.850  -1.277   5.191  1.00  0.00     0.029 A 
ATOM     57  C   UNL     1       9.184  -1.786   4.872  1.00  0.00     0.049 A 
ATOM     58  H   UNL     1       9.649  -3.450   3.709  1.00  0.00     0.167 HD
ATOM     59  C   UNL     1      10.537  -6.960   1.287  1.00  0.00     0.031 A 
ATOM     60  C   UNL     1      10.352  -1.246   5.280  1.00  0.00     0.031 A 
ATOM     61  C   UNL     1      11.825  -6.416   1.619  1.00  0.00     0.049 A 
ATOM     62  C   UNL     1      11.657  -1.881   4.864  1.00  0.00     0.074 A 
ATOM     63  C   UNL     1      13.074  -6.868   1.231  1.00  0.00     0.029 A 
ATOM     64  N   UNL     1      12.032  -5.308   2.424  1.00  0.00    -0.354 N 
ATOM     65  N   UNL     1      11.860  -2.928   4.101  1.00  0.00    -0.248 NA
ATOM     66  C   UNL     1      12.892  -1.253   5.361  1.00  0.00     0.031 C 
ATOM     67  C   UNL     1      14.039  -6.065   1.846  1.00  0.00     0.029 A 
ATOM     68  C   UNL     1      13.390  -5.075   2.566  1.00  0.00     0.049 A 
ATOM     69  H   UNL     1      11.320  -4.766   2.834  1.00  0.00     0.167 HD
ATOM     70  C   UNL     1      13.243  -3.066   4.005  1.00  0.00     0.074 A 
ATOM     71  C   UNL     1      13.827  -1.989   4.776  1.00  0.00     0.031 C 
ATOM     72  C   UNL     1      13.964  -3.999   3.333  1.00  0.00     0.031 A 
BRANCH  59  73
ATOM     73  C   UNL     1      10.480  -8.198   0.435  1.00  0.00    -0.014 A 
ATOM     74  C   UNL     1      10.025  -8.143  -0.894  1.00  0.00     0.010 A 
ATOM     75  C   UNL     1      10.907  -9.429   0.965  1.00  0.00     0.010 A 
ATOM     76  C   UNL     1       9.959  -9.305  -1.666  1.00  0.00     0.020 A 
ATOM     77  C   UNL     1      10.868 -10.588   0.187  1.00  0.00     0.020 A 
ATOM     78  C   UNL     1      10.377 -10.521  -1.118  1.00  0.00     0.054 A 
BRANCH  78  79
ATOM     79  S   UNL     1      10.293 -12.013  -2.146  1.00  0.00     0.124 S 
ATOM     80  O   UNL     1       8.856 -12.273  -2.179  1.00  0.00    -0.237 OA
ATOM     81  O   UNL     1      10.879 -11.566  -3.408  1.00  0.00    -0.237 OA
ATOM     82  O   UNL     1      11.086 -12.990  -1.406  1.00  0.00    -0.744 OA
ENDBRANCH  78  79
ENDBRANCH  59  73
BRANCH  60  83
ATOM     83  C   UNL     1      10.351  -0.043   6.160  1.00  0.00    -0.014 A 
ATOM     84  C   UNL     1      10.807   1.199   5.684  1.00  0.00     0.010 A 
ATOM     85  C   UNL     1       9.913  -0.143   7.493  1.00  0.00     0.010 A 
ATOM     86  C   UNL     1      10.842   2.313   6.529  1.00  0.00     0.020 A 
ATOM     87  C   UNL     1       9.920   0.974   8.333  1.00  0.00     0.020 A 
ATOM     88  C   UNL     1      10.397   2.193   7.849  1.00  0.00     0.054 A 
BRANCH  88  89
ATOM     89  S   UNL     1      10.408   3.662   8.916  1.00  0.00     0.124 S 
ATOM     90  O   UNL     1      11.829   3.815   9.206  1.00  0.00    -0.237 OA
ATOM     91  O   UNL     1       9.825   4.684   8.050  1.00  0.00    -0.237 OA
ATOM     92  O   UNL     1       9.575   3.266  10.049  1.00  0.00    -0.744 OA
ENDBRANCH  88  89
ENDBRANCH  60  83
BRANCH  72  93
ATOM     93  C   UNL     1      15.467  -3.886   3.364  1.00  0.00    -0.014 A 
ATOM     94  C   UNL     1      16.202  -4.199   4.521  1.00  0.00     0.010 A 
ATOM     95  C   UNL     1      16.158  -3.528   2.191  1.00  0.00     0.010 A 
ATOM     96  C   UNL     1      17.599  -4.128   4.512  1.00  0.00     0.020 A 
ATOM     97  C   UNL     1      17.555  -3.482   2.170  1.00  0.00     0.020 A 
ATOM     98  C   UNL     1      18.267  -3.769   3.336  1.00  0.00     0.054 A 
BRANCH  98  99
ATOM     99  S   UNL     1      20.081  -3.731   3.336  1.00  0.00     0.124 S 
ATOM    100  O   UNL     1      20.359  -2.512   4.090  1.00  0.00    -0.237 OA
ATOM    101  O   UNL     1      20.429  -4.980   4.009  1.00  0.00    -0.237 OA
ATOM    102  O   UNL     1      20.427  -3.678   1.917  1.00  0.00    -0.744 OA
ENDBRANCH  98  99
ENDBRANCH  72  93
ENDBRANCH  46  47
ENDBRANCH  39  41
ENDBRANCH  38  39
ENDBRANCH  37  38
ENDBRANCH  36  37
ENDBRANCH  35  36
ENDBRANCH  34  35
ENDBRANCH   1  34
TORSDOF 26
