REMARK SMILES COc1ccc([C@@H]([NH3+])CC(=O)OCCOCCOCCOC(=O)c2ccc(-c3c4nc(c(-c5ccc(S(=O)(=O)[O-])cc5)c5ccc([nH]5)c(-c5ccc(S(=O)(=O)[O-])cc5)c5nc(c(-c6ccc(S(=O)(=O)[O-])cc6)c6ccc3[nH]6)C=C5)C=C4)cc2)cc1
REMARK SMILES IDX 16 1 15 2 14 3 13 4 12 5 10 6 11 7 9 8 7 9 6 10 3 11 4 12
REMARK SMILES IDX 85 13 5 14 84 15 2 16 1 17 8 18 17 22 18 23 19 24 20 25
REMARK SMILES IDX 21 26 22 27 23 28 24 29 25 30 83 31 26 32 82 33 27 34 28 35
REMARK SMILES IDX 29 36 76 37 30 38 81 39 75 40 77 41 31 42 80 43 74 44 73 45
REMARK SMILES IDX 32 47 62 48 43 49 61 50 44 51 47 52 60 53 78 54 45 55 46 56
REMARK SMILES IDX 59 58 79 59 48 60 33 61 34 62 42 63 35 64 41 65 36 66 37 67
REMARK SMILES IDX 38 68 39 69 40 70 63 71 64 72 72 73 65 74 71 75 66 76 67 77
REMARK SMILES IDX 68 78 69 79 70 80 49 81 50 82 58 83 51 84 57 85 52 86 53 87
REMARK SMILES IDX 54 88 55 89 56 90
REMARK H PARENT 8 19 8 20 8 21 77 46 47 57
REMARK Flexibility Score: inf
ROOT
ATOM      1  C   UNL     1       2.491  -0.869  -7.464  1.00  0.00     0.188 C 
ENDROOT
BRANCH   1   2
ATOM      2  O   UNL     1       1.988   0.461  -7.454  1.00  0.00    -0.376 OA
BRANCH   2   3
ATOM      3  C   UNL     1       1.470   0.938  -6.212  1.00  0.00     0.202 C 
BRANCH   3   4
ATOM      4  C   UNL     1       0.292   0.153  -5.614  1.00  0.00     0.261 C 
BRANCH   4   5
ATOM      5  O   UNL     1       0.560  -1.255  -5.444  1.00  0.00    -0.463 OA
BRANCH   5   6
ATOM      6  C   UNL     1      -0.426  -2.095  -5.856  1.00  0.00     0.312 C 
ATOM      7  O   UNL     1      -1.519  -1.726  -6.274  1.00  0.00    -0.252 OA
BRANCH   6   8
ATOM      8  C   UNL     1      -0.035  -3.560  -5.870  1.00  0.00     0.192 C 
BRANCH   8   9
ATOM      9  C   UNL     1       1.016  -4.037  -4.858  1.00  0.00     0.223 C 
BRANCH   9  10
ATOM     10  C   UNL     1       0.845  -3.501  -3.452  1.00  0.00     0.010 A 
ATOM     11  C   UNL     1       0.592  -2.185  -0.999  1.00  0.00     0.118 A 
ATOM     12  C   UNL     1      -0.539  -2.693  -1.631  1.00  0.00     0.047 A 
ATOM     13  C   UNL     1       1.859  -2.433  -1.519  1.00  0.00     0.047 A 
ATOM     14  C   UNL     1      -0.414  -3.354  -2.853  1.00  0.00     0.014 A 
ATOM     15  C   UNL     1       1.983  -3.094  -2.738  1.00  0.00     0.014 A 
BRANCH  11  16
ATOM     16  O   UNL     1       0.407  -1.467   0.152  1.00  0.00    -0.497 OA
ATOM     17  C   UNL     1       0.949  -0.151   0.023  1.00  0.00     0.278 C 
ENDBRANCH  11  16
ENDBRANCH   9  10
BRANCH   9  18
ATOM     18  N   UNL     1       1.020  -5.508  -4.823  1.00  0.00    -0.351 N 
ATOM     19  H   UNL     1       0.116  -5.842  -4.490  1.00  0.00     0.345 HD
ATOM     20  H   UNL     1       1.754  -5.830  -4.193  1.00  0.00     0.345 HD
ATOM     21  H   UNL     1       1.193  -5.870  -5.761  1.00  0.00     0.345 HD
ENDBRANCH   9  18
ENDBRANCH   8   9
ENDBRANCH   6   8
ENDBRANCH   5   6
ENDBRANCH   4   5
ENDBRANCH   3   4
ENDBRANCH   2   3
ENDBRANCH   1   2
BRANCH   1  22
ATOM     22  C   UNL     1       3.665  -1.158  -6.523  1.00  0.00     0.188 C 
BRANCH  22  23
ATOM     23  O   UNL     1       3.550  -0.638  -5.205  1.00  0.00    -0.376 OA
BRANCH  23  24
ATOM     24  C   UNL     1       4.628  -0.928  -4.312  1.00  0.00     0.202 C 
BRANCH  24  25
ATOM     25  C   UNL     1       6.042  -0.558  -4.795  1.00  0.00     0.261 C 
BRANCH  25  26
ATOM     26  O   UNL     1       6.502  -1.271  -5.963  1.00  0.00    -0.460 OA
BRANCH  26  27
ATOM     27  C   UNL     1       6.392  -2.619  -5.985  1.00  0.00     0.338 C 
ATOM     28  O   UNL     1       6.168  -3.348  -5.033  1.00  0.00    -0.246 OA
BRANCH  27  29
ATOM     29  C   UNL     1       6.297  -3.043  -7.410  1.00  0.00     0.060 A 
ATOM     30  C   UNL     1       5.394  -4.065  -7.745  1.00  0.00     0.016 A 
ATOM     31  C   UNL     1       6.999  -2.377  -8.419  1.00  0.00     0.016 A 
ATOM     32  C   UNL     1       5.207  -4.430  -9.082  1.00  0.00     0.010 A 
ATOM     33  C   UNL     1       6.819  -2.752  -9.754  1.00  0.00     0.010 A 
ATOM     34  C   UNL     1       5.939  -3.795 -10.092  1.00  0.00    -0.014 A 
BRANCH  34  35
ATOM     35  C   UNL     1       5.937  -4.324 -11.479  1.00  0.00     0.031 A 
ATOM     36  C   UNL     1       7.062  -5.233 -11.894  1.00  0.00     0.074 A 
ATOM     37  C   UNL     1       4.975  -4.002 -12.365  1.00  0.00     0.049 A 
ATOM     38  N   UNL     1       7.324  -5.748 -13.066  1.00  0.00    -0.248 NA
ATOM     39  C   UNL     1       8.021  -5.608 -10.841  1.00  0.00     0.031 C 
ATOM     40  C   UNL     1       3.803  -3.175 -12.086  1.00  0.00     0.029 A 
ATOM     41  N   UNL     1       4.846  -4.332 -13.693  1.00  0.00    -0.354 N 
ATOM     42  C   UNL     1       8.479  -6.501 -12.896  1.00  0.00     0.074 A 
ATOM     43  C   UNL     1       8.883  -6.354 -11.514  1.00  0.00     0.031 C 
ATOM     44  C   UNL     1       3.079  -3.053 -13.214  1.00  0.00     0.029 A 
ATOM     45  C   UNL     1       3.756  -3.757 -14.303  1.00  0.00     0.049 A 
ATOM     46  H   UNL     1       5.476  -4.924 -14.164  1.00  0.00     0.167 HD
ATOM     47  C   UNL     1       9.147  -7.250 -13.805  1.00  0.00     0.031 A 
ATOM     48  C   UNL     1       3.365  -3.772 -15.595  1.00  0.00     0.031 A 
ATOM     49  C   UNL     1       8.766  -7.379 -15.185  1.00  0.00     0.049 A 
ATOM     50  C   UNL     1       4.185  -4.526 -16.614  1.00  0.00     0.074 A 
ATOM     51  C   UNL     1       9.379  -8.123 -16.178  1.00  0.00     0.029 A 
ATOM     52  N   UNL     1       7.685  -6.741 -15.771  1.00  0.00    -0.354 N 
ATOM     53  N   UNL     1       5.263  -5.253 -16.434  1.00  0.00    -0.248 NA
ATOM     54  C   UNL     1       3.737  -4.457 -18.014  1.00  0.00     0.031 C 
ATOM     55  C   UNL     1       8.705  -7.885 -17.380  1.00  0.00     0.029 A 
ATOM     56  C   UNL     1       7.633  -7.045 -17.121  1.00  0.00     0.049 A 
ATOM     57  H   UNL     1       7.048  -6.157 -15.299  1.00  0.00     0.167 HD
ATOM     58  C   UNL     1       5.603  -5.747 -17.691  1.00  0.00     0.074 A 
ATOM     59  C   UNL     1       4.613  -5.247 -18.621  1.00  0.00     0.031 C 
ATOM     60  C   UNL     1       6.643  -6.545 -18.041  1.00  0.00     0.031 A 
BRANCH  47  61
ATOM     61  C   UNL     1      10.390  -7.956 -13.336  1.00  0.00    -0.014 A 
ATOM     62  C   UNL     1      10.317  -9.062 -12.470  1.00  0.00     0.010 A 
ATOM     63  C   UNL     1      11.649  -7.520 -13.789  1.00  0.00     0.010 A 
ATOM     64  C   UNL     1      11.483  -9.694 -12.033  1.00  0.00     0.020 A 
ATOM     65  C   UNL     1      12.816  -8.167 -13.376  1.00  0.00     0.020 A 
ATOM     66  C   UNL     1      12.726  -9.239 -12.486  1.00  0.00     0.054 A 
BRANCH  66  67
ATOM     67  S   UNL     1      14.222 -10.085 -11.910  1.00  0.00     0.124 S 
ATOM     68  O   UNL     1      14.299  -9.645 -10.519  1.00  0.00    -0.237 OA
ATOM     69  O   UNL     1      13.888 -11.494 -12.105  1.00  0.00    -0.237 OA
ATOM     70  O   UNL     1      15.272  -9.569 -12.785  1.00  0.00    -0.744 OA
ENDBRANCH  66  67
ENDBRANCH  47  61
BRANCH  48  71
ATOM     71  C   UNL     1       2.150  -3.020 -16.018  1.00  0.00    -0.014 A 
ATOM     72  C   UNL     1       1.001  -3.701 -16.459  1.00  0.00     0.010 A 
ATOM     73  C   UNL     1       2.143  -1.613 -16.003  1.00  0.00     0.010 A 
ATOM     74  C   UNL     1      -0.124  -2.991 -16.889  1.00  0.00     0.020 A 
ATOM     75  C   UNL     1       1.010  -0.899 -16.405  1.00  0.00     0.020 A 
ATOM     76  C   UNL     1      -0.114  -1.593 -16.856  1.00  0.00     0.054 A 
BRANCH  76  77
ATOM     77  S   UNL     1      -1.603  -0.694 -17.372  1.00  0.00     0.124 S 
ATOM     78  O   UNL     1      -1.585  -0.882 -18.820  1.00  0.00    -0.237 OA
ATOM     79  O   UNL     1      -2.661  -1.400 -16.655  1.00  0.00    -0.237 OA
ATOM     80  O   UNL     1      -1.353   0.671 -16.916  1.00  0.00    -0.744 OA
ENDBRANCH  76  77
ENDBRANCH  48  71
BRANCH  60  81
ATOM     81  C   UNL     1       6.761  -6.962 -19.485  1.00  0.00    -0.014 A 
ATOM     82  C   UNL     1       7.177  -6.055 -20.475  1.00  0.00     0.010 A 
ATOM     83  C   UNL     1       6.537  -8.306 -19.840  1.00  0.00     0.010 A 
ATOM     84  C   UNL     1       7.353  -6.481 -21.796  1.00  0.00     0.020 A 
ATOM     85  C   UNL     1       6.737  -8.741 -21.153  1.00  0.00     0.020 A 
ATOM     86  C   UNL     1       7.137  -7.823 -22.125  1.00  0.00     0.054 A 
BRANCH  86  87
ATOM     87  S   UNL     1       7.441  -8.364 -23.831  1.00  0.00     0.124 S 
ATOM     88  O   UNL     1       6.312  -7.773 -24.543  1.00  0.00    -0.237 OA
ATOM     89  O   UNL     1       8.746  -7.777 -24.125  1.00  0.00    -0.237 OA
ATOM     90  O   UNL     1       7.426  -9.822 -23.740  1.00  0.00    -0.744 OA
ENDBRANCH  86  87
ENDBRANCH  60  81
ENDBRANCH  34  35
ENDBRANCH  27  29
ENDBRANCH  26  27
ENDBRANCH  25  26
ENDBRANCH  24  25
ENDBRANCH  23  24
ENDBRANCH  22  23
ENDBRANCH   1  22
TORSDOF 24
