REMARK SMILES CCc1cc(N2CCC[C@H](C(=O)OCCOCCOCCOC(=O)c3ccc(-c4c5nc(c(-c6ccc(S(=O)(=O)[O-])cc6)c6ccc([nH]6)c(-c6ccc(S(=O)(=O)[O-])cc6)c6nc(c(-c7ccc(S(=O)(=O)[O-])cc7)c7ccc4[nH]7)C=C6)C=C5)cc3)C2)nc(-c2ccc(Cl)cc2)n1
REMARK SMILES IDX 18 1 17 2 16 3 15 4 14 5 13 6 11 7 12 8 10 9 6 10 7 11 85 12
REMARK SMILES IDX 8 13 9 14 5 15 3 16 4 17 95 18 87 19 86 20 2 21 1 22 88 23
REMARK SMILES IDX 89 24 94 25 90 26 93 27 91 28 92 29 19 30 20 31 21 32 22 33
REMARK SMILES IDX 23 34 24 35 25 36 26 37 84 38 27 39 83 40 28 41 29 42 30 43
REMARK SMILES IDX 77 44 31 45 82 46 76 47 78 48 32 49 81 50 75 51 74 52 33 54
REMARK SMILES IDX 63 55 44 56 62 57 45 58 48 59 61 60 79 61 46 62 47 63 60 65
REMARK SMILES IDX 80 66 49 67 34 68 35 69 43 70 36 71 42 72 37 73 38 74 39 75
REMARK SMILES IDX 40 76 41 77 64 78 65 79 73 80 66 81 72 82 67 83 68 84 69 85
REMARK SMILES IDX 70 86 71 87 50 88 51 89 59 90 52 91 58 92 53 93 54 94 55 95
REMARK SMILES IDX 56 96 57 97
REMARK H PARENT 78 53 48 64
REMARK Flexibility Score: inf
ROOT
ATOM      1  C   UNL     1       0.348  -3.453   8.808  1.00  0.00     0.188 C 
ENDROOT
BRANCH   1   2
ATOM      2  C   UNL     1      -1.080  -2.959   8.534  1.00  0.00     0.188 C 
BRANCH   2   3
ATOM      3  O   UNL     1      -1.986  -3.833   7.876  1.00  0.00    -0.376 OA
BRANCH   3   4
ATOM      4  C   UNL     1      -1.498  -4.580   6.772  1.00  0.00     0.202 C 
BRANCH   4   5
ATOM      5  C   UNL     1      -0.692  -3.861   5.675  1.00  0.00     0.261 C 
BRANCH   5   6
ATOM      6  O   UNL     1       0.386  -2.998   6.084  1.00  0.00    -0.463 OA
BRANCH   6   7
ATOM      7  C   UNL     1       0.304  -1.697   5.719  1.00  0.00     0.310 C 
ATOM      8  O   UNL     1      -0.688  -1.192   5.200  1.00  0.00    -0.252 OA
BRANCH   7   9
ATOM      9  C   UNL     1       1.571  -0.881   5.971  1.00  0.00     0.118 C 
ATOM     10  N   UNL     1       2.751  -1.627   3.956  1.00  0.00    -0.356 N 
ATOM     11  C   UNL     1       3.833  -2.290   4.671  1.00  0.00     0.118 C 
ATOM     12  C   UNL     1       2.110  -0.473   4.602  1.00  0.00     0.133 C 
ATOM     13  C   UNL     1       3.436  -2.626   6.106  1.00  0.00     0.022 C 
ATOM     14  C   UNL     1       2.745  -1.444   6.783  1.00  0.00     0.019 C 
BRANCH  10  15
ATOM     15  C   UNL     1       2.042  -2.304   2.969  1.00  0.00     0.132 A 
ATOM     16  C   UNL     1       0.843  -2.205   0.919  1.00  0.00     0.046 A 
ATOM     17  C   UNL     1       1.533  -1.559   1.919  1.00  0.00     0.070 A 
ATOM     18  N   UNL     1       0.634  -3.533   0.963  1.00  0.00    -0.233 NA
ATOM     19  C   UNL     1       1.145  -4.189   2.022  1.00  0.00     0.161 A 
ATOM     20  N   UNL     1       1.868  -3.637   3.020  1.00  0.00    -0.211 NA
BRANCH  16  21
ATOM     21  C   UNL     1       0.282  -1.475  -0.274  1.00  0.00     0.053 C 
ATOM     22  C   UNL     1       0.706  -0.018  -0.431  1.00  0.00     0.011 C 
ENDBRANCH  16  21
BRANCH  19  23
ATOM     23  C   UNL     1       0.866  -5.629   2.067  1.00  0.00     0.019 A 
ATOM     24  C   UNL     1       1.616  -6.534   1.301  1.00  0.00     0.013 A 
ATOM     25  C   UNL     1      -0.209  -6.141   2.815  1.00  0.00     0.013 A 
ATOM     26  C   UNL     1       1.322  -7.904   1.310  1.00  0.00     0.021 A 
ATOM     27  C   UNL     1      -0.486  -7.511   2.857  1.00  0.00     0.021 A 
ATOM     28  C   UNL     1       0.282  -8.387   2.100  1.00  0.00     0.041 A 
ATOM     29  Cl  UNL     1      -0.075 -10.071   2.117  1.00  0.00    -0.084 Cl
ENDBRANCH  19  23
ENDBRANCH  10  15
ENDBRANCH   7   9
ENDBRANCH   6   7
ENDBRANCH   5   6
ENDBRANCH   4   5
ENDBRANCH   3   4
ENDBRANCH   2   3
ENDBRANCH   1   2
BRANCH   1  30
ATOM     30  O   UNL     1       0.634  -4.756   8.345  1.00  0.00    -0.376 OA
BRANCH  30  31
ATOM     31  C   UNL     1       1.341  -5.628   9.209  1.00  0.00     0.202 C 
BRANCH  31  32
ATOM     32  C   UNL     1       0.558  -6.067  10.457  1.00  0.00     0.261 C 
BRANCH  32  33
ATOM     33  O   UNL     1       0.084  -5.000  11.303  1.00  0.00    -0.460 OA
BRANCH  33  34
ATOM     34  C   UNL     1       1.026  -4.239  11.913  1.00  0.00     0.338 C 
ATOM     35  O   UNL     1       2.229  -4.445  11.915  1.00  0.00    -0.246 OA
BRANCH  34  36
ATOM     36  C   UNL     1       0.392  -2.952  12.309  1.00  0.00     0.060 A 
ATOM     37  C   UNL     1       1.010  -1.756  11.908  1.00  0.00     0.016 A 
ATOM     38  C   UNL     1      -0.830  -2.909  12.985  1.00  0.00     0.016 A 
ATOM     39  C   UNL     1       0.435  -0.523  12.222  1.00  0.00     0.010 A 
ATOM     40  C   UNL     1      -1.395  -1.671  13.319  1.00  0.00     0.010 A 
ATOM     41  C   UNL     1      -0.746  -0.471  12.973  1.00  0.00    -0.014 A 
BRANCH  41  42
ATOM     42  C   UNL     1      -1.167   0.825  13.571  1.00  0.00     0.031 A 
ATOM     43  C   UNL     1      -0.781   1.109  15.000  1.00  0.00     0.074 A 
ATOM     44  C   UNL     1      -1.819   1.763  12.859  1.00  0.00     0.049 A 
ATOM     45  N   UNL     1      -0.970   2.188  15.715  1.00  0.00    -0.248 NA
ATOM     46  C   UNL     1      -0.082   0.028  15.715  1.00  0.00     0.031 C 
ATOM     47  C   UNL     1      -2.222   1.640  11.459  1.00  0.00     0.029 A 
ATOM     48  N   UNL     1      -2.247   3.017  13.223  1.00  0.00    -0.354 N 
ATOM     49  C   UNL     1      -0.415   1.918  16.961  1.00  0.00     0.074 A 
ATOM     50  C   UNL     1       0.079   0.558  16.917  1.00  0.00     0.031 C 
ATOM     51  C   UNL     1      -2.829   2.779  11.080  1.00  0.00     0.029 A 
ATOM     52  C   UNL     1      -2.881   3.702  12.214  1.00  0.00     0.049 A 
ATOM     53  H   UNL     1      -2.112   3.390  14.124  1.00  0.00     0.167 HD
ATOM     54  C   UNL     1      -0.311   2.725  18.043  1.00  0.00     0.031 A 
ATOM     55  C   UNL     1      -3.440   4.930  12.204  1.00  0.00     0.031 A 
ATOM     56  C   UNL     1      -0.828   4.067  18.105  1.00  0.00     0.049 A 
ATOM     57  C   UNL     1      -3.383   5.786  13.445  1.00  0.00     0.074 A 
ATOM     58  C   UNL     1      -0.766   4.965  19.156  1.00  0.00     0.029 A 
ATOM     59  N   UNL     1      -1.515   4.700  17.080  1.00  0.00    -0.354 N 
ATOM     60  N   UNL     1      -2.826   5.527  14.605  1.00  0.00    -0.248 NA
ATOM     61  C   UNL     1      -4.017   7.110  13.366  1.00  0.00     0.031 C 
ATOM     62  C   UNL     1      -1.472   6.117  18.790  1.00  0.00     0.029 A 
ATOM     63  C   UNL     1      -1.908   5.966  17.483  1.00  0.00     0.049 A 
ATOM     64  H   UNL     1      -1.697   4.307  16.196  1.00  0.00     0.167 HD
ATOM     65  C   UNL     1      -3.014   6.669  15.381  1.00  0.00     0.074 A 
ATOM     66  C   UNL     1      -3.722   7.623  14.553  1.00  0.00     0.031 C 
ATOM     67  C   UNL     1      -2.627   6.907  16.660  1.00  0.00     0.031 A 
BRANCH  54  68
ATOM     68  C   UNL     1       0.355   2.150  19.268  1.00  0.00    -0.014 A 
ATOM     69  C   UNL     1       1.732   1.858  19.285  1.00  0.00     0.010 A 
ATOM     70  C   UNL     1      -0.410   1.897  20.421  1.00  0.00     0.010 A 
ATOM     71  C   UNL     1       2.318   1.275  20.411  1.00  0.00     0.020 A 
ATOM     72  C   UNL     1       0.179   1.345  21.561  1.00  0.00     0.020 A 
ATOM     73  C   UNL     1       1.536   1.016  21.540  1.00  0.00     0.054 A 
BRANCH  73  74
ATOM     74  S   UNL     1       2.321   0.253  22.986  1.00  0.00     0.124 S 
ATOM     75  O   UNL     1       2.543  -1.114  22.520  1.00  0.00    -0.237 OA
ATOM     76  O   UNL     1       3.526   1.060  23.159  1.00  0.00    -0.237 OA
ATOM     77  O   UNL     1       1.321   0.396  24.041  1.00  0.00    -0.744 OA
ENDBRANCH  73  74
ENDBRANCH  54  68
BRANCH  55  78
ATOM     78  C   UNL     1      -4.096   5.437  10.965  1.00  0.00    -0.014 A 
ATOM     79  C   UNL     1      -3.526   6.493  10.231  1.00  0.00     0.010 A 
ATOM     80  C   UNL     1      -5.294   4.859  10.507  1.00  0.00     0.010 A 
ATOM     81  C   UNL     1      -4.143   6.963   9.067  1.00  0.00     0.020 A 
ATOM     82  C   UNL     1      -5.898   5.306   9.328  1.00  0.00     0.020 A 
ATOM     83  C   UNL     1      -5.321   6.359   8.618  1.00  0.00     0.054 A 
BRANCH  83  84
ATOM     84  S   UNL     1      -6.057   6.933   7.061  1.00  0.00     0.124 S 
ATOM     85  O   UNL     1      -6.576   8.245   7.434  1.00  0.00    -0.237 OA
ATOM     86  O   UNL     1      -4.910   6.939   6.157  1.00  0.00    -0.237 OA
ATOM     87  O   UNL     1      -7.068   5.919   6.767  1.00  0.00    -0.744 OA
ENDBRANCH  83  84
ENDBRANCH  55  78
BRANCH  67  88
ATOM     88  C   UNL     1      -2.925   8.271  17.235  1.00  0.00    -0.014 A 
ATOM     89  C   UNL     1      -4.240   8.685  17.514  1.00  0.00     0.010 A 
ATOM     90  C   UNL     1      -1.862   9.148  17.522  1.00  0.00     0.010 A 
ATOM     91  C   UNL     1      -4.489   9.969  18.011  1.00  0.00     0.020 A 
ATOM     92  C   UNL     1      -2.103  10.418  18.052  1.00  0.00     0.020 A 
ATOM     93  C   UNL     1      -3.419  10.830  18.271  1.00  0.00     0.054 A 
BRANCH  93  94
ATOM     94  S   UNL     1      -3.766  12.490  18.915  1.00  0.00     0.124 S 
ATOM     95  O   UNL     1      -4.309  13.165  17.739  1.00  0.00    -0.237 OA
ATOM     96  O   UNL     1      -4.724  12.225  19.985  1.00  0.00    -0.237 OA
ATOM     97  O   UNL     1      -2.460  12.970  19.360  1.00  0.00    -0.744 OA
ENDBRANCH  93  94
ENDBRANCH  67  88
ENDBRANCH  41  42
ENDBRANCH  34  36
ENDBRANCH  33  34
ENDBRANCH  32  33
ENDBRANCH  31  32
ENDBRANCH  30  31
ENDBRANCH   1  30
TORSDOF 23
