REMARK SMILES CC1(C)Oc2ccc(NC(=O)[C@H]3CC=CC[C@@H]3C(=O)OCCOCCOCCOC(=O)c3ccc(-c4c5nc(c(-c6ccc(S(=O)(=O)[O-])cc6)c6ccc([nH]6)c(-c6ccc(S(=O)(=O)[O-])cc6)c6nc(c(-c7ccc(S(=O)(=O)[O-])cc7)c7ccc4[nH]7)C=C6)C=C5)cc3)cc2NC1=O
REMARK SMILES IDX 25 1 24 2 23 3 22 4 21 5 20 6 18 7 19 8 17 9 12 10 13 11
REMARK SMILES IDX 14 12 16 13 15 14 10 15 9 16 11 18 8 19 1 20 2 21 3 22 4 23
REMARK SMILES IDX 95 24 5 25 94 26 96 27 6 28 93 29 7 31 92 32 26 33 27 34
REMARK SMILES IDX 28 35 29 36 30 37 31 38 32 39 33 40 91 41 34 42 90 43 35 44
REMARK SMILES IDX 36 45 37 46 84 47 38 48 89 49 83 50 85 51 39 52 88 53 82 54
REMARK SMILES IDX 81 55 40 57 70 58 51 59 69 60 52 61 55 62 68 63 86 64 53 65
REMARK SMILES IDX 54 66 67 68 87 69 56 70 41 71 42 72 50 73 43 74 49 75 44 76
REMARK SMILES IDX 45 77 46 78 47 79 48 80 71 81 72 82 80 83 73 84 79 85 74 86
REMARK SMILES IDX 75 87 76 88 77 89 78 90 57 91 58 92 66 93 59 94 65 95 60 96
REMARK SMILES IDX 61 97 62 98 63 99 64 100
REMARK H PARENT 9 17 94 30 85 56 55 67
REMARK Flexibility Score: inf
ROOT
ATOM      1  C   UNL     1       0.969 -10.543  -2.272  1.00  0.00     0.188 C 
ENDROOT
BRANCH   1   2
ATOM      2  C   UNL     1      -0.105  -9.983  -3.211  1.00  0.00     0.188 C 
BRANCH   2   3
ATOM      3  O   UNL     1       0.294  -9.108  -4.261  1.00  0.00    -0.376 OA
BRANCH   3   4
ATOM      4  C   UNL     1       1.406  -8.241  -4.081  1.00  0.00     0.202 C 
BRANCH   4   5
ATOM      5  C   UNL     1       1.356  -7.216  -2.936  1.00  0.00     0.261 C 
BRANCH   5   6
ATOM      6  O   UNL     1       1.284  -7.754  -1.590  1.00  0.00    -0.463 OA
BRANCH   6   7
ATOM      7  C   UNL     1       0.111  -7.561  -0.928  1.00  0.00     0.310 C 
ATOM      8  O   UNL     1      -0.845  -6.960  -1.407  1.00  0.00    -0.252 OA
BRANCH   7   9
ATOM      9  C   UNL     1       0.037  -8.163   0.485  1.00  0.00     0.116 C 
ATOM     10  C   UNL     1       1.342  -8.611   1.205  1.00  0.00     0.097 C 
ATOM     11  C   UNL     1       1.626 -10.128   1.183  1.00  0.00     0.041 C 
ATOM     12  C   UNL     1       0.407 -10.974   1.333  1.00  0.00    -0.030 C 
ATOM     13  C   UNL     1      -1.141  -9.150   0.589  1.00  0.00     0.043 C 
ATOM     14  C   UNL     1      -0.828 -10.518   1.100  1.00  0.00    -0.030 C 
BRANCH  10  15
ATOM     15  C   UNL     1       1.300  -8.140   2.668  1.00  0.00     0.228 C 
ATOM     16  N   UNL     1       1.256  -6.824   3.021  1.00  0.00    -0.326 N 
ATOM     17  H   UNL     1       1.140  -6.689   3.989  1.00  0.00     0.169 HD
ATOM     18  O   UNL     1       1.256  -8.939   3.611  1.00  0.00    -0.274 OA
BRANCH  16  19
ATOM     19  C   UNL     1       1.341  -5.619   2.309  1.00  0.00     0.043 A 
ATOM     20  C   UNL     1       1.042   0.311   0.169  1.00  0.00     0.067 C 
ATOM     21  C   UNL     1       0.487  -0.943   0.843  1.00  0.00     0.182 C 
ATOM     22  C   UNL     1      -1.019  -1.060   0.551  1.00  0.00     0.067 C 
ATOM     23  O   UNL     1       1.171  -2.031   0.216  1.00  0.00    -0.476 OA
ATOM     24  C   UNL     1       0.655  -0.847   2.378  1.00  0.00     0.268 C 
ATOM     25  C   UNL     1       1.228  -3.172   0.959  1.00  0.00     0.144 A 
ATOM     26  N   UNL     1       0.670  -2.060   3.021  1.00  0.00    -0.319 N 
ATOM     27  O   UNL     1       0.680   0.204   3.014  1.00  0.00    -0.270 OA
ATOM     28  C   UNL     1       1.691  -4.298   0.304  1.00  0.00     0.051 A 
ATOM     29  C   UNL     1       0.918  -3.238   2.316  1.00  0.00     0.086 A 
ATOM     30  H   UNL     1       0.504  -2.099   3.991  1.00  0.00     0.170 HD
ATOM     31  C   UNL     1       1.793  -5.501   0.995  1.00  0.00     0.030 A 
ATOM     32  C   UNL     1       0.941  -4.461   2.986  1.00  0.00     0.056 A 
ENDBRANCH  16  19
ENDBRANCH  10  15
ENDBRANCH   7   9
ENDBRANCH   6   7
ENDBRANCH   5   6
ENDBRANCH   4   5
ENDBRANCH   3   4
ENDBRANCH   2   3
ENDBRANCH   1   2
BRANCH   1  33
ATOM     33  O   UNL     1       2.257 -10.538  -2.845  1.00  0.00    -0.376 OA
BRANCH  33  34
ATOM     34  C   UNL     1       2.924 -11.773  -2.985  1.00  0.00     0.202 C 
BRANCH  34  35
ATOM     35  C   UNL     1       2.246 -12.865  -3.826  1.00  0.00     0.261 C 
BRANCH  35  36
ATOM     36  O   UNL     1       0.827 -13.032  -3.664  1.00  0.00    -0.460 OA
BRANCH  36  37
ATOM     37  C   UNL     1       0.393 -13.717  -2.581  1.00  0.00     0.338 C 
ATOM     38  O   UNL     1       1.088 -14.193  -1.695  1.00  0.00    -0.246 OA
BRANCH  37  39
ATOM     39  C   UNL     1      -1.082 -13.577  -2.528  1.00  0.00     0.060 A 
ATOM     40  C   UNL     1      -1.890 -14.079  -3.546  1.00  0.00     0.016 A 
ATOM     41  C   UNL     1      -1.661 -12.894  -1.453  1.00  0.00     0.016 A 
ATOM     42  C   UNL     1      -3.278 -13.902  -3.473  1.00  0.00     0.010 A 
ATOM     43  C   UNL     1      -3.044 -12.698  -1.389  1.00  0.00     0.010 A 
ATOM     44  C   UNL     1      -3.870 -13.217  -2.392  1.00  0.00    -0.014 A 
BRANCH  44  45
ATOM     45  C   UNL     1      -5.349 -13.217  -2.230  1.00  0.00     0.031 A 
ATOM     46  C   UNL     1      -6.188 -11.993  -2.460  1.00  0.00     0.074 A 
ATOM     47  C   UNL     1      -5.937 -14.369  -1.849  1.00  0.00     0.049 A 
ATOM     48  N   UNL     1      -7.493 -11.898  -2.501  1.00  0.00    -0.248 NA
ATOM     49  C   UNL     1      -5.486 -10.716  -2.657  1.00  0.00     0.031 C 
ATOM     50  C   UNL     1      -5.215 -15.601  -1.527  1.00  0.00     0.029 A 
ATOM     51  N   UNL     1      -7.258 -14.705  -1.688  1.00  0.00    -0.354 N 
ATOM     52  C   UNL     1      -7.774 -10.560  -2.756  1.00  0.00     0.074 A 
ATOM     53  C   UNL     1      -6.501  -9.870  -2.800  1.00  0.00     0.031 C 
ATOM     54  C   UNL     1      -6.101 -16.573  -1.267  1.00  0.00     0.029 A 
ATOM     55  C   UNL     1      -7.453 -16.029  -1.370  1.00  0.00     0.049 A 
ATOM     56  H   UNL     1      -7.995 -14.060  -1.791  1.00  0.00     0.167 HD
ATOM     57  C   UNL     1      -8.980  -9.977  -2.962  1.00  0.00     0.031 A 
ATOM     58  C   UNL     1      -8.586 -16.742  -1.202  1.00  0.00     0.031 A 
ATOM     59  C   UNL     1     -10.239 -10.683  -2.898  1.00  0.00     0.049 A 
ATOM     60  C   UNL     1      -9.912 -16.072  -1.424  1.00  0.00     0.074 A 
ATOM     61  C   UNL     1     -11.508 -10.191  -3.157  1.00  0.00     0.029 A 
ATOM     62  N   UNL     1     -10.397 -12.015  -2.543  1.00  0.00    -0.354 N 
ATOM     63  N   UNL     1     -10.154 -14.835  -1.789  1.00  0.00    -0.248 NA
ATOM     64  C   UNL     1     -11.117 -16.890  -1.234  1.00  0.00     0.031 C 
ATOM     65  C   UNL     1     -12.435 -11.196  -2.876  1.00  0.00     0.029 A 
ATOM     66  C   UNL     1     -11.743 -12.347  -2.534  1.00  0.00     0.049 A 
ATOM     67  H   UNL     1      -9.662 -12.633  -2.330  1.00  0.00     0.167 HD
ATOM     68  C   UNL     1     -11.537 -14.732  -1.890  1.00  0.00     0.074 A 
ATOM     69  C   UNL     1     -12.078 -16.037  -1.571  1.00  0.00     0.031 C 
ATOM     70  C   UNL     1     -12.284 -13.648  -2.213  1.00  0.00     0.031 A 
BRANCH  57  71
ATOM     71  C   UNL     1      -9.030  -8.509  -3.319  1.00  0.00    -0.014 A 
ATOM     72  C   UNL     1      -9.708  -7.598  -2.485  1.00  0.00     0.010 A 
ATOM     73  C   UNL     1      -8.555  -8.060  -4.565  1.00  0.00     0.010 A 
ATOM     74  C   UNL     1      -9.950  -6.286  -2.906  1.00  0.00     0.020 A 
ATOM     75  C   UNL     1      -8.766  -6.739  -4.977  1.00  0.00     0.020 A 
ATOM     76  C   UNL     1      -9.486  -5.869  -4.156  1.00  0.00     0.054 A 
BRANCH  76  77
ATOM     77  S   UNL     1      -9.859  -4.181  -4.710  1.00  0.00     0.124 S 
ATOM     78  O   UNL     1     -11.292  -4.251  -4.978  1.00  0.00    -0.237 OA
ATOM     79  O   UNL     1      -9.470  -3.375  -3.555  1.00  0.00    -0.237 OA
ATOM     80  O   UNL     1      -9.012  -4.011  -5.889  1.00  0.00    -0.744 OA
ENDBRANCH  76  77
ENDBRANCH  57  71
BRANCH  58  81
ATOM     81  C   UNL     1      -8.481 -18.193  -0.878  1.00  0.00    -0.014 A 
ATOM     82  C   UNL     1      -7.920 -18.612   0.344  1.00  0.00     0.010 A 
ATOM     83  C   UNL     1      -8.835 -19.163  -1.832  1.00  0.00     0.010 A 
ATOM     84  C   UNL     1      -7.647 -19.962   0.575  1.00  0.00     0.020 A 
ATOM     85  C   UNL     1      -8.598 -20.520  -1.589  1.00  0.00     0.020 A 
ATOM     86  C   UNL     1      -7.974 -20.906  -0.401  1.00  0.00     0.054 A 
BRANCH  86  87
ATOM     87  S   UNL     1      -7.536 -22.642  -0.109  1.00  0.00     0.124 S 
ATOM     88  O   UNL     1      -6.084 -22.615  -0.268  1.00  0.00    -0.237 OA
ATOM     89  O   UNL     1      -8.016 -22.866   1.251  1.00  0.00    -0.237 OA
ATOM     90  O   UNL     1      -8.265 -23.360  -1.152  1.00  0.00    -0.744 OA
ENDBRANCH  86  87
ENDBRANCH  58  81
BRANCH  70  91
ATOM     91  C   UNL     1     -13.787 -13.791  -2.235  1.00  0.00    -0.014 A 
ATOM     92  C   UNL     1     -14.492 -13.609  -3.441  1.00  0.00     0.010 A 
ATOM     93  C   UNL     1     -14.513 -13.945  -1.040  1.00  0.00     0.010 A 
ATOM     94  C   UNL     1     -15.886 -13.521  -3.445  1.00  0.00     0.020 A 
ATOM     95  C   UNL     1     -15.911 -13.895  -1.044  1.00  0.00     0.020 A 
ATOM     96  C   UNL     1     -16.586 -13.649  -2.242  1.00  0.00     0.054 A 
BRANCH  96  97
ATOM     97  S   UNL     1     -18.390 -13.458  -2.258  1.00  0.00     0.124 S 
ATOM     98  O   UNL     1     -18.546 -12.024  -2.482  1.00  0.00    -0.237 OA
ATOM     99  O   UNL     1     -18.793 -14.317  -3.369  1.00  0.00    -0.237 OA
ATOM    100  O   UNL     1     -18.798 -13.930  -0.936  1.00  0.00    -0.744 OA
ENDBRANCH  96  97
ENDBRANCH  70  91
ENDBRANCH  44  45
ENDBRANCH  37  39
ENDBRANCH  36  37
ENDBRANCH  35  36
ENDBRANCH  34  35
ENDBRANCH  33  34
ENDBRANCH   1  33
TORSDOF 22
