REMARK SMILES CCN(C(=O)N[C@@H]1CCOC1)[C@H]1COC[C@H]1C(=O)OCCOCCOCCOC(=O)c1ccc(-c2c3nc(c(-c4ccc(S(=O)(=O)[O-])cc4)c4ccc([nH]4)c(-c4ccc(S(=O)(=O)[O-])cc4)c4nc(c(-c5ccc(S(=O)(=O)[O-])cc5)c5ccc2[nH]5)C=C4)C=C3)cc1
REMARK SMILES IDX 23 1 22 2 21 3 20 4 19 5 17 6 18 7 16 8 12 9 13 10 14 11
REMARK SMILES IDX 15 12 3 13 2 14 1 15 4 16 5 17 6 18 7 20 8 21 11 22 9 23
REMARK SMILES IDX 10 24 24 25 25 26 26 27 27 28 28 29 29 30 30 31 31 32 32 33
REMARK SMILES IDX 90 34 33 35 89 36 34 37 35 38 36 39 83 40 37 41 88 42 82 43
REMARK SMILES IDX 84 44 38 45 87 46 81 47 80 48 39 50 69 51 50 52 68 53 51 54
REMARK SMILES IDX 54 55 67 56 85 57 52 58 53 59 66 61 86 62 55 63 40 64 41 65
REMARK SMILES IDX 49 66 42 67 48 68 43 69 44 70 45 71 46 72 47 73 70 74 71 75
REMARK SMILES IDX 79 76 72 77 78 78 73 79 74 80 75 81 76 82 77 83 56 84 57 85
REMARK SMILES IDX 65 86 58 87 64 88 59 89 60 90 61 91 62 92 63 93
REMARK H PARENT 6 19 84 49 54 60
REMARK Flexibility Score: inf
ROOT
ATOM      1  C   UNL     1       1.566   1.574   0.914  1.00  0.00     0.188 C 
ENDROOT
BRANCH   1   2
ATOM      2  O   UNL     1       2.294   2.711   0.480  1.00  0.00    -0.376 OA
BRANCH   2   3
ATOM      3  C   UNL     1       3.649   2.535   0.076  1.00  0.00     0.202 C 
BRANCH   3   4
ATOM      4  C   UNL     1       4.571   1.617   0.891  1.00  0.00     0.261 C 
BRANCH   4   5
ATOM      5  O   UNL     1       4.056   0.281   1.044  1.00  0.00    -0.463 OA
BRANCH   5   6
ATOM      6  C   UNL     1       4.336  -0.330   2.218  1.00  0.00     0.313 C 
ATOM      7  O   UNL     1       4.999   0.200   3.107  1.00  0.00    -0.252 OA
BRANCH   6   8
ATOM      8  C   UNL     1       3.640  -1.662   2.445  1.00  0.00     0.150 C 
ATOM      9  C   UNL     1       3.044  -2.640   1.414  1.00  0.00     0.129 C 
ATOM     10  C   UNL     1       3.286  -4.017   2.051  1.00  0.00     0.186 C 
ATOM     11  O   UNL     1       4.085  -3.868   3.221  1.00  0.00    -0.378 OA
ATOM     12  C   UNL     1       4.591  -2.535   3.246  1.00  0.00     0.177 C 
BRANCH   9  13
ATOM     13  N   UNL     1       3.359  -2.619  -0.038  1.00  0.00    -0.319 N 
BRANCH  13  14
ATOM     14  C   UNL     1       2.272  -3.117  -0.905  1.00  0.00     0.118 C 
ATOM     15  C   UNL     1       2.143  -4.638  -0.914  1.00  0.00     0.027 C 
ENDBRANCH  13  14
BRANCH  13  16
ATOM     16  C   UNL     1       4.612  -2.246  -0.428  1.00  0.00     0.318 C 
ATOM     17  O   UNL     1       5.514  -2.054   0.393  1.00  0.00    -0.249 OA
ATOM     18  N   UNL     1       4.987  -2.031  -1.698  1.00  0.00    -0.333 N 
ATOM     19  H   UNL     1       5.822  -1.512  -1.739  1.00  0.00     0.165 HD
BRANCH  18  20
ATOM     20  C   UNL     1       4.499  -2.355  -3.038  1.00  0.00     0.112 C 
ATOM     21  C   UNL     1       4.686  -3.834  -3.300  1.00  0.00     0.056 C 
ATOM     22  C   UNL     1       5.408  -1.776  -4.126  1.00  0.00     0.185 C 
ATOM     23  C   UNL     1       6.170  -3.905  -3.597  1.00  0.00     0.162 C 
ATOM     24  O   UNL     1       6.503  -2.696  -4.295  1.00  0.00    -0.379 OA
ENDBRANCH  18  20
ENDBRANCH  13  16
ENDBRANCH   9  13
ENDBRANCH   6   8
ENDBRANCH   5   6
ENDBRANCH   4   5
ENDBRANCH   3   4
ENDBRANCH   2   3
ENDBRANCH   1   2
BRANCH   1  25
ATOM     25  C   UNL     1       1.504   0.344  -0.004  1.00  0.00     0.188 C 
BRANCH  25  26
ATOM     26  O   UNL     1       2.251   0.343  -1.194  1.00  0.00    -0.376 OA
BRANCH  26  27
ATOM     27  C   UNL     1       1.753   0.899  -2.394  1.00  0.00     0.202 C 
BRANCH  27  28
ATOM     28  C   UNL     1       0.389   1.585  -2.588  1.00  0.00     0.261 C 
BRANCH  28  29
ATOM     29  O   UNL     1      -0.516   1.633  -1.490  1.00  0.00    -0.460 OA
BRANCH  29  30
ATOM     30  C   UNL     1      -1.362   0.578  -1.370  1.00  0.00     0.338 C 
ATOM     31  O   UNL     1      -1.400  -0.415  -2.070  1.00  0.00    -0.246 OA
BRANCH  30  32
ATOM     32  C   UNL     1      -2.053   0.728  -0.070  1.00  0.00     0.060 A 
ATOM     33  C   UNL     1      -1.911  -0.284   0.891  1.00  0.00     0.016 A 
ATOM     34  C   UNL     1      -2.789   1.879   0.214  1.00  0.00     0.016 A 
ATOM     35  C   UNL     1      -2.522  -0.154   2.137  1.00  0.00     0.010 A 
ATOM     36  C   UNL     1      -3.423   1.995   1.452  1.00  0.00     0.010 A 
ATOM     37  C   UNL     1      -3.315   0.968   2.407  1.00  0.00    -0.014 A 
BRANCH  37  38
ATOM     38  C   UNL     1      -4.199   0.981   3.595  1.00  0.00     0.031 A 
ATOM     39  C   UNL     1      -5.642   0.602   3.404  1.00  0.00     0.074 A 
ATOM     40  C   UNL     1      -3.740   1.325   4.812  1.00  0.00     0.049 A 
ATOM     41  N   UNL     1      -6.625   0.622   4.264  1.00  0.00    -0.248 NA
ATOM     42  C   UNL     1      -6.027   0.145   2.057  1.00  0.00     0.031 C 
ATOM     43  C   UNL     1      -2.355   1.665   5.134  1.00  0.00     0.029 A 
ATOM     44  N   UNL     1      -4.406   1.458   6.005  1.00  0.00    -0.354 N 
ATOM     45  C   UNL     1      -7.747   0.200   3.561  1.00  0.00     0.074 A 
ATOM     46  C   UNL     1      -7.329  -0.048   2.199  1.00  0.00     0.031 C 
ATOM     47  C   UNL     1      -2.278   1.984   6.439  1.00  0.00     0.029 A 
ATOM     48  C   UNL     1      -3.612   1.911   7.032  1.00  0.00     0.049 A 
ATOM     49  H   UNL     1      -5.362   1.249   6.115  1.00  0.00     0.167 HD
ATOM     50  C   UNL     1      -9.012   0.033   4.009  1.00  0.00     0.031 A 
ATOM     51  C   UNL     1      -3.934   2.256   8.296  1.00  0.00     0.031 A 
ATOM     52  C   UNL     1      -9.426   0.293   5.361  1.00  0.00     0.049 A 
ATOM     53  C   UNL     1      -5.368   2.134   8.752  1.00  0.00     0.074 A 
ATOM     54  C   UNL     1     -10.683   0.137   5.919  1.00  0.00     0.029 A 
ATOM     55  N   UNL     1      -8.599   0.774   6.364  1.00  0.00    -0.354 N 
ATOM     56  N   UNL     1      -6.414   1.707   8.084  1.00  0.00    -0.248 NA
ATOM     57  C   UNL     1      -5.662   2.535  10.135  1.00  0.00     0.031 C 
ATOM     58  C   UNL     1     -10.631   0.586   7.242  1.00  0.00     0.029 A 
ATOM     59  C   UNL     1      -9.325   0.949   7.530  1.00  0.00     0.049 A 
ATOM     60  H   UNL     1      -7.638   0.962   6.263  1.00  0.00     0.167 HD
ATOM     61  C   UNL     1      -7.481   1.756   8.978  1.00  0.00     0.074 A 
ATOM     62  C   UNL     1      -6.951   2.241  10.235  1.00  0.00     0.031 C 
ATOM     63  C   UNL     1      -8.782   1.427   8.777  1.00  0.00     0.031 A 
BRANCH  50  64
ATOM     64  C   UNL     1     -10.052  -0.416   3.017  1.00  0.00    -0.014 A 
ATOM     65  C   UNL     1     -10.052  -1.723   2.498  1.00  0.00     0.010 A 
ATOM     66  C   UNL     1     -11.073   0.474   2.635  1.00  0.00     0.010 A 
ATOM     67  C   UNL     1     -11.039  -2.123   1.593  1.00  0.00     0.020 A 
ATOM     68  C   UNL     1     -12.079   0.068   1.755  1.00  0.00     0.020 A 
ATOM     69  C   UNL     1     -12.048  -1.224   1.229  1.00  0.00     0.054 A 
BRANCH  69  70
ATOM     70  S   UNL     1     -13.338  -1.785   0.085  1.00  0.00     0.124 S 
ATOM     71  O   UNL     1     -12.601  -1.888  -1.172  1.00  0.00    -0.237 OA
ATOM     72  O   UNL     1     -13.755  -3.055   0.674  1.00  0.00    -0.237 OA
ATOM     73  O   UNL     1     -14.335  -0.719   0.135  1.00  0.00    -0.744 OA
ENDBRANCH  69  70
ENDBRANCH  50  64
BRANCH  51  74
ATOM     74  C   UNL     1      -2.889   2.781   9.220  1.00  0.00    -0.014 A 
ATOM     75  C   UNL     1      -2.498   2.051  10.356  1.00  0.00     0.010 A 
ATOM     76  C   UNL     1      -2.293   4.033   8.978  1.00  0.00     0.010 A 
ATOM     77  C   UNL     1      -1.552   2.573  11.245  1.00  0.00     0.020 A 
ATOM     78  C   UNL     1      -1.324   4.544   9.846  1.00  0.00     0.020 A 
ATOM     79  C   UNL     1      -0.970   3.816  10.982  1.00  0.00     0.054 A 
BRANCH  79  80
ATOM     80  S   UNL     1       0.280   4.456  12.131  1.00  0.00     0.124 S 
ATOM     81  O   UNL     1      -0.527   4.803  13.296  1.00  0.00    -0.237 OA
ATOM     82  O   UNL     1       1.171   3.311  12.295  1.00  0.00    -0.237 OA
ATOM     83  O   UNL     1       0.859   5.589  11.411  1.00  0.00    -0.744 OA
ENDBRANCH  79  80
ENDBRANCH  51  74
BRANCH  63  84
ATOM     84  C   UNL     1      -9.722   1.529   9.952  1.00  0.00    -0.014 A 
ATOM     85  C   UNL     1     -10.117   2.773  10.474  1.00  0.00     0.010 A 
ATOM     86  C   UNL     1     -10.269   0.353  10.501  1.00  0.00     0.010 A 
ATOM     87  C   UNL     1     -11.015   2.838  11.544  1.00  0.00     0.020 A 
ATOM     88  C   UNL     1     -11.192   0.415  11.548  1.00  0.00     0.020 A 
ATOM     89  C   UNL     1     -11.548   1.658  12.073  1.00  0.00     0.054 A 
BRANCH  89  90
ATOM     90  S   UNL     1     -12.745   1.772  13.431  1.00  0.00     0.124 S 
ATOM     91  O   UNL     1     -11.898   2.178  14.549  1.00  0.00    -0.237 OA
ATOM     92  O   UNL     1     -13.679   2.787  12.949  1.00  0.00    -0.237 OA
ATOM     93  O   UNL     1     -13.295   0.422  13.524  1.00  0.00    -0.744 OA
ENDBRANCH  89  90
ENDBRANCH  63  84
ENDBRANCH  37  38
ENDBRANCH  30  32
ENDBRANCH  29  30
ENDBRANCH  28  29
ENDBRANCH  27  28
ENDBRANCH  26  27
ENDBRANCH  25  26
ENDBRANCH   1  25
TORSDOF 24
