REMARK SMILES C[C@]1(C(=O)NCc2ccc(C(=O)OCCOCCOCCOC(=O)c3ccc(-c4c5nc(c(-c6ccc(S(=O)(=O)[O-])cc6)c6ccc([nH]6)c(-c6ccc(S(=O)(=O)[O-])cc6)c6nc(c(-c7ccc(S(=O)(=O)[O-])cc7)c7ccc4[nH]7)C=C6)C=C5)cc3)o2)CCC[NH2+]C1
REMARK SMILES IDX 17 1 16 2 15 3 14 4 13 5 11 6 12 7 10 8 7 9 8 10 85 11 9 12
REMARK SMILES IDX 6 13 5 14 3 15 4 16 2 18 1 19 86 20 90 21 87 22 89 23 88 24
REMARK SMILES IDX 18 27 19 28 20 29 21 30 22 31 23 32 24 33 25 34 26 35 84 36
REMARK SMILES IDX 27 37 83 38 28 39 29 40 30 41 77 42 31 43 82 44 76 45 78 46
REMARK SMILES IDX 32 47 81 48 75 49 74 50 33 52 63 53 44 54 62 55 45 56 48 57
REMARK SMILES IDX 61 58 79 59 46 60 47 61 60 63 80 64 49 65 34 66 35 67 43 68
REMARK SMILES IDX 36 69 42 70 37 71 38 72 39 73 40 74 41 75 64 76 65 77 73 78
REMARK SMILES IDX 66 79 72 80 67 81 68 82 69 83 70 84 71 85 50 86 51 87 59 88
REMARK SMILES IDX 52 89 58 90 53 91 54 92 55 93 56 94 57 95
REMARK H PARENT 5 17 89 25 89 26 78 51 48 62
REMARK Flexibility Score: inf
ROOT
ATOM      1  C   UNL     1       2.156   2.696  -5.824  1.00  0.00     0.188 C 
ENDROOT
BRANCH   1   2
ATOM      2  O   UNL     1       2.500   3.864  -6.564  1.00  0.00    -0.376 OA
BRANCH   2   3
ATOM      3  C   UNL     1       3.746   3.909  -7.254  1.00  0.00     0.202 C 
BRANCH   3   4
ATOM      4  C   UNL     1       5.021   3.635  -6.448  1.00  0.00     0.261 C 
BRANCH   4   5
ATOM      5  O   UNL     1       5.068   2.300  -5.913  1.00  0.00    -0.457 OA
BRANCH   5   6
ATOM      6  C   UNL     1       5.319   2.206  -4.571  1.00  0.00     0.374 C 
ATOM      7  O   UNL     1       5.652   3.148  -3.860  1.00  0.00    -0.242 OA
BRANCH   6   8
ATOM      8  C   UNL     1       5.038   0.865  -4.111  1.00  0.00     0.211 A 
ATOM      9  C   UNL     1       4.328  -0.615  -2.627  1.00  0.00     0.124 A 
ATOM     10  C   UNL     1       4.550  -1.311  -3.796  1.00  0.00     0.048 A 
ATOM     11  O   UNL     1       4.657   0.698  -2.804  1.00  0.00    -0.452 OA
ATOM     12  C   UNL     1       5.007  -0.365  -4.747  1.00  0.00     0.058 A 
BRANCH   9  13
ATOM     13  C   UNL     1       3.859  -1.018  -1.276  1.00  0.00     0.191 C 
BRANCH  13  14
ATOM     14  N   UNL     1       2.769  -0.169  -0.853  1.00  0.00    -0.348 N 
ATOM     15  C   UNL     1       1.603  -0.399  -0.201  1.00  0.00     0.232 C 
ATOM     16  O   UNL     1       1.191   0.574   0.446  1.00  0.00    -0.274 OA
ATOM     17  H   UNL     1       2.901   0.778  -1.087  1.00  0.00     0.163 HD
BRANCH  15  18
ATOM     18  C   UNL     1       0.675  -1.621  -0.423  1.00  0.00     0.095 C 
ATOM     19  C   UNL     1      -0.294  -1.156  -1.530  1.00  0.00     0.028 C 
ATOM     20  C   UNL     1       1.264  -2.968  -0.862  1.00  0.00     0.028 C 
ATOM     21  C   UNL     1      -0.164  -1.854   0.866  1.00  0.00     0.277 C 
ATOM     22  C   UNL     1       1.991  -3.680   0.277  1.00  0.00     0.063 C 
ATOM     23  N   UNL     1       0.593  -2.536   1.925  1.00  0.00    -0.345 N 
ATOM     24  C   UNL     1       1.080  -3.837   1.490  1.00  0.00     0.260 C 
ATOM     25  H   UNL     1       1.391  -1.957   2.187  1.00  0.00     0.346 HD
ATOM     26  H   UNL     1      -0.031  -2.681   2.719  1.00  0.00     0.346 HD
ENDBRANCH  15  18
ENDBRANCH  13  14
ENDBRANCH   9  13
ENDBRANCH   6   8
ENDBRANCH   5   6
ENDBRANCH   4   5
ENDBRANCH   3   4
ENDBRANCH   2   3
ENDBRANCH   1   2
BRANCH   1  27
ATOM     27  C   UNL     1       2.196   1.333  -6.543  1.00  0.00     0.188 C 
BRANCH  27  28
ATOM     28  O   UNL     1       2.653   1.408  -7.881  1.00  0.00    -0.376 OA
BRANCH  28  29
ATOM     29  C   UNL     1       1.701   1.127  -8.896  1.00  0.00     0.202 C 
BRANCH  29  30
ATOM     30  C   UNL     1       0.437   2.000  -8.987  1.00  0.00     0.261 C 
BRANCH  30  31
ATOM     31  O   UNL     1      -0.248   2.269  -7.755  1.00  0.00    -0.460 OA
BRANCH  31  32
ATOM     32  C   UNL     1      -1.101   1.323  -7.303  1.00  0.00     0.338 C 
ATOM     33  O   UNL     1      -1.308   0.228  -7.791  1.00  0.00    -0.246 OA
BRANCH  32  34
ATOM     34  C   UNL     1      -1.641   1.789  -6.009  1.00  0.00     0.060 A 
ATOM     35  C   UNL     1      -1.211   1.167  -4.835  1.00  0.00     0.016 A 
ATOM     36  C   UNL     1      -2.574   2.829  -5.956  1.00  0.00     0.016 A 
ATOM     37  C   UNL     1      -1.730   1.578  -3.607  1.00  0.00     0.010 A 
ATOM     38  C   UNL     1      -3.108   3.220  -4.721  1.00  0.00     0.010 A 
ATOM     39  C   UNL     1      -2.708   2.576  -3.539  1.00  0.00    -0.014 A 
BRANCH  39  40
ATOM     40  C   UNL     1      -3.409   2.820  -2.251  1.00  0.00     0.031 A 
ATOM     41  C   UNL     1      -4.766   2.204  -2.036  1.00  0.00     0.074 A 
ATOM     42  C   UNL     1      -2.827   3.513  -1.254  1.00  0.00     0.049 A 
ATOM     43  N   UNL     1      -5.572   2.305  -1.010  1.00  0.00    -0.248 NA
ATOM     44  C   UNL     1      -5.277   1.350  -3.121  1.00  0.00     0.031 C 
ATOM     45  C   UNL     1      -1.480   4.080  -1.290  1.00  0.00     0.029 A 
ATOM     46  N   UNL     1      -3.299   3.845  -0.007  1.00  0.00    -0.354 N 
ATOM     47  C   UNL     1      -6.690   1.544  -1.330  1.00  0.00     0.074 A 
ATOM     48  C   UNL     1      -6.465   0.998  -2.652  1.00  0.00     0.031 C 
ATOM     49  C   UNL     1      -1.232   4.689  -0.117  1.00  0.00     0.029 A 
ATOM     50  C   UNL     1      -2.415   4.593   0.736  1.00  0.00     0.049 A 
ATOM     51  H   UNL     1      -4.185   3.574   0.324  1.00  0.00     0.167 HD
ATOM     52  C   UNL     1      -7.805   1.319  -0.595  1.00  0.00     0.031 A 
ATOM     53  C   UNL     1      -2.552   5.157   1.953  1.00  0.00     0.031 A 
ATOM     54  C   UNL     1      -8.037   1.868   0.714  1.00  0.00     0.049 A 
ATOM     55  C   UNL     1      -3.842   4.978   2.712  1.00  0.00     0.074 A 
ATOM     56  C   UNL     1      -9.144   1.710   1.530  1.00  0.00     0.029 A 
ATOM     57  N   UNL     1      -7.150   2.686   1.397  1.00  0.00    -0.354 N 
ATOM     58  N   UNL     1      -4.904   4.280   2.383  1.00  0.00    -0.248 NA
ATOM     59  C   UNL     1      -3.954   5.669   4.005  1.00  0.00     0.031 C 
ATOM     60  C   UNL     1      -8.947   2.474   2.686  1.00  0.00     0.029 A 
ATOM     61  C   UNL     1      -7.695   3.063   2.613  1.00  0.00     0.049 A 
ATOM     62  H   UNL     1      -6.264   2.959   1.066  1.00  0.00     0.167 HD
ATOM     63  C   UNL     1      -5.800   4.432   3.437  1.00  0.00     0.074 A 
ATOM     64  C   UNL     1      -5.154   5.279   4.418  1.00  0.00     0.031 C 
ATOM     65  C   UNL     1      -7.045   3.914   3.578  1.00  0.00     0.031 A 
BRANCH  52  66
ATOM     66  C   UNL     1      -8.883   0.480  -1.224  1.00  0.00    -0.014 A 
ATOM     67  C   UNL     1      -8.739  -0.912  -1.365  1.00  0.00     0.010 A 
ATOM     68  C   UNL     1     -10.062   1.098  -1.680  1.00  0.00     0.010 A 
ATOM     69  C   UNL     1      -9.736  -1.664  -1.992  1.00  0.00     0.020 A 
ATOM     70  C   UNL     1     -11.071   0.346  -2.286  1.00  0.00     0.020 A 
ATOM     71  C   UNL     1     -10.892  -1.028  -2.458  1.00  0.00     0.054 A 
BRANCH  71  72
ATOM     72  S   UNL     1     -12.169  -2.024  -3.274  1.00  0.00     0.124 S 
ATOM     73  O   UNL     1     -11.566  -2.272  -4.582  1.00  0.00    -0.237 OA
ATOM     74  O   UNL     1     -12.275  -3.191  -2.402  1.00  0.00    -0.237 OA
ATOM     75  O   UNL     1     -13.338  -1.149  -3.284  1.00  0.00    -0.744 OA
ENDBRANCH  71  72
ENDBRANCH  52  66
BRANCH  53  76
ATOM     76  C   UNL     1      -1.451   5.987   2.517  1.00  0.00    -0.014 A 
ATOM     77  C   UNL     1      -0.703   5.542   3.620  1.00  0.00     0.010 A 
ATOM     78  C   UNL     1      -1.147   7.237   1.946  1.00  0.00     0.010 A 
ATOM     79  C   UNL     1       0.320   6.337   4.150  1.00  0.00     0.020 A 
ATOM     80  C   UNL     1      -0.110   8.023   2.456  1.00  0.00     0.020 A 
ATOM     81  C   UNL     1       0.611   7.573   3.563  1.00  0.00     0.054 A 
BRANCH  81  82
ATOM     82  S   UNL     1       1.973   8.569   4.232  1.00  0.00     0.124 S 
ATOM     83  O   UNL     1       1.381   9.118   5.447  1.00  0.00    -0.237 OA
ATOM     84  O   UNL     1       3.026   7.577   4.435  1.00  0.00    -0.237 OA
ATOM     85  O   UNL     1       2.240   9.539   3.171  1.00  0.00    -0.744 OA
ENDBRANCH  81  82
ENDBRANCH  53  76
BRANCH  65  86
ATOM     86  C   UNL     1      -7.790   4.226   4.849  1.00  0.00    -0.014 A 
ATOM     87  C   UNL     1      -8.350   5.497   5.071  1.00  0.00     0.010 A 
ATOM     88  C   UNL     1      -7.985   3.214   5.807  1.00  0.00     0.010 A 
ATOM     89  C   UNL     1      -9.070   5.756   6.241  1.00  0.00     0.020 A 
ATOM     90  C   UNL     1      -8.724   3.463   6.967  1.00  0.00     0.020 A 
ATOM     91  C   UNL     1      -9.252   4.738   7.182  1.00  0.00     0.054 A 
BRANCH  91  92
ATOM     92  S   UNL     1     -10.233   5.083   8.669  1.00  0.00     0.124 S 
ATOM     93  O   UNL     1      -9.301   5.868   9.474  1.00  0.00    -0.237 OA
ATOM     94  O   UNL     1     -11.378   5.820   8.137  1.00  0.00    -0.237 OA
ATOM     95  O   UNL     1     -10.546   3.756   9.194  1.00  0.00    -0.744 OA
ENDBRANCH  91  92
ENDBRANCH  65  86
ENDBRANCH  39  40
ENDBRANCH  32  34
ENDBRANCH  31  32
ENDBRANCH  30  31
ENDBRANCH  29  30
ENDBRANCH  28  29
ENDBRANCH  27  28
ENDBRANCH   1  27
TORSDOF 23
