REMARK SMILES COc1ccc(-n2c(SCc3cn(-c4ccc(C(=O)OCCOCCOCCOC(=O)c5ccc(-c6c7nc(c(-c8ccc(S(=O)(=O)[O-])cc8)c8ccc([nH]8)c(-c8ccc(S(=O)(=O)[O-])cc8)c8nc(c(-c9ccc(S(=O)(=O)[O-])cc9)c9ccc6[nH]9)C=C8)C=C7)cc5)cc4)nn3)nc3ccccc3c2=O)cc1
REMARK SMILES IDX 23 1 22 2 21 3 20 4 18 5 19 6 17 7 14 8 15 9 93 10 16 11
REMARK SMILES IDX 92 12 13 13 11 14 12 15 95 16 94 17 10 18 9 19 8 20 7 21
REMARK SMILES IDX 103 22 96 23 102 24 104 25 97 26 101 27 98 28 100 29 99 30
REMARK SMILES IDX 6 31 3 32 4 33 106 34 5 35 105 36 2 37 1 38 24 39 25 40
REMARK SMILES IDX 26 41 27 42 28 43 29 44 30 45 31 46 32 47 33 48 91 49 34 50
REMARK SMILES IDX 90 51 35 52 36 53 37 54 84 55 38 56 89 57 83 58 85 59 39 60
REMARK SMILES IDX 88 61 82 62 81 63 40 65 70 66 51 67 69 68 52 69 55 70 68 71
REMARK SMILES IDX 86 72 53 73 54 74 67 76 87 77 56 78 41 79 42 80 50 81 43 82
REMARK SMILES IDX 49 83 44 84 45 85 46 86 47 87 48 88 71 89 72 90 80 91 73 92
REMARK SMILES IDX 79 93 74 94 75 95 76 96 77 97 78 98 57 99 58 100 66 101
REMARK SMILES IDX 59 102 65 103 60 104 61 105 62 106 63 107 64 108
REMARK H PARENT 85 64 55 75
REMARK Flexibility Score: inf
ROOT
ATOM      1  O   UNL     1      -7.149   3.034  -4.314  1.00  0.00    -0.376 OA
ENDROOT
BRANCH   1   2
ATOM      2  C   UNL     1      -7.836   1.890  -3.819  1.00  0.00     0.202 C 
BRANCH   2   3
ATOM      3  C   UNL     1      -7.289   0.482  -4.118  1.00  0.00     0.261 C 
BRANCH   3   4
ATOM      4  O   UNL     1      -5.894   0.318  -3.831  1.00  0.00    -0.460 OA
BRANCH   4   5
ATOM      5  C   UNL     1      -5.107  -0.061  -4.864  1.00  0.00     0.338 C 
ATOM      6  O   UNL     1      -5.464  -0.445  -5.963  1.00  0.00    -0.246 OA
BRANCH   5   7
ATOM      7  C   UNL     1      -3.699   0.261  -4.537  1.00  0.00     0.060 A 
ATOM      8  C   UNL     1      -1.100   1.066  -4.001  1.00  0.00     0.066 A 
ATOM      9  C   UNL     1      -1.615   1.234  -5.289  1.00  0.00     0.029 A 
ATOM     10  C   UNL     1      -1.876   0.522  -2.970  1.00  0.00     0.029 A 
ATOM     11  C   UNL     1      -2.927   0.850  -5.548  1.00  0.00     0.018 A 
ATOM     12  C   UNL     1      -3.170   0.082  -3.252  1.00  0.00     0.018 A 
BRANCH   8  13
ATOM     13  N   UNL     1       0.265   1.295  -3.772  1.00  0.00    -0.220 N 
ATOM     14  C   UNL     1       2.380   0.823  -3.722  1.00  0.00     0.093 A 
ATOM     15  C   UNL     1       1.274   0.773  -4.540  1.00  0.00     0.141 A 
ATOM     16  N   UNL     1       2.056   1.510  -2.583  1.00  0.00    -0.134 NA
ATOM     17  N   UNL     1       0.755   1.755  -2.605  1.00  0.00    -0.062 NA
BRANCH  14  18
ATOM     18  C   UNL     1       3.705   0.190  -3.826  1.00  0.00     0.138 C 
BRANCH  18  19
ATOM     19  S   UNL     1       4.245  -0.213  -5.469  1.00  0.00    -0.081 SA
BRANCH  19  20
ATOM     20  C   UNL     1       3.168  -1.458  -6.126  1.00  0.00     0.176 A 
ATOM     21  N   UNL     1       3.178  -2.703  -5.515  1.00  0.00    -0.255 N 
ATOM     22  C   UNL     1       3.609  -3.802  -6.256  1.00  0.00     0.266 A 
ATOM     23  N   UNL     1       3.007  -1.325  -7.405  1.00  0.00    -0.223 NA
ATOM     24  C   UNL     1       4.217  -3.441  -7.559  1.00  0.00     0.066 A 
ATOM     25  O   UNL     1       3.551  -4.980  -5.918  1.00  0.00    -0.268 OA
ATOM     26  C   UNL     1       3.818  -2.222  -8.120  1.00  0.00     0.079 A 
ATOM     27  C   UNL     1       5.271  -4.171  -8.107  1.00  0.00     0.016 A 
ATOM     28  C   UNL     1       4.466  -1.742  -9.257  1.00  0.00     0.029 A 
ATOM     29  C   UNL     1       5.957  -3.646  -9.206  1.00  0.00     0.001 A 
ATOM     30  C   UNL     1       5.551  -2.439  -9.783  1.00  0.00     0.002 A 
BRANCH  21  31
ATOM     31  C   UNL     1       2.416  -2.905  -4.336  1.00  0.00     0.052 A 
ATOM     32  C   UNL     1       1.043  -2.629  -1.937  1.00  0.00     0.119 A 
ATOM     33  C   UNL     1       0.336  -2.574  -3.134  1.00  0.00     0.048 A 
ATOM     34  C   UNL     1       2.392  -2.986  -1.927  1.00  0.00     0.048 A 
ATOM     35  C   UNL     1       1.029  -2.688  -4.341  1.00  0.00     0.030 A 
ATOM     36  C   UNL     1       3.076  -3.155  -3.132  1.00  0.00     0.030 A 
BRANCH  32  37
ATOM     37  O   UNL     1       0.388  -2.322  -0.775  1.00  0.00    -0.497 OA
ATOM     38  C   UNL     1       0.864  -1.071  -0.260  1.00  0.00     0.278 C 
ENDBRANCH  32  37
ENDBRANCH  21  31
ENDBRANCH  19  20
ENDBRANCH  18  19
ENDBRANCH  14  18
ENDBRANCH   8  13
ENDBRANCH   5   7
ENDBRANCH   4   5
ENDBRANCH   3   4
ENDBRANCH   2   3
ENDBRANCH   1   2
BRANCH   1  39
ATOM     39  C   UNL     1      -5.759   3.195  -4.048  1.00  0.00     0.188 C 
BRANCH  39  40
ATOM     40  C   UNL     1      -5.187   2.902  -2.644  1.00  0.00     0.188 C 
BRANCH  40  41
ATOM     41  O   UNL     1      -6.064   2.195  -1.785  1.00  0.00    -0.376 OA
BRANCH  41  42
ATOM     42  C   UNL     1      -6.487   2.846  -0.596  1.00  0.00     0.202 C 
BRANCH  42  43
ATOM     43  C   UNL     1      -7.256   4.162  -0.721  1.00  0.00     0.261 C 
BRANCH  43  44
ATOM     44  O   UNL     1      -6.789   5.056  -1.720  1.00  0.00    -0.460 OA
BRANCH  44  45
ATOM     45  C   UNL     1      -5.673   5.747  -1.408  1.00  0.00     0.338 C 
ATOM     46  O   UNL     1      -4.899   5.511  -0.499  1.00  0.00    -0.246 OA
BRANCH  45  47
ATOM     47  C   UNL     1      -5.574   6.890  -2.326  1.00  0.00     0.060 A 
ATOM     48  C   UNL     1      -4.369   7.595  -2.358  1.00  0.00     0.016 A 
ATOM     49  C   UNL     1      -6.744   7.391  -2.918  1.00  0.00     0.016 A 
ATOM     50  C   UNL     1      -4.389   8.901  -2.801  1.00  0.00     0.010 A 
ATOM     51  C   UNL     1      -6.768   8.700  -3.337  1.00  0.00     0.010 A 
ATOM     52  C   UNL     1      -5.611   9.461  -3.188  1.00  0.00    -0.014 A 
BRANCH  52  53
ATOM     53  C   UNL     1      -5.677  10.899  -3.324  1.00  0.00     0.031 A 
ATOM     54  C   UNL     1      -5.296  11.447  -4.634  1.00  0.00     0.074 A 
ATOM     55  C   UNL     1      -6.160  11.676  -2.337  1.00  0.00     0.049 A 
ATOM     56  N   UNL     1      -4.264  12.169  -4.917  1.00  0.00    -0.248 NA
ATOM     57  C   UNL     1      -6.117  11.067  -5.791  1.00  0.00     0.031 C 
ATOM     58  C   UNL     1      -6.884  11.249  -1.135  1.00  0.00     0.029 A 
ATOM     59  N   UNL     1      -6.208  13.033  -2.272  1.00  0.00    -0.354 N 
ATOM     60  C   UNL     1      -4.398  12.495  -6.259  1.00  0.00     0.074 A 
ATOM     61  C   UNL     1      -5.455  11.664  -6.782  1.00  0.00     0.031 C 
ATOM     62  C   UNL     1      -7.490  12.325  -0.587  1.00  0.00     0.029 A 
ATOM     63  C   UNL     1      -7.094  13.516  -1.323  1.00  0.00     0.049 A 
ATOM     64  H   UNL     1      -5.664  13.618  -2.846  1.00  0.00     0.167 HD
ATOM     65  C   UNL     1      -3.793  13.582  -6.805  1.00  0.00     0.031 A 
ATOM     66  C   UNL     1      -7.540  14.791  -1.220  1.00  0.00     0.031 A 
ATOM     67  C   UNL     1      -2.792  14.152  -5.945  1.00  0.00     0.049 A 
ATOM     68  C   UNL     1      -6.592  15.665  -1.955  1.00  0.00     0.074 A 
ATOM     69  C   UNL     1      -1.615  13.698  -5.385  1.00  0.00     0.029 A 
ATOM     70  N   UNL     1      -3.133  15.291  -5.254  1.00  0.00    -0.354 N 
ATOM     71  N   UNL     1      -5.368  15.897  -1.572  1.00  0.00    -0.248 NA
ATOM     72  C   UNL     1      -6.876  15.997  -3.345  1.00  0.00     0.031 C 
ATOM     73  C   UNL     1      -1.528  14.341  -4.117  1.00  0.00     0.029 A 
ATOM     74  C   UNL     1      -2.646  15.167  -3.977  1.00  0.00     0.049 A 
ATOM     75  H   UNL     1      -3.637  16.058  -5.611  1.00  0.00     0.167 HD
ATOM     76  C   UNL     1      -4.636  16.009  -2.746  1.00  0.00     0.074 A 
ATOM     77  C   UNL     1      -5.633  16.188  -3.795  1.00  0.00     0.031 C 
ATOM     78  C   UNL     1      -3.313  15.670  -2.792  1.00  0.00     0.031 A 
BRANCH  65  79
ATOM     79  C   UNL     1      -4.372  14.338  -7.967  1.00  0.00    -0.014 A 
ATOM     80  C   UNL     1      -3.583  15.293  -8.633  1.00  0.00     0.010 A 
ATOM     81  C   UNL     1      -5.753  14.319  -8.260  1.00  0.00     0.010 A 
ATOM     82  C   UNL     1      -4.158  16.211  -9.520  1.00  0.00     0.020 A 
ATOM     83  C   UNL     1      -6.327  15.195  -9.179  1.00  0.00     0.020 A 
ATOM     84  C   UNL     1      -5.530  16.162  -9.776  1.00  0.00     0.054 A 
BRANCH  84  85
ATOM     85  S   UNL     1      -6.285  17.418 -10.835  1.00  0.00     0.124 S 
ATOM     86  O   UNL     1      -6.217  18.603  -9.985  1.00  0.00    -0.237 OA
ATOM     87  O   UNL     1      -5.402  17.419 -11.998  1.00  0.00    -0.237 OA
ATOM     88  O   UNL     1      -7.628  16.896 -11.079  1.00  0.00    -0.744 OA
ENDBRANCH  84  85
ENDBRANCH  65  79
BRANCH  66  89
ATOM     89  C   UNL     1      -8.887  15.237  -0.791  1.00  0.00    -0.014 A 
ATOM     90  C   UNL     1      -9.145  16.592  -0.517  1.00  0.00     0.010 A 
ATOM     91  C   UNL     1      -9.994  14.368  -0.899  1.00  0.00     0.010 A 
ATOM     92  C   UNL     1     -10.462  17.069  -0.416  1.00  0.00     0.020 A 
ATOM     93  C   UNL     1     -11.307  14.831  -0.784  1.00  0.00     0.020 A 
ATOM     94  C   UNL     1     -11.536  16.187  -0.569  1.00  0.00     0.054 A 
BRANCH  94  95
ATOM     95  S   UNL     1     -13.229  16.838  -0.622  1.00  0.00     0.124 S 
ATOM     96  O   UNL     1     -13.456  17.225   0.767  1.00  0.00    -0.237 OA
ATOM     97  O   UNL     1     -13.116  17.938  -1.575  1.00  0.00    -0.237 OA
ATOM     98  O   UNL     1     -14.021  15.700  -1.087  1.00  0.00    -0.744 OA
ENDBRANCH  94  95
ENDBRANCH  66  89
BRANCH  78  99
ATOM     99  C   UNL     1      -2.563  15.527  -1.487  1.00  0.00    -0.014 A 
ATOM    100  C   UNL     1      -2.914  14.595  -0.491  1.00  0.00     0.010 A 
ATOM    101  C   UNL     1      -1.373  16.260  -1.328  1.00  0.00     0.010 A 
ATOM    102  C   UNL     1      -2.111  14.423   0.645  1.00  0.00     0.020 A 
ATOM    103  C   UNL     1      -0.558  16.079  -0.207  1.00  0.00     0.020 A 
ATOM    104  C   UNL     1      -0.936  15.167   0.779  1.00  0.00     0.054 A 
BRANCH 104 105
ATOM    105  S   UNL     1       0.132  14.889   2.221  1.00  0.00     0.124 S 
ATOM    106  O   UNL     1      -0.639  15.489   3.306  1.00  0.00    -0.237 OA
ATOM    107  O   UNL     1       0.250  13.433   2.263  1.00  0.00    -0.237 OA
ATOM    108  O   UNL     1       1.368  15.591   1.878  1.00  0.00    -0.744 OA
ENDBRANCH 104 105
ENDBRANCH  78  99
ENDBRANCH  52  53
ENDBRANCH  45  47
ENDBRANCH  44  45
ENDBRANCH  43  44
ENDBRANCH  42  43
ENDBRANCH  41  42
ENDBRANCH  40  41
ENDBRANCH  39  40
ENDBRANCH   1  39
TORSDOF 26
