REMARK SMILES Cc1cc(C(=O)OCCOCCOCCOC(=O)c2ccc(-c3c4nc(c(-c5ccc(S(=O)(=O)[O-])cc5)c5ccc([nH]5)c(-c5ccc(S(=O)(=O)[O-])cc5)c5nc(c(-c6ccc(S(=O)(=O)[O-])cc6)c6ccc3[nH]6)C=C5)C=C4)cc2)ccc1NC(=O)N1C[C@@H](C)[C@H](C)C1
REMARK SMILES IDX 12 1 11 2 10 3 9 4 8 5 7 6 5 7 6 8 4 9 1 10 2 11 3 12 81 13
REMARK SMILES IDX 80 14 79 15 82 16 83 17 84 19 85 20 86 21 91 22 87 23 89 24
REMARK SMILES IDX 88 25 90 26 13 27 14 28 15 29 16 30 17 31 18 32 19 33 20 34
REMARK SMILES IDX 78 35 21 36 77 37 22 38 23 39 24 40 71 41 25 42 76 43 70 44
REMARK SMILES IDX 72 45 26 46 75 47 69 48 68 49 27 51 57 52 38 53 56 54 39 55
REMARK SMILES IDX 42 56 55 57 73 58 40 59 41 60 54 62 74 63 43 64 28 65 29 66
REMARK SMILES IDX 37 67 30 68 36 69 31 70 32 71 33 72 34 73 35 74 58 75 59 76
REMARK SMILES IDX 67 77 60 78 66 79 61 80 62 81 63 82 64 83 65 84 44 85 45 86
REMARK SMILES IDX 53 87 46 88 52 89 47 90 48 91 49 92 50 93 51 94
REMARK H PARENT 82 18 72 50 42 61
REMARK Flexibility Score: inf
ROOT
ATOM      1  C   UNL     1      -3.652  -5.426  -3.783  1.00  0.00     0.188 C 
ENDROOT
BRANCH   1   2
ATOM      2  C   UNL     1      -3.401  -5.537  -2.276  1.00  0.00     0.188 C 
BRANCH   2   3
ATOM      3  O   UNL     1      -4.218  -4.873  -1.280  1.00  0.00    -0.376 OA
BRANCH   3   4
ATOM      4  C   UNL     1      -5.317  -4.000  -1.570  1.00  0.00     0.202 C 
BRANCH   4   5
ATOM      5  C   UNL     1      -5.439  -2.355  -1.141  1.00  0.00     0.261 C 
BRANCH   5   6
ATOM      6  O   UNL     1      -4.253  -1.123  -1.220  1.00  0.00    -0.460 OA
BRANCH   6   7
ATOM      7  C   UNL     1      -3.362  -0.315  -0.457  1.00  0.00     0.338 C 
ATOM      8  O   UNL     1      -3.559   0.206   0.640  1.00  0.00    -0.246 OA
BRANCH   7   9
ATOM      9  C   UNL     1      -2.033   0.181  -0.969  1.00  0.00     0.060 A 
ATOM     10  C   UNL     1       1.654   0.535   0.252  1.00  0.00     0.046 C 
ATOM     11  C   UNL     1       0.309   0.866  -0.351  1.00  0.00    -0.027 A 
ATOM     12  C   UNL     1      -0.781  -0.044  -0.286  1.00  0.00     0.021 A 
ATOM     13  C   UNL     1       0.026   2.093  -0.943  1.00  0.00     0.045 A 
ATOM     14  C   UNL     1      -1.121   2.236  -1.751  1.00  0.00     0.027 A 
ATOM     15  C   UNL     1      -2.140   1.290  -1.778  1.00  0.00     0.018 A 
BRANCH  13  16
ATOM     16  N   UNL     1       0.764   3.251  -0.607  1.00  0.00    -0.308 N 
ATOM     17  C   UNL     1       0.221   4.511  -0.485  1.00  0.00     0.321 C 
ATOM     18  H   UNL     1       1.730   3.150  -0.451  1.00  0.00     0.171 HD
ATOM     19  O   UNL     1       0.881   5.511  -0.761  1.00  0.00    -0.248 OA
ATOM     20  N   UNL     1      -1.085   4.580  -0.052  1.00  0.00    -0.324 N 
ATOM     21  C   UNL     1      -2.050   5.479  -0.642  1.00  0.00     0.125 C 
ATOM     22  C   UNL     1      -1.611   3.933   1.149  1.00  0.00     0.125 C 
ATOM     23  C   UNL     1      -3.244   5.485   0.312  1.00  0.00     0.010 C 
ATOM     24  C   UNL     1      -3.122   4.150   1.074  1.00  0.00     0.010 C 
ATOM     25  C   UNL     1      -4.573   5.623  -0.418  1.00  0.00     0.010 C 
ATOM     26  C   UNL     1      -3.798   4.192   2.440  1.00  0.00     0.010 C 
ENDBRANCH  13  16
ENDBRANCH   7   9
ENDBRANCH   6   7
ENDBRANCH   5   6
ENDBRANCH   4   5
ENDBRANCH   3   4
ENDBRANCH   2   3
ENDBRANCH   1   2
BRANCH   1  27
ATOM     27  O   UNL     1      -4.089  -4.121  -4.116  1.00  0.00    -0.376 OA
BRANCH  27  28
ATOM     28  C   UNL     1      -4.198  -3.822  -5.495  1.00  0.00     0.202 C 
BRANCH  28  29
ATOM     29  C   UNL     1      -2.845  -3.638  -6.215  1.00  0.00     0.261 C 
BRANCH  29  30
ATOM     30  O   UNL     1      -2.135  -2.438  -5.808  1.00  0.00    -0.460 OA
BRANCH  30  31
ATOM     31  C   UNL     1      -0.895  -2.565  -5.175  1.00  0.00     0.338 C 
ATOM     32  O   UNL     1       0.133  -2.500  -5.774  1.00  0.00    -0.246 OA
BRANCH  31  33
ATOM     33  C   UNL     1      -1.064  -2.533  -3.667  1.00  0.00     0.060 A 
ATOM     34  C   UNL     1      -0.217  -2.949  -2.631  1.00  0.00     0.016 A 
ATOM     35  C   UNL     1      -2.282  -2.159  -3.249  1.00  0.00     0.016 A 
ATOM     36  C   UNL     1      -0.681  -3.096  -1.226  1.00  0.00     0.010 A 
ATOM     37  C   UNL     1      -2.686  -2.608  -1.993  1.00  0.00     0.010 A 
ATOM     38  C   UNL     1      -2.011  -2.923  -0.821  1.00  0.00    -0.014 A 
BRANCH  38  39
ATOM     39  C   UNL     1      -2.751  -3.255   0.596  1.00  0.00     0.031 A 
ATOM     40  C   UNL     1      -3.683  -2.405   1.686  1.00  0.00     0.074 A 
ATOM     41  C   UNL     1      -2.548  -4.516   1.044  1.00  0.00     0.049 A 
ATOM     42  N   UNL     1      -3.504  -2.393   3.003  1.00  0.00    -0.248 NA
ATOM     43  C   UNL     1      -4.899  -1.589   1.447  1.00  0.00     0.031 C 
ATOM     44  C   UNL     1      -3.165  -5.193   2.183  1.00  0.00     0.029 A 
ATOM     45  N   UNL     1      -1.594  -5.424   0.589  1.00  0.00    -0.354 N 
ATOM     46  C   UNL     1      -4.535  -1.634   3.618  1.00  0.00     0.074 A 
ATOM     47  C   UNL     1      -5.290  -1.063   2.589  1.00  0.00     0.031 C 
ATOM     48  C   UNL     1      -2.414  -6.260   2.503  1.00  0.00     0.029 A 
ATOM     49  C   UNL     1      -1.232  -6.243   1.658  1.00  0.00     0.049 A 
ATOM     50  H   UNL     1      -1.237  -5.478  -0.327  1.00  0.00     0.167 HD
ATOM     51  C   UNL     1      -4.917  -1.587   4.927  1.00  0.00     0.031 A 
ATOM     52  C   UNL     1       0.064  -6.269   2.074  1.00  0.00     0.031 A 
ATOM     53  C   UNL     1      -4.287  -2.661   5.629  1.00  0.00     0.049 A 
ATOM     54  C   UNL     1       0.217  -5.732   3.479  1.00  0.00     0.074 A 
ATOM     55  C   UNL     1      -4.669  -3.979   5.797  1.00  0.00     0.029 A 
ATOM     56  N   UNL     1      -2.928  -2.589   5.835  1.00  0.00    -0.354 N 
ATOM     57  N   UNL     1      -0.722  -5.099   4.132  1.00  0.00    -0.248 NA
ATOM     58  C   UNL     1       1.437  -5.873   4.268  1.00  0.00     0.031 C 
ATOM     59  C   UNL     1      -3.481  -4.736   5.963  1.00  0.00     0.029 A 
ATOM     60  C   UNL     1      -2.411  -3.858   5.991  1.00  0.00     0.049 A 
ATOM     61  H   UNL     1      -2.404  -1.756   5.868  1.00  0.00     0.167 HD
ATOM     62  C   UNL     1      -0.256  -4.724   5.362  1.00  0.00     0.074 A 
ATOM     63  C   UNL     1       1.092  -5.255   5.411  1.00  0.00     0.031 C 
ATOM     64  C   UNL     1      -0.993  -3.997   6.249  1.00  0.00     0.031 A 
BRANCH  51  65
ATOM     65  C   UNL     1      -6.151  -0.788   5.381  1.00  0.00    -0.014 A 
ATOM     66  C   UNL     1      -7.112  -1.350   6.242  1.00  0.00     0.010 A 
ATOM     67  C   UNL     1      -6.448   0.512   4.893  1.00  0.00     0.010 A 
ATOM     68  C   UNL     1      -8.359  -0.726   6.474  1.00  0.00     0.020 A 
ATOM     69  C   UNL     1      -7.712   1.116   5.066  1.00  0.00     0.020 A 
ATOM     70  C   UNL     1      -8.672   0.481   5.847  1.00  0.00     0.054 A 
BRANCH  70  71
ATOM     71  S   UNL     1     -10.354   1.166   5.996  1.00  0.00     0.124 S 
ATOM     72  O   UNL     1     -11.202  -0.012   5.822  1.00  0.00    -0.237 OA
ATOM     73  O   UNL     1     -10.345   1.739   7.338  1.00  0.00    -0.237 OA
ATOM     74  O   UNL     1     -10.434   2.136   4.904  1.00  0.00    -0.744 OA
ENDBRANCH  70  71
ENDBRANCH  51  65
BRANCH  52  75
ATOM     75  C   UNL     1       1.057  -6.225   0.948  1.00  0.00    -0.014 A 
ATOM     76  C   UNL     1       0.994  -7.290   0.016  1.00  0.00     0.010 A 
ATOM     77  C   UNL     1       1.749  -5.063   0.567  1.00  0.00     0.010 A 
ATOM     78  C   UNL     1       1.444  -7.142  -1.299  1.00  0.00     0.020 A 
ATOM     79  C   UNL     1       2.230  -4.918  -0.756  1.00  0.00     0.020 A 
ATOM     80  C   UNL     1       2.011  -5.934  -1.694  1.00  0.00     0.054 A 
BRANCH  80  81
ATOM     81  S   UNL     1       2.261  -5.673  -3.481  1.00  0.00     0.124 S 
ATOM     82  O   UNL     1       3.130  -6.788  -3.845  1.00  0.00    -0.237 OA
ATOM     83  O   UNL     1       0.889  -5.757  -3.987  1.00  0.00    -0.237 OA
ATOM     84  O   UNL     1       2.876  -4.352  -3.546  1.00  0.00    -0.744 OA
ENDBRANCH  80  81
ENDBRANCH  52  75
BRANCH  64  85
ATOM     85  C   UNL     1      -0.460  -3.344   7.496  1.00  0.00    -0.014 A 
ATOM     86  C   UNL     1       0.865  -2.910   7.628  1.00  0.00     0.010 A 
ATOM     87  C   UNL     1      -1.369  -2.991   8.525  1.00  0.00     0.010 A 
ATOM     88  C   UNL     1       1.285  -2.224   8.773  1.00  0.00     0.020 A 
ATOM     89  C   UNL     1      -0.974  -2.255   9.640  1.00  0.00     0.020 A 
ATOM     90  C   UNL     1       0.364  -1.908   9.774  1.00  0.00     0.054 A 
BRANCH  90  91
ATOM     91  S   UNL     1       0.897  -0.996  11.240  1.00  0.00     0.124 S 
ATOM     92  O   UNL     1       1.138  -2.078  12.191  1.00  0.00    -0.237 OA
ATOM     93  O   UNL     1       2.091  -0.290  10.780  1.00  0.00    -0.237 OA
ATOM     94  O   UNL     1      -0.248  -0.140  11.538  1.00  0.00    -0.744 OA
ENDBRANCH  90  91
ENDBRANCH  64  85
ENDBRANCH  38  39
ENDBRANCH  31  33
ENDBRANCH  30  31
ENDBRANCH  29  30
ENDBRANCH  28  29
ENDBRANCH  27  28
ENDBRANCH   1  27
TORSDOF 21
