REMARK SMILES NC(=O)CC[C@H](NC(=O)CC1CC1)C(=O)OCCOCCOCCOC(=O)c1ccc(-c2c3nc(c(-c4ccc(S(=O)(=O)[O-])cc4)c4ccc([nH]4)c(-c4ccc(S(=O)(=O)[O-])cc4)c4nc(c(-c5ccc(S(=O)(=O)[O-])cc5)c5ccc2[nH]5)C=C4)C=C3)cc1
REMARK SMILES IDX 20 1 19 2 18 3 17 4 16 5 14 6 15 7 6 8 5 9 4 10 2 11 1 12
REMARK SMILES IDX 3 15 7 16 8 17 9 19 10 20 11 21 12 22 13 23 21 24 22 25
REMARK SMILES IDX 23 26 24 27 25 28 26 29 27 30 28 31 29 32 87 33 30 34 86 35
REMARK SMILES IDX 31 36 32 37 33 38 80 39 34 40 85 41 79 42 81 43 35 44 84 45
REMARK SMILES IDX 78 46 77 47 36 49 66 50 47 51 65 52 48 53 51 54 64 55 82 56
REMARK SMILES IDX 49 57 50 58 63 60 83 61 52 62 37 63 38 64 46 65 39 66 45 67
REMARK SMILES IDX 40 68 41 69 42 70 43 71 44 72 67 73 68 74 76 75 69 76 75 77
REMARK SMILES IDX 70 78 71 79 72 80 73 81 74 82 53 83 54 84 62 85 55 86 61 87
REMARK SMILES IDX 56 88 57 89 58 90 59 91 60 92
REMARK H PARENT 1 13 1 14 7 18 81 48 51 59
REMARK Flexibility Score: inf
ROOT
ATOM      1  C   UNL     1       3.050   3.445  -3.374  1.00  0.00     0.188 C 
ENDROOT
BRANCH   1   2
ATOM      2  O   UNL     1       4.238   4.121  -3.769  1.00  0.00    -0.376 OA
BRANCH   2   3
ATOM      3  C   UNL     1       5.296   3.370  -4.355  1.00  0.00     0.202 C 
BRANCH   3   4
ATOM      4  C   UNL     1       5.792   2.103  -3.635  1.00  0.00     0.261 C 
BRANCH   4   5
ATOM      5  O   UNL     1       4.762   1.157  -3.272  1.00  0.00    -0.462 OA
BRANCH   5   6
ATOM      6  C   UNL     1       4.754   0.731  -1.978  1.00  0.00     0.328 C 
ATOM      7  O   UNL     1       5.587   1.077  -1.148  1.00  0.00    -0.250 OA
BRANCH   6   8
ATOM      8  C   UNL     1       3.501  -0.121  -1.599  1.00  0.00     0.192 C 
BRANCH   8   9
ATOM      9  C   UNL     1       3.857  -1.141  -0.505  1.00  0.00     0.047 C 
BRANCH   9  10
ATOM     10  C   UNL     1       2.680  -1.590   0.363  1.00  0.00     0.102 C 
BRANCH  10  11
ATOM     11  C   UNL     1       1.677  -2.441  -0.377  1.00  0.00     0.217 C 
ATOM     12  N   UNL     1       0.542  -1.798  -0.771  1.00  0.00    -0.370 N 
ATOM     13  H   UNL     1      -0.158  -2.289  -1.258  1.00  0.00     0.159 HD
ATOM     14  H   UNL     1       0.422  -0.842  -0.567  1.00  0.00     0.159 HD
ATOM     15  O   UNL     1       1.870  -3.620  -0.650  1.00  0.00    -0.275 OA
ENDBRANCH  10  11
ENDBRANCH   9  10
ENDBRANCH   8   9
BRANCH   8  16
ATOM     16  N   UNL     1       2.598  -0.632  -2.646  1.00  0.00    -0.343 N 
ATOM     17  C   UNL     1       2.593  -1.692  -3.494  1.00  0.00     0.220 C 
ATOM     18  H   UNL     1       1.802  -0.064  -2.758  1.00  0.00     0.164 HD
ATOM     19  O   UNL     1       1.628  -1.788  -4.257  1.00  0.00    -0.275 OA
BRANCH  17  20
ATOM     20  C   UNL     1       3.666  -2.752  -3.463  1.00  0.00     0.103 C 
BRANCH  20  21
ATOM     21  C   UNL     1       5.047  -2.256  -3.759  1.00  0.00    -0.002 C 
ATOM     22  C   UNL     1       6.220  -3.005  -3.182  1.00  0.00     0.004 C 
ATOM     23  C   UNL     1       5.973  -3.027  -4.662  1.00  0.00     0.004 C 
ENDBRANCH  20  21
ENDBRANCH  17  20
ENDBRANCH   8  16
ENDBRANCH   6   8
ENDBRANCH   5   6
ENDBRANCH   4   5
ENDBRANCH   3   4
ENDBRANCH   2   3
ENDBRANCH   1   2
BRANCH   1  24
ATOM     24  C   UNL     1       2.450   2.381  -4.311  1.00  0.00     0.188 C 
BRANCH  24  25
ATOM     25  O   UNL     1       3.161   2.194  -5.514  1.00  0.00    -0.376 OA
BRANCH  25  26
ATOM     26  C   UNL     1       2.492   2.528  -6.715  1.00  0.00     0.202 C 
BRANCH  26  27
ATOM     27  C   UNL     1       1.949   3.961  -6.864  1.00  0.00     0.261 C 
BRANCH  27  28
ATOM     28  O   UNL     1       1.236   4.505  -5.737  1.00  0.00    -0.460 OA
BRANCH  28  29
ATOM     29  C   UNL     1      -0.028   4.071  -5.537  1.00  0.00     0.338 C 
ATOM     30  O   UNL     1      -0.638   3.263  -6.226  1.00  0.00    -0.246 OA
BRANCH  29  31
ATOM     31  C   UNL     1      -0.482   4.546  -4.208  1.00  0.00     0.060 A 
ATOM     32  C   UNL     1      -0.808   3.599  -3.225  1.00  0.00     0.016 A 
ATOM     33  C   UNL     1      -0.593   5.910  -3.929  1.00  0.00     0.016 A 
ATOM     34  C   UNL     1      -1.276   4.014  -1.976  1.00  0.00     0.010 A 
ATOM     35  C   UNL     1      -1.085   6.322  -2.684  1.00  0.00     0.010 A 
ATOM     36  C   UNL     1      -1.461   5.377  -1.711  1.00  0.00    -0.014 A 
BRANCH  36  37
ATOM     37  C   UNL     1      -2.215   5.796  -0.500  1.00  0.00     0.031 A 
ATOM     38  C   UNL     1      -3.675   6.144  -0.644  1.00  0.00     0.074 A 
ATOM     39  C   UNL     1      -1.637   5.833   0.715  1.00  0.00     0.049 A 
ATOM     40  N   UNL     1      -4.529   6.537   0.265  1.00  0.00    -0.248 NA
ATOM     41  C   UNL     1      -4.247   6.029  -1.996  1.00  0.00     0.031 C 
ATOM     42  C   UNL     1      -0.247   5.481   1.003  1.00  0.00     0.029 A 
ATOM     43  N   UNL     1      -2.154   6.187   1.938  1.00  0.00    -0.354 N 
ATOM     44  C   UNL     1      -5.734   6.727  -0.404  1.00  0.00     0.074 A 
ATOM     45  C   UNL     1      -5.492   6.434  -1.800  1.00  0.00     0.031 C 
ATOM     46  C   UNL     1      -0.022   5.641   2.320  1.00  0.00     0.029 A 
ATOM     47  C   UNL     1      -1.237   6.139   2.962  1.00  0.00     0.049 A 
ATOM     48  H   UNL     1      -3.093   6.452   2.069  1.00  0.00     0.167 HD
ATOM     49  C   UNL     1      -6.935   7.105   0.096  1.00  0.00     0.031 A 
ATOM     50  C   UNL     1      -1.358   6.476   4.263  1.00  0.00     0.031 A 
ATOM     51  C   UNL     1      -7.174   7.415   1.481  1.00  0.00     0.049 A 
ATOM     52  C   UNL     1      -2.686   6.970   4.782  1.00  0.00     0.074 A 
ATOM     53  C   UNL     1      -8.361   7.793   2.085  1.00  0.00     0.029 A 
ATOM     54  N   UNL     1      -6.209   7.395   2.477  1.00  0.00    -0.354 N 
ATOM     55  N   UNL     1      -3.822   7.114   4.142  1.00  0.00    -0.248 NA
ATOM     56  C   UNL     1      -2.749   7.333   6.206  1.00  0.00     0.031 C 
ATOM     57  C   UNL     1      -8.099   8.066   3.432  1.00  0.00     0.029 A 
ATOM     58  C   UNL     1      -6.766   7.784   3.684  1.00  0.00     0.049 A 
ATOM     59  H   UNL     1      -5.267   7.141   2.345  1.00  0.00     0.167 HD
ATOM     60  C   UNL     1      -4.740   7.556   5.091  1.00  0.00     0.074 A 
ATOM     61  C   UNL     1      -4.031   7.635   6.351  1.00  0.00     0.031 C 
ATOM     62  C   UNL     1      -6.052   7.866   4.934  1.00  0.00     0.031 A 
BRANCH  49  63
ATOM     63  C   UNL     1      -8.081   7.244  -0.874  1.00  0.00    -0.014 A 
ATOM     64  C   UNL     1      -8.662   6.119  -1.488  1.00  0.00     0.010 A 
ATOM     65  C   UNL     1      -8.611   8.519  -1.145  1.00  0.00     0.010 A 
ATOM     66  C   UNL     1      -9.725   6.271  -2.382  1.00  0.00     0.020 A 
ATOM     67  C   UNL     1      -9.694   8.672  -2.014  1.00  0.00     0.020 A 
ATOM     68  C   UNL     1     -10.234   7.548  -2.640  1.00  0.00     0.054 A 
BRANCH  68  69
ATOM     69  S   UNL     1     -11.631   7.712  -3.785  1.00  0.00     0.124 S 
ATOM     70  O   UNL     1     -11.005   7.407  -5.069  1.00  0.00    -0.237 OA
ATOM     71  O   UNL     1     -12.569   6.707  -3.290  1.00  0.00    -0.237 OA
ATOM     72  O   UNL     1     -12.059   9.098  -3.616  1.00  0.00    -0.744 OA
ENDBRANCH  68  69
ENDBRANCH  49  63
BRANCH  50  73
ATOM     73  C   UNL     1      -0.181   6.377   5.173  1.00  0.00    -0.014 A 
ATOM     74  C   UNL     1      -0.155   5.439   6.220  1.00  0.00     0.010 A 
ATOM     75  C   UNL     1       0.920   7.237   5.002  1.00  0.00     0.010 A 
ATOM     76  C   UNL     1       0.941   5.373   7.087  1.00  0.00     0.020 A 
ATOM     77  C   UNL     1       2.031   7.153   5.846  1.00  0.00     0.020 A 
ATOM     78  C   UNL     1       2.030   6.227   6.891  1.00  0.00     0.054 A 
BRANCH  78  79
ATOM     79  S   UNL     1       3.464   6.084   7.993  1.00  0.00     0.124 S 
ATOM     80  O   UNL     1       2.943   6.628   9.243  1.00  0.00    -0.237 OA
ATOM     81  O   UNL     1       3.720   4.646   7.986  1.00  0.00    -0.237 OA
ATOM     82  O   UNL     1       4.484   6.894   7.333  1.00  0.00    -0.744 OA
ENDBRANCH  78  79
ENDBRANCH  50  73
BRANCH  62  83
ATOM     83  C   UNL     1      -6.823   8.281   6.163  1.00  0.00    -0.014 A 
ATOM     84  C   UNL     1      -6.580   9.507   6.807  1.00  0.00     0.010 A 
ATOM     85  C   UNL     1      -7.838   7.440   6.660  1.00  0.00     0.010 A 
ATOM     86  C   UNL     1      -7.302   9.863   7.950  1.00  0.00     0.020 A 
ATOM     87  C   UNL     1      -8.585   7.807   7.782  1.00  0.00     0.020 A 
ATOM     88  C   UNL     1      -8.299   9.008   8.433  1.00  0.00     0.054 A 
BRANCH  88  89
ATOM     89  S   UNL     1      -9.234   9.501   9.907  1.00  0.00     0.124 S 
ATOM     90  O   UNL     1      -8.242   9.332  10.966  1.00  0.00    -0.237 OA
ATOM     91  O   UNL     1      -9.603  10.882   9.605  1.00  0.00    -0.237 OA
ATOM     92  O   UNL     1     -10.349   8.557   9.943  1.00  0.00    -0.744 OA
ENDBRANCH  88  89
ENDBRANCH  62  83
ENDBRANCH  36  37
ENDBRANCH  29  31
ENDBRANCH  28  29
ENDBRANCH  27  28
ENDBRANCH  26  27
ENDBRANCH  25  26
ENDBRANCH  24  25
ENDBRANCH   1  24
TORSDOF 26
