REMARK SMILES CSCC[C@H](NC(=O)N[C@@H]1CCCCC1(C)C)C(=O)OCCOCCOCCOC(=O)c1ccc(-c2c3nc(c(-c4ccc(S(=O)(=O)[O-])cc4)c4ccc([nH]4)c(-c4ccc(S(=O)(=O)[O-])cc4)c4nc(c(-c5ccc(S(=O)(=O)[O-])cc5)c5ccc2[nH]5)C=C4)C=C3)cc1
REMARK SMILES IDX 24 1 23 2 22 3 21 4 20 5 18 6 19 7 5 8 4 9 3 10 2 11 1 12
REMARK SMILES IDX 6 13 7 14 8 16 9 17 10 19 11 20 15 21 12 22 14 23 16 24
REMARK SMILES IDX 17 25 13 26 25 27 26 28 27 29 28 30 29 31 30 32 31 33 32 34
REMARK SMILES IDX 33 35 91 36 34 37 90 38 35 39 36 40 37 41 84 42 38 43 89 44
REMARK SMILES IDX 83 45 85 46 39 47 88 48 82 49 81 50 40 52 70 53 51 54 69 55
REMARK SMILES IDX 52 56 55 57 68 58 86 59 53 60 54 61 67 63 87 64 56 65 41 66
REMARK SMILES IDX 42 67 50 68 43 69 49 70 44 71 45 72 46 73 47 74 48 75 71 76
REMARK SMILES IDX 72 77 80 78 73 79 79 80 74 81 75 82 76 83 77 84 78 85 57 86
REMARK SMILES IDX 58 87 66 88 59 89 65 90 60 91 61 92 62 93 63 94 64 95
REMARK H PARENT 6 15 9 18 85 51 55 62
REMARK Flexibility Score: inf
ROOT
ATOM      1  C   UNL     1      -2.566   3.473  -3.392  1.00  0.00     0.188 C 
ENDROOT
BRANCH   1   2
ATOM      2  O   UNL     1      -2.596   4.453  -4.423  1.00  0.00    -0.376 OA
BRANCH   2   3
ATOM      3  C   UNL     1      -1.521   5.380  -4.403  1.00  0.00     0.202 C 
BRANCH   3   4
ATOM      4  C   UNL     1      -0.226   4.862  -5.053  1.00  0.00     0.261 C 
BRANCH   4   5
ATOM      5  O   UNL     1       0.252   3.564  -4.636  1.00  0.00    -0.462 OA
BRANCH   5   6
ATOM      6  C   UNL     1       0.524   3.471  -3.312  1.00  0.00     0.328 C 
ATOM      7  O   UNL     1       0.251   4.367  -2.518  1.00  0.00    -0.250 OA
BRANCH   6   8
ATOM      8  C   UNL     1       1.502   2.342  -2.939  1.00  0.00     0.194 C 
BRANCH   8   9
ATOM      9  C   UNL     1       2.780   3.163  -3.147  1.00  0.00     0.048 C 
BRANCH   9  10
ATOM     10  C   UNL     1       3.090   4.194  -2.022  1.00  0.00     0.072 C 
BRANCH  10  11
ATOM     11  S   UNL     1       2.924   4.011  -0.172  1.00  0.00    -0.165 SA
ATOM     12  C   UNL     1       1.341   3.181   0.190  1.00  0.00     0.085 C 
ENDBRANCH  10  11
ENDBRANCH   9  10
ENDBRANCH   8   9
BRANCH   8  13
ATOM     13  N   UNL     1       1.527   1.009  -3.584  1.00  0.00    -0.325 N 
ATOM     14  C   UNL     1       1.884  -0.248  -3.232  1.00  0.00     0.315 C 
ATOM     15  H   UNL     1       1.198   1.047  -4.511  1.00  0.00     0.166 HD
ATOM     16  O   UNL     1       1.477  -1.147  -3.982  1.00  0.00    -0.249 OA
ATOM     17  N   UNL     1       2.640  -0.673  -2.196  1.00  0.00    -0.335 N 
ATOM     18  H   UNL     1       2.747  -1.651  -2.247  1.00  0.00     0.165 HD
BRANCH  17  19
ATOM     19  C   UNL     1       3.369  -0.154  -0.999  1.00  0.00     0.089 C 
ATOM     20  C   UNL     1       4.104   1.106  -1.353  1.00  0.00     0.025 C 
ATOM     21  C   UNL     1       4.471  -1.076  -0.333  1.00  0.00    -0.015 C 
ATOM     22  C   UNL     1       5.156   0.898  -2.430  1.00  0.00     0.002 C 
ATOM     23  C   UNL     1       5.689  -1.275  -1.285  1.00  0.00     0.008 C 
ATOM     24  C   UNL     1       4.970  -0.396   0.986  1.00  0.00     0.013 C 
ATOM     25  C   UNL     1       3.945  -2.453   0.090  1.00  0.00     0.013 C 
ATOM     26  C   UNL     1       6.255   0.015  -1.885  1.00  0.00     0.001 C 
ENDBRANCH  17  19
ENDBRANCH   8  13
ENDBRANCH   6   8
ENDBRANCH   5   6
ENDBRANCH   4   5
ENDBRANCH   3   4
ENDBRANCH   2   3
ENDBRANCH   1   2
BRANCH   1  27
ATOM     27  C   UNL     1      -2.098   2.068  -3.834  1.00  0.00     0.188 C 
BRANCH  27  28
ATOM     28  O   UNL     1      -1.905   1.750  -5.202  1.00  0.00    -0.376 OA
BRANCH  28  29
ATOM     29  C   UNL     1      -2.795   2.293  -6.163  1.00  0.00     0.202 C 
BRANCH  29  30
ATOM     30  C   UNL     1      -4.323   2.177  -5.974  1.00  0.00     0.261 C 
BRANCH  30  31
ATOM     31  O   UNL     1      -4.812   2.162  -4.622  1.00  0.00    -0.460 OA
BRANCH  31  32
ATOM     32  C   UNL     1      -5.047   0.927  -4.089  1.00  0.00     0.338 C 
ATOM     33  O   UNL     1      -4.986  -0.129  -4.665  1.00  0.00    -0.246 OA
BRANCH  32  34
ATOM     34  C   UNL     1      -5.145   1.053  -2.602  1.00  0.00     0.060 A 
ATOM     35  C   UNL     1      -4.292   0.253  -1.822  1.00  0.00     0.016 A 
ATOM     36  C   UNL     1      -6.015   1.949  -1.980  1.00  0.00     0.016 A 
ATOM     37  C   UNL     1      -4.319   0.328  -0.428  1.00  0.00     0.010 A 
ATOM     38  C   UNL     1      -6.078   1.988  -0.578  1.00  0.00     0.010 A 
ATOM     39  C   UNL     1      -5.256   1.152   0.203  1.00  0.00    -0.014 A 
BRANCH  39  40
ATOM     40  C   UNL     1      -5.568   0.917   1.638  1.00  0.00     0.031 A 
ATOM     41  C   UNL     1      -6.698  -0.032   1.953  1.00  0.00     0.074 A 
ATOM     42  C   UNL     1      -4.867   1.479   2.639  1.00  0.00     0.049 A 
ATOM     43  N   UNL     1      -7.201  -0.372   3.111  1.00  0.00    -0.248 NA
ATOM     44  C   UNL     1      -7.346  -0.683   0.801  1.00  0.00     0.031 C 
ATOM     45  C   UNL     1      -3.713   2.362   2.482  1.00  0.00     0.029 A 
ATOM     46  N   UNL     1      -5.038   1.390   4.001  1.00  0.00    -0.354 N 
ATOM     47  C   UNL     1      -8.234  -1.258   2.825  1.00  0.00     0.074 A 
ATOM     48  C   UNL     1      -8.299  -1.389   1.387  1.00  0.00     0.031 C 
ATOM     49  C   UNL     1      -3.293   2.750   3.701  1.00  0.00     0.029 A 
ATOM     50  C   UNL     1      -4.165   2.170   4.723  1.00  0.00     0.049 A 
ATOM     51  H   UNL     1      -5.722   0.820   4.420  1.00  0.00     0.167 HD
ATOM     52  C   UNL     1      -9.059  -1.906   3.680  1.00  0.00     0.031 A 
ATOM     53  C   UNL     1      -4.097   2.409   6.050  1.00  0.00     0.031 A 
ATOM     54  C   UNL     1      -9.006  -1.772   5.110  1.00  0.00     0.049 A 
ATOM     55  C   UNL     1      -5.075   1.732   6.981  1.00  0.00     0.074 A 
ATOM     56  C   UNL     1      -9.791  -2.401   6.060  1.00  0.00     0.029 A 
ATOM     57  N   UNL     1      -8.128  -0.948   5.796  1.00  0.00    -0.354 N 
ATOM     58  N   UNL     1      -6.034   0.881   6.697  1.00  0.00    -0.248 NA
ATOM     59  C   UNL     1      -4.954   2.041   8.414  1.00  0.00     0.031 C 
ATOM     60  C   UNL     1      -9.431  -1.909   7.318  1.00  0.00     0.029 A 
ATOM     61  C   UNL     1      -8.372  -1.030   7.157  1.00  0.00     0.049 A 
ATOM     62  H   UNL     1      -7.434  -0.389   5.378  1.00  0.00     0.167 HD
ATOM     63  C   UNL     1      -6.606   0.531   7.918  1.00  0.00     0.074 A 
ATOM     64  C   UNL     1      -5.878   1.250   8.942  1.00  0.00     0.031 C 
ATOM     65  C   UNL     1      -7.639  -0.312   8.169  1.00  0.00     0.031 A 
BRANCH  52  66
ATOM     66  C   UNL     1     -10.127  -2.784   3.084  1.00  0.00    -0.014 A 
ATOM     67  C   UNL     1      -9.812  -4.006   2.464  1.00  0.00     0.010 A 
ATOM     68  C   UNL     1     -11.475  -2.392   3.182  1.00  0.00     0.010 A 
ATOM     69  C   UNL     1     -10.823  -4.806   1.926  1.00  0.00     0.020 A 
ATOM     70  C   UNL     1     -12.491  -3.203   2.671  1.00  0.00     0.020 A 
ATOM     71  C   UNL     1     -12.157  -4.399   2.035  1.00  0.00     0.054 A 
BRANCH  71  72
ATOM     72  S   UNL     1     -13.453  -5.475   1.362  1.00  0.00     0.124 S 
ATOM     73  O   UNL     1     -13.261  -5.314  -0.077  1.00  0.00    -0.237 OA
ATOM     74  O   UNL     1     -13.092  -6.784   1.901  1.00  0.00    -0.237 OA
ATOM     75  O   UNL     1     -14.688  -4.905   1.892  1.00  0.00    -0.744 OA
ENDBRANCH  71  72
ENDBRANCH  52  66
BRANCH  53  76
ATOM     76  C   UNL     1      -3.086   3.365   6.589  1.00  0.00    -0.014 A 
ATOM     77  C   UNL     1      -2.033   2.921   7.409  1.00  0.00     0.010 A 
ATOM     78  C   UNL     1      -3.192   4.739   6.304  1.00  0.00     0.010 A 
ATOM     79  C   UNL     1      -1.120   3.833   7.949  1.00  0.00     0.020 A 
ATOM     80  C   UNL     1      -2.264   5.650   6.817  1.00  0.00     0.020 A 
ATOM     81  C   UNL     1      -1.240   5.192   7.647  1.00  0.00     0.054 A 
BRANCH  81  82
ATOM     82  S   UNL     1      -0.017   6.352   8.321  1.00  0.00     0.124 S 
ATOM     83  O   UNL     1      -0.391   6.404   9.731  1.00  0.00    -0.237 OA
ATOM     84  O   UNL     1       1.247   5.682   8.025  1.00  0.00    -0.237 OA
ATOM     85  O   UNL     1      -0.256   7.578   7.564  1.00  0.00    -0.744 OA
ENDBRANCH  81  82
ENDBRANCH  53  76
BRANCH  65  86
ATOM     86  C   UNL     1      -8.020  -0.550   9.609  1.00  0.00    -0.014 A 
ATOM     87  C   UNL     1      -8.647   0.445  10.379  1.00  0.00     0.010 A 
ATOM     88  C   UNL     1      -7.795  -1.816  10.182  1.00  0.00     0.010 A 
ATOM     89  C   UNL     1      -9.005   0.190  11.707  1.00  0.00     0.020 A 
ATOM     90  C   UNL     1      -8.179  -2.085  11.498  1.00  0.00     0.020 A 
ATOM     91  C   UNL     1      -8.767  -1.073  12.259  1.00  0.00     0.054 A 
BRANCH  91  92
ATOM     92  S   UNL     1      -9.267  -1.388  13.974  1.00  0.00     0.124 S 
ATOM     93  O   UNL     1      -8.270  -0.630  14.725  1.00  0.00    -0.237 OA
ATOM     94  O   UNL     1     -10.626  -0.852  14.016  1.00  0.00    -0.237 OA
ATOM     95  O   UNL     1      -9.172  -2.840  14.103  1.00  0.00    -0.744 OA
ENDBRANCH  91  92
ENDBRANCH  65  86
ENDBRANCH  39  40
ENDBRANCH  32  34
ENDBRANCH  31  32
ENDBRANCH  30  31
ENDBRANCH  29  30
ENDBRANCH  28  29
ENDBRANCH  27  28
ENDBRANCH   1  27
TORSDOF 25
