REMARK SMILES CNS(=O)(=O)c1ccc(Oc2csc(C(=O)OCCOCCOCCOC(=O)c3ccc(-c4c5nc(c(-c6ccc(S(=O)(=O)[O-])cc6)c6ccc([nH]6)c(-c6ccc(S(=O)(=O)[O-])cc6)c6nc(c(-c7ccc(S(=O)(=O)[O-])cc7)c7ccc4[nH]7)C=C6)C=C5)cc3)c2)cc1
REMARK SMILES IDX 21 1 20 2 19 3 18 4 17 5 15 6 16 7 14 8 11 9 12 10 89 11
REMARK SMILES IDX 13 12 10 13 9 14 6 15 7 16 91 17 8 18 90 19 3 20 4 21 5 22
REMARK SMILES IDX 2 23 1 24 22 26 23 27 24 28 25 29 26 30 27 31 28 32 29 33
REMARK SMILES IDX 30 34 88 35 31 36 87 37 32 38 33 39 34 40 81 41 35 42 86 43
REMARK SMILES IDX 80 44 82 45 36 46 85 47 79 48 78 49 37 51 67 52 48 53 66 54
REMARK SMILES IDX 49 55 52 56 65 57 83 58 50 59 51 60 64 62 84 63 53 64 38 65
REMARK SMILES IDX 39 66 47 67 40 68 46 69 41 70 42 71 43 72 44 73 45 74 68 75
REMARK SMILES IDX 69 76 77 77 70 78 76 79 71 80 72 81 73 82 74 83 75 84 54 85
REMARK SMILES IDX 55 86 63 87 56 88 62 89 57 90 58 91 59 92 60 93 61 94
REMARK H PARENT 2 25 82 50 52 61
REMARK Flexibility Score: inf
ROOT
ATOM      1  C   UNL     1      -4.632 -10.069   2.069  1.00  0.00     0.188 C 
ENDROOT
BRANCH   1   2
ATOM      2  O   UNL     1      -5.479 -11.040   2.673  1.00  0.00    -0.376 OA
BRANCH   2   3
ATOM      3  C   UNL     1      -6.427 -10.651   3.657  1.00  0.00     0.202 C 
BRANCH   3   4
ATOM      4  C   UNL     1      -5.971  -9.843   4.882  1.00  0.00     0.261 C 
BRANCH   4   5
ATOM      5  O   UNL     1      -5.210  -8.664   4.579  1.00  0.00    -0.459 OA
BRANCH   5   6
ATOM      6  C   UNL     1      -3.900  -8.676   4.977  1.00  0.00     0.348 C 
ATOM      7  O   UNL     1      -3.386  -9.565   5.642  1.00  0.00    -0.245 OA
BRANCH   6   8
ATOM      8  C   UNL     1      -3.212  -7.532   4.410  1.00  0.00     0.116 A 
ATOM      9  C   UNL     1      -2.719  -5.433   3.513  1.00  0.00     0.138 A 
ATOM     10  C   UNL     1      -1.509  -6.070   3.359  1.00  0.00     0.112 A 
ATOM     11  C   UNL     1      -3.696  -6.271   4.122  1.00  0.00     0.074 A 
ATOM     12  S   UNL     1      -1.565  -7.678   3.953  1.00  0.00    -0.133 S 
BRANCH   9  13
ATOM     13  O   UNL     1      -2.979  -4.135   3.251  1.00  0.00    -0.456 OA
BRANCH  13  14
ATOM     14  C   UNL     1      -2.462  -3.407   2.211  1.00  0.00     0.127 A 
ATOM     15  C   UNL     1      -1.715  -1.675   0.159  1.00  0.00     0.082 A 
ATOM     16  C   UNL     1      -2.087  -1.154   1.399  1.00  0.00     0.025 A 
ATOM     17  C   UNL     1      -1.719  -3.056  -0.067  1.00  0.00     0.025 A 
ATOM     18  C   UNL     1      -2.453  -2.024   2.422  1.00  0.00     0.048 A 
ATOM     19  C   UNL     1      -2.099  -3.925   0.965  1.00  0.00     0.048 A 
BRANCH  15  20
ATOM     20  S   UNL     1      -1.294  -0.553  -1.150  1.00  0.00     0.240 S 
ATOM     21  O   UNL     1      -1.704   0.780  -0.771  1.00  0.00    -0.207 OA
ATOM     22  O   UNL     1      -1.714  -1.145  -2.402  1.00  0.00    -0.207 OA
BRANCH  20  23
ATOM     23  N   UNL     1       0.381  -0.606  -1.131  1.00  0.00    -0.214 NA
ATOM     24  C   UNL     1       1.095   0.071  -0.059  1.00  0.00     0.120 C 
ATOM     25  H   UNL     1       0.649  -1.589  -1.095  1.00  0.00     0.141 HD
ENDBRANCH  20  23
ENDBRANCH  15  20
ENDBRANCH  13  14
ENDBRANCH   9  13
ENDBRANCH   6   8
ENDBRANCH   5   6
ENDBRANCH   4   5
ENDBRANCH   3   4
ENDBRANCH   2   3
ENDBRANCH   1   2
BRANCH   1  26
ATOM     26  C   UNL     1      -5.228  -8.739   1.562  1.00  0.00     0.188 C 
BRANCH  26  27
ATOM     27  O   UNL     1      -6.610  -8.607   1.802  1.00  0.00    -0.376 OA
BRANCH  27  28
ATOM     28  C   UNL     1      -7.517  -8.816   0.735  1.00  0.00     0.202 C 
BRANCH  28  29
ATOM     29  C   UNL     1      -7.336  -9.909  -0.338  1.00  0.00     0.261 C 
BRANCH  29  30
ATOM     30  O   UNL     1      -6.014 -10.391  -0.600  1.00  0.00    -0.460 OA
BRANCH  30  31
ATOM     31  C   UNL     1      -5.314  -9.764  -1.574  1.00  0.00     0.338 C 
ATOM     32  O   UNL     1      -5.654  -8.780  -2.204  1.00  0.00    -0.246 OA
BRANCH  31  33
ATOM     33  C   UNL     1      -3.973 -10.382  -1.640  1.00  0.00     0.060 A 
ATOM     34  C   UNL     1      -2.859  -9.629  -1.249  1.00  0.00     0.016 A 
ATOM     35  C   UNL     1      -3.818 -11.694  -2.094  1.00  0.00     0.016 A 
ATOM     36  C   UNL     1      -1.580 -10.185  -1.328  1.00  0.00     0.010 A 
ATOM     37  C   UNL     1      -2.534 -12.241  -2.190  1.00  0.00     0.010 A 
ATOM     38  C   UNL     1      -1.406 -11.482  -1.829  1.00  0.00    -0.014 A 
BRANCH  38  39
ATOM     39  C   UNL     1      -0.043 -11.997  -2.115  1.00  0.00     0.031 A 
ATOM     40  C   UNL     1       0.472 -11.931  -3.528  1.00  0.00     0.074 A 
ATOM     41  C   UNL     1       0.728 -12.509  -1.139  1.00  0.00     0.049 A 
ATOM     42  N   UNL     1       1.599 -12.374  -4.020  1.00  0.00    -0.248 NA
ATOM     43  C   UNL     1      -0.401 -11.275  -4.517  1.00  0.00     0.031 C 
ATOM     44  C   UNL     1       0.364 -12.590   0.276  1.00  0.00     0.029 A 
ATOM     45  N   UNL     1       1.981 -13.070  -1.195  1.00  0.00    -0.354 N 
ATOM     46  C   UNL     1       1.572 -12.057  -5.373  1.00  0.00     0.074 A 
ATOM     47  C   UNL     1       0.305 -11.408  -5.631  1.00  0.00     0.031 C 
ATOM     48  C   UNL     1       1.366 -13.182   0.951  1.00  0.00     0.029 A 
ATOM     49  C   UNL     1       2.425 -13.553   0.013  1.00  0.00     0.049 A 
ATOM     50  H   UNL     1       2.511 -13.121  -2.023  1.00  0.00     0.167 HD
ATOM     51  C   UNL     1       2.518 -12.280  -6.316  1.00  0.00     0.031 A 
ATOM     52  C   UNL     1       3.543 -14.241   0.322  1.00  0.00     0.031 A 
ATOM     53  C   UNL     1       3.769 -12.943  -6.064  1.00  0.00     0.049 A 
ATOM     54  C   UNL     1       4.542 -14.556  -0.765  1.00  0.00     0.074 A 
ATOM     55  C   UNL     1       4.793 -13.214  -6.956  1.00  0.00     0.029 A 
ATOM     56  N   UNL     1       4.167 -13.445  -4.835  1.00  0.00    -0.354 N 
ATOM     57  N   UNL     1       4.511 -14.230  -2.035  1.00  0.00    -0.248 NA
ATOM     58  C   UNL     1       5.731 -15.328  -0.373  1.00  0.00     0.031 C 
ATOM     59  C   UNL     1       5.785 -13.929  -6.278  1.00  0.00     0.029 A 
ATOM     60  C   UNL     1       5.409 -14.045  -4.949  1.00  0.00     0.049 A 
ATOM     61  H   UNL     1       3.643 -13.384  -4.003  1.00  0.00     0.167 HD
ATOM     62  C   UNL     1       5.689 -14.729  -2.585  1.00  0.00     0.074 A 
ATOM     63  C   UNL     1       6.417 -15.364  -1.507  1.00  0.00     0.031 C 
ATOM     64  C   UNL     1       6.129 -14.666  -3.866  1.00  0.00     0.031 A 
BRANCH  51  65
ATOM     65  C   UNL     1       2.226 -11.824  -7.721  1.00  0.00    -0.014 A 
ATOM     66  C   UNL     1       2.237 -10.458  -8.056  1.00  0.00     0.010 A 
ATOM     67  C   UNL     1       2.001 -12.776  -8.731  1.00  0.00     0.010 A 
ATOM     68  C   UNL     1       2.005 -10.052  -9.373  1.00  0.00     0.020 A 
ATOM     69  C   UNL     1       1.794 -12.376 -10.054  1.00  0.00     0.020 A 
ATOM     70  C   UNL     1       1.787 -11.014 -10.364  1.00  0.00     0.054 A 
BRANCH  70  71
ATOM     71  S   UNL     1       1.537 -10.459 -12.073  1.00  0.00     0.124 S 
ATOM     72  O   UNL     1       0.206  -9.862 -12.004  1.00  0.00    -0.237 OA
ATOM     73  O   UNL     1       2.638  -9.518 -12.267  1.00  0.00    -0.237 OA
ATOM     74  O   UNL     1       1.628 -11.690 -12.855  1.00  0.00    -0.744 OA
ENDBRANCH  70  71
ENDBRANCH  51  65
BRANCH  52  75
ATOM     75  C   UNL     1       3.773 -14.719   1.716  1.00  0.00    -0.014 A 
ATOM     76  C   UNL     1       4.827 -14.204   2.491  1.00  0.00     0.010 A 
ATOM     77  C   UNL     1       2.956 -15.727   2.261  1.00  0.00     0.010 A 
ATOM     78  C   UNL     1       5.080 -14.710   3.770  1.00  0.00     0.020 A 
ATOM     79  C   UNL     1       3.186 -16.214   3.551  1.00  0.00     0.020 A 
ATOM     80  C   UNL     1       4.259 -15.715   4.291  1.00  0.00     0.054 A 
BRANCH  80  81
ATOM     81  S   UNL     1       4.594 -16.344   5.959  1.00  0.00     0.124 S 
ATOM     82  O   UNL     1       5.794 -17.148   5.744  1.00  0.00    -0.237 OA
ATOM     83  O   UNL     1       4.784 -15.117   6.728  1.00  0.00    -0.237 OA
ATOM     84  O   UNL     1       3.387 -17.098   6.290  1.00  0.00    -0.744 OA
ENDBRANCH  80  81
ENDBRANCH  52  75
BRANCH  64  85
ATOM     85  C   UNL     1       7.481 -15.257  -4.172  1.00  0.00    -0.014 A 
ATOM     86  C   UNL     1       7.687 -16.648  -4.186  1.00  0.00     0.010 A 
ATOM     87  C   UNL     1       8.547 -14.404  -4.513  1.00  0.00     0.010 A 
ATOM     88  C   UNL     1       8.944 -17.172  -4.504  1.00  0.00     0.020 A 
ATOM     89  C   UNL     1       9.796 -14.925  -4.859  1.00  0.00     0.020 A 
ATOM     90  C   UNL     1       9.990 -16.308  -4.839  1.00  0.00     0.054 A 
BRANCH  90  91
ATOM     91  S   UNL     1      11.598 -17.016  -5.291  1.00  0.00     0.124 S 
ATOM     92  O   UNL     1      12.104 -17.471  -3.999  1.00  0.00    -0.237 OA
ATOM     93  O   UNL     1      11.231 -18.072  -6.230  1.00  0.00    -0.237 OA
ATOM     94  O   UNL     1      12.320 -15.890  -5.880  1.00  0.00    -0.744 OA
ENDBRANCH  90  91
ENDBRANCH  64  85
ENDBRANCH  38  39
ENDBRANCH  31  33
ENDBRANCH  30  31
ENDBRANCH  29  30
ENDBRANCH  28  29
ENDBRANCH  27  28
ENDBRANCH  26  27
ENDBRANCH   1  26
TORSDOF 24
