REMARK SMILES CCC[NH2+][C@]1(C(=O)OCCOCCOCCOC(=O)c2ccc(-c3c4nc(c(-c5ccc(S(=O)(=O)[O-])cc5)c5ccc([nH]5)c(-c5ccc(S(=O)(=O)[O-])cc5)c5nc(c(-c6ccc(S(=O)(=O)[O-])cc6)c6ccc3[nH]6)C=C5)C=C4)cc2)CC[C@@H](Sc2nnc(C)n2C)C1
REMARK SMILES IDX 12 1 11 2 10 3 9 4 8 5 6 6 7 7 5 8 80 9 91 10 81 11 82 12
REMARK SMILES IDX 4 13 3 16 2 17 1 18 83 19 84 20 85 21 89 22 86 23 87 24
REMARK SMILES IDX 90 25 88 26 13 27 14 28 15 29 16 30 17 31 18 32 19 33 20 34
REMARK SMILES IDX 21 35 79 36 22 37 78 38 23 39 24 40 25 41 72 42 26 43 77 44
REMARK SMILES IDX 71 45 73 46 27 47 76 48 70 49 69 50 28 52 58 53 39 54 57 55
REMARK SMILES IDX 40 56 43 57 56 58 74 59 41 60 42 61 55 63 75 64 44 65 29 66
REMARK SMILES IDX 30 67 38 68 31 69 37 70 32 71 33 72 34 73 35 74 36 75 59 76
REMARK SMILES IDX 60 77 68 78 61 79 67 80 62 81 63 82 64 83 65 84 66 85 45 86
REMARK SMILES IDX 46 87 54 88 47 89 53 90 48 91 49 92 50 93 51 94 52 95
REMARK H PARENT 4 14 4 15 73 51 43 62
REMARK Flexibility Score: inf
ROOT
ATOM      1  C   UNL     1       0.501   1.784   1.361  1.00  0.00     0.188 C 
ENDROOT
BRANCH   1   2
ATOM      2  O   UNL     1      -0.394   1.480   0.317  1.00  0.00    -0.376 OA
BRANCH   2   3
ATOM      3  C   UNL     1      -0.721   0.127   0.081  1.00  0.00     0.202 C 
BRANCH   3   4
ATOM      4  C   UNL     1      -1.163  -0.781   1.240  1.00  0.00     0.261 C 
BRANCH   4   5
ATOM      5  O   UNL     1      -0.595  -0.545   2.539  1.00  0.00    -0.459 OA
BRANCH   5   6
ATOM      6  C   UNL     1       0.556  -1.210   2.851  1.00  0.00     0.368 C 
ATOM      7  O   UNL     1       1.233  -1.792   2.013  1.00  0.00    -0.245 OA
BRANCH   6   8
ATOM      8  C   UNL     1       0.918  -1.064   4.365  1.00  0.00     0.195 C 
ATOM      9  C   UNL     1       1.878  -2.190   4.787  1.00  0.00     0.082 C 
ATOM     10  C   UNL     1       1.754   0.214   4.620  1.00  0.00     0.096 C 
ATOM     11  C   UNL     1       2.729  -1.626   5.915  1.00  0.00     0.022 C 
ATOM     12  C   UNL     1       2.873  -0.140   5.604  1.00  0.00     0.062 C 
BRANCH   8  13
ATOM     13  N   UNL     1      -0.283  -0.899   5.231  1.00  0.00    -0.332 N 
ATOM     14  H   UNL     1       0.034  -0.851   6.199  1.00  0.00     0.347 HD
ATOM     15  H   UNL     1      -0.745  -0.052   4.901  1.00  0.00     0.347 HD
BRANCH  13  16
ATOM     16  C   UNL     1      -1.287  -1.956   5.140  1.00  0.00     0.261 C 
BRANCH  16  17
ATOM     17  C   UNL     1      -2.569  -1.542   5.881  1.00  0.00     0.058 C 
ATOM     18  C   UNL     1      -3.228  -0.271   5.346  1.00  0.00     0.010 C 
ENDBRANCH  16  17
ENDBRANCH  13  16
ENDBRANCH   8  13
BRANCH  12  19
ATOM     19  S   UNL     1       4.508   0.466   5.064  1.00  0.00    -0.082 SA
BRANCH  19  20
ATOM     20  C   UNL     1       4.948  -0.537   3.729  1.00  0.00     0.191 A 
ATOM     21  N   UNL     1       5.700  -1.608   3.803  1.00  0.00    -0.123 NA
ATOM     22  N   UNL     1       4.658  -0.280   2.419  1.00  0.00    -0.309 N 
ATOM     23  N   UNL     1       5.886  -2.080   2.521  1.00  0.00    -0.135 NA
ATOM     24  C   UNL     1       5.243  -1.287   1.691  1.00  0.00     0.130 A 
ATOM     25  C   UNL     1       3.796   0.719   1.867  1.00  0.00     0.154 C 
ATOM     26  C   UNL     1       5.134  -1.426   0.217  1.00  0.00     0.090 C 
ENDBRANCH  19  20
ENDBRANCH  12  19
ENDBRANCH   6   8
ENDBRANCH   5   6
ENDBRANCH   4   5
ENDBRANCH   3   4
ENDBRANCH   2   3
ENDBRANCH   1   2
BRANCH   1  27
ATOM     27  C   UNL     1      -0.180   2.437   2.576  1.00  0.00     0.188 C 
BRANCH  27  28
ATOM     28  O   UNL     1      -1.470   3.011   2.426  1.00  0.00    -0.376 OA
BRANCH  28  29
ATOM     29  C   UNL     1      -1.780   3.697   1.222  1.00  0.00     0.202 C 
BRANCH  29  30
ATOM     30  C   UNL     1      -0.921   4.908   0.831  1.00  0.00     0.261 C 
BRANCH  30  31
ATOM     31  O   UNL     1       0.504   4.684   0.765  1.00  0.00    -0.460 OA
BRANCH  31  32
ATOM     32  C   UNL     1       1.238   5.246   1.760  1.00  0.00     0.338 C 
ATOM     33  O   UNL     1       0.799   5.886   2.707  1.00  0.00    -0.246 OA
BRANCH  32  34
ATOM     34  C   UNL     1       2.670   4.855   1.667  1.00  0.00     0.060 A 
ATOM     35  C   UNL     1       3.313   4.405   2.828  1.00  0.00     0.016 A 
ATOM     36  C   UNL     1       3.405   4.996   0.486  1.00  0.00     0.016 A 
ATOM     37  C   UNL     1       4.688   4.122   2.818  1.00  0.00     0.010 A 
ATOM     38  C   UNL     1       4.788   4.732   0.484  1.00  0.00     0.010 A 
ATOM     39  C   UNL     1       5.448   4.312   1.653  1.00  0.00    -0.014 A 
BRANCH  39  40
ATOM     40  C   UNL     1       6.940   4.237   1.712  1.00  0.00     0.031 A 
ATOM     41  C   UNL     1       7.709   5.453   2.138  1.00  0.00     0.074 A 
ATOM     42  C   UNL     1       7.629   3.117   1.417  1.00  0.00     0.049 A 
ATOM     43  N   UNL     1       9.002   5.607   2.251  1.00  0.00    -0.248 NA
ATOM     44  C   UNL     1       6.921   6.654   2.453  1.00  0.00     0.031 C 
ATOM     45  C   UNL     1       7.023   1.875   0.981  1.00  0.00     0.029 A 
ATOM     46  N   UNL     1       8.973   2.824   1.453  1.00  0.00    -0.354 N 
ATOM     47  C   UNL     1       9.190   6.926   2.635  1.00  0.00     0.074 A 
ATOM     48  C   UNL     1       7.877   7.530   2.727  1.00  0.00     0.031 C 
ATOM     49  C   UNL     1       7.962   0.924   0.877  1.00  0.00     0.029 A 
ATOM     50  C   UNL     1       9.265   1.516   1.128  1.00  0.00     0.049 A 
ATOM     51  H   UNL     1       9.662   3.487   1.689  1.00  0.00     0.167 HD
ATOM     52  C   UNL     1      10.352   7.579   2.872  1.00  0.00     0.031 A 
ATOM     53  C   UNL     1      10.436   0.858   1.000  1.00  0.00     0.031 A 
ATOM     54  C   UNL     1      11.660   6.996   2.730  1.00  0.00     0.049 A 
ATOM     55  C   UNL     1      11.712   1.621   1.210  1.00  0.00     0.074 A 
ATOM     56  C   UNL     1      12.891   7.598   2.928  1.00  0.00     0.029 A 
ATOM     57  N   UNL     1      11.915   5.688   2.343  1.00  0.00    -0.354 N 
ATOM     58  N   UNL     1      11.866   2.873   1.569  1.00  0.00    -0.248 NA
ATOM     59  C   UNL     1      12.970   0.898   0.978  1.00  0.00     0.031 C 
ATOM     60  C   UNL     1      13.889   6.673   2.605  1.00  0.00     0.029 A 
ATOM     61  C   UNL     1      13.283   5.473   2.273  1.00  0.00     0.049 A 
ATOM     62  H   UNL     1      11.226   5.013   2.147  1.00  0.00     0.167 HD
ATOM     63  C   UNL     1      13.238   3.083   1.620  1.00  0.00     0.074 A 
ATOM     64  C   UNL     1      13.869   1.826   1.277  1.00  0.00     0.031 C 
ATOM     65  C   UNL     1      13.908   4.222   1.920  1.00  0.00     0.031 A 
BRANCH  52  66
ATOM     66  C   UNL     1      10.245   9.030   3.250  1.00  0.00    -0.014 A 
ATOM     67  C   UNL     1       9.746   9.420   4.506  1.00  0.00     0.010 A 
ATOM     68  C   UNL     1      10.650  10.016   2.333  1.00  0.00     0.010 A 
ATOM     69  C   UNL     1       9.612  10.774   4.820  1.00  0.00     0.020 A 
ATOM     70  C   UNL     1      10.545  11.370   2.656  1.00  0.00     0.020 A 
ATOM     71  C   UNL     1      10.008  11.740   3.890  1.00  0.00     0.054 A 
BRANCH  71  72
ATOM     72  S   UNL     1       9.827  13.490   4.327  1.00  0.00     0.124 S 
ATOM     73  O   UNL     1       8.379  13.668   4.260  1.00  0.00    -0.237 OA
ATOM     74  O   UNL     1      10.406  13.547   5.667  1.00  0.00    -0.237 OA
ATOM     75  O   UNL     1      10.588  14.187   3.292  1.00  0.00    -0.744 OA
ENDBRANCH  71  72
ENDBRANCH  52  66
BRANCH  53  76
ATOM     76  C   UNL     1      10.469  -0.583   0.599  1.00  0.00    -0.014 A 
ATOM     77  C   UNL     1      10.941  -1.569   1.484  1.00  0.00     0.010 A 
ATOM     78  C   UNL     1      10.039  -0.979  -0.683  1.00  0.00     0.010 A 
ATOM     79  C   UNL     1      11.005  -2.912   1.092  1.00  0.00     0.020 A 
ATOM     80  C   UNL     1      10.067  -2.324  -1.067  1.00  0.00     0.020 A 
ATOM     81  C   UNL     1      10.566  -3.282  -0.183  1.00  0.00     0.054 A 
BRANCH  81  82
ATOM     82  S   UNL     1      10.633  -5.030  -0.672  1.00  0.00     0.124 S 
ATOM     83  O   UNL     1      12.060  -5.225  -0.910  1.00  0.00    -0.237 OA
ATOM     84  O   UNL     1      10.089  -5.716   0.497  1.00  0.00    -0.237 OA
ATOM     85  O   UNL     1       9.789  -5.083  -1.865  1.00  0.00    -0.744 OA
ENDBRANCH  81  82
ENDBRANCH  53  76
BRANCH  65  86
ATOM     86  C   UNL     1      15.412   4.157   1.923  1.00  0.00    -0.014 A 
ATOM     87  C   UNL     1      16.144   4.045   0.728  1.00  0.00     0.010 A 
ATOM     88  C   UNL     1      16.104   4.257   3.144  1.00  0.00     0.010 A 
ATOM     89  C   UNL     1      17.541   4.008   0.756  1.00  0.00     0.020 A 
ATOM     90  C   UNL     1      17.500   4.250   3.174  1.00  0.00     0.020 A 
ATOM     91  C   UNL     1      18.210   4.113   1.980  1.00  0.00     0.054 A 
BRANCH  91  92
ATOM     92  S   UNL     1      20.024   4.115   1.985  1.00  0.00     0.124 S 
ATOM     93  O   UNL     1      20.332   2.721   1.682  1.00  0.00    -0.237 OA
ATOM     94  O   UNL     1      20.345   5.074   0.930  1.00  0.00    -0.237 OA
ATOM     95  O   UNL     1      20.366   4.549   3.338  1.00  0.00    -0.744 OA
ENDBRANCH  91  92
ENDBRANCH  65  86
ENDBRANCH  39  40
ENDBRANCH  32  34
ENDBRANCH  31  32
ENDBRANCH  30  31
ENDBRANCH  29  30
ENDBRANCH  28  29
ENDBRANCH  27  28
ENDBRANCH   1  27
TORSDOF 25
