REMARK SMILES Cc1cc(OC(F)(F)F)cc2c1O[C@H](C(F)(F)F)C(C(=O)OCCOCCOCCOC(=O)c1ccc(-c3c4nc(c(-c5ccc(S(=O)(=O)[O-])cc5)c5ccc([nH]5)c(-c5ccc(S(=O)(=O)[O-])cc5)c5nc(c(-c6ccc(S(=O)(=O)[O-])cc6)c6ccc3[nH]6)C=C5)C=C4)cc1)=C2
REMARK SMILES IDX 27 1 26 2 25 3 24 4 23 5 22 6 20 7 21 8 19 9 1 10 2 11 3 12
REMARK SMILES IDX 12 13 4 14 11 15 13 16 10 17 94 18 14 19 5 20 6 21 7 22 8 23
REMARK SMILES IDX 9 24 15 25 16 26 17 27 18 28 28 29 29 30 30 31 31 32 32 33
REMARK SMILES IDX 33 34 34 35 35 36 93 37 36 38 92 39 37 40 38 41 39 42 86 43
REMARK SMILES IDX 40 44 91 45 85 46 87 47 41 48 90 49 84 50 83 51 42 53 72 54
REMARK SMILES IDX 53 55 71 56 54 57 57 58 70 59 88 60 55 61 56 62 69 64 89 65
REMARK SMILES IDX 58 66 43 67 44 68 52 69 45 70 51 71 46 72 47 73 48 74 49 75
REMARK SMILES IDX 50 76 73 77 74 78 82 79 75 80 81 81 76 82 77 83 78 84 79 85
REMARK SMILES IDX 80 86 59 87 60 88 68 89 61 90 67 91 62 92 63 93 64 94 65 95
REMARK SMILES IDX 66 96
REMARK H PARENT 87 52 57 63
REMARK Flexibility Score: inf
ROOT
ATOM      1  C   UNL     1      -3.038   2.117   5.678  1.00  0.00     0.188 C 
ENDROOT
BRANCH   1   2
ATOM      2  C   UNL     1      -3.982   3.330   5.521  1.00  0.00     0.188 C 
BRANCH   2   3
ATOM      3  O   UNL     1      -5.304   3.291   6.016  1.00  0.00    -0.376 OA
BRANCH   3   4
ATOM      4  C   UNL     1      -6.242   2.328   5.575  1.00  0.00     0.202 C 
BRANCH   4   5
ATOM      5  C   UNL     1      -6.287   1.801   4.137  1.00  0.00     0.261 C 
BRANCH   5   6
ATOM      6  O   UNL     1      -5.013   1.557   3.533  1.00  0.00    -0.460 OA
BRANCH   6   7
ATOM      7  C   UNL     1      -4.747   2.309   2.438  1.00  0.00     0.338 C 
ATOM      8  O   UNL     1      -5.478   3.142   1.926  1.00  0.00    -0.246 OA
BRANCH   7   9
ATOM      9  C   UNL     1      -3.370   2.047   1.983  1.00  0.00     0.087 C 
ATOM     10  C   UNL     1       0.918  -0.031   0.099  1.00  0.00     0.048 C 
ATOM     11  C   UNL     1       0.432   1.361   0.396  1.00  0.00    -0.005 A 
ATOM     12  C   UNL     1       1.211   2.461  -0.005  1.00  0.00     0.054 A 
ATOM     13  C   UNL     1      -0.823   1.584   0.983  1.00  0.00     0.131 A 
ATOM     14  C   UNL     1       0.764   3.767   0.202  1.00  0.00     0.130 A 
ATOM     15  C   UNL     1      -1.284   2.888   1.175  1.00  0.00     0.021 A 
ATOM     16  O   UNL     1      -1.545   0.477   1.334  1.00  0.00    -0.475 OA
ATOM     17  C   UNL     1      -0.479   3.972   0.806  1.00  0.00     0.058 A 
ATOM     18  C   UNL     1      -2.622   3.119   1.694  1.00  0.00     0.027 C 
ATOM     19  C   UNL     1      -2.890   0.629   1.857  1.00  0.00     0.316 C 
BRANCH  14  20
ATOM     20  O   UNL     1       1.424   4.912  -0.138  1.00  0.00    -0.406 OA
BRANCH  20  21
ATOM     21  C   UNL     1       2.552   4.796  -0.990  1.00  0.00     0.573 C 
ATOM     22  F   UNL     1       3.558   4.139  -0.375  1.00  0.00    -0.132 F 
ATOM     23  F   UNL     1       2.232   4.151  -2.134  1.00  0.00    -0.132 F 
ATOM     24  F   UNL     1       2.988   6.032  -1.315  1.00  0.00    -0.132 F 
ENDBRANCH  20  21
ENDBRANCH  14  20
BRANCH  19  25
ATOM     25  C   UNL     1      -3.830  -0.239   1.008  1.00  0.00     0.430 C 
ATOM     26  F   UNL     1      -3.356  -1.505   0.890  1.00  0.00    -0.167 F 
ATOM     27  F   UNL     1      -5.062  -0.345   1.560  1.00  0.00    -0.167 F 
ATOM     28  F   UNL     1      -3.987   0.250  -0.242  1.00  0.00    -0.167 F 
ENDBRANCH  19  25
ENDBRANCH   7   9
ENDBRANCH   6   7
ENDBRANCH   5   6
ENDBRANCH   4   5
ENDBRANCH   3   4
ENDBRANCH   2   3
ENDBRANCH   1   2
BRANCH   1  29
ATOM     29  O   UNL     1      -3.419   1.004   6.466  1.00  0.00    -0.376 OA
BRANCH  29  30
ATOM     30  C   UNL     1      -3.825   1.232   7.808  1.00  0.00     0.202 C 
BRANCH  30  31
ATOM     31  C   UNL     1      -2.905   2.009   8.756  1.00  0.00     0.261 C 
BRANCH  31  32
ATOM     32  O   UNL     1      -2.617   3.341   8.303  1.00  0.00    -0.460 OA
BRANCH  32  33
ATOM     33  C   UNL     1      -1.302   3.616   8.120  1.00  0.00     0.338 C 
ATOM     34  O   UNL     1      -0.355   2.880   8.332  1.00  0.00    -0.246 OA
BRANCH  33  35
ATOM     35  C   UNL     1      -1.168   4.912   7.433  1.00  0.00     0.060 A 
ATOM     36  C   UNL     1      -0.670   4.923   6.122  1.00  0.00     0.016 A 
ATOM     37  C   UNL     1      -1.455   6.104   8.098  1.00  0.00     0.016 A 
ATOM     38  C   UNL     1      -0.438   6.134   5.475  1.00  0.00     0.010 A 
ATOM     39  C   UNL     1      -1.180   7.319   7.464  1.00  0.00     0.010 A 
ATOM     40  C   UNL     1      -0.640   7.336   6.165  1.00  0.00    -0.014 A 
BRANCH  40  41
ATOM     41  C   UNL     1      -0.058   8.586   5.627  1.00  0.00     0.031 A 
ATOM     42  C   UNL     1       1.381   8.887   5.947  1.00  0.00     0.074 A 
ATOM     43  C   UNL     1      -0.777   9.428   4.865  1.00  0.00     0.049 A 
ATOM     44  N   UNL     1       2.092   9.938   5.636  1.00  0.00    -0.248 NA
ATOM     45  C   UNL     1       2.116   7.865   6.714  1.00  0.00     0.031 C 
ATOM     46  C   UNL     1      -2.157   9.214   4.432  1.00  0.00     0.029 A 
ATOM     47  N   UNL     1      -0.436  10.642   4.323  1.00  0.00    -0.354 N 
ATOM     48  C   UNL     1       3.356   9.702   6.163  1.00  0.00     0.074 A 
ATOM     49  C   UNL     1       3.315   8.417   6.823  1.00  0.00     0.031 C 
ATOM     50  C   UNL     1      -2.551  10.272   3.700  1.00  0.00     0.029 A 
ATOM     51  C   UNL     1      -1.463  11.249   3.641  1.00  0.00     0.049 A 
ATOM     52  H   UNL     1       0.459  11.040   4.415  1.00  0.00     0.167 HD
ATOM     53  C   UNL     1       4.454  10.489   6.108  1.00  0.00     0.031 A 
ATOM     54  C   UNL     1      -1.524  12.464   3.059  1.00  0.00     0.031 A 
ATOM     55  C   UNL     1       4.488  11.781   5.484  1.00  0.00     0.049 A 
ATOM     56  C   UNL     1      -0.321  13.369   3.103  1.00  0.00     0.074 A 
ATOM     57  C   UNL     1       5.553  12.658   5.389  1.00  0.00     0.029 A 
ATOM     58  N   UNL     1       3.409  12.386   4.862  1.00  0.00    -0.354 N 
ATOM     59  N   UNL     1       0.865  13.136   3.612  1.00  0.00    -0.248 NA
ATOM     60  C   UNL     1      -0.467  14.704   2.502  1.00  0.00     0.031 C 
ATOM     61  C   UNL     1       5.104  13.817   4.750  1.00  0.00     0.029 A 
ATOM     62  C   UNL     1       3.773  13.638   4.403  1.00  0.00     0.049 A 
ATOM     63  H   UNL     1       2.515  11.984   4.762  1.00  0.00     0.167 HD
ATOM     64  C   UNL     1       1.611  14.288   3.380  1.00  0.00     0.074 A 
ATOM     65  C   UNL     1       0.746  15.214   2.679  1.00  0.00     0.031 C 
ATOM     66  C   UNL     1       2.898  14.550   3.714  1.00  0.00     0.031 A 
BRANCH  53  67
ATOM     67  C   UNL     1       5.703   9.987   6.770  1.00  0.00    -0.014 A 
ATOM     68  C   UNL     1       6.501   9.009   6.152  1.00  0.00     0.010 A 
ATOM     69  C   UNL     1       6.114  10.544   7.994  1.00  0.00     0.010 A 
ATOM     70  C   UNL     1       7.691   8.591   6.753  1.00  0.00     0.020 A 
ATOM     71  C   UNL     1       7.311  10.140   8.589  1.00  0.00     0.020 A 
ATOM     72  C   UNL     1       8.091   9.165   7.964  1.00  0.00     0.054 A 
BRANCH  72  73
ATOM     73  S   UNL     1       9.661   8.627   8.696  1.00  0.00     0.124 S 
ATOM     74  O   UNL     1       9.423   7.203   8.917  1.00  0.00    -0.237 OA
ATOM     75  O   UNL     1      10.623   8.949   7.646  1.00  0.00    -0.237 OA
ATOM     76  O   UNL     1       9.773   9.431   9.911  1.00  0.00    -0.744 OA
ENDBRANCH  72  73
ENDBRANCH  53  67
BRANCH  54  77
ATOM     77  C   UNL     1      -2.786  12.906   2.409  1.00  0.00    -0.014 A 
ATOM     78  C   UNL     1      -2.886  12.962   1.008  1.00  0.00     0.010 A 
ATOM     79  C   UNL     1      -3.903  13.253   3.191  1.00  0.00     0.010 A 
ATOM     80  C   UNL     1      -4.084  13.351   0.401  1.00  0.00     0.020 A 
ATOM     81  C   UNL     1      -5.107  13.625   2.587  1.00  0.00     0.020 A 
ATOM     82  C   UNL     1      -5.190  13.669   1.194  1.00  0.00     0.054 A 
BRANCH  82  83
ATOM     83  S   UNL     1      -6.748  14.113   0.376  1.00  0.00     0.124 S 
ATOM     84  O   UNL     1      -6.373  15.308  -0.374  1.00  0.00    -0.237 OA
ATOM     85  O   UNL     1      -7.023  12.923  -0.425  1.00  0.00    -0.237 OA
ATOM     86  O   UNL     1      -7.670  14.337   1.487  1.00  0.00    -0.744 OA
ENDBRANCH  82  83
ENDBRANCH  54  77
BRANCH  66  87
ATOM     87  C   UNL     1       3.473  15.884   3.327  1.00  0.00    -0.014 A 
ATOM     88  C   UNL     1       3.175  17.039   4.069  1.00  0.00     0.010 A 
ATOM     89  C   UNL     1       4.419  15.957   2.287  1.00  0.00     0.010 A 
ATOM     90  C   UNL     1       3.815  18.247   3.777  1.00  0.00     0.020 A 
ATOM     91  C   UNL     1       5.074  17.158   2.005  1.00  0.00     0.020 A 
ATOM     92  C   UNL     1       4.768  18.296   2.754  1.00  0.00     0.054 A 
BRANCH  92  93
ATOM     93  S   UNL     1       5.627  19.863   2.445  1.00  0.00     0.124 S 
ATOM     94  O   UNL     1       4.529  20.746   2.060  1.00  0.00    -0.237 OA
ATOM     95  O   UNL     1       6.237  20.148   3.741  1.00  0.00    -0.237 OA
ATOM     96  O   UNL     1       6.568  19.540   1.374  1.00  0.00    -0.744 OA
ENDBRANCH  92  93
ENDBRANCH  66  87
ENDBRANCH  40  41
ENDBRANCH  33  35
ENDBRANCH  32  33
ENDBRANCH  31  32
ENDBRANCH  30  31
ENDBRANCH  29  30
ENDBRANCH   1  29
TORSDOF 23
