REMARK SMILES O=C(NC(=S)Nc1c(Cl)cc(Cl)cc1C(=O)OCCOCCOCCOC(=O)c1ccc(-c2c3nc(c(-c4ccc(S(=O)(=O)[O-])cc4)c4ccc([nH]4)c(-c4ccc(S(=O)(=O)[O-])cc4)c4nc(c(-c5ccc(S(=O)(=O)[O-])cc5)c5ccc2[nH]5)C=C4)C=C3)cc1)c1cccc([N+](=O)[O-])c1
REMARK SMILES IDX 21 1 20 2 19 3 18 4 17 5 15 6 16 7 14 8 7 9 8 10 9 11 10 12
REMARK SMILES IDX 13 13 11 14 12 15 6 16 4 18 5 19 3 20 1 21 2 22 89 24 90 25
REMARK SMILES IDX 97 26 91 27 93 28 92 29 94 30 95 31 96 32 22 33 23 34 24 35
REMARK SMILES IDX 25 36 26 37 27 38 28 39 29 40 30 41 88 42 31 43 87 44 32 45
REMARK SMILES IDX 33 46 34 47 81 48 35 49 86 50 80 51 82 52 36 53 85 54 79 55
REMARK SMILES IDX 78 56 37 58 67 59 48 60 66 61 49 62 52 63 65 64 83 65 50 66
REMARK SMILES IDX 51 67 64 69 84 70 53 71 38 72 39 73 47 74 40 75 46 76 41 77
REMARK SMILES IDX 42 78 43 79 44 80 45 81 68 82 69 83 77 84 70 85 76 86 71 87
REMARK SMILES IDX 72 88 73 89 74 90 75 91 54 92 55 93 63 94 56 95 62 96 57 97
REMARK SMILES IDX 58 98 59 99 60 100 61 101
REMARK H PARENT 6 17 3 23 82 57 52 68
REMARK Flexibility Score: inf
ROOT
ATOM      1  C   UNL     1       6.259  -4.498   2.046  1.00  0.00     0.188 C 
ENDROOT
BRANCH   1   2
ATOM      2  O   UNL     1       7.660  -4.475   2.311  1.00  0.00    -0.376 OA
BRANCH   2   3
ATOM      3  C   UNL     1       8.358  -3.252   2.093  1.00  0.00     0.202 C 
BRANCH   3   4
ATOM      4  C   UNL     1       8.534  -2.885   0.619  1.00  0.00     0.261 C 
BRANCH   4   5
ATOM      5  O   UNL     1       7.330  -2.285   0.085  1.00  0.00    -0.460 OA
BRANCH   5   6
ATOM      6  C   UNL     1       6.888  -2.839  -1.059  1.00  0.00     0.340 C 
ATOM      7  O   UNL     1       7.388  -3.742  -1.705  1.00  0.00    -0.246 OA
BRANCH   6   8
ATOM      8  C   UNL     1       5.595  -2.288  -1.452  1.00  0.00     0.086 A 
ATOM      9  C   UNL     1       5.067  -0.384  -1.552  1.00  0.00     0.074 A 
ATOM     10  C   UNL     1       3.365   0.263  -2.307  1.00  0.00     0.066 A 
ATOM     11  Cl  UNL     1       3.052   1.968  -2.408  1.00  0.00    -0.082 Cl
ATOM     12  C   UNL     1       1.944  -0.936  -2.982  1.00  0.00     0.043 A 
ATOM     13  C   UNL     1       4.189  -3.510  -2.174  1.00  0.00     0.038 A 
ATOM     14  C   UNL     1       2.472  -2.859  -2.861  1.00  0.00     0.043 A 
ATOM     15  Cl  UNL     1       1.255  -4.051  -3.203  1.00  0.00    -0.084 Cl
BRANCH   9  16
ATOM     16  N   UNL     1       5.687   0.455  -0.609  1.00  0.00    -0.330 N 
ATOM     17  H   UNL     1       6.670   0.489  -0.589  1.00  0.00     0.169 HD
BRANCH  16  18
ATOM     18  C   UNL     1       4.996   1.220   0.275  1.00  0.00     0.177 C 
ATOM     19  S   UNL     1       5.774   2.455   1.084  1.00  0.00    -0.040 S 
BRANCH  18  20
ATOM     20  N   UNL     1       3.668   0.954   0.570  1.00  0.00    -0.299 N 
ATOM     21  O   UNL     1       1.545   0.110   0.698  1.00  0.00    -0.269 OA
ATOM     22  C   UNL     1       2.711  -0.051   0.343  1.00  0.00     0.257 C 
ATOM     23  H   UNL     1       3.278   1.690   1.096  1.00  0.00     0.172 HD
BRANCH  22  24
ATOM     24  C   UNL     1       3.065  -1.370  -0.223  1.00  0.00     0.047 A 
ATOM     25  C   UNL     1       3.806  -1.876  -1.139  1.00  0.00     0.014 A 
ATOM     26  C   UNL     1       2.931  -1.487  -1.533  1.00  0.00     0.099 A 
ATOM     27  C   UNL     1       4.670  -1.757  -2.977  1.00  0.00     0.008 A 
ATOM     28  C   UNL     1       3.714  -1.365  -3.432  1.00  0.00     0.270 A 
ATOM     29  C   UNL     1       4.816  -1.015  -3.999  1.00  0.00     0.085 A 
BRANCH  28  30
ATOM     30  N   UNL     1       2.879  -1.633  -4.973  1.00  0.00     0.062 N 
ATOM     31  O   UNL     1       3.060  -2.740  -5.505  1.00  0.00    -0.258 OA
ATOM     32  O   UNL     1       2.380  -0.634  -5.521  1.00  0.00    -0.258 OA
ENDBRANCH  28  30
ENDBRANCH  22  24
ENDBRANCH  18  20
ENDBRANCH  16  18
ENDBRANCH   9  16
ENDBRANCH   6   8
ENDBRANCH   5   6
ENDBRANCH   4   5
ENDBRANCH   3   4
ENDBRANCH   2   3
ENDBRANCH   1   2
BRANCH   1  33
ATOM     33  C   UNL     1       5.446  -3.317   2.591  1.00  0.00     0.188 C 
BRANCH  33  34
ATOM     34  O   UNL     1       5.832  -2.983   3.925  1.00  0.00    -0.376 OA
BRANCH  34  35
ATOM     35  C   UNL     1       4.766  -2.982   4.875  1.00  0.00     0.202 C 
BRANCH  35  36
ATOM     36  C   UNL     1       4.660  -4.347   5.561  1.00  0.00     0.261 C 
BRANCH  36  37
ATOM     37  O   UNL     1       4.183  -5.385   4.686  1.00  0.00    -0.460 OA
BRANCH  37  38
ATOM     38  C   UNL     1       2.923  -5.245   4.217  1.00  0.00     0.338 C 
ATOM     39  O   UNL     1       2.146  -4.340   4.468  1.00  0.00    -0.246 OA
BRANCH  38  40
ATOM     40  C   UNL     1       2.652  -6.299   3.220  1.00  0.00     0.060 A 
ATOM     41  C   UNL     1       1.869  -5.968   2.106  1.00  0.00     0.016 A 
ATOM     42  C   UNL     1       3.099  -7.610   3.410  1.00  0.00     0.016 A 
ATOM     43  C   UNL     1       1.476  -6.962   1.211  1.00  0.00     0.010 A 
ATOM     44  C   UNL     1       2.688  -8.607   2.526  1.00  0.00     0.010 A 
ATOM     45  C   UNL     1       1.844  -8.292   1.449  1.00  0.00    -0.014 A 
BRANCH  45  46
ATOM     46  C   UNL     1       1.196  -9.393   0.704  1.00  0.00     0.031 A 
ATOM     47  C   UNL     1      -0.120  -9.916   1.209  1.00  0.00     0.074 A 
ATOM     48  C   UNL     1       1.790  -9.948  -0.366  1.00  0.00     0.049 A 
ATOM     49  N   UNL     1      -0.818 -10.937   0.789  1.00  0.00    -0.248 NA
ATOM     50  C   UNL     1      -0.726  -9.191   2.340  1.00  0.00     0.031 C 
ATOM     51  C   UNL     1       3.051  -9.509  -0.962  1.00  0.00     0.029 A 
ATOM     52  N   UNL     1       1.411 -11.023  -1.128  1.00  0.00    -0.354 N 
ATOM     53  C   UNL     1      -1.944 -10.979   1.601  1.00  0.00     0.074 A 
ATOM     54  C   UNL     1      -1.837  -9.883   2.539  1.00  0.00     0.031 C 
ATOM     55  C   UNL     1       3.354 -10.325  -1.988  1.00  0.00     0.029 A 
ATOM     56  C   UNL     1       2.323 -11.355  -2.100  1.00  0.00     0.049 A 
ATOM     57  H   UNL     1       0.566 -11.510  -0.992  1.00  0.00     0.167 HD
ATOM     58  C   UNL     1      -2.973 -11.858   1.579  1.00  0.00     0.031 A 
ATOM     59  C   UNL     1       2.335 -12.391  -2.960  1.00  0.00     0.031 A 
ATOM     60  C   UNL     1      -3.060 -12.975   0.683  1.00  0.00     0.049 A 
ATOM     61  C   UNL     1       1.212 -13.393  -2.927  1.00  0.00     0.074 A 
ATOM     62  C   UNL     1      -4.041 -13.946   0.605  1.00  0.00     0.029 A 
ATOM     63  N   UNL     1      -2.117 -13.274  -0.287  1.00  0.00    -0.354 N 
ATOM     64  N   UNL     1       0.154 -13.418  -2.152  1.00  0.00    -0.248 NA
ATOM     65  C   UNL     1       1.290 -14.509  -3.880  1.00  0.00     0.031 C 
ATOM     66  C   UNL     1      -3.678 -14.849  -0.401  1.00  0.00     0.029 A 
ATOM     67  C   UNL     1      -2.485 -14.422  -0.964  1.00  0.00     0.049 A 
ATOM     68  H   UNL     1      -1.305 -12.748  -0.468  1.00  0.00     0.167 HD
ATOM     69  C   UNL     1      -0.566 -14.545  -2.533  1.00  0.00     0.074 A 
ATOM     70  C   UNL     1       0.173 -15.172  -3.610  1.00  0.00     0.031 C 
ATOM     71  C   UNL     1      -1.735 -15.020  -2.037  1.00  0.00     0.031 A 
BRANCH  58  72
ATOM     72  C   UNL     1      -4.055 -11.649   2.596  1.00  0.00    -0.014 A 
ATOM     73  C   UNL     1      -5.051 -10.677   2.391  1.00  0.00     0.010 A 
ATOM     74  C   UNL     1      -4.054 -12.399   3.784  1.00  0.00     0.010 A 
ATOM     75  C   UNL     1      -6.003 -10.426   3.382  1.00  0.00     0.020 A 
ATOM     76  C   UNL     1      -5.012 -12.158   4.772  1.00  0.00     0.020 A 
ATOM     77  C   UNL     1      -5.966 -11.157   4.574  1.00  0.00     0.054 A 
BRANCH  77  78
ATOM     78  S   UNL     1      -7.190 -10.802   5.865  1.00  0.00     0.124 S 
ATOM     79  O   UNL     1      -6.586  -9.656   6.541  1.00  0.00    -0.237 OA
ATOM     80  O   UNL     1      -8.401 -10.513   5.101  1.00  0.00    -0.237 OA
ATOM     81  O   UNL     1      -7.230 -12.036   6.646  1.00  0.00    -0.744 OA
ENDBRANCH  77  78
ENDBRANCH  58  72
BRANCH  59  82
ATOM     82  C   UNL     1       3.467 -12.556  -3.907  1.00  0.00    -0.014 A 
ATOM     83  C   UNL     1       3.318 -12.212  -5.261  1.00  0.00     0.010 A 
ATOM     84  C   UNL     1       4.702 -13.055  -3.455  1.00  0.00     0.010 A 
ATOM     85  C   UNL     1       4.383 -12.373  -6.153  1.00  0.00     0.020 A 
ATOM     86  C   UNL     1       5.773 -13.204  -4.341  1.00  0.00     0.020 A 
ATOM     87  C   UNL     1       5.604 -12.872  -5.687  1.00  0.00     0.054 A 
BRANCH  87  88
ATOM     88  S   UNL     1       6.999 -13.027  -6.838  1.00  0.00     0.124 S 
ATOM     89  O   UNL     1       6.758 -14.338  -7.431  1.00  0.00    -0.237 OA
ATOM     90  O   UNL     1       6.813 -11.885  -7.731  1.00  0.00    -0.237 OA
ATOM     91  O   UNL     1       8.166 -12.936  -5.963  1.00  0.00    -0.744 OA
ENDBRANCH  87  88
ENDBRANCH  59  82
BRANCH  71  92
ATOM     92  C   UNL     1      -2.300 -16.260  -2.665  1.00  0.00    -0.014 A 
ATOM     93  C   UNL     1      -1.842 -17.532  -2.281  1.00  0.00     0.010 A 
ATOM     94  C   UNL     1      -3.357 -16.152  -3.585  1.00  0.00     0.010 A 
ATOM     95  C   UNL     1      -2.430 -18.681  -2.815  1.00  0.00     0.020 A 
ATOM     96  C   UNL     1      -3.955 -17.299  -4.112  1.00  0.00     0.020 A 
ATOM     97  C   UNL     1      -3.483 -18.557  -3.728  1.00  0.00     0.054 A 
BRANCH  97  98
ATOM     98  S   UNL     1      -4.290 -20.056  -4.356  1.00  0.00     0.124 S 
ATOM     99  O   UNL     1      -3.415 -20.431  -5.463  1.00  0.00    -0.237 OA
ATOM    100  O   UNL     1      -4.263 -20.952  -3.203  1.00  0.00    -0.237 OA
ATOM    101  O   UNL     1      -5.621 -19.590  -4.741  1.00  0.00    -0.744 OA
ENDBRANCH  97  98
ENDBRANCH  71  92
ENDBRANCH  45  46
ENDBRANCH  38  40
ENDBRANCH  37  38
ENDBRANCH  36  37
ENDBRANCH  35  36
ENDBRANCH  34  35
ENDBRANCH  33  34
ENDBRANCH   1  33
TORSDOF 25
