REMARK SMILES C[C@@](CC(=O)N[C@@H]1CCS(=O)(=O)C1)(C(=O)OCCOCCOCCOC(=O)c1ccc(-c2c3nc(c(-c4ccc(S(=O)(=O)[O-])cc4)c4ccc([nH]4)c(-c4ccc(S(=O)(=O)[O-])cc4)c4nc(c(-c5ccc(S(=O)(=O)[O-])cc5)c5ccc2[nH]5)C=C4)C=C3)cc1)c1ccccc1
REMARK SMILES IDX 20 1 19 2 18 3 17 4 16 5 14 6 15 7 2 8 1 9 3 10 4 11 5 12
REMARK SMILES IDX 6 13 7 15 8 16 13 17 9 18 10 19 11 20 12 21 88 22 89 23
REMARK SMILES IDX 93 24 90 25 92 26 91 27 21 28 22 29 23 30 24 31 25 32 26 33
REMARK SMILES IDX 27 34 28 35 29 36 87 37 30 38 86 39 31 40 32 41 33 42 80 43
REMARK SMILES IDX 34 44 85 45 79 46 81 47 35 48 84 49 78 50 77 51 36 53 66 54
REMARK SMILES IDX 47 55 65 56 48 57 51 58 64 59 82 60 49 61 50 62 63 64 83 65
REMARK SMILES IDX 52 66 37 67 38 68 46 69 39 70 45 71 40 72 41 73 42 74 43 75
REMARK SMILES IDX 44 76 67 77 68 78 76 79 69 80 75 81 70 82 71 83 72 84 73 85
REMARK SMILES IDX 74 86 53 87 54 88 62 89 55 90 61 91 56 92 57 93 58 94 59 95
REMARK SMILES IDX 60 96
REMARK H PARENT 6 14 81 52 51 63
REMARK Flexibility Score: inf
ROOT
ATOM      1  C   UNL     1      -2.781   1.935  -0.709  1.00  0.00     0.188 C 
ENDROOT
BRANCH   1   2
ATOM      2  O   UNL     1      -3.997   1.484  -1.277  1.00  0.00    -0.376 OA
BRANCH   2   3
ATOM      3  C   UNL     1      -4.207   0.074  -1.285  1.00  0.00     0.202 C 
BRANCH   3   4
ATOM      4  C   UNL     1      -3.215  -0.782  -2.089  1.00  0.00     0.261 C 
BRANCH   4   5
ATOM      5  O   UNL     1      -1.829  -0.550  -1.768  1.00  0.00    -0.463 OA
BRANCH   5   6
ATOM      6  C   UNL     1      -1.059   0.016  -2.752  1.00  0.00     0.316 C 
ATOM      7  O   UNL     1      -1.466   0.281  -3.876  1.00  0.00    -0.251 OA
BRANCH   6   8
ATOM      8  C   UNL     1       0.405   0.241  -2.286  1.00  0.00     0.099 C 
ATOM      9  C   UNL     1       0.525   0.412  -0.755  1.00  0.00     0.029 C 
BRANCH   8  10
ATOM     10  C   UNL     1       1.136  -1.022  -2.797  1.00  0.00     0.123 C 
BRANCH  10  11
ATOM     11  C   UNL     1       0.707  -2.295  -2.103  1.00  0.00     0.221 C 
ATOM     12  O   UNL     1      -0.216  -2.975  -2.559  1.00  0.00    -0.275 OA
ATOM     13  N   UNL     1       1.315  -2.767  -0.984  1.00  0.00    -0.352 N 
ATOM     14  H   UNL     1       1.040  -3.689  -0.776  1.00  0.00     0.163 HD
BRANCH  13  15
ATOM     15  C   UNL     1       2.283  -2.246  -0.004  1.00  0.00     0.098 C 
ATOM     16  C   UNL     1       3.529  -1.547  -0.559  1.00  0.00     0.042 C 
ATOM     17  C   UNL     1       2.859  -3.405   0.821  1.00  0.00     0.161 C 
ATOM     18  C   UNL     1       4.341  -2.625  -1.258  1.00  0.00     0.139 C 
ATOM     19  S   UNL     1       4.209  -4.035  -0.168  1.00  0.00     0.152 S 
ATOM     20  O   UNL     1       3.743  -5.175  -0.923  1.00  0.00    -0.229 OA
ATOM     21  O   UNL     1       5.397  -4.092   0.663  1.00  0.00    -0.229 OA
ENDBRANCH  13  15
ENDBRANCH  10  11
ENDBRANCH   8  10
BRANCH   8  22
ATOM     22  C   UNL     1       1.018   1.575  -2.811  1.00  0.00    -0.030 A 
ATOM     23  C   UNL     1       2.409   1.743  -2.956  1.00  0.00     0.005 A 
ATOM     24  C   UNL     1       0.225   2.736  -2.906  1.00  0.00     0.005 A 
ATOM     25  C   UNL     1       2.981   3.013  -3.104  1.00  0.00     0.000 A 
ATOM     26  C   UNL     1       0.799   4.003  -3.046  1.00  0.00     0.000 A 
ATOM     27  C   UNL     1       2.178   4.146  -3.120  1.00  0.00     0.000 A 
ENDBRANCH   8  22
ENDBRANCH   6   8
ENDBRANCH   5   6
ENDBRANCH   4   5
ENDBRANCH   3   4
ENDBRANCH   2   3
ENDBRANCH   1   2
BRANCH   1  28
ATOM     28  C   UNL     1      -2.555   1.639   0.765  1.00  0.00     0.188 C 
BRANCH  28  29
ATOM     29  O   UNL     1      -3.000   0.395   1.272  1.00  0.00    -0.376 OA
BRANCH  29  30
ATOM     30  C   UNL     1      -2.975   0.287   2.701  1.00  0.00     0.202 C 
BRANCH  30  31
ATOM     31  C   UNL     1      -3.620   1.437   3.518  1.00  0.00     0.261 C 
BRANCH  31  32
ATOM     32  O   UNL     1      -3.116   2.787   3.326  1.00  0.00    -0.460 OA
BRANCH  32  33
ATOM     33  C   UNL     1      -1.778   3.009   3.309  1.00  0.00     0.338 C 
ATOM     34  O   UNL     1      -0.927   2.225   3.693  1.00  0.00    -0.246 OA
BRANCH  33  35
ATOM     35  C   UNL     1      -1.479   4.234   2.488  1.00  0.00     0.060 A 
ATOM     36  C   UNL     1      -0.298   4.257   1.724  1.00  0.00     0.016 A 
ATOM     37  C   UNL     1      -2.353   5.324   2.401  1.00  0.00     0.016 A 
ATOM     38  C   UNL     1       0.040   5.376   0.943  1.00  0.00     0.010 A 
ATOM     39  C   UNL     1      -2.007   6.451   1.631  1.00  0.00     0.010 A 
ATOM     40  C   UNL     1      -0.787   6.507   0.931  1.00  0.00    -0.014 A 
BRANCH  40  41
ATOM     41  C   UNL     1      -0.284   7.819   0.416  1.00  0.00     0.031 A 
ATOM     42  C   UNL     1       0.306   8.786   1.414  1.00  0.00     0.074 A 
ATOM     43  C   UNL     1      -0.339   8.182  -0.881  1.00  0.00     0.049 A 
ATOM     44  N   UNL     1       0.706  10.021   1.245  1.00  0.00    -0.248 NA
ATOM     45  C   UNL     1       0.445   8.291   2.792  1.00  0.00     0.031 C 
ATOM     46  C   UNL     1      -0.842   7.354  -1.970  1.00  0.00     0.029 A 
ATOM     47  N   UNL     1       0.034   9.357  -1.500  1.00  0.00    -0.354 N 
ATOM     48  C   UNL     1       1.108  10.462   2.501  1.00  0.00     0.074 A 
ATOM     49  C   UNL     1       0.896   9.365   3.421  1.00  0.00     0.031 C 
ATOM     50  C   UNL     1      -0.729   8.034  -3.127  1.00  0.00     0.029 A 
ATOM     51  C   UNL     1      -0.211   9.377  -2.855  1.00  0.00     0.049 A 
ATOM     52  H   UNL     1       0.439  10.113  -1.016  1.00  0.00     0.167 HD
ATOM     53  C   UNL     1       1.596  11.672   2.868  1.00  0.00     0.031 A 
ATOM     54  C   UNL     1      -0.073  10.367  -3.765  1.00  0.00     0.031 A 
ATOM     55  C   UNL     1       1.788  12.779   1.969  1.00  0.00     0.049 A 
ATOM     56  C   UNL     1       0.409  11.732  -3.326  1.00  0.00     0.074 A 
ATOM     57  C   UNL     1       2.275  14.043   2.257  1.00  0.00     0.029 A 
ATOM     58  N   UNL     1       1.496  12.763   0.615  1.00  0.00    -0.354 N 
ATOM     59  N   UNL     1       0.779  12.134  -2.134  1.00  0.00    -0.248 NA
ATOM     60  C   UNL     1       0.479  12.782  -4.357  1.00  0.00     0.031 C 
ATOM     61  C   UNL     1       2.215  14.811   1.091  1.00  0.00     0.029 A 
ATOM     62  C   UNL     1       1.768  14.002   0.058  1.00  0.00     0.049 A 
ATOM     63  H   UNL     1       1.146  11.987   0.121  1.00  0.00     0.167 HD
ATOM     64  C   UNL     1       1.149  13.470  -2.277  1.00  0.00     0.074 A 
ATOM     65  C   UNL     1       0.971  13.807  -3.673  1.00  0.00     0.031 C 
ATOM     66  C   UNL     1       1.599  14.336  -1.335  1.00  0.00     0.031 A 
BRANCH  53  67
ATOM     67  C   UNL     1       1.894  11.878   4.331  1.00  0.00    -0.014 A 
ATOM     68  C   UNL     1       2.961  11.216   4.966  1.00  0.00     0.010 A 
ATOM     69  C   UNL     1       1.092  12.758   5.081  1.00  0.00     0.010 A 
ATOM     70  C   UNL     1       3.183  11.387   6.335  1.00  0.00     0.020 A 
ATOM     71  C   UNL     1       1.333  12.959   6.442  1.00  0.00     0.020 A 
ATOM     72  C   UNL     1       2.363  12.252   7.065  1.00  0.00     0.054 A 
BRANCH  72  73
ATOM     73  S   UNL     1       2.671  12.449   8.841  1.00  0.00     0.124 S 
ATOM     74  O   UNL     1       2.218  11.163   9.367  1.00  0.00    -0.237 OA
ATOM     75  O   UNL     1       4.113  12.675   8.892  1.00  0.00    -0.237 OA
ATOM     76  O   UNL     1       1.848  13.597   9.212  1.00  0.00    -0.744 OA
ENDBRANCH  72  73
ENDBRANCH  53  67
BRANCH  54  77
ATOM     77  C   UNL     1      -0.439  10.130  -5.195  1.00  0.00    -0.014 A 
ATOM     78  C   UNL     1       0.543  10.143  -6.203  1.00  0.00     0.010 A 
ATOM     79  C   UNL     1      -1.779   9.902  -5.559  1.00  0.00     0.010 A 
ATOM     80  C   UNL     1       0.193   9.934  -7.543  1.00  0.00     0.020 A 
ATOM     81  C   UNL     1      -2.129   9.660  -6.892  1.00  0.00     0.020 A 
ATOM     82  C   UNL     1      -1.141   9.683  -7.877  1.00  0.00     0.054 A 
BRANCH  82  83
ATOM     83  S   UNL     1      -1.561   9.339  -9.609  1.00  0.00     0.124 S 
ATOM     84  O   UNL     1      -1.398  10.650 -10.229  1.00  0.00    -0.237 OA
ATOM     85  O   UNL     1      -0.566   8.335  -9.979  1.00  0.00    -0.237 OA
ATOM     86  O   UNL     1      -2.935   8.847  -9.536  1.00  0.00    -0.744 OA
ENDBRANCH  82  83
ENDBRANCH  54  77
BRANCH  66  87
ATOM     87  C   UNL     1       1.996  15.726  -1.771  1.00  0.00    -0.014 A 
ATOM     88  C   UNL     1       1.041  16.686  -2.152  1.00  0.00     0.010 A 
ATOM     89  C   UNL     1       3.352  16.102  -1.715  1.00  0.00     0.010 A 
ATOM     90  C   UNL     1       1.438  17.986  -2.489  1.00  0.00     0.020 A 
ATOM     91  C   UNL     1       3.749  17.406  -2.022  1.00  0.00     0.020 A 
ATOM     92  C   UNL     1       2.790  18.339  -2.417  1.00  0.00     0.054 A 
BRANCH  92  93
ATOM     93  S   UNL     1       3.272  20.046  -2.803  1.00  0.00     0.124 S 
ATOM     94  O   UNL     1       3.080  20.098  -4.249  1.00  0.00    -0.237 OA
ATOM     95  O   UNL     1       2.326  20.831  -2.014  1.00  0.00    -0.237 OA
ATOM     96  O   UNL     1       4.661  20.124  -2.356  1.00  0.00    -0.744 OA
ENDBRANCH  92  93
ENDBRANCH  66  87
ENDBRANCH  40  41
ENDBRANCH  33  35
ENDBRANCH  32  33
ENDBRANCH  31  32
ENDBRANCH  30  31
ENDBRANCH  29  30
ENDBRANCH  28  29
ENDBRANCH   1  28
TORSDOF 24
