REMARK SMILES Cc1ccc(F)c(NC(=O)NC(=O)CCCCC(=O)OCCOCCOCCOC(=O)c2ccc(-c3c4nc(c(-c5ccc(S(=O)(=O)[O-])cc5)c5ccc([nH]5)c(-c5ccc(S(=O)(=O)[O-])cc5)c5nc(c(-c6ccc(S(=O)(=O)[O-])cc6)c6ccc3[nH]6)C=C5)C=C4)cc2)c1
REMARK SMILES IDX 24 1 23 2 22 3 21 4 20 5 18 6 19 7 17 8 16 9 15 10 14 11
REMARK SMILES IDX 12 12 8 13 9 14 10 16 11 17 13 19 7 20 1 21 2 22 3 23 92 24
REMARK SMILES IDX 4 25 5 26 6 27 25 28 26 29 27 30 28 31 29 32 30 33 31 34
REMARK SMILES IDX 32 35 33 36 91 37 34 38 90 39 35 40 36 41 37 42 84 43 38 44
REMARK SMILES IDX 89 45 83 46 85 47 39 48 88 49 82 50 81 51 40 53 70 54 51 55
REMARK SMILES IDX 69 56 52 57 55 58 68 59 86 60 53 61 54 62 67 64 87 65 56 66
REMARK SMILES IDX 41 67 42 68 50 69 43 70 49 71 44 72 45 73 46 74 47 75 48 76
REMARK SMILES IDX 71 77 72 78 80 79 73 80 79 81 74 82 75 83 76 84 77 85 78 86
REMARK SMILES IDX 57 87 58 88 66 89 59 90 65 91 60 92 61 93 62 94 63 95 64 96
REMARK H PARENT 8 15 11 18 85 52 55 63
REMARK Flexibility Score: inf
ROOT
ATOM      1  C   UNL     1       2.243  -4.026   2.166  1.00  0.00     0.188 C 
ENDROOT
BRANCH   1   2
ATOM      2  O   UNL     1       3.535  -3.729   1.675  1.00  0.00    -0.376 OA
BRANCH   2   3
ATOM      3  C   UNL     1       3.624  -3.693   0.261  1.00  0.00     0.202 C 
BRANCH   3   4
ATOM      4  C   UNL     1       2.689  -2.686  -0.413  1.00  0.00     0.261 C 
BRANCH   4   5
ATOM      5  O   UNL     1       1.273  -2.715  -0.080  1.00  0.00    -0.463 OA
BRANCH   5   6
ATOM      6  C   UNL     1       0.471  -3.714  -0.490  1.00  0.00     0.305 C 
ATOM      7  O   UNL     1       0.857  -4.607  -1.234  1.00  0.00    -0.252 OA
BRANCH   6   8
ATOM      8  C   UNL     1      -0.929  -3.714   0.152  1.00  0.00     0.123 C 
BRANCH   8   9
ATOM      9  C   UNL     1      -1.627  -2.661   1.071  1.00  0.00     0.012 C 
BRANCH   9  10
ATOM     10  C   UNL     1      -1.145  -1.216   1.258  1.00  0.00     0.010 C 
BRANCH  10  11
ATOM     11  C   UNL     1      -2.130  -0.049   1.113  1.00  0.00     0.100 C 
BRANCH  11  12
ATOM     12  C   UNL     1      -3.405  -0.148   0.305  1.00  0.00     0.227 C 
ATOM     13  N   UNL     1      -1.313  -1.049  -1.907  1.00  0.00    -0.305 N 
ATOM     14  C   UNL     1      -2.623  -1.359  -1.781  1.00  0.00     0.325 C 
ATOM     15  H   UNL     1      -0.739  -1.807  -2.160  1.00  0.00     0.171 HD
ATOM     16  O   UNL     1      -3.046  -2.386  -2.315  1.00  0.00    -0.248 OA
ATOM     17  N   UNL     1      -3.462  -0.655  -0.970  1.00  0.00    -0.278 N 
ATOM     18  H   UNL     1      -4.322  -0.460  -1.408  1.00  0.00     0.174 HD
ATOM     19  O   UNL     1      -4.465   0.262   0.797  1.00  0.00    -0.275 OA
BRANCH  13  20
ATOM     20  C   UNL     1      -0.628   0.167  -1.739  1.00  0.00     0.079 A 
ATOM     21  C   UNL     1       2.851   1.054  -0.459  1.00  0.00     0.044 C 
ATOM     22  C   UNL     1       1.469   1.206  -1.027  1.00  0.00    -0.049 A 
ATOM     23  C   UNL     1       0.843   2.451  -1.041  1.00  0.00     0.006 A 
ATOM     24  C   UNL     1       0.739   0.088  -1.447  1.00  0.00     0.032 A 
ATOM     25  C   UNL     1      -0.482   2.565  -1.468  1.00  0.00     0.042 A 
ATOM     26  C   UNL     1      -1.215   1.426  -1.797  1.00  0.00     0.146 A 
ATOM     27  F   UNL     1      -2.490   1.575  -2.179  1.00  0.00    -0.205 F 
ENDBRANCH  13  20
ENDBRANCH  11  12
ENDBRANCH  10  11
ENDBRANCH   9  10
ENDBRANCH   8   9
ENDBRANCH   6   8
ENDBRANCH   5   6
ENDBRANCH   4   5
ENDBRANCH   3   4
ENDBRANCH   2   3
ENDBRANCH   1   2
BRANCH   1  28
ATOM     28  C   UNL     1       1.528  -2.789   2.743  1.00  0.00     0.188 C 
BRANCH  28  29
ATOM     29  O   UNL     1       2.259  -1.593   2.949  1.00  0.00    -0.376 OA
BRANCH  29  30
ATOM     30  C   UNL     1       3.439  -1.690   3.732  1.00  0.00     0.202 C 
BRANCH  30  31
ATOM     31  C   UNL     1       3.390  -2.499   5.046  1.00  0.00     0.261 C 
BRANCH  31  32
ATOM     32  O   UNL     1       2.966  -3.877   4.921  1.00  0.00    -0.460 OA
BRANCH  32  33
ATOM     33  C   UNL     1       1.800  -4.224   5.533  1.00  0.00     0.338 C 
ATOM     34  O   UNL     1       1.118  -3.500   6.250  1.00  0.00    -0.246 OA
BRANCH  33  35
ATOM     35  C   UNL     1       1.299  -5.529   5.020  1.00  0.00     0.060 A 
ATOM     36  C   UNL     1       0.054  -5.575   4.363  1.00  0.00     0.016 A 
ATOM     37  C   UNL     1       2.047  -6.699   5.157  1.00  0.00     0.016 A 
ATOM     38  C   UNL     1      -0.455  -6.785   3.874  1.00  0.00     0.010 A 
ATOM     39  C   UNL     1       1.519  -7.915   4.699  1.00  0.00     0.010 A 
ATOM     40  C   UNL     1       0.253  -7.975   4.083  1.00  0.00    -0.014 A 
BRANCH  40  41
ATOM     41  C   UNL     1      -0.404  -9.297   3.880  1.00  0.00     0.031 A 
ATOM     42  C   UNL     1      -1.007  -9.978   5.085  1.00  0.00     0.074 A 
ATOM     43  C   UNL     1      -0.458  -9.907   2.681  1.00  0.00     0.049 A 
ATOM     44  N   UNL     1      -1.522 -11.175   5.196  1.00  0.00    -0.248 NA
ATOM     45  C   UNL     1      -1.022  -9.197   6.333  1.00  0.00     0.031 C 
ATOM     46  C   UNL     1       0.022  -9.349   1.419  1.00  0.00     0.029 A 
ATOM     47  N   UNL     1      -0.933 -11.153   2.337  1.00  0.00    -0.354 N 
ATOM     48  C   UNL     1      -1.902 -11.300   6.528  1.00  0.00     0.074 A 
ATOM     49  C   UNL     1      -1.539 -10.066   7.189  1.00  0.00     0.031 C 
ATOM     50  C   UNL     1      -0.163 -10.258   0.442  1.00  0.00     0.029 A 
ATOM     51  C   UNL     1      -0.736 -11.477   1.014  1.00  0.00     0.049 A 
ATOM     52  H   UNL     1      -1.373 -11.756   2.979  1.00  0.00     0.167 HD
ATOM     53  C   UNL     1      -2.499 -12.345   7.150  1.00  0.00     0.031 A 
ATOM     54  C   UNL     1      -0.961 -12.630   0.348  1.00  0.00     0.031 A 
ATOM     55  C   UNL     1      -2.845 -13.583   6.503  1.00  0.00     0.049 A 
ATOM     56  C   UNL     1      -1.541 -13.817   1.082  1.00  0.00     0.074 A 
ATOM     57  C   UNL     1      -3.463 -14.694   7.050  1.00  0.00     0.029 A 
ATOM     58  N   UNL     1      -2.596 -13.880   5.172  1.00  0.00    -0.354 N 
ATOM     59  N   UNL     1      -1.911 -13.915   2.337  1.00  0.00    -0.248 NA
ATOM     60  C   UNL     1      -1.737 -15.051   0.304  1.00  0.00     0.031 C 
ATOM     61  C   UNL     1      -3.526 -15.687   6.068  1.00  0.00     0.029 A 
ATOM     62  C   UNL     1      -3.017 -15.169   4.888  1.00  0.00     0.049 A 
ATOM     63  H   UNL     1      -2.181 -13.266   4.524  1.00  0.00     0.167 HD
ATOM     64  C   UNL     1      -2.412 -15.206   2.488  1.00  0.00     0.074 A 
ATOM     65  C   UNL     1      -2.311 -15.848   1.195  1.00  0.00     0.031 C 
ATOM     66  C   UNL     1      -2.915 -15.804   3.598  1.00  0.00     0.031 A 
BRANCH  53  67
ATOM     67  C   UNL     1      -2.774 -12.210   8.625  1.00  0.00    -0.014 A 
ATOM     68  C   UNL     1      -3.757 -11.328   9.110  1.00  0.00     0.010 A 
ATOM     69  C   UNL     1      -2.058 -13.005   9.540  1.00  0.00     0.010 A 
ATOM     70  C   UNL     1      -3.989 -11.214  10.483  1.00  0.00     0.020 A 
ATOM     71  C   UNL     1      -2.310 -12.918  10.911  1.00  0.00     0.020 A 
ATOM     72  C   UNL     1      -3.263 -12.010  11.375  1.00  0.00     0.054 A 
BRANCH  72  73
ATOM     73  S   UNL     1      -3.601 -11.855  13.150  1.00  0.00     0.124 S 
ATOM     74  O   UNL     1      -3.043 -10.538  13.450  1.00  0.00    -0.237 OA
ATOM     75  O   UNL     1      -5.058 -11.947  13.207  1.00  0.00    -0.237 OA
ATOM     76  O   UNL     1      -2.885 -12.983  13.741  1.00  0.00    -0.744 OA
ENDBRANCH  72  73
ENDBRANCH  53  67
BRANCH  54  77
ATOM     77  C   UNL     1      -0.610 -12.742  -1.098  1.00  0.00    -0.014 A 
ATOM     78  C   UNL     1      -1.612 -12.894  -2.073  1.00  0.00     0.010 A 
ATOM     79  C   UNL     1       0.737 -12.721  -1.508  1.00  0.00     0.010 A 
ATOM     80  C   UNL     1      -1.276 -13.037  -3.424  1.00  0.00     0.020 A 
ATOM     81  C   UNL     1       1.076 -12.832  -2.860  1.00  0.00     0.020 A 
ATOM     82  C   UNL     1       0.067 -13.000  -3.809  1.00  0.00     0.054 A 
BRANCH  82  83
ATOM     83  S   UNL     1       0.476 -13.134  -5.573  1.00  0.00     0.124 S 
ATOM     84  O   UNL     1       0.174 -14.534  -5.850  1.00  0.00    -0.237 OA
ATOM     85  O   UNL     1      -0.426 -12.159  -6.180  1.00  0.00    -0.237 OA
ATOM     86  O   UNL     1       1.893 -12.777  -5.624  1.00  0.00    -0.744 OA
ENDBRANCH  82  83
ENDBRANCH  54  77
BRANCH  66  87
ATOM     87  C   UNL     1      -3.439 -17.214   3.467  1.00  0.00    -0.014 A 
ATOM     88  C   UNL     1      -2.574 -18.305   3.270  1.00  0.00     0.010 A 
ATOM     89  C   UNL     1      -4.819 -17.456   3.609  1.00  0.00     0.010 A 
ATOM     90  C   UNL     1      -3.083 -19.606   3.185  1.00  0.00     0.020 A 
ATOM     91  C   UNL     1      -5.327 -18.757   3.558  1.00  0.00     0.020 A 
ATOM     92  C   UNL     1      -4.457 -19.824   3.332  1.00  0.00     0.054 A 
BRANCH  92  93
ATOM     93  S   UNL     1      -5.084 -21.525   3.263  1.00  0.00     0.124 S 
ATOM     94  O   UNL     1      -4.931 -21.849   1.847  1.00  0.00    -0.237 OA
ATOM     95  O   UNL     1      -4.186 -22.234   4.171  1.00  0.00    -0.237 OA
ATOM     96  O   UNL     1      -6.464 -21.406   3.729  1.00  0.00    -0.744 OA
ENDBRANCH  92  93
ENDBRANCH  66  87
ENDBRANCH  40  41
ENDBRANCH  33  35
ENDBRANCH  32  33
ENDBRANCH  31  32
ENDBRANCH  30  31
ENDBRANCH  29  30
ENDBRANCH  28  29
ENDBRANCH   1  28
TORSDOF 25
