REMARK SMILES O=C(C[N@@H+]1CCC[C@@H]1C(=O)OCCOCCOCCOC(=O)c1ccc(-c2c3nc(c(-c4ccc(S(=O)(=O)[O-])cc4)c4ccc([nH]4)c(-c4ccc(S(=O)(=O)[O-])cc4)c4nc(c(-c5ccc(S(=O)(=O)[O-])cc5)c5ccc2[nH]5)C=C4)C=C3)cc1)NCc1ccc(Cl)cc1
REMARK SMILES IDX 15 1 14 2 13 3 12 4 11 5 9 6 10 7 8 8 4 9 5 10 6 12 7 13
REMARK SMILES IDX 3 14 2 15 1 16 83 17 84 19 85 20 86 21 91 22 87 23 90 24
REMARK SMILES IDX 88 25 89 26 16 27 17 28 18 29 19 30 20 31 21 32 22 33 23 34
REMARK SMILES IDX 24 35 82 36 25 37 81 38 26 39 27 40 28 41 75 42 29 43 80 44
REMARK SMILES IDX 74 45 76 46 30 47 79 48 73 49 72 50 31 52 61 53 42 54 60 55
REMARK SMILES IDX 43 56 46 57 59 58 77 59 44 60 45 61 58 63 78 64 47 65 32 66
REMARK SMILES IDX 33 67 41 68 34 69 40 70 35 71 36 72 37 73 38 74 39 75 62 76
REMARK SMILES IDX 63 77 71 78 64 79 70 80 65 81 66 82 67 83 68 84 69 85 48 86
REMARK SMILES IDX 49 87 57 88 50 89 56 90 51 91 52 92 53 93 54 94 55 95
REMARK H PARENT 4 11 83 18 76 51 46 62
REMARK Flexibility Score: inf
ROOT
ATOM      1  C   UNL     1       2.794   6.381  -1.380  1.00  0.00     0.188 C 
ENDROOT
BRANCH   1   2
ATOM      2  O   UNL     1       2.076   6.332  -2.605  1.00  0.00    -0.376 OA
BRANCH   2   3
ATOM      3  C   UNL     1       1.274   5.192  -2.899  1.00  0.00     0.202 C 
BRANCH   3   4
ATOM      4  C   UNL     1       1.852   3.783  -2.687  1.00  0.00     0.261 C 
BRANCH   4   5
ATOM      5  O   UNL     1       2.212   3.477  -1.326  1.00  0.00    -0.459 OA
BRANCH   5   6
ATOM      6  C   UNL     1       3.508   3.132  -1.081  1.00  0.00     0.365 C 
ATOM      7  O   UNL     1       4.381   3.091  -1.940  1.00  0.00    -0.245 OA
BRANCH   6   8
ATOM      8  C   UNL     1       3.747   2.700   0.387  1.00  0.00     0.295 C 
ATOM      9  N   UNL     1       3.926   1.215   0.547  1.00  0.00    -0.315 N 
ATOM     10  C   UNL     1       3.763   1.037   1.999  1.00  0.00     0.263 C 
ATOM     11  H   UNL     1       4.821   0.818   0.261  1.00  0.00     0.349 HD
ATOM     12  C   UNL     1       2.573   1.883   2.373  1.00  0.00     0.068 C 
ATOM     13  C   UNL     1       2.729   3.095   1.476  1.00  0.00     0.083 C 
BRANCH   9  14
ATOM     14  C   UNL     1       2.982   0.496  -0.352  1.00  0.00     0.364 C 
BRANCH  14  15
ATOM     15  C   UNL     1       2.170  -0.620   0.266  1.00  0.00     0.275 C 
ATOM     16  O   UNL     1       0.942  -0.626   0.247  1.00  0.00    -0.268 OA
ATOM     17  N   UNL     1       2.931  -1.625   0.794  1.00  0.00    -0.347 N 
ATOM     18  H   UNL     1       3.910  -1.527   0.801  1.00  0.00     0.164 HD
BRANCH  17  19
ATOM     19  C   UNL     1       2.350  -2.815   1.339  1.00  0.00     0.151 C 
BRANCH  19  20
ATOM     20  C   UNL     1       2.658  -4.027   0.497  1.00  0.00    -0.029 A 
ATOM     21  C   UNL     1       1.967  -5.215   0.765  1.00  0.00     0.007 A 
ATOM     22  C   UNL     1       3.629  -4.021  -0.520  1.00  0.00     0.007 A 
ATOM     23  C   UNL     1       2.243  -6.373   0.038  1.00  0.00     0.021 A 
ATOM     24  C   UNL     1       3.906  -5.177  -1.247  1.00  0.00     0.021 A 
ATOM     25  C   UNL     1       3.214  -6.349  -0.961  1.00  0.00     0.041 A 
ATOM     26  Cl  UNL     1       3.564  -7.782  -1.845  1.00  0.00    -0.084 Cl
ENDBRANCH  19  20
ENDBRANCH  17  19
ENDBRANCH  14  15
ENDBRANCH   9  14
ENDBRANCH   6   8
ENDBRANCH   5   6
ENDBRANCH   4   5
ENDBRANCH   3   4
ENDBRANCH   2   3
ENDBRANCH   1   2
BRANCH   1  27
ATOM     27  C   UNL     1       2.059   6.011  -0.087  1.00  0.00     0.188 C 
BRANCH  27  28
ATOM     28  O   UNL     1       0.715   5.626  -0.252  1.00  0.00    -0.376 OA
BRANCH  28  29
ATOM     29  C   UNL     1      -0.297   6.530   0.161  1.00  0.00     0.202 C 
BRANCH  29  30
ATOM     30  C   UNL     1      -0.186   8.038  -0.141  1.00  0.00     0.261 C 
BRANCH  30  31
ATOM     31  O   UNL     1       1.105   8.652  -0.000  1.00  0.00    -0.460 OA
BRANCH  31  32
ATOM     32  C   UNL     1       1.574   8.864   1.253  1.00  0.00     0.338 C 
ATOM     33  O   UNL     1       0.995   8.616   2.298  1.00  0.00    -0.246 OA
BRANCH  32  34
ATOM     34  C   UNL     1       3.021   9.178   1.132  1.00  0.00     0.060 A 
ATOM     35  C   UNL     1       3.958   8.344   1.766  1.00  0.00     0.016 A 
ATOM     36  C   UNL     1       3.456  10.246   0.345  1.00  0.00     0.016 A 
ATOM     37  C   UNL     1       5.327   8.591   1.632  1.00  0.00     0.010 A 
ATOM     38  C   UNL     1       4.825  10.510   0.237  1.00  0.00     0.010 A 
ATOM     39  C   UNL     1       5.765   9.703   0.904  1.00  0.00    -0.014 A 
BRANCH  39  40
ATOM     40  C   UNL     1       7.172  10.164   1.019  1.00  0.00     0.031 A 
ATOM     41  C   UNL     1       7.476  11.256   2.008  1.00  0.00     0.074 A 
ATOM     42  C   UNL     1       8.160   9.640   0.271  1.00  0.00     0.049 A 
ATOM     43  N   UNL     1       8.602  11.876   2.247  1.00  0.00    -0.248 NA
ATOM     44  C   UNL     1       6.348  11.713   2.836  1.00  0.00     0.031 C 
ATOM     45  C   UNL     1       8.017   8.536  -0.674  1.00  0.00     0.029 A 
ATOM     46  N   UNL     1       9.488   9.982   0.194  1.00  0.00    -0.354 N 
ATOM     47  C   UNL     1       8.315  12.806   3.239  1.00  0.00     0.074 A 
ATOM     48  C   UNL     1       6.903  12.691   3.532  1.00  0.00     0.031 C 
ATOM     49  C   UNL     1       9.213   8.290  -1.239  1.00  0.00     0.029 A 
ATOM     50  C   UNL     1      10.195   9.247  -0.727  1.00  0.00     0.049 A 
ATOM     51  H   UNL     1       9.895  10.688   0.746  1.00  0.00     0.167 HD
ATOM     52  C   UNL     1       9.149  13.680   3.854  1.00  0.00     0.031 A 
ATOM     53  C   UNL     1      11.480   9.348  -1.124  1.00  0.00     0.031 A 
ATOM     54  C   UNL     1      10.545  13.818   3.535  1.00  0.00     0.049 A 
ATOM     55  C   UNL     1      12.367  10.400  -0.507  1.00  0.00     0.074 A 
ATOM     56  C   UNL     1      11.477  14.669   4.101  1.00  0.00     0.029 A 
ATOM     57  N   UNL     1      11.206  13.099   2.550  1.00  0.00    -0.354 N 
ATOM     58  N   UNL     1      12.089  11.264   0.441  1.00  0.00    -0.248 NA
ATOM     59  C   UNL     1      13.744  10.487  -1.015  1.00  0.00     0.031 C 
ATOM     60  C   UNL     1      12.684  14.514   3.411  1.00  0.00     0.029 A 
ATOM     61  C   UNL     1      12.526  13.511   2.467  1.00  0.00     0.049 A 
ATOM     62  H   UNL     1      10.797  12.399   1.992  1.00  0.00     0.167 HD
ATOM     63  C   UNL     1      13.266  11.973   0.667  1.00  0.00     0.074 A 
ATOM     64  C   UNL     1      14.259  11.432  -0.239  1.00  0.00     0.031 C 
ATOM     65  C   UNL     1      13.505  12.973   1.553  1.00  0.00     0.031 A 
BRANCH  52  66
ATOM     66  C   UNL     1       8.539  14.592   4.888  1.00  0.00    -0.014 A 
ATOM     67  C   UNL     1       8.035  14.094   6.104  1.00  0.00     0.010 A 
ATOM     68  C   UNL     1       8.440  15.970   4.623  1.00  0.00     0.010 A 
ATOM     69  C   UNL     1       7.377  14.942   6.999  1.00  0.00     0.020 A 
ATOM     70  C   UNL     1       7.816  16.829   5.532  1.00  0.00     0.020 A 
ATOM     71  C   UNL     1       7.262  16.303   6.701  1.00  0.00     0.054 A 
BRANCH  71  72
ATOM     72  S   UNL     1       6.372  17.375   7.861  1.00  0.00     0.124 S 
ATOM     73  O   UNL     1       4.986  16.965   7.645  1.00  0.00    -0.237 OA
ATOM     74  O   UNL     1       6.944  16.998   9.150  1.00  0.00    -0.237 OA
ATOM     75  O   UNL     1       6.698  18.725   7.407  1.00  0.00    -0.744 OA
ENDBRANCH  71  72
ENDBRANCH  52  66
BRANCH  53  76
ATOM     76  C   UNL     1      12.012   8.412  -2.153  1.00  0.00    -0.014 A 
ATOM     77  C   UNL     1      12.943   7.420  -1.795  1.00  0.00     0.010 A 
ATOM     78  C   UNL     1      11.574   8.486  -3.489  1.00  0.00     0.010 A 
ATOM     79  C   UNL     1      13.419   6.516  -2.749  1.00  0.00     0.020 A 
ATOM     80  C   UNL     1      12.028   7.566  -4.440  1.00  0.00     0.020 A 
ATOM     81  C   UNL     1      12.950   6.588  -4.063  1.00  0.00     0.054 A 
BRANCH  81  82
ATOM     82  S   UNL     1      13.517   5.345  -5.258  1.00  0.00     0.124 S 
ATOM     83  O   UNL     1      14.916   5.715  -5.443  1.00  0.00    -0.237 OA
ATOM     84  O   UNL     1      13.283   4.093  -4.542  1.00  0.00    -0.237 OA
ATOM     85  O   UNL     1      12.653   5.563  -6.416  1.00  0.00    -0.744 OA
ENDBRANCH  81  82
ENDBRANCH  53  76
BRANCH  65  86
ATOM     86  C   UNL     1      14.905  13.531   1.621  1.00  0.00    -0.014 A 
ATOM     87  C   UNL     1      15.435  14.320   0.585  1.00  0.00     0.010 A 
ATOM     88  C   UNL     1      15.682  13.309   2.774  1.00  0.00     0.010 A 
ATOM     89  C   UNL     1      16.726  14.850   0.687  1.00  0.00     0.020 A 
ATOM     90  C   UNL     1      16.959  13.864   2.894  1.00  0.00     0.020 A 
ATOM     91  C   UNL     1      17.479  14.620   1.843  1.00  0.00     0.054 A 
BRANCH  91  92
ATOM     92  S   UNL     1      19.132  15.358   1.971  1.00  0.00     0.124 S 
ATOM     93  O   UNL     1      19.897  14.558   1.018  1.00  0.00    -0.237 OA
ATOM     94  O   UNL     1      18.894  16.745   1.579  1.00  0.00    -0.237 OA
ATOM     95  O   UNL     1      19.491  15.166   3.374  1.00  0.00    -0.744 OA
ENDBRANCH  91  92
ENDBRANCH  65  86
ENDBRANCH  39  40
ENDBRANCH  32  34
ENDBRANCH  31  32
ENDBRANCH  30  31
ENDBRANCH  29  30
ENDBRANCH  28  29
ENDBRANCH  27  28
ENDBRANCH   1  27
TORSDOF 24
