REMARK SMILES COc1cccc([C@@H]2CC(c3cccc(C)c3)=NN2C(=O)CCC(=O)OCCOCCOCCOC(=O)c2ccc(-c3c4nc(c(-c5ccc(S(=O)(=O)[O-])cc5)c5ccc([nH]5)c(-c5ccc(S(=O)(=O)[O-])cc5)c5nc(c(-c6ccc(S(=O)(=O)[O-])cc6)c6ccc3[nH]6)C=C5)C=C4)cc2)c1
REMARK SMILES IDX 30 1 29 2 28 3 27 4 26 5 24 6 25 7 23 8 22 9 20 10 21 11
REMARK SMILES IDX 19 12 8 13 9 14 10 15 18 16 7 17 3 18 4 19 98 20 5 21 6 22
REMARK SMILES IDX 2 23 1 24 11 25 12 26 17 27 13 28 15 29 14 30 16 31 31 32
REMARK SMILES IDX 32 33 33 34 34 35 35 36 36 37 37 38 38 39 39 40 97 41 40 42
REMARK SMILES IDX 96 43 41 44 42 45 43 46 90 47 44 48 95 49 89 50 91 51 45 52
REMARK SMILES IDX 94 53 88 54 87 55 46 57 76 58 57 59 75 60 58 61 61 62 74 63
REMARK SMILES IDX 92 64 59 65 60 66 73 68 93 69 62 70 47 71 48 72 56 73 49 74
REMARK SMILES IDX 55 75 50 76 51 77 52 78 53 79 54 80 77 81 78 82 86 83 79 84
REMARK SMILES IDX 85 85 80 86 81 87 82 88 83 89 84 90 63 91 64 92 72 93 65 94
REMARK SMILES IDX 71 95 66 96 67 97 68 98 69 99 70 100
REMARK H PARENT 91 56 61 67
REMARK Flexibility Score: inf
ROOT
ATOM      1  C   UNL     1       3.421  -0.652   4.994  1.00  0.00     0.188 C 
ENDROOT
BRANCH   1   2
ATOM      2  O   UNL     1       2.095  -1.242   4.783  1.00  0.00    -0.376 OA
BRANCH   2   3
ATOM      3  C   UNL     1       1.253  -1.614   3.635  1.00  0.00     0.202 C 
BRANCH   3   4
ATOM      4  C   UNL     1       1.436  -1.272   2.128  1.00  0.00     0.261 C 
BRANCH   4   5
ATOM      5  O   UNL     1       2.087  -0.048   1.916  1.00  0.00    -0.463 OA
BRANCH   5   6
ATOM      6  C   UNL     1       1.479   0.948   2.578  1.00  0.00     0.306 C 
ATOM      7  O   UNL     1       0.270   1.042   2.735  1.00  0.00    -0.252 OA
BRANCH   6   8
ATOM      8  C   UNL     1       2.490   1.848   3.210  1.00  0.00     0.132 C 
BRANCH   8   9
ATOM      9  C   UNL     1       3.984   1.430   3.213  1.00  0.00     0.114 C 
BRANCH   9  10
ATOM     10  C   UNL     1       4.606   0.175   2.401  1.00  0.00     0.243 C 
ATOM     11  O   UNL     1       5.229   0.621   1.403  1.00  0.00    -0.273 OA
BRANCH  10  12
ATOM     12  N   UNL     1       4.678  -1.272   2.693  1.00  0.00    -0.225 N 
ATOM     13  C   UNL     1       4.046  -2.783   3.457  1.00  0.00     0.147 C 
ATOM     14  C   UNL     1       4.756  -3.827   2.541  1.00  0.00     0.091 C 
ATOM     15  C   UNL     1       5.740  -2.994   1.763  1.00  0.00     0.071 C 
ATOM     16  N   UNL     1       5.688  -1.718   1.859  1.00  0.00    -0.174 NA
BRANCH  13  17
ATOM     17  C   UNL     1       3.606  -3.223   5.162  1.00  0.00    -0.019 A 
ATOM     18  C   UNL     1       1.662  -3.118   6.627  1.00  0.00     0.119 A 
ATOM     19  C   UNL     1       2.293  -2.290   7.563  1.00  0.00     0.046 A 
ATOM     20  C   UNL     1       2.318  -3.663   5.466  1.00  0.00     0.052 A 
ATOM     21  C   UNL     1       3.636  -2.265   7.555  1.00  0.00     0.004 A 
ATOM     22  C   UNL     1       4.227  -2.807   6.427  1.00  0.00     0.006 A 
BRANCH  18  23
ATOM     23  O   UNL     1       0.345  -3.213   6.940  1.00  0.00    -0.497 OA
ATOM     24  C   UNL     1      -0.428  -4.114   6.198  1.00  0.00     0.278 C 
ENDBRANCH  18  23
ENDBRANCH  13  17
BRANCH  15  25
ATOM     25  C   UNL     1       6.661  -3.510   0.734  1.00  0.00    -0.002 A 
ATOM     26  C   UNL     1       8.029  -3.598   0.997  1.00  0.00     0.010 A 
ATOM     27  C   UNL     1       6.197  -3.553  -0.588  1.00  0.00     0.013 A 
ATOM     28  C   UNL     1       8.918  -3.850  -0.053  1.00  0.00     0.001 A 
ATOM     29  C   UNL     1       7.084  -3.789  -1.647  1.00  0.00    -0.050 A 
ATOM     30  C   UNL     1       8.445  -3.966  -1.364  1.00  0.00     0.003 A 
ATOM     31  C   UNL     1       6.598  -3.829  -3.066  1.00  0.00     0.044 C 
ENDBRANCH  15  25
ENDBRANCH  10  12
ENDBRANCH   9  10
ENDBRANCH   8   9
ENDBRANCH   6   8
ENDBRANCH   5   6
ENDBRANCH   4   5
ENDBRANCH   3   4
ENDBRANCH   2   3
ENDBRANCH   1   2
BRANCH   1  32
ATOM     32  C   UNL     1       5.234  -1.086   5.219  1.00  0.00     0.188 C 
BRANCH  32  33
ATOM     33  O   UNL     1       5.992  -2.374   4.698  1.00  0.00    -0.376 OA
BRANCH  33  34
ATOM     34  C   UNL     1       6.497  -3.677   5.343  1.00  0.00     0.202 C 
BRANCH  34  35
ATOM     35  C   UNL     1       5.691  -5.133   5.949  1.00  0.00     0.261 C 
BRANCH  35  36
ATOM     36  O   UNL     1       4.474  -5.183   6.854  1.00  0.00    -0.460 OA
BRANCH  36  37
ATOM     37  C   UNL     1       4.396  -5.615   8.165  1.00  0.00     0.338 C 
ATOM     38  O   UNL     1       5.319  -6.103   8.759  1.00  0.00    -0.246 OA
BRANCH  37  39
ATOM     39  C   UNL     1       3.066  -5.224   8.887  1.00  0.00     0.060 A 
ATOM     40  C   UNL     1       3.110  -4.146   9.782  1.00  0.00     0.016 A 
ATOM     41  C   UNL     1       1.807  -5.844   8.772  1.00  0.00     0.016 A 
ATOM     42  C   UNL     1       1.930  -3.561  10.340  1.00  0.00     0.010 A 
ATOM     43  C   UNL     1       0.627  -5.319   9.441  1.00  0.00     0.010 A 
ATOM     44  C   UNL     1       0.649  -4.127  10.196  1.00  0.00    -0.014 A 
BRANCH  44  45
ATOM     45  C   UNL     1      -0.528  -3.592  11.036  1.00  0.00     0.031 A 
ATOM     46  C   UNL     1      -0.380  -3.659  12.554  1.00  0.00     0.074 A 
ATOM     47  C   UNL     1      -1.664  -2.983  10.589  1.00  0.00     0.049 A 
ATOM     48  N   UNL     1      -1.212  -3.299  13.504  1.00  0.00    -0.248 NA
ATOM     49  C   UNL     1       0.910  -4.150  13.062  1.00  0.00     0.031 C 
ATOM     50  C   UNL     1      -1.944  -2.567   9.219  1.00  0.00     0.029 A 
ATOM     51  N   UNL     1      -2.816  -2.573  11.261  1.00  0.00    -0.354 N 
ATOM     52  C   UNL     1      -0.530  -3.494  14.702  1.00  0.00     0.074 A 
ATOM     53  C   UNL     1       0.788  -3.972  14.364  1.00  0.00     0.031 C 
ATOM     54  C   UNL     1      -3.184  -2.045   9.130  1.00  0.00     0.029 A 
ATOM     55  C   UNL     1      -3.825  -2.083  10.442  1.00  0.00     0.049 A 
ATOM     56  H   UNL     1      -2.907  -2.627  12.240  1.00  0.00     0.167 HD
ATOM     57  C   UNL     1      -0.948  -3.346  15.983  1.00  0.00     0.031 A 
ATOM     58  C   UNL     1      -5.111  -1.723  10.692  1.00  0.00     0.031 A 
ATOM     59  C   UNL     1      -2.286  -3.006  16.370  1.00  0.00     0.049 A 
ATOM     60  C   UNL     1      -5.639  -1.784  12.111  1.00  0.00     0.074 A 
ATOM     61  C   UNL     1      -2.828  -2.966  17.642  1.00  0.00     0.029 A 
ATOM     62  N   UNL     1      -3.302  -2.680  15.488  1.00  0.00    -0.354 N 
ATOM     63  N   UNL     1      -4.987  -2.050  13.219  1.00  0.00    -0.248 NA
ATOM     64  C   UNL     1      -7.070  -1.497  12.321  1.00  0.00     0.031 C 
ATOM     65  C   UNL     1      -4.192  -2.682  17.524  1.00  0.00     0.029 A 
ATOM     66  C   UNL     1      -4.478  -2.469  16.186  1.00  0.00     0.049 A 
ATOM     67  H   UNL     1      -3.203  -2.611  14.511  1.00  0.00     0.167 HD
ATOM     68  C   UNL     1      -5.917  -1.928  14.250  1.00  0.00     0.074 A 
ATOM     69  C   UNL     1      -7.176  -1.559  13.642  1.00  0.00     0.031 C 
ATOM     70  C   UNL     1      -5.733  -2.100  15.583  1.00  0.00     0.031 A 
BRANCH  57  71
ATOM     71  C   UNL     1       0.050  -3.704  17.054  1.00  0.00    -0.014 A 
ATOM     72  C   UNL     1       1.154  -2.877  17.334  1.00  0.00     0.010 A 
ATOM     73  C   UNL     1      -0.086  -4.925  17.738  1.00  0.00     0.010 A 
ATOM     74  C   UNL     1       2.133  -3.294  18.240  1.00  0.00     0.020 A 
ATOM     75  C   UNL     1       0.875  -5.330  18.666  1.00  0.00     0.020 A 
ATOM     76  C   UNL     1       1.990  -4.522  18.894  1.00  0.00     0.054 A 
BRANCH  76  77
ATOM     77  S   UNL     1       3.285  -5.050  20.049  1.00  0.00     0.124 S 
ATOM     78  O   UNL     1       4.381  -5.383  19.142  1.00  0.00    -0.237 OA
ATOM     79  O   UNL     1       3.488  -3.858  20.868  1.00  0.00    -0.237 OA
ATOM     80  O   UNL     1       2.686  -6.187  20.745  1.00  0.00    -0.744 OA
ENDBRANCH  76  77
ENDBRANCH  57  71
BRANCH  58  81
ATOM     81  C   UNL     1      -6.056  -1.339   9.579  1.00  0.00    -0.014 A 
ATOM     82  C   UNL     1      -6.641  -0.058   9.503  1.00  0.00     0.010 A 
ATOM     83  C   UNL     1      -6.446  -2.298   8.623  1.00  0.00     0.010 A 
ATOM     84  C   UNL     1      -7.585   0.251   8.508  1.00  0.00     0.020 A 
ATOM     85  C   UNL     1      -7.368  -1.988   7.612  1.00  0.00     0.020 A 
ATOM     86  C   UNL     1      -7.938  -0.716   7.562  1.00  0.00     0.054 A 
BRANCH  86  87
ATOM     87  S   UNL     1      -9.114  -0.282   6.242  1.00  0.00     0.124 S 
ATOM     88  O   UNL     1     -10.372  -0.170   6.972  1.00  0.00    -0.237 OA
ATOM     89  O   UNL     1      -8.565   0.972   5.731  1.00  0.00    -0.237 OA
ATOM     90  O   UNL     1      -9.026  -1.412   5.320  1.00  0.00    -0.744 OA
ENDBRANCH  86  87
ENDBRANCH  58  81
BRANCH  70  91
ATOM     91  C   UNL     1      -6.900  -1.855  16.505  1.00  0.00    -0.014 A 
ATOM     92  C   UNL     1      -7.983  -2.747  16.576  1.00  0.00     0.010 A 
ATOM     93  C   UNL     1      -6.860  -0.756  17.384  1.00  0.00     0.010 A 
ATOM     94  C   UNL     1      -9.017  -2.531  17.494  1.00  0.00     0.020 A 
ATOM     95  C   UNL     1      -7.875  -0.553  18.322  1.00  0.00     0.020 A 
ATOM     96  C   UNL     1      -8.954  -1.437  18.363  1.00  0.00     0.054 A 
BRANCH  96  97
ATOM     97  S   UNL     1     -10.278  -1.211  19.583  1.00  0.00     0.124 S 
ATOM     98  O   UNL     1     -11.388  -0.760  18.747  1.00  0.00    -0.237 OA
ATOM     99  O   UNL     1     -10.422  -2.549  20.152  1.00  0.00    -0.237 OA
ATOM    100  O   UNL     1      -9.741  -0.206  20.498  1.00  0.00    -0.744 OA
ENDBRANCH  96  97
ENDBRANCH  70  91
ENDBRANCH  44  45
ENDBRANCH  37  39
ENDBRANCH  36  37
ENDBRANCH  35  36
ENDBRANCH  34  35
ENDBRANCH  33  34
ENDBRANCH  32  33
ENDBRANCH   1  32
TORSDOF 26
