REMARK SMILES Cc1c(NCc2ccccn2)cccc1C(=O)N1CCOC[C@@H]1CC(=O)OCCOCCOCCOC(=O)c1ccc(-c2c3nc(c(-c4ccc(S(=O)(=O)[O-])cc4)c4ccc([nH]4)c(-c4ccc(S(=O)(=O)[O-])cc4)c4nc(c(-c5ccc(S(=O)(=O)[O-])cc5)c5ccc2[nH]5)C=C4)C=C3)cc1
REMARK SMILES IDX 30 1 29 2 28 3 27 4 25 5 26 6 24 7 23 8 18 9 19 10 20 11
REMARK SMILES IDX 22 12 21 13 16 14 17 15 15 16 1 17 2 18 3 19 12 20 14 21
REMARK SMILES IDX 13 22 4 23 5 25 6 26 7 27 11 28 8 29 10 30 9 31 31 32 32 33
REMARK SMILES IDX 33 34 34 35 35 36 36 37 37 38 38 39 39 40 40 41 98 42 41 43
REMARK SMILES IDX 97 44 42 45 43 46 44 47 91 48 45 49 96 50 90 51 92 52 46 53
REMARK SMILES IDX 95 54 89 55 88 56 47 58 77 59 58 60 76 61 59 62 62 63 75 64
REMARK SMILES IDX 93 65 60 66 61 67 74 69 94 70 63 71 48 72 49 73 57 74 50 75
REMARK SMILES IDX 56 76 51 77 52 78 53 79 54 80 55 81 78 82 79 83 87 84 80 85
REMARK SMILES IDX 86 86 81 87 82 88 83 89 84 90 85 91 64 92 65 93 73 94 66 95
REMARK SMILES IDX 72 96 67 97 68 98 69 99 70 100 71 101
REMARK H PARENT 4 24 92 57 62 68
REMARK Flexibility Score: inf
ROOT
ATOM      1  O   UNL     1      -0.400  -0.402   3.660  1.00  0.00    -0.376 OA
ENDROOT
BRANCH   1   2
ATOM      2  C   UNL     1      -1.359  -0.541   2.624  1.00  0.00     0.202 C 
BRANCH   2   3
ATOM      3  C   UNL     1      -1.822   0.769   1.937  1.00  0.00     0.261 C 
BRANCH   3   4
ATOM      4  O   UNL     1      -1.110   1.558   0.920  1.00  0.00    -0.463 OA
BRANCH   4   5
ATOM      5  C   UNL     1       0.218   1.463   0.660  1.00  0.00     0.308 C 
ATOM      6  O   UNL     1       0.862   0.539   1.028  1.00  0.00    -0.252 OA
BRANCH   5   7
ATOM      7  C   UNL     1       0.813   2.717  -0.087  1.00  0.00     0.150 C 
BRANCH   7   8
ATOM      8  C   UNL     1       2.020   2.807  -1.078  1.00  0.00     0.122 C 
ATOM      9  N   UNL     1       2.078   1.725  -2.048  1.00  0.00    -0.330 N 
ATOM     10  C   UNL     1       3.217   1.812  -2.960  1.00  0.00     0.148 C 
ATOM     11  C   UNL     1       4.524   1.999  -2.202  1.00  0.00     0.181 C 
ATOM     12  C   UNL     1       3.446   3.206  -0.517  1.00  0.00     0.185 C 
ATOM     13  O   UNL     1       4.456   3.274  -1.546  1.00  0.00    -0.377 OA
BRANCH   9  14
ATOM     14  C   UNL     1       0.856   1.437  -2.641  1.00  0.00     0.254 C 
ATOM     15  O   UNL     1       0.371   2.168  -3.498  1.00  0.00    -0.269 OA
BRANCH  14  16
ATOM     16  C   UNL     1       0.086   0.301  -2.055  1.00  0.00     0.045 A 
ATOM     17  C   UNL     1       2.175  -1.024  -1.392  1.00  0.00     0.047 C 
ATOM     18  C   UNL     1       0.675  -0.859  -1.490  1.00  0.00    -0.015 A 
ATOM     19  C   UNL     1      -0.172  -1.853  -0.945  1.00  0.00     0.038 A 
ATOM     20  C   UNL     1      -1.556  -1.626  -0.903  1.00  0.00     0.026 A 
ATOM     21  C   UNL     1      -1.304   0.497  -1.993  1.00  0.00     0.014 A 
ATOM     22  C   UNL     1      -2.119  -0.453  -1.396  1.00  0.00     0.003 A 
BRANCH  19  23
ATOM     23  N   UNL     1       0.371  -3.018  -0.436  1.00  0.00    -0.379 N 
ATOM     24  H   UNL     1       1.235  -2.947   0.032  1.00  0.00     0.160 HD
BRANCH  23  25
ATOM     25  C   UNL     1      -0.222  -4.333  -0.533  1.00  0.00     0.169 C 
BRANCH  25  26
ATOM     26  C   UNL     1       0.246  -5.079  -1.767  1.00  0.00     0.059 A 
ATOM     27  C   UNL     1       0.679  -4.413  -2.917  1.00  0.00     0.026 A 
ATOM     28  N   UNL     1       0.185  -6.435  -1.710  1.00  0.00    -0.259 NA
ATOM     29  C   UNL     1       1.069  -5.145  -4.030  1.00  0.00     0.004 A 
ATOM     30  C   UNL     1       0.561  -7.120  -2.809  1.00  0.00     0.111 A 
ATOM     31  C   UNL     1       1.005  -6.528  -3.980  1.00  0.00     0.020 A 
ENDBRANCH  25  26
ENDBRANCH  23  25
ENDBRANCH  19  23
ENDBRANCH  14  16
ENDBRANCH   9  14
ENDBRANCH   7   8
ENDBRANCH   5   7
ENDBRANCH   4   5
ENDBRANCH   3   4
ENDBRANCH   2   3
ENDBRANCH   1   2
BRANCH   1  32
ATOM     32  C   UNL     1       0.878  -1.025   3.588  1.00  0.00     0.188 C 
BRANCH  32  33
ATOM     33  C   UNL     1       1.292  -1.712   2.305  1.00  0.00     0.188 C 
BRANCH  33  34
ATOM     34  O   UNL     1       1.405  -3.123   2.326  1.00  0.00    -0.376 OA
BRANCH  34  35
ATOM     35  C   UNL     1       2.520  -3.603   3.071  1.00  0.00     0.202 C 
BRANCH  35  36
ATOM     36  C   UNL     1       3.885  -2.975   2.697  1.00  0.00     0.261 C 
BRANCH  36  37
ATOM     37  O   UNL     1       4.363  -2.152   3.802  1.00  0.00    -0.460 OA
BRANCH  37  38
ATOM     38  C   UNL     1       4.730  -0.911   4.186  1.00  0.00     0.338 C 
ATOM     39  O   UNL     1       5.029  -0.821   5.375  1.00  0.00    -0.246 OA
BRANCH  38  40
ATOM     40  C   UNL     1       4.565   0.378   3.420  1.00  0.00     0.060 A 
ATOM     41  C   UNL     1       4.768   1.610   4.061  1.00  0.00     0.016 A 
ATOM     42  C   UNL     1       3.914   0.495   2.241  1.00  0.00     0.016 A 
ATOM     43  C   UNL     1       3.963   2.766   3.845  1.00  0.00     0.010 A 
ATOM     44  C   UNL     1       3.067   1.615   2.096  1.00  0.00     0.010 A 
ATOM     45  C   UNL     1       2.887   2.680   2.990  1.00  0.00    -0.014 A 
BRANCH  45  46
ATOM     46  C   UNL     1       1.467   3.089   3.418  1.00  0.00     0.031 A 
ATOM     47  C   UNL     1       0.389   3.923   2.718  1.00  0.00     0.074 A 
ATOM     48  C   UNL     1       1.028   2.359   4.482  1.00  0.00     0.049 A 
ATOM     49  N   UNL     1      -0.864   3.587   2.766  1.00  0.00    -0.248 NA
ATOM     50  C   UNL     1       0.532   5.106   1.837  1.00  0.00     0.031 C 
ATOM     51  C   UNL     1      -0.313   2.126   5.016  1.00  0.00     0.029 A 
ATOM     52  N   UNL     1       1.840   1.804   5.476  1.00  0.00    -0.354 N 
ATOM     53  C   UNL     1      -1.625   4.315   1.878  1.00  0.00     0.074 A 
ATOM     54  C   UNL     1      -0.690   5.215   1.252  1.00  0.00     0.031 C 
ATOM     55  C   UNL     1      -0.226   1.736   6.298  1.00  0.00     0.029 A 
ATOM     56  C   UNL     1       1.152   1.935   6.690  1.00  0.00     0.049 A 
ATOM     57  H   UNL     1       2.728   1.398   5.347  1.00  0.00     0.167 HD
ATOM     58  C   UNL     1      -2.988   4.175   1.913  1.00  0.00     0.031 A 
ATOM     59  C   UNL     1       1.605   2.930   7.513  1.00  0.00     0.031 A 
ATOM     60  C   UNL     1      -3.371   4.047   3.321  1.00  0.00     0.049 A 
ATOM     61  C   UNL     1       0.628   4.141   7.511  1.00  0.00     0.074 A 
ATOM     62  C   UNL     1      -3.975   3.149   4.178  1.00  0.00     0.029 A 
ATOM     63  N   UNL     1      -2.848   5.037   4.133  1.00  0.00    -0.354 N 
ATOM     64  N   UNL     1      -0.535   4.169   6.893  1.00  0.00    -0.248 NA
ATOM     65  C   UNL     1       0.871   5.415   8.183  1.00  0.00     0.031 C 
ATOM     66  C   UNL     1      -3.666   3.570   5.525  1.00  0.00     0.029 A 
ATOM     67  C   UNL     1      -2.939   4.748   5.470  1.00  0.00     0.049 A 
ATOM     68  H   UNL     1      -2.449   5.868   3.785  1.00  0.00     0.167 HD
ATOM     69  C   UNL     1      -1.142   5.392   6.996  1.00  0.00     0.074 A 
ATOM     70  C   UNL     1      -0.212   6.140   7.831  1.00  0.00     0.031 C 
ATOM     71  C   UNL     1      -2.328   5.718   6.377  1.00  0.00     0.031 A 
BRANCH  58  72
ATOM     72  C   UNL     1      -3.994   4.208   0.768  1.00  0.00    -0.014 A 
ATOM     73  C   UNL     1      -5.377   4.051   1.044  1.00  0.00     0.010 A 
ATOM     74  C   UNL     1      -3.644   4.194  -0.600  1.00  0.00     0.010 A 
ATOM     75  C   UNL     1      -6.351   3.895   0.033  1.00  0.00     0.020 A 
ATOM     76  C   UNL     1      -4.617   4.051  -1.627  1.00  0.00     0.020 A 
ATOM     77  C   UNL     1      -5.967   3.896  -1.304  1.00  0.00     0.054 A 
BRANCH  77  78
ATOM     78  S   UNL     1      -7.247   3.663  -2.586  1.00  0.00     0.124 S 
ATOM     79  O   UNL     1      -7.771   2.335  -2.273  1.00  0.00    -0.237 OA
ATOM     80  O   UNL     1      -8.163   4.771  -2.330  1.00  0.00    -0.237 OA
ATOM     81  O   UNL     1      -6.505   3.752  -3.841  1.00  0.00    -0.744 OA
ENDBRANCH  77  78
ENDBRANCH  58  72
BRANCH  59  82
ATOM     82  C   UNL     1       3.129   2.829   7.653  1.00  0.00    -0.014 A 
ATOM     83  C   UNL     1       3.667   1.534   7.951  1.00  0.00     0.010 A 
ATOM     84  C   UNL     1       4.059   3.778   7.199  1.00  0.00     0.010 A 
ATOM     85  C   UNL     1       5.010   1.170   7.703  1.00  0.00     0.020 A 
ATOM     86  C   UNL     1       5.427   3.425   6.975  1.00  0.00     0.020 A 
ATOM     87  C   UNL     1       5.891   2.116   7.194  1.00  0.00     0.054 A 
BRANCH  87  88
ATOM     88  S   UNL     1       7.603   1.603   6.691  1.00  0.00     0.124 S 
ATOM     89  O   UNL     1       8.117   0.976   7.905  1.00  0.00    -0.237 OA
ATOM     90  O   UNL     1       7.418   0.702   5.557  1.00  0.00    -0.237 OA
ATOM     91  O   UNL     1       8.227   2.875   6.332  1.00  0.00    -0.744 OA
ENDBRANCH  87  88
ENDBRANCH  59  82
BRANCH  71  92
ATOM     92  C   UNL     1      -2.965   7.099   6.462  1.00  0.00    -0.014 A 
ATOM     93  C   UNL     1      -2.952   7.847   7.645  1.00  0.00     0.010 A 
ATOM     94  C   UNL     1      -3.670   7.666   5.367  1.00  0.00     0.010 A 
ATOM     95  C   UNL     1      -3.469   9.149   7.687  1.00  0.00     0.020 A 
ATOM     96  C   UNL     1      -4.206   8.956   5.399  1.00  0.00     0.020 A 
ATOM     97  C   UNL     1      -4.060   9.709   6.553  1.00  0.00     0.054 A 
BRANCH  97  98
ATOM     98  S   UNL     1      -4.658  11.414   6.610  1.00  0.00     0.124 S 
ATOM     99  O   UNL     1      -5.351  11.465   7.895  1.00  0.00    -0.237 OA
ATOM    100  O   UNL     1      -3.409  12.168   6.539  1.00  0.00    -0.237 OA
ATOM    101  O   UNL     1      -5.520  11.522   5.436  1.00  0.00    -0.744 OA
ENDBRANCH  97  98
ENDBRANCH  71  92
ENDBRANCH  45  46
ENDBRANCH  38  40
ENDBRANCH  37  38
ENDBRANCH  36  37
ENDBRANCH  35  36
ENDBRANCH  34  35
ENDBRANCH  33  34
ENDBRANCH  32  33
ENDBRANCH   1  32
TORSDOF 26
