REMARK SMILES CC[C@](C)(NC(=O)N1CC[C@@H]([NH+]2CCCCC2)C1)C(=O)OCCOCCOCCOC(=O)c1ccc(-c2c3nc(c(-c4ccc(S(=O)(=O)[O-])cc4)c4ccc([nH]4)c(-c4ccc(S(=O)(=O)[O-])cc4)c4nc(c(-c5ccc(S(=O)(=O)[O-])cc5)c5ccc2[nH]5)C=C4)C=C3)cc1
REMARK SMILES IDX 25 1 24 2 23 3 22 4 21 5 19 6 20 7 3 8 4 9 2 10 1 11 5 12
REMARK SMILES IDX 6 13 7 15 8 16 9 17 18 18 10 19 11 20 12 21 13 22 17 23
REMARK SMILES IDX 14 25 16 26 15 27 26 28 27 29 28 30 29 31 30 32 31 33 32 34
REMARK SMILES IDX 33 35 34 36 92 37 35 38 91 39 36 40 37 41 38 42 85 43 39 44
REMARK SMILES IDX 90 45 84 46 86 47 40 48 89 49 83 50 82 51 41 53 71 54 52 55
REMARK SMILES IDX 70 56 53 57 56 58 69 59 87 60 54 61 55 62 68 64 88 65 57 66
REMARK SMILES IDX 42 67 43 68 51 69 44 70 50 71 45 72 46 73 47 74 48 75 49 76
REMARK SMILES IDX 72 77 73 78 81 79 74 80 80 81 75 82 76 83 77 84 78 85 79 86
REMARK SMILES IDX 58 87 59 88 67 89 60 90 66 91 61 92 62 93 63 94 64 95 65 96
REMARK H PARENT 5 14 12 24 86 52 56 63
REMARK Flexibility Score: inf
ROOT
ATOM      1  C   UNL     1       3.176   2.344   2.232  1.00  0.00     0.188 C 
ENDROOT
BRANCH   1   2
ATOM      2  O   UNL     1       4.255   2.485   1.312  1.00  0.00    -0.376 OA
BRANCH   2   3
ATOM      3  C   UNL     1       4.801   1.214   0.908  1.00  0.00     0.202 C 
BRANCH   3   4
ATOM      4  C   UNL     1       4.521   0.849  -0.564  1.00  0.00     0.261 C 
BRANCH   4   5
ATOM      5  O   UNL     1       3.379   1.548  -1.089  1.00  0.00    -0.462 OA
BRANCH   5   6
ATOM      6  C   UNL     1       2.210   1.135  -0.558  1.00  0.00     0.331 C 
ATOM      7  O   UNL     1       2.110   0.055   0.021  1.00  0.00    -0.249 OA
BRANCH   6   8
ATOM      8  C   UNL     1       1.019   2.114  -0.801  1.00  0.00     0.136 C 
ATOM      9  C   UNL     1      -0.127   1.463   0.043  1.00  0.00     0.047 C 
BRANCH   8  10
ATOM     10  C   UNL     1       0.566   2.122  -2.280  1.00  0.00     0.037 C 
ATOM     11  C   UNL     1       0.720   0.808  -3.033  1.00  0.00     0.007 C 
ENDBRANCH   8  10
BRANCH   8  12
ATOM     12  N   UNL     1       1.066   3.540  -0.306  1.00  0.00    -0.322 N 
ATOM     13  C   UNL     1       1.835   4.654  -0.384  1.00  0.00     0.318 C 
ATOM     14  H   UNL     1       0.280   3.720   0.259  1.00  0.00     0.166 HD
ATOM     15  O   UNL     1       1.317   5.715  -0.029  1.00  0.00    -0.249 OA
BRANCH  13  16
ATOM     16  N   UNL     1       3.139   4.561  -0.725  1.00  0.00    -0.319 N 
ATOM     17  C   UNL     1       3.584   4.469  -2.080  1.00  0.00     0.128 C 
ATOM     18  C   UNL     1       4.211   5.252  -0.007  1.00  0.00     0.186 C 
ATOM     19  C   UNL     1       5.010   4.013  -1.890  1.00  0.00     0.088 C 
ATOM     20  C   UNL     1       5.504   4.684  -0.594  1.00  0.00     0.205 C 
BRANCH  20  21
ATOM     21  N   UNL     1       6.637   5.618  -0.525  1.00  0.00    -0.331 N 
ATOM     22  C   UNL     1       6.683   6.629  -1.568  1.00  0.00     0.262 C 
ATOM     23  C   UNL     1       7.920   4.918  -0.430  1.00  0.00     0.262 C 
ATOM     24  H   UNL     1       6.468   6.132   0.340  1.00  0.00     0.348 HD
ATOM     25  C   UNL     1       7.013   6.078  -2.950  1.00  0.00     0.062 C 
ATOM     26  C   UNL     1       8.200   4.109  -1.685  1.00  0.00     0.062 C 
ATOM     27  C   UNL     1       8.055   4.943  -2.965  1.00  0.00     0.012 C 
ENDBRANCH  20  21
ENDBRANCH  13  16
ENDBRANCH   8  12
ENDBRANCH   6   8
ENDBRANCH   5   6
ENDBRANCH   4   5
ENDBRANCH   3   4
ENDBRANCH   2   3
ENDBRANCH   1   2
BRANCH   1  28
ATOM     28  C   UNL     1       2.454   3.608   2.751  1.00  0.00     0.188 C 
BRANCH  28  29
ATOM     29  O   UNL     1       2.829   4.884   2.310  1.00  0.00    -0.376 OA
BRANCH  29  30
ATOM     30  C   UNL     1       3.070   5.922   3.261  1.00  0.00     0.202 C 
BRANCH  30  31
ATOM     31  C   UNL     1       4.387   5.747   4.043  1.00  0.00     0.261 C 
BRANCH  31  32
ATOM     32  O   UNL     1       4.368   4.616   4.929  1.00  0.00    -0.460 OA
BRANCH  32  33
ATOM     33  C   UNL     1       3.398   4.668   5.879  1.00  0.00     0.338 C 
ATOM     34  O   UNL     1       2.772   5.640   6.241  1.00  0.00    -0.246 OA
BRANCH  33  35
ATOM     35  C   UNL     1       2.979   3.273   6.111  1.00  0.00     0.060 A 
ATOM     36  C   UNL     1       1.656   2.941   5.758  1.00  0.00     0.016 A 
ATOM     37  C   UNL     1       3.878   2.301   6.551  1.00  0.00     0.016 A 
ATOM     38  C   UNL     1       1.220   1.635   5.865  1.00  0.00     0.010 A 
ATOM     39  C   UNL     1       3.403   1.012   6.780  1.00  0.00     0.010 A 
ATOM     40  C   UNL     1       2.055   0.715   6.505  1.00  0.00    -0.014 A 
BRANCH  40  41
ATOM     41  C   UNL     1       1.346  -0.283   7.325  1.00  0.00     0.031 A 
ATOM     42  C   UNL     1       0.865   0.202   8.671  1.00  0.00     0.074 A 
ATOM     43  C   UNL     1       1.008  -1.483   6.833  1.00  0.00     0.049 A 
ATOM     44  N   UNL     1       0.147  -0.411   9.570  1.00  0.00    -0.248 NA
ATOM     45  C   UNL     1       1.218   1.589   9.041  1.00  0.00     0.031 C 
ATOM     46  C   UNL     1       1.320  -1.974   5.491  1.00  0.00     0.029 A 
ATOM     47  N   UNL     1       0.295  -2.495   7.412  1.00  0.00    -0.354 N 
ATOM     48  C   UNL     1      -0.027   0.511  10.598  1.00  0.00     0.074 A 
ATOM     49  C   UNL     1       0.657   1.721  10.227  1.00  0.00     0.031 C 
ATOM     50  C   UNL     1       0.798  -3.206   5.352  1.00  0.00     0.029 A 
ATOM     51  C   UNL     1       0.153  -3.595   6.604  1.00  0.00     0.049 A 
ATOM     52  H   UNL     1      -0.080  -2.440   8.320  1.00  0.00     0.167 HD
ATOM     53  C   UNL     1      -0.692   0.357  11.762  1.00  0.00     0.031 A 
ATOM     54  C   UNL     1      -0.421  -4.782   6.873  1.00  0.00     0.031 A 
ATOM     55  C   UNL     1      -1.331  -0.871  12.129  1.00  0.00     0.049 A 
ATOM     56  C   UNL     1      -1.057  -4.973   8.227  1.00  0.00     0.074 A 
ATOM     57  C   UNL     1      -1.997  -1.181  13.298  1.00  0.00     0.029 A 
ATOM     58  N   UNL     1      -1.369  -2.000  11.323  1.00  0.00    -0.354 N 
ATOM     59  N   UNL     1      -1.181  -4.112   9.212  1.00  0.00    -0.248 NA
ATOM     60  C   UNL     1      -1.639  -6.292   8.501  1.00  0.00     0.031 C 
ATOM     61  C   UNL     1      -2.381  -2.523  13.224  1.00  0.00     0.029 A 
ATOM     62  C   UNL     1      -2.027  -3.021  11.978  1.00  0.00     0.049 A 
ATOM     63  H   UNL     1      -0.983  -2.063  10.419  1.00  0.00     0.167 HD
ATOM     64  C   UNL     1      -1.891  -4.773  10.209  1.00  0.00     0.074 A 
ATOM     65  C   UNL     1      -2.175  -6.101   9.699  1.00  0.00     0.031 C 
ATOM     66  C   UNL     1      -2.285  -4.329  11.430  1.00  0.00     0.031 A 
BRANCH  53  67
ATOM     67  C   UNL     1      -0.661   1.505  12.735  1.00  0.00    -0.014 A 
ATOM     68  C   UNL     1      -1.352   2.707  12.492  1.00  0.00     0.010 A 
ATOM     69  C   UNL     1       0.096   1.379  13.913  1.00  0.00     0.010 A 
ATOM     70  C   UNL     1      -1.263   3.769  13.398  1.00  0.00     0.020 A 
ATOM     71  C   UNL     1       0.163   2.426  14.835  1.00  0.00     0.020 A 
ATOM     72  C   UNL     1      -0.507   3.620  14.565  1.00  0.00     0.054 A 
BRANCH  72  73
ATOM     73  S   UNL     1      -0.435   4.998  15.742  1.00  0.00     0.124 S 
ATOM     74  O   UNL     1       0.392   5.966  15.027  1.00  0.00    -0.237 OA
ATOM     75  O   UNL     1      -1.842   5.362  15.892  1.00  0.00    -0.237 OA
ATOM     76  O   UNL     1       0.182   4.409  16.928  1.00  0.00    -0.744 OA
ENDBRANCH  72  73
ENDBRANCH  53  67
BRANCH  54  77
ATOM     77  C   UNL     1      -0.390  -5.875   5.863  1.00  0.00    -0.014 A 
ATOM     78  C   UNL     1      -1.571  -6.350   5.269  1.00  0.00     0.010 A 
ATOM     79  C   UNL     1       0.839  -6.451   5.490  1.00  0.00     0.010 A 
ATOM     80  C   UNL     1      -1.526  -7.393   4.337  1.00  0.00     0.020 A 
ATOM     81  C   UNL     1       0.892  -7.470   4.536  1.00  0.00     0.020 A 
ATOM     82  C   UNL     1      -0.293  -7.944   3.974  1.00  0.00     0.054 A 
BRANCH  82  83
ATOM     83  S   UNL     1      -0.255  -9.267   2.734  1.00  0.00     0.124 S 
ATOM     84  O   UNL     1      -0.833 -10.389   3.467  1.00  0.00    -0.237 OA
ATOM     85  O   UNL     1      -1.081  -8.717   1.662  1.00  0.00    -0.237 OA
ATOM     86  O   UNL     1       1.165  -9.395   2.413  1.00  0.00    -0.744 OA
ENDBRANCH  82  83
ENDBRANCH  54  77
BRANCH  66  87
ATOM     87  C   UNL     1      -3.117  -5.264  12.264  1.00  0.00    -0.014 A 
ATOM     88  C   UNL     1      -2.570  -6.423  12.841  1.00  0.00     0.010 A 
ATOM     89  C   UNL     1      -4.466  -4.944  12.503  1.00  0.00     0.010 A 
ATOM     90  C   UNL     1      -3.376  -7.276  13.597  1.00  0.00     0.020 A 
ATOM     91  C   UNL     1      -5.264  -5.773  13.290  1.00  0.00     0.020 A 
ATOM     92  C   UNL     1      -4.719  -6.947  13.812  1.00  0.00     0.054 A 
BRANCH  92  93
ATOM     93  S   UNL     1      -5.742  -8.066  14.804  1.00  0.00     0.124 S 
ATOM     94  O   UNL     1      -5.936  -9.188  13.889  1.00  0.00    -0.237 OA
ATOM     95  O   UNL     1      -4.893  -8.336  15.961  1.00  0.00    -0.237 OA
ATOM     96  O   UNL     1      -6.941  -7.280  15.088  1.00  0.00    -0.744 OA
ENDBRANCH  92  93
ENDBRANCH  66  87
ENDBRANCH  40  41
ENDBRANCH  33  35
ENDBRANCH  32  33
ENDBRANCH  31  32
ENDBRANCH  30  31
ENDBRANCH  29  30
ENDBRANCH  28  29
ENDBRANCH   1  28
TORSDOF 24
