REMARK SMILES CC[C@@H](NS(=O)(=O)c1cc(C)ccc1C)C(=O)OCCOCCOCCOC(=O)c1ccc(-c2c3nc(c(-c4ccc(S(=O)(=O)[O-])cc4)c4ccc([nH]4)c(-c4ccc(S(=O)(=O)[O-])cc4)c4nc(c(-c5ccc(S(=O)(=O)[O-])cc5)c5ccc2[nH]5)C=C4)C=C3)cc1
REMARK SMILES IDX 22 1 21 2 20 3 19 4 18 5 16 6 17 7 3 8 2 9 1 10 4 11 5 13
REMARK SMILES IDX 6 14 7 15 8 16 9 17 14 18 10 19 13 20 15 21 11 22 12 23
REMARK SMILES IDX 23 24 24 25 25 26 26 27 27 28 28 29 29 30 30 31 31 32 89 33
REMARK SMILES IDX 32 34 88 35 33 36 34 37 35 38 82 39 36 40 87 41 81 42 83 43
REMARK SMILES IDX 37 44 86 45 80 46 79 47 38 49 68 50 49 51 67 52 50 53 53 54
REMARK SMILES IDX 66 55 84 56 51 57 52 58 65 60 85 61 54 62 39 63 40 64 48 65
REMARK SMILES IDX 41 66 47 67 42 68 43 69 44 70 45 71 46 72 69 73 70 74 78 75
REMARK SMILES IDX 71 76 77 77 72 78 73 79 74 80 75 81 76 82 55 83 56 84 64 85
REMARK SMILES IDX 57 86 63 87 58 88 59 89 60 90 61 91 62 92
REMARK H PARENT 4 12 83 48 53 59
REMARK Flexibility Score: inf
ROOT
ATOM      1  C   UNL     1       2.396  -5.950  -1.334  1.00  0.00     0.188 C 
ENDROOT
BRANCH   1   2
ATOM      2  O   UNL     1       2.312  -6.888  -0.262  1.00  0.00    -0.376 OA
BRANCH   2   3
ATOM      3  C   UNL     1       1.062  -6.950   0.412  1.00  0.00     0.202 C 
BRANCH   3   4
ATOM      4  C   UNL     1       0.749  -5.830   1.404  1.00  0.00     0.261 C 
BRANCH   4   5
ATOM      5  O   UNL     1       1.028  -4.452   1.086  1.00  0.00    -0.462 OA
BRANCH   5   6
ATOM      6  C   UNL     1       2.186  -3.942   1.594  1.00  0.00     0.324 C 
ATOM      7  O   UNL     1       3.193  -4.613   1.788  1.00  0.00    -0.250 OA
BRANCH   6   8
ATOM      8  C   UNL     1       2.089  -2.453   1.988  1.00  0.00     0.179 C 
BRANCH   8   9
ATOM      9  C   UNL     1       1.108  -1.634   1.134  1.00  0.00     0.028 C 
ATOM     10  C   UNL     1       1.376  -0.133   1.163  1.00  0.00     0.006 C 
ENDBRANCH   8   9
BRANCH   8  11
ATOM     11  N   UNL     1       1.742  -2.214   3.394  1.00  0.00    -0.197 NA
ATOM     12  H   UNL     1       0.771  -2.508   3.498  1.00  0.00     0.142 HD
BRANCH  11  13
ATOM     13  S   UNL     1       2.571  -2.908   4.666  1.00  0.00     0.241 S 
ATOM     14  O   UNL     1       3.977  -2.878   4.296  1.00  0.00    -0.207 OA
ATOM     15  O   UNL     1       2.105  -2.229   5.847  1.00  0.00    -0.207 OA
BRANCH  13  16
ATOM     16  C   UNL     1       1.982  -4.581   4.713  1.00  0.00     0.085 A 
ATOM     17  C   UNL     1       2.922  -5.619   4.668  1.00  0.00     0.025 A 
ATOM     18  C   UNL     1       0.609  -4.872   4.687  1.00  0.00    -0.031 A 
ATOM     19  C   UNL     1       2.500  -6.950   4.579  1.00  0.00    -0.050 A 
ATOM     20  C   UNL     1       0.201  -6.213   4.692  1.00  0.00     0.005 A 
ATOM     21  C   UNL     1      -0.455  -3.849   4.472  1.00  0.00     0.046 C 
ATOM     22  C   UNL     1       3.466  -8.058   4.288  1.00  0.00     0.044 C 
ATOM     23  C   UNL     1       1.137  -7.241   4.634  1.00  0.00     0.004 A 
ENDBRANCH  13  16
ENDBRANCH  11  13
ENDBRANCH   8  11
ENDBRANCH   6   8
ENDBRANCH   5   6
ENDBRANCH   4   5
ENDBRANCH   3   4
ENDBRANCH   2   3
ENDBRANCH   1   2
BRANCH   1  24
ATOM     24  C   UNL     1       1.455  -6.266  -2.500  1.00  0.00     0.188 C 
BRANCH  24  25
ATOM     25  O   UNL     1       0.140  -5.855  -2.143  1.00  0.00    -0.376 OA
BRANCH  25  26
ATOM     26  C   UNL     1      -0.899  -6.362  -2.960  1.00  0.00     0.202 C 
BRANCH  26  27
ATOM     27  C   UNL     1      -0.983  -5.712  -4.340  1.00  0.00     0.261 C 
BRANCH  27  28
ATOM     28  O   UNL     1      -0.528  -4.343  -4.504  1.00  0.00    -0.460 OA
BRANCH  28  29
ATOM     29  C   UNL     1      -0.761  -3.257  -3.735  1.00  0.00     0.338 C 
ATOM     30  O   UNL     1      -0.222  -2.179  -3.961  1.00  0.00    -0.246 OA
BRANCH  29  31
ATOM     31  C   UNL     1      -1.582  -3.415  -2.529  1.00  0.00     0.060 A 
ATOM     32  C   UNL     1      -0.904  -3.286  -1.324  1.00  0.00     0.016 A 
ATOM     33  C   UNL     1      -2.938  -3.751  -2.546  1.00  0.00     0.016 A 
ATOM     34  C   UNL     1      -1.550  -3.610  -0.145  1.00  0.00     0.010 A 
ATOM     35  C   UNL     1      -3.574  -4.109  -1.344  1.00  0.00     0.010 A 
ATOM     36  C   UNL     1      -2.856  -4.091  -0.143  1.00  0.00    -0.014 A 
BRANCH  36  37
ATOM     37  C   UNL     1      -3.352  -4.509   1.181  1.00  0.00     0.031 A 
ATOM     38  C   UNL     1      -3.521  -3.440   2.212  1.00  0.00     0.074 A 
ATOM     39  C   UNL     1      -3.540  -5.801   1.528  1.00  0.00     0.049 A 
ATOM     40  N   UNL     1      -3.289  -3.530   3.487  1.00  0.00    -0.248 NA
ATOM     41  C   UNL     1      -3.949  -2.103   1.770  1.00  0.00     0.031 C 
ATOM     42  C   UNL     1      -3.430  -6.964   0.650  1.00  0.00     0.029 A 
ATOM     43  N   UNL     1      -3.932  -6.346   2.734  1.00  0.00    -0.354 N 
ATOM     44  C   UNL     1      -3.651  -2.308   4.031  1.00  0.00     0.074 A 
ATOM     45  C   UNL     1      -4.012  -1.448   2.928  1.00  0.00     0.031 C 
ATOM     46  C   UNL     1      -3.943  -8.039   1.283  1.00  0.00     0.029 A 
ATOM     47  C   UNL     1      -4.377  -7.656   2.622  1.00  0.00     0.049 A 
ATOM     48  H   UNL     1      -3.899  -5.855   3.587  1.00  0.00     0.167 HD
ATOM     49  C   UNL     1      -3.913  -2.124   5.351  1.00  0.00     0.031 A 
ATOM     50  C   UNL     1      -5.135  -8.366   3.494  1.00  0.00     0.031 A 
ATOM     51  C   UNL     1      -3.219  -2.954   6.294  1.00  0.00     0.049 A 
ATOM     52  C   UNL     1      -5.021  -7.820   4.868  1.00  0.00     0.074 A 
ATOM     53  C   UNL     1      -2.153  -2.820   7.155  1.00  0.00     0.029 A 
ATOM     54  N   UNL     1      -3.628  -4.253   6.378  1.00  0.00    -0.354 N 
ATOM     55  N   UNL     1      -4.004  -8.024   5.652  1.00  0.00    -0.248 NA
ATOM     56  C   UNL     1      -6.022  -6.888   5.379  1.00  0.00     0.031 C 
ATOM     57  C   UNL     1      -1.880  -4.118   7.691  1.00  0.00     0.029 A 
ATOM     58  C   UNL     1      -2.814  -5.020   7.189  1.00  0.00     0.049 A 
ATOM     59  H   UNL     1      -4.419  -4.606   5.909  1.00  0.00     0.167 HD
ATOM     60  C   UNL     1      -4.063  -7.024   6.601  1.00  0.00     0.074 A 
ATOM     61  C   UNL     1      -5.394  -6.446   6.471  1.00  0.00     0.031 C 
ATOM     62  C   UNL     1      -2.933  -6.478   7.143  1.00  0.00     0.031 A 
BRANCH  49  63
ATOM     63  C   UNL     1      -5.245  -1.529   5.713  1.00  0.00    -0.014 A 
ATOM     64  C   UNL     1      -5.478  -1.054   7.012  1.00  0.00     0.010 A 
ATOM     65  C   UNL     1      -6.364  -1.737   4.871  1.00  0.00     0.010 A 
ATOM     66  C   UNL     1      -6.785  -0.825   7.459  1.00  0.00     0.020 A 
ATOM     67  C   UNL     1      -7.662  -1.483   5.297  1.00  0.00     0.020 A 
ATOM     68  C   UNL     1      -7.865  -1.057   6.602  1.00  0.00     0.054 A 
BRANCH  68  69
ATOM     69  S   UNL     1      -9.553  -0.865   7.221  1.00  0.00     0.124 S 
ATOM     70  O   UNL     1      -9.679  -2.017   8.108  1.00  0.00    -0.237 OA
ATOM     71  O   UNL     1      -9.498   0.440   7.876  1.00  0.00    -0.237 OA
ATOM     72  O   UNL     1     -10.366  -0.912   6.008  1.00  0.00    -0.744 OA
ENDBRANCH  68  69
ENDBRANCH  49  63
BRANCH  50  73
ATOM     73  C   UNL     1      -6.124  -9.441   3.190  1.00  0.00    -0.014 A 
ATOM     74  C   UNL     1      -6.792 -10.111   4.236  1.00  0.00     0.010 A 
ATOM     75  C   UNL     1      -6.621  -9.629   1.886  1.00  0.00     0.010 A 
ATOM     76  C   UNL     1      -7.967 -10.842   3.998  1.00  0.00     0.020 A 
ATOM     77  C   UNL     1      -7.768 -10.385   1.635  1.00  0.00     0.020 A 
ATOM     78  C   UNL     1      -8.461 -10.951   2.698  1.00  0.00     0.054 A 
BRANCH  78  79
ATOM     79  S   UNL     1     -10.098 -11.681   2.414  1.00  0.00     0.124 S 
ATOM     80  O   UNL     1      -9.839 -13.105   2.603  1.00  0.00    -0.237 OA
ATOM     81  O   UNL     1     -10.914 -11.040   3.442  1.00  0.00    -0.237 OA
ATOM     82  O   UNL     1     -10.414 -11.283   1.043  1.00  0.00    -0.744 OA
ENDBRANCH  78  79
ENDBRANCH  50  73
BRANCH  62  83
ATOM     83  C   UNL     1      -1.754  -7.388   7.468  1.00  0.00    -0.014 A 
ATOM     84  C   UNL     1      -1.353  -8.480   6.673  1.00  0.00     0.010 A 
ATOM     85  C   UNL     1      -1.004  -7.160   8.640  1.00  0.00     0.010 A 
ATOM     86  C   UNL     1      -0.261  -9.293   7.014  1.00  0.00     0.020 A 
ATOM     87  C   UNL     1       0.113  -7.945   8.976  1.00  0.00     0.020 A 
ATOM     88  C   UNL     1       0.482  -9.007   8.154  1.00  0.00     0.054 A 
BRANCH  88  89
ATOM     89  S   UNL     1       1.911 -10.050   8.545  1.00  0.00     0.124 S 
ATOM     90  O   UNL     1       1.335 -11.393   8.551  1.00  0.00    -0.237 OA
ATOM     91  O   UNL     1       2.824  -9.771   7.439  1.00  0.00    -0.237 OA
ATOM     92  O   UNL     1       2.353  -9.564   9.850  1.00  0.00    -0.744 OA
ENDBRANCH  88  89
ENDBRANCH  62  83
ENDBRANCH  36  37
ENDBRANCH  29  31
ENDBRANCH  28  29
ENDBRANCH  27  28
ENDBRANCH  26  27
ENDBRANCH  25  26
ENDBRANCH  24  25
ENDBRANCH   1  24
TORSDOF 24
