REMARK SMILES COCCCNC(=O)C[N@H+]1CC[C@H](C(=O)OCCOCCOCCOC(=O)c2ccc(-c3c4nc(c(-c5ccc(S(=O)(=O)[O-])cc5)c5ccc([nH]5)c(-c5ccc(S(=O)(=O)[O-])cc5)c5nc(c(-c6ccc(S(=O)(=O)[O-])cc6)c6ccc3[nH]6)C=C5)C=C4)cc2)[C@@H]1C
REMARK SMILES IDX 19 1 18 2 17 3 16 4 14 5 15 6 13 7 10 8 11 9 88 10 12 12
REMARK SMILES IDX 89 13 9 14 7 15 6 16 8 18 5 19 4 20 3 21 2 22 1 23 20 24
REMARK SMILES IDX 21 25 22 26 23 27 24 28 25 29 26 30 27 31 28 32 29 33 87 34
REMARK SMILES IDX 30 35 86 36 31 37 32 38 33 39 80 40 34 41 85 42 79 43 81 44
REMARK SMILES IDX 35 45 84 46 78 47 77 48 36 50 66 51 47 52 65 53 48 54 51 55
REMARK SMILES IDX 64 56 82 57 49 58 50 59 63 61 83 62 52 63 37 64 38 65 46 66
REMARK SMILES IDX 39 67 45 68 40 69 41 70 42 71 43 72 44 73 67 74 68 75 76 76
REMARK SMILES IDX 69 77 75 78 70 79 71 80 72 81 73 82 74 83 53 84 54 85 62 86
REMARK SMILES IDX 55 87 61 88 56 89 57 90 58 91 59 92 60 93
REMARK H PARENT 10 11 6 17 81 49 51 60
REMARK Flexibility Score: inf
ROOT
ATOM      1  O   UNL     1       0.475  -3.010  10.058  1.00  0.00    -0.376 OA
ENDROOT
BRANCH   1   2
ATOM      2  C   UNL     1       0.262  -1.672   9.643  1.00  0.00     0.202 C 
BRANCH   2   3
ATOM      3  C   UNL     1       1.318  -1.035   8.735  1.00  0.00     0.261 C 
BRANCH   3   4
ATOM      4  O   UNL     1       1.683  -1.813   7.578  1.00  0.00    -0.463 OA
BRANCH   4   5
ATOM      5  C   UNL     1       2.963  -2.258   7.511  1.00  0.00     0.315 C 
ATOM      6  O   UNL     1       3.780  -2.127   8.415  1.00  0.00    -0.252 OA
BRANCH   5   7
ATOM      7  C   UNL     1       3.320  -2.949   6.199  1.00  0.00     0.162 C 
ATOM      8  N   UNL     1       2.177  -3.205   4.058  1.00  0.00    -0.324 N 
ATOM      9  C   UNL     1       1.893  -4.393   4.868  1.00  0.00     0.264 C 
ATOM     10  C   UNL     1       2.966  -2.256   4.880  1.00  0.00     0.195 C 
ATOM     11  H   UNL     1       1.317  -2.731   3.780  1.00  0.00     0.348 HD
ATOM     12  C   UNL     1       2.861  -4.389   6.037  1.00  0.00     0.083 C 
ATOM     13  C   UNL     1       2.211  -0.935   4.980  1.00  0.00     0.076 C 
BRANCH   8  14
ATOM     14  C   UNL     1       2.844  -3.598   2.798  1.00  0.00     0.363 C 
BRANCH  14  15
ATOM     15  C   UNL     1       3.221  -2.395   1.937  1.00  0.00     0.275 C 
ATOM     16  N   UNL     1       2.271  -1.529   1.488  1.00  0.00    -0.351 N 
ATOM     17  H   UNL     1       2.620  -0.728   1.033  1.00  0.00     0.163 HD
ATOM     18  O   UNL     1       4.392  -2.179   1.613  1.00  0.00    -0.269 OA
BRANCH  16  19
ATOM     19  C   UNL     1       0.824  -1.603   1.575  1.00  0.00     0.118 C 
BRANCH  19  20
ATOM     20  C   UNL     1       0.147  -0.326   2.093  1.00  0.00     0.050 C 
BRANCH  20  21
ATOM     21  C   UNL     1       0.773   1.011   1.691  1.00  0.00     0.161 C 
BRANCH  21  22
ATOM     22  O   UNL     1       0.373   1.474   0.403  1.00  0.00    -0.385 OA
ATOM     23  C   UNL     1       0.952   0.774  -0.684  1.00  0.00     0.194 C 
ENDBRANCH  21  22
ENDBRANCH  20  21
ENDBRANCH  19  20
ENDBRANCH  16  19
ENDBRANCH  14  15
ENDBRANCH   8  14
ENDBRANCH   5   7
ENDBRANCH   4   5
ENDBRANCH   3   4
ENDBRANCH   2   3
ENDBRANCH   1   2
BRANCH   1  24
ATOM     24  C   UNL     1       0.539  -4.035   9.073  1.00  0.00     0.188 C 
BRANCH  24  25
ATOM     25  C   UNL     1      -0.304  -3.905   7.789  1.00  0.00     0.188 C 
BRANCH  25  26
ATOM     26  O   UNL     1      -1.491  -3.150   7.972  1.00  0.00    -0.376 OA
BRANCH  26  27
ATOM     27  C   UNL     1      -2.701  -3.838   7.722  1.00  0.00     0.202 C 
BRANCH  27  28
ATOM     28  C   UNL     1      -3.089  -4.809   8.842  1.00  0.00     0.261 C 
BRANCH  28  29
ATOM     29  O   UNL     1      -2.092  -5.791   9.186  1.00  0.00    -0.460 OA
BRANCH  29  30
ATOM     30  C   UNL     1      -1.840  -6.761   8.279  1.00  0.00     0.338 C 
ATOM     31  O   UNL     1      -2.383  -6.894   7.193  1.00  0.00    -0.246 OA
BRANCH  30  32
ATOM     32  C   UNL     1      -0.645  -7.524   8.716  1.00  0.00     0.060 A 
ATOM     33  C   UNL     1       0.426  -7.670   7.825  1.00  0.00     0.016 A 
ATOM     34  C   UNL     1      -0.574  -8.096   9.990  1.00  0.00     0.016 A 
ATOM     35  C   UNL     1       1.548  -8.422   8.189  1.00  0.00     0.010 A 
ATOM     36  C   UNL     1       0.545  -8.861  10.347  1.00  0.00     0.010 A 
ATOM     37  C   UNL     1       1.599  -9.059   9.438  1.00  0.00    -0.014 A 
BRANCH  37  38
ATOM     38  C   UNL     1       2.665 -10.061   9.720  1.00  0.00     0.031 A 
ATOM     39  C   UNL     1       2.341 -11.527   9.570  1.00  0.00     0.074 A 
ATOM     40  C   UNL     1       3.911  -9.692  10.073  1.00  0.00     0.049 A 
ATOM     41  N   UNL     1       3.103 -12.572   9.770  1.00  0.00    -0.248 NA
ATOM     42  C   UNL     1       0.974 -11.854   9.131  1.00  0.00     0.031 C 
ATOM     43  C   UNL     1       4.379  -8.315  10.220  1.00  0.00     0.029 A 
ATOM     44  N   UNL     1       5.015 -10.456  10.375  1.00  0.00    -0.354 N 
ATOM     45  C   UNL     1       2.311 -13.679   9.483  1.00  0.00     0.074 A 
ATOM     46  C   UNL     1       1.000 -13.179   9.130  1.00  0.00     0.031 C 
ATOM     47  C   UNL     1       5.672  -8.332  10.592  1.00  0.00     0.029 A 
ATOM     48  C   UNL     1       6.117  -9.717  10.740  1.00  0.00     0.049 A 
ATOM     49  H   UNL     1       5.016 -11.439  10.335  1.00  0.00     0.167 HD
ATOM     50  C   UNL     1       2.642 -14.993   9.500  1.00  0.00     0.031 A 
ATOM     51  C   UNL     1       7.337 -10.109  11.163  1.00  0.00     0.031 A 
ATOM     52  C   UNL     1       3.935 -15.502   9.875  1.00  0.00     0.049 A 
ATOM     53  C   UNL     1       7.659 -11.581  11.255  1.00  0.00     0.074 A 
ATOM     54  C   UNL     1       4.361 -16.819   9.923  1.00  0.00     0.029 A 
ATOM     55  N   UNL     1       5.009 -14.722  10.275  1.00  0.00    -0.354 N 
ATOM     56  N   UNL     1       6.905 -12.613  10.957  1.00  0.00    -0.248 NA
ATOM     57  C   UNL     1       9.004 -11.940  11.730  1.00  0.00     0.031 C 
ATOM     58  C   UNL     1       5.672 -16.838  10.410  1.00  0.00     0.029 A 
ATOM     59  C   UNL     1       6.088 -15.530  10.597  1.00  0.00     0.049 A 
ATOM     60  H   UNL     1       5.006 -13.739  10.324  1.00  0.00     0.167 HD
ATOM     61  C   UNL     1       7.693 -13.739  11.184  1.00  0.00     0.074 A 
ATOM     62  C   UNL     1       8.988 -13.262  11.622  1.00  0.00     0.031 C 
ATOM     63  C   UNL     1       7.374 -15.050  11.039  1.00  0.00     0.031 A 
BRANCH  50  64
ATOM     64  C   UNL     1       1.567 -15.982   9.127  1.00  0.00    -0.014 A 
ATOM     65  C   UNL     1       1.108 -16.092   7.801  1.00  0.00     0.010 A 
ATOM     66  C   UNL     1       1.034 -16.838  10.108  1.00  0.00     0.010 A 
ATOM     67  C   UNL     1       0.106 -17.010   7.473  1.00  0.00     0.020 A 
ATOM     68  C   UNL     1       0.054 -17.778   9.778  1.00  0.00     0.020 A 
ATOM     69  C   UNL     1      -0.416 -17.846   8.465  1.00  0.00     0.054 A 
BRANCH  69  70
ATOM     70  S   UNL     1      -1.704 -19.038   8.006  1.00  0.00     0.124 S 
ATOM     71  O   UNL     1      -2.852 -18.166   7.771  1.00  0.00    -0.237 OA
ATOM     72  O   UNL     1      -1.143 -19.671   6.815  1.00  0.00    -0.237 OA
ATOM     73  O   UNL     1      -1.810 -19.904   9.178  1.00  0.00    -0.744 OA
ENDBRANCH  69  70
ENDBRANCH  50  64
BRANCH  51  74
ATOM     74  C   UNL     1       8.352  -9.091  11.563  1.00  0.00    -0.014 A 
ATOM     75  C   UNL     1       9.527  -8.905  10.813  1.00  0.00     0.010 A 
ATOM     76  C   UNL     1       8.152  -8.312  12.719  1.00  0.00     0.010 A 
ATOM     77  C   UNL     1      10.489  -7.973  11.220  1.00  0.00     0.020 A 
ATOM     78  C   UNL     1       9.095  -7.359  13.111  1.00  0.00     0.020 A 
ATOM     79  C   UNL     1      10.264  -7.203  12.365  1.00  0.00     0.054 A 
BRANCH  79  80
ATOM     80  S   UNL     1      11.503  -5.967  12.846  1.00  0.00     0.124 S 
ATOM     81  O   UNL     1      12.592  -6.804  13.339  1.00  0.00    -0.237 OA
ATOM     82  O   UNL     1      11.759  -5.272  11.587  1.00  0.00    -0.237 OA
ATOM     83  O   UNL     1      10.816  -5.171  13.861  1.00  0.00    -0.744 OA
ENDBRANCH  79  80
ENDBRANCH  51  74
BRANCH  63  84
ATOM     84  C   UNL     1       8.451 -16.069  11.321  1.00  0.00    -0.014 A 
ATOM     85  C   UNL     1       8.915 -16.307  12.628  1.00  0.00     0.010 A 
ATOM     86  C   UNL     1       8.981 -16.831  10.262  1.00  0.00     0.010 A 
ATOM     87  C   UNL     1       9.918 -17.253  12.863  1.00  0.00     0.020 A 
ATOM     88  C   UNL     1       9.961 -17.800  10.497  1.00  0.00     0.020 A 
ATOM     89  C   UNL     1      10.437 -17.992  11.795  1.00  0.00     0.054 A 
BRANCH  89  90
ATOM     90  S   UNL     1      11.721 -19.229  12.129  1.00  0.00     0.124 S 
ATOM     91  O   UNL     1      12.885 -18.392  12.408  1.00  0.00    -0.237 OA
ATOM     92  O   UNL     1      11.179 -19.953  13.276  1.00  0.00    -0.237 OA
ATOM     93  O   UNL     1      11.792 -20.000  10.890  1.00  0.00    -0.744 OA
ENDBRANCH  89  90
ENDBRANCH  63  84
ENDBRANCH  37  38
ENDBRANCH  30  32
ENDBRANCH  29  30
ENDBRANCH  28  29
ENDBRANCH  27  28
ENDBRANCH  26  27
ENDBRANCH  25  26
ENDBRANCH  24  25
ENDBRANCH   1  24
TORSDOF 26
