REMARK SMILES Cc1cc(C(=O)OCCOCCOCCOC(=O)c2ccc(-c3c4nc(c(-c5ccc(S(=O)(=O)[O-])cc5)c5ccc([nH]5)c(-c5ccc(S(=O)(=O)[O-])cc5)c5nc(c(-c6ccc(S(=O)(=O)[O-])cc6)c6ccc3[nH]6)C=C5)C=C4)cc2)nc(N2CCN(c3ccccc3Cl)CC2)n1
REMARK SMILES IDX 12 1 11 2 10 3 9 4 8 5 7 6 5 7 6 8 4 9 1 10 2 11 3 12 94 13
REMARK SMILES IDX 80 14 79 15 81 16 82 17 93 18 83 19 92 20 84 21 85 22 86 23
REMARK SMILES IDX 90 24 87 25 89 26 91 27 88 28 13 29 14 30 15 31 16 32 17 33
REMARK SMILES IDX 18 34 19 35 20 36 78 37 21 38 77 39 22 40 23 41 24 42 71 43
REMARK SMILES IDX 25 44 76 45 70 46 72 47 26 48 75 49 69 50 68 51 27 53 57 54
REMARK SMILES IDX 38 55 56 56 39 57 42 58 55 59 73 60 40 61 41 62 54 64 74 65
REMARK SMILES IDX 43 66 28 67 29 68 37 69 30 70 36 71 31 72 32 73 33 74 34 75
REMARK SMILES IDX 35 76 58 77 59 78 67 79 60 80 66 81 61 82 62 83 63 84 64 85
REMARK SMILES IDX 65 86 44 87 45 88 53 89 46 90 52 91 47 92 48 93 49 94 50 95
REMARK SMILES IDX 51 96
REMARK H PARENT 72 52 42 63
REMARK Flexibility Score: inf
ROOT
ATOM      1  C   UNL     1       2.034  -2.641  -2.175  1.00  0.00     0.188 C 
ENDROOT
BRANCH   1   2
ATOM      2  C   UNL     1       3.349  -2.693  -1.370  1.00  0.00     0.188 C 
BRANCH   2   3
ATOM      3  O   UNL     1       3.933  -3.939  -1.045  1.00  0.00    -0.376 OA
BRANCH   3   4
ATOM      4  C   UNL     1       3.245  -4.869  -0.224  1.00  0.00     0.202 C 
BRANCH   4   5
ATOM      5  C   UNL     1       2.365  -4.447   0.959  1.00  0.00     0.261 C 
BRANCH   5   6
ATOM      6  O   UNL     1       1.489  -3.347   0.693  1.00  0.00    -0.459 OA
BRANCH   6   7
ATOM      7  C   UNL     1       1.638  -2.295   1.549  1.00  0.00     0.357 C 
ATOM      8  O   UNL     1       2.322  -2.267   2.549  1.00  0.00    -0.244 OA
BRANCH   7   9
ATOM      9  C   UNL     1       0.907  -1.121   1.009  1.00  0.00     0.154 A 
ATOM     10  C   UNL     1      -2.452   0.072  -0.034  1.00  0.00     0.067 C 
ATOM     11  C   UNL     1      -0.992  -0.009   0.295  1.00  0.00     0.044 A 
ATOM     12  C   UNL     1      -0.433  -1.190   0.723  1.00  0.00     0.059 A 
ATOM     13  N   UNL     1      -0.279   1.137   0.197  1.00  0.00    -0.218 NA
ATOM     14  C   UNL     1       1.037   1.091   0.464  1.00  0.00     0.226 A 
ATOM     15  N   UNL     1       1.662  -0.019   0.848  1.00  0.00    -0.206 NA
BRANCH  14  16
ATOM     16  N   UNL     1       1.817   2.211   0.342  1.00  0.00    -0.337 N 
ATOM     17  C   UNL     1       1.309   3.479   0.869  1.00  0.00     0.141 C 
ATOM     18  C   UNL     1       2.567   2.302  -0.917  1.00  0.00     0.141 C 
ATOM     19  C   UNL     1       2.473   4.499   1.002  1.00  0.00     0.138 C 
ATOM     20  C   UNL     1       3.703   3.342  -0.803  1.00  0.00     0.138 C 
ATOM     21  N   UNL     1       3.163   4.612  -0.289  1.00  0.00    -0.367 N 
BRANCH  21  22
ATOM     22  C   UNL     1       3.820   5.775  -0.663  1.00  0.00     0.056 A 
ATOM     23  C   UNL     1       4.668   6.450   0.228  1.00  0.00     0.027 A 
ATOM     24  C   UNL     1       3.670   6.321  -1.959  1.00  0.00     0.064 A 
ATOM     25  C   UNL     1       5.333   7.622  -0.150  1.00  0.00     0.002 A 
ATOM     26  C   UNL     1       4.329   7.496  -2.335  1.00  0.00     0.023 A 
ATOM     27  Cl  UNL     1       2.610   5.595  -3.128  1.00  0.00    -0.082 Cl
ATOM     28  C   UNL     1       5.160   8.147  -1.428  1.00  0.00     0.002 A 
ENDBRANCH  21  22
ENDBRANCH  14  16
ENDBRANCH   7   9
ENDBRANCH   6   7
ENDBRANCH   5   6
ENDBRANCH   4   5
ENDBRANCH   3   4
ENDBRANCH   2   3
ENDBRANCH   1   2
BRANCH   1  29
ATOM     29  O   UNL     1       1.337  -3.828  -2.492  1.00  0.00    -0.376 OA
BRANCH  29  30
ATOM     30  C   UNL     1       1.908  -4.795  -3.358  1.00  0.00     0.202 C 
BRANCH  30  31
ATOM     31  C   UNL     1       2.886  -4.483  -4.501  1.00  0.00     0.261 C 
BRANCH  31  32
ATOM     32  O   UNL     1       3.783  -3.389  -4.306  1.00  0.00    -0.460 OA
BRANCH  32  33
ATOM     33  C   UNL     1       3.566  -2.328  -5.123  1.00  0.00     0.338 C 
ATOM     34  O   UNL     1       2.692  -2.210  -5.965  1.00  0.00    -0.246 OA
BRANCH  33  35
ATOM     35  C   UNL     1       4.452  -1.223  -4.725  1.00  0.00     0.060 A 
ATOM     36  C   UNL     1       3.864  -0.059  -4.219  1.00  0.00     0.016 A 
ATOM     37  C   UNL     1       5.834  -1.306  -4.904  1.00  0.00     0.016 A 
ATOM     38  C   UNL     1       4.661   1.036  -3.900  1.00  0.00     0.010 A 
ATOM     39  C   UNL     1       6.631  -0.199  -4.593  1.00  0.00     0.010 A 
ATOM     40  C   UNL     1       6.046   0.982  -4.104  1.00  0.00    -0.014 A 
BRANCH  40  41
ATOM     41  C   UNL     1       6.848   2.219  -3.958  1.00  0.00     0.031 A 
ATOM     42  C   UNL     1       7.074   3.077  -5.171  1.00  0.00     0.074 A 
ATOM     43  C   UNL     1       7.330   2.599  -2.761  1.00  0.00     0.049 A 
ATOM     44  N   UNL     1       7.767   4.179  -5.288  1.00  0.00    -0.248 NA
ATOM     45  C   UNL     1       6.428   2.632  -6.418  1.00  0.00     0.031 C 
ATOM     46  C   UNL     1       7.127   1.890  -1.498  1.00  0.00     0.029 A 
ATOM     47  N   UNL     1       8.094   3.687  -2.416  1.00  0.00    -0.354 N 
ATOM     48  C   UNL     1       7.644   4.560  -6.618  1.00  0.00     0.074 A 
ATOM     49  C   UNL     1       6.827   3.562  -7.273  1.00  0.00     0.031 C 
ATOM     50  C   UNL     1       7.754   2.561  -0.516  1.00  0.00     0.029 A 
ATOM     51  C   UNL     1       8.438   3.722  -1.085  1.00  0.00     0.049 A 
ATOM     52  H   UNL     1       8.369   4.378  -3.061  1.00  0.00     0.167 HD
ATOM     53  C   UNL     1       8.166   5.643  -7.240  1.00  0.00     0.031 A 
ATOM     54  C   UNL     1       9.237   4.574  -0.413  1.00  0.00     0.031 A 
ATOM     55  C   UNL     1       9.001   6.621  -6.597  1.00  0.00     0.049 A 
ATOM     56  C   UNL     1       9.892   5.716  -1.153  1.00  0.00     0.074 A 
ATOM     57  C   UNL     1       9.592   7.744  -7.151  1.00  0.00     0.029 A 
ATOM     58  N   UNL     1       9.371   6.591  -5.262  1.00  0.00    -0.354 N 
ATOM     59  N   UNL     1       9.767   6.066  -2.411  1.00  0.00    -0.248 NA
ATOM     60  C   UNL     1      10.801   6.576  -0.379  1.00  0.00     0.031 C 
ATOM     61  C   UNL     1      10.365   8.362  -6.163  1.00  0.00     0.029 A 
ATOM     62  C   UNL     1      10.205   7.660  -4.979  1.00  0.00     0.049 A 
ATOM     63  H   UNL     1       9.085   5.910  -4.611  1.00  0.00     0.167 HD
ATOM     64  C   UNL     1      10.558   7.201  -2.571  1.00  0.00     0.074 A 
ATOM     65  C   UNL     1      11.146   7.487  -1.279  1.00  0.00     0.031 C 
ATOM     66  C   UNL     1      10.778   7.939  -3.687  1.00  0.00     0.031 A 
BRANCH  53  67
ATOM     67  C   UNL     1       7.883   5.799  -8.709  1.00  0.00    -0.014 A 
ATOM     68  C   UNL     1       6.612   6.185  -9.168  1.00  0.00     0.010 A 
ATOM     69  C   UNL     1       8.917   5.593  -9.640  1.00  0.00     0.010 A 
ATOM     70  C   UNL     1       6.371   6.333 -10.536  1.00  0.00     0.020 A 
ATOM     71  C   UNL     1       8.688   5.765 -11.007  1.00  0.00     0.020 A 
ATOM     72  C   UNL     1       7.411   6.121 -11.447  1.00  0.00     0.054 A 
BRANCH  72  73
ATOM     73  S   UNL     1       7.080   6.352 -13.216  1.00  0.00     0.124 S 
ATOM     74  O   UNL     1       6.262   5.181 -13.524  1.00  0.00    -0.237 OA
ATOM     75  O   UNL     1       6.379   7.633 -13.246  1.00  0.00    -0.237 OA
ATOM     76  O   UNL     1       8.410   6.358 -13.820  1.00  0.00    -0.744 OA
ENDBRANCH  72  73
ENDBRANCH  53  67
BRANCH  54  77
ATOM     77  C   UNL     1       9.515   4.362   1.035  1.00  0.00    -0.014 A 
ATOM     78  C   UNL     1       9.062   5.281   1.998  1.00  0.00     0.010 A 
ATOM     79  C   UNL     1      10.277   3.255   1.454  1.00  0.00     0.010 A 
ATOM     80  C   UNL     1       9.389   5.112   3.348  1.00  0.00     0.020 A 
ATOM     81  C   UNL     1      10.581   3.067   2.805  1.00  0.00     0.020 A 
ATOM     82  C   UNL     1      10.149   4.007   3.742  1.00  0.00     0.054 A 
BRANCH  82  83
ATOM     83  S   UNL     1      10.543   3.795   5.501  1.00  0.00     0.124 S 
ATOM     84  O   UNL     1      11.568   4.814   5.706  1.00  0.00    -0.237 OA
ATOM     85  O   UNL     1       9.258   4.052   6.146  1.00  0.00    -0.237 OA
ATOM     86  O   UNL     1      11.009   2.413   5.583  1.00  0.00    -0.744 OA
ENDBRANCH  82  83
ENDBRANCH  54  77
BRANCH  66  87
ATOM     87  C   UNL     1      11.657   9.156  -3.561  1.00  0.00    -0.014 A 
ATOM     88  C   UNL     1      13.049   9.042  -3.397  1.00  0.00     0.010 A 
ATOM     89  C   UNL     1      11.085  10.437  -3.676  1.00  0.00     0.010 A 
ATOM     90  C   UNL     1      13.848  10.187  -3.321  1.00  0.00     0.020 A 
ATOM     91  C   UNL     1      11.883  11.583  -3.628  1.00  0.00     0.020 A 
ATOM     92  C   UNL     1      13.259  11.451  -3.437  1.00  0.00     0.054 A 
BRANCH  92  93
ATOM     93  S   UNL     1      14.322  12.920  -3.382  1.00  0.00     0.124 S 
ATOM     94  O   UNL     1      14.666  12.994  -1.964  1.00  0.00    -0.237 OA
ATOM     95  O   UNL     1      15.419  12.558  -4.276  1.00  0.00    -0.237 OA
ATOM     96  O   UNL     1      13.457  13.992  -3.869  1.00  0.00    -0.744 OA
ENDBRANCH  92  93
ENDBRANCH  66  87
ENDBRANCH  40  41
ENDBRANCH  33  35
ENDBRANCH  32  33
ENDBRANCH  31  32
ENDBRANCH  30  31
ENDBRANCH  29  30
ENDBRANCH   1  29
TORSDOF 22
