REMARK SMILES Cc1c(Cl)cc2c(c1C)O[C@H](C(F)(F)F)C(C(=O)OCCOCCOCCOC(=O)c1ccc(-c3c4nc(c(-c5ccc(S(=O)(=O)[O-])cc5)c5ccc([nH]5)c(-c5ccc(S(=O)(=O)[O-])cc5)c5nc(c(-c6ccc(S(=O)(=O)[O-])cc6)c6ccc3[nH]6)C=C5)C=C4)cc1)=C2
REMARK SMILES IDX 24 1 23 2 22 3 21 4 20 5 19 6 17 7 18 8 16 9 1 10 2 11 3 12
REMARK SMILES IDX 8 13 4 14 5 15 7 16 9 17 6 18 10 19 91 20 11 21 12 22 13 23
REMARK SMILES IDX 14 24 15 25 25 26 26 27 27 28 28 29 29 30 30 31 31 32 32 33
REMARK SMILES IDX 90 34 33 35 89 36 34 37 35 38 36 39 83 40 37 41 88 42 82 43
REMARK SMILES IDX 84 44 38 45 87 46 81 47 80 48 39 50 69 51 50 52 68 53 51 54
REMARK SMILES IDX 54 55 67 56 85 57 52 58 53 59 66 61 86 62 55 63 40 64 41 65
REMARK SMILES IDX 49 66 42 67 48 68 43 69 44 70 45 71 46 72 47 73 70 74 71 75
REMARK SMILES IDX 79 76 72 77 78 78 73 79 74 80 75 81 76 82 77 83 56 84 57 85
REMARK SMILES IDX 65 86 58 87 64 88 59 89 60 90 61 91 62 92 63 93
REMARK H PARENT 84 49 54 60
REMARK Flexibility Score: inf
ROOT
ATOM      1  C   UNL     1       1.458  -4.865   6.922  1.00  0.00     0.188 C 
ENDROOT
BRANCH   1   2
ATOM      2  C   UNL     1       0.249  -4.554   7.830  1.00  0.00     0.188 C 
BRANCH   2   3
ATOM      3  O   UNL     1      -0.256  -5.537   8.707  1.00  0.00    -0.376 OA
BRANCH   3   4
ATOM      4  C   UNL     1      -0.854  -6.732   8.238  1.00  0.00     0.202 C 
BRANCH   4   5
ATOM      5  C   UNL     1      -1.557  -6.870   6.883  1.00  0.00     0.261 C 
BRANCH   5   6
ATOM      6  O   UNL     1      -0.990  -6.121   5.806  1.00  0.00    -0.460 OA
BRANCH   6   7
ATOM      7  C   UNL     1      -1.811  -5.185   5.273  1.00  0.00     0.338 C 
ATOM      8  O   UNL     1      -2.961  -4.945   5.604  1.00  0.00    -0.246 OA
BRANCH   7   9
ATOM      9  C   UNL     1      -1.073  -4.395   4.274  1.00  0.00     0.087 C 
ATOM     10  C   UNL     1       1.020   0.115   0.074  1.00  0.00     0.046 C 
ATOM     11  C   UNL     1       0.530  -0.703   1.243  1.00  0.00    -0.026 A 
ATOM     12  C   UNL     1      -0.104  -0.099   2.347  1.00  0.00     0.045 A 
ATOM     13  C   UNL     1       0.691  -2.112   1.242  1.00  0.00    -0.004 A 
ATOM     14  Cl  UNL     1      -0.293   1.614   2.488  1.00  0.00    -0.084 Cl
ATOM     15  C   UNL     1      -0.629  -0.872   3.386  1.00  0.00     0.032 A 
ATOM     16  C   UNL     1       0.165  -2.877   2.306  1.00  0.00     0.131 A 
ATOM     17  C   UNL     1       1.398  -2.844   0.125  1.00  0.00     0.049 C 
ATOM     18  C   UNL     1      -0.523  -2.261   3.353  1.00  0.00     0.019 A 
ATOM     19  O   UNL     1       0.360  -4.231   2.243  1.00  0.00    -0.475 OA
ATOM     20  C   UNL     1      -1.177  -3.064   4.370  1.00  0.00     0.027 C 
ATOM     21  C   UNL     1      -0.270  -5.100   3.220  1.00  0.00     0.316 C 
BRANCH  21  22
ATOM     22  C   UNL     1      -1.085  -6.157   2.461  1.00  0.00     0.430 C 
ATOM     23  F   UNL     1      -0.336  -6.759   1.504  1.00  0.00    -0.167 F 
ATOM     24  F   UNL     1      -1.521  -7.144   3.280  1.00  0.00    -0.167 F 
ATOM     25  F   UNL     1      -2.169  -5.628   1.851  1.00  0.00    -0.167 F 
ENDBRANCH  21  22
ENDBRANCH   7   9
ENDBRANCH   6   7
ENDBRANCH   5   6
ENDBRANCH   4   5
ENDBRANCH   3   4
ENDBRANCH   2   3
ENDBRANCH   1   2
BRANCH   1  26
ATOM     26  O   UNL     1       2.135  -6.106   7.007  1.00  0.00    -0.376 OA
BRANCH  26  27
ATOM     27  C   UNL     1       2.597  -6.552   8.273  1.00  0.00     0.202 C 
BRANCH  27  28
ATOM     28  C   UNL     1       3.475  -5.646   9.143  1.00  0.00     0.261 C 
BRANCH  28  29
ATOM     29  O   UNL     1       2.907  -4.355   9.406  1.00  0.00    -0.460 OA
BRANCH  29  30
ATOM     30  C   UNL     1       3.614  -3.305   8.918  1.00  0.00     0.338 C 
ATOM     31  O   UNL     1       4.671  -3.345   8.313  1.00  0.00    -0.246 OA
BRANCH  30  32
ATOM     32  C   UNL     1       2.813  -2.076   9.054  1.00  0.00     0.060 A 
ATOM     33  C   UNL     1       2.461  -1.384   7.887  1.00  0.00     0.016 A 
ATOM     34  C   UNL     1       2.450  -1.587  10.310  1.00  0.00     0.016 A 
ATOM     35  C   UNL     1       1.754  -0.186   7.974  1.00  0.00     0.010 A 
ATOM     36  C   UNL     1       1.766  -0.371  10.396  1.00  0.00     0.010 A 
ATOM     37  C   UNL     1       1.437   0.345   9.231  1.00  0.00    -0.014 A 
BRANCH  37  38
ATOM     38  C   UNL     1       0.918   1.729   9.329  1.00  0.00     0.031 A 
ATOM     39  C   UNL     1       1.901   2.853   9.514  1.00  0.00     0.074 A 
ATOM     40  C   UNL     1      -0.397   1.988   9.224  1.00  0.00     0.049 A 
ATOM     41  N   UNL     1       1.677   4.135   9.635  1.00  0.00    -0.248 NA
ATOM     42  C   UNL     1       3.325   2.480   9.562  1.00  0.00     0.031 C 
ATOM     43  C   UNL     1      -1.441   0.992   8.987  1.00  0.00     0.029 A 
ATOM     44  N   UNL     1      -1.077   3.177   9.302  1.00  0.00    -0.354 N 
ATOM     45  C   UNL     1       2.929   4.723   9.763  1.00  0.00     0.074 A 
ATOM     46  C   UNL     1       3.906   3.657   9.738  1.00  0.00     0.031 C 
ATOM     47  C   UNL     1      -2.632   1.614   8.940  1.00  0.00     0.029 A 
ATOM     48  C   UNL     1      -2.439   3.045   9.173  1.00  0.00     0.049 A 
ATOM     49  H   UNL     1      -0.631   4.045   9.438  1.00  0.00     0.167 HD
ATOM     50  C   UNL     1       3.239   6.035   9.883  1.00  0.00     0.031 A 
ATOM     51  C   UNL     1      -3.416   3.970   9.249  1.00  0.00     0.031 A 
ATOM     52  C   UNL     1       2.267   7.093   9.942  1.00  0.00     0.049 A 
ATOM     53  C   UNL     1      -3.053   5.412   9.495  1.00  0.00     0.074 A 
ATOM     54  C   UNL     1       2.483   8.452  10.078  1.00  0.00     0.029 A 
ATOM     55  N   UNL     1       0.894   6.909   9.876  1.00  0.00    -0.354 N 
ATOM     56  N   UNL     1      -1.865   5.955   9.611  1.00  0.00    -0.248 NA
ATOM     57  C   UNL     1      -4.165   6.367   9.620  1.00  0.00     0.031 C 
ATOM     58  C   UNL     1       1.238   9.086  10.148  1.00  0.00     0.029 A 
ATOM     59  C   UNL     1       0.249   8.127   9.996  1.00  0.00     0.049 A 
ATOM     60  H   UNL     1       0.445   6.040   9.762  1.00  0.00     0.167 HD
ATOM     61  C   UNL     1      -2.085   7.317   9.797  1.00  0.00     0.074 A 
ATOM     62  C   UNL     1      -3.519   7.516   9.770  1.00  0.00     0.031 C 
ATOM     63  C   UNL     1      -1.180   8.312   9.970  1.00  0.00     0.031 A 
BRANCH  50  64
ATOM     64  C   UNL     1       4.695   6.395   9.985  1.00  0.00    -0.014 A 
ATOM     65  C   UNL     1       5.537   6.323   8.861  1.00  0.00     0.010 A 
ATOM     66  C   UNL     1       5.220   6.849  11.208  1.00  0.00     0.010 A 
ATOM     67  C   UNL     1       6.886   6.671   8.965  1.00  0.00     0.020 A 
ATOM     68  C   UNL     1       6.563   7.221  11.310  1.00  0.00     0.020 A 
ATOM     69  C   UNL     1       7.391   7.117  10.190  1.00  0.00     0.054 A 
BRANCH  69  70
ATOM     70  S   UNL     1       9.139   7.587  10.288  1.00  0.00     0.124 S 
ATOM     71  O   UNL     1       9.806   6.291  10.183  1.00  0.00    -0.237 OA
ATOM     72  O   UNL     1       9.298   8.469   9.135  1.00  0.00    -0.237 OA
ATOM     73  O   UNL     1       9.252   8.240  11.589  1.00  0.00    -0.744 OA
ENDBRANCH  69  70
ENDBRANCH  50  64
BRANCH  51  74
ATOM     74  C   UNL     1      -4.839   3.561   9.098  1.00  0.00    -0.014 A 
ATOM     75  C   UNL     1      -5.567   3.922   7.952  1.00  0.00     0.010 A 
ATOM     76  C   UNL     1      -5.472   2.801  10.099  1.00  0.00     0.010 A 
ATOM     77  C   UNL     1      -6.904   3.537   7.811  1.00  0.00     0.020 A 
ATOM     78  C   UNL     1      -6.801   2.394   9.952  1.00  0.00     0.020 A 
ATOM     79  C   UNL     1      -7.511   2.771   8.811  1.00  0.00     0.054 A 
BRANCH  79  80
ATOM     80  S   UNL     1      -9.229   2.235   8.577  1.00  0.00     0.124 S 
ATOM     81  O   UNL     1      -9.964   3.485   8.745  1.00  0.00    -0.237 OA
ATOM     82  O   UNL     1      -9.206   1.690   7.222  1.00  0.00    -0.237 OA
ATOM     83  O   UNL     1      -9.426   1.246   9.636  1.00  0.00    -0.744 OA
ENDBRANCH  79  80
ENDBRANCH  51  74
BRANCH  63  84
ATOM     84  C   UNL     1      -1.699   9.717  10.123  1.00  0.00    -0.014 A 
ATOM     85  C   UNL     1      -2.306  10.141  11.317  1.00  0.00     0.010 A 
ATOM     86  C   UNL     1      -1.492  10.650   9.089  1.00  0.00     0.010 A 
ATOM     87  C   UNL     1      -2.709  11.471  11.470  1.00  0.00     0.020 A 
ATOM     88  C   UNL     1      -1.871  11.985   9.248  1.00  0.00     0.020 A 
ATOM     89  C   UNL     1      -2.485  12.386  10.436  1.00  0.00     0.054 A 
BRANCH  89  90
ATOM     90  S   UNL     1      -2.957  14.119  10.689  1.00  0.00     0.124 S 
ATOM     91  O   UNL     1      -4.415  14.050  10.630  1.00  0.00    -0.237 OA
ATOM     92  O   UNL     1      -2.395  14.415  12.004  1.00  0.00    -0.237 OA
ATOM     93  O   UNL     1      -2.322  14.819   9.574  1.00  0.00    -0.744 OA
ENDBRANCH  89  90
ENDBRANCH  63  84
ENDBRANCH  37  38
ENDBRANCH  30  32
ENDBRANCH  29  30
ENDBRANCH  28  29
ENDBRANCH  27  28
ENDBRANCH  26  27
ENDBRANCH   1  26
TORSDOF 21
