REMARK SMILES COc1cc(/C=C/C(=O)c2ccc(OCC(=O)OCCOCCOCCOC(=O)c3ccc(-c4c5nc(c(-c6ccc(S(=O)(=O)[O-])cc6)c6ccc([nH]6)c(-c6ccc(S(=O)(=O)[O-])cc6)c6nc(c(-c7ccc(S(=O)(=O)[O-])cc7)c7ccc4[nH]7)C=C6)C=C5)cc3)cc2)cc2c1OCCO2
REMARK SMILES IDX 21 1 20 2 19 3 18 4 16 5 17 6 15 7 14 8 13 9 10 10 11 11
REMARK SMILES IDX 91 12 12 13 90 14 8 15 9 16 7 17 6 18 5 19 3 20 4 21 94 22
REMARK SMILES IDX 93 23 95 24 92 25 98 26 96 27 97 28 2 29 1 30 22 31 23 32
REMARK SMILES IDX 24 33 25 34 26 35 27 36 28 37 29 38 30 39 31 40 89 41 32 42
REMARK SMILES IDX 88 43 33 44 34 45 35 46 82 47 36 48 87 49 81 50 83 51 37 52
REMARK SMILES IDX 86 53 80 54 79 55 38 57 68 58 49 59 67 60 50 61 53 62 66 63
REMARK SMILES IDX 84 64 51 65 52 66 65 68 85 69 54 70 39 71 40 72 48 73 41 74
REMARK SMILES IDX 47 75 42 76 43 77 44 78 45 79 46 80 69 81 70 82 78 83 71 84
REMARK SMILES IDX 77 85 72 86 73 87 74 88 75 89 76 90 55 91 56 92 64 93 57 94
REMARK SMILES IDX 63 95 58 96 59 97 60 98 61 99 62 100
REMARK H PARENT 83 56 53 67
REMARK Flexibility Score: inf
ROOT
ATOM      1  O   UNL     1      -6.264  -2.019   2.184  1.00  0.00    -0.376 OA
ENDROOT
BRANCH   1   2
ATOM      2  C   UNL     1      -7.146  -2.073   3.303  1.00  0.00     0.202 C 
BRANCH   2   3
ATOM      3  C   UNL     1      -8.354  -2.998   3.103  1.00  0.00     0.261 C 
BRANCH   3   4
ATOM      4  O   UNL     1      -7.932  -4.383   3.049  1.00  0.00    -0.461 OA
BRANCH   4   5
ATOM      5  C   UNL     1      -8.501  -5.175   2.102  1.00  0.00     0.344 C 
ATOM      6  O   UNL     1      -9.507  -4.873   1.470  1.00  0.00    -0.248 OA
BRANCH   5   7
ATOM      7  C   UNL     1      -7.648  -6.425   1.777  1.00  0.00     0.351 C 
BRANCH   7   8
ATOM      8  O   UNL     1      -6.802  -6.931   2.805  1.00  0.00    -0.482 OA
BRANCH   8   9
ATOM      9  C   UNL     1      -5.589  -7.493   2.485  1.00  0.00     0.120 A 
ATOM     10  C   UNL     1      -2.869  -8.264   2.122  1.00  0.00     0.022 A 
ATOM     11  C   UNL     1      -3.413  -8.117   3.404  1.00  0.00     0.016 A 
ATOM     12  C   UNL     1      -3.733  -8.161   1.028  1.00  0.00     0.016 A 
ATOM     13  C   UNL     1      -4.753  -7.729   3.580  1.00  0.00     0.047 A 
ATOM     14  C   UNL     1      -5.094  -7.793   1.213  1.00  0.00     0.047 A 
BRANCH  10  15
ATOM     15  C   UNL     1      -1.381  -8.458   2.030  1.00  0.00     0.185 C 
ATOM     16  O   UNL     1      -0.840  -9.284   2.760  1.00  0.00    -0.289 OA
BRANCH  15  17
ATOM     17  C   UNL     1      -0.567  -7.505   1.195  1.00  0.00     0.053 C 
ATOM     18  C   UNL     1       0.546  -6.966   1.739  1.00  0.00     0.012 C 
BRANCH  18  19
ATOM     19  C   UNL     1       1.321  -5.809   1.228  1.00  0.00    -0.018 A 
ATOM     20  C   UNL     1       1.492  -3.346   1.043  1.00  0.00     0.165 A 
ATOM     21  C   UNL     1       0.824  -4.518   1.440  1.00  0.00     0.058 A 
ATOM     22  C   UNL     1       2.777  -3.459   0.529  1.00  0.00     0.203 A 
ATOM     23  C   UNL     1       3.336  -4.745   0.391  1.00  0.00     0.165 A 
ATOM     24  O   UNL     1       3.482  -2.313   0.260  1.00  0.00    -0.483 OA
ATOM     25  C   UNL     1       2.600  -5.910   0.691  1.00  0.00     0.058 A 
ATOM     26  O   UNL     1       4.643  -4.938   0.005  1.00  0.00    -0.486 OA
ATOM     27  C   UNL     1       4.723  -2.560  -0.402  1.00  0.00     0.271 C 
ATOM     28  C   UNL     1       5.420  -3.754   0.220  1.00  0.00     0.271 C 
BRANCH  20  29
ATOM     29  O   UNL     1       0.801  -2.188   1.290  1.00  0.00    -0.493 OA
ATOM     30  C   UNL     1       1.025  -1.095   0.401  1.00  0.00     0.278 C 
ENDBRANCH  20  29
ENDBRANCH  18  19
ENDBRANCH  15  17
ENDBRANCH  10  15
ENDBRANCH   8   9
ENDBRANCH   7   8
ENDBRANCH   5   7
ENDBRANCH   4   5
ENDBRANCH   3   4
ENDBRANCH   2   3
ENDBRANCH   1   2
BRANCH   1  31
ATOM     31  C   UNL     1      -5.574  -3.224   1.860  1.00  0.00     0.188 C 
BRANCH  31  32
ATOM     32  C   UNL     1      -5.012  -4.027   3.041  1.00  0.00     0.188 C 
BRANCH  32  33
ATOM     33  O   UNL     1      -4.219  -3.216   3.899  1.00  0.00    -0.376 OA
BRANCH  33  34
ATOM     34  C   UNL     1      -2.840  -3.552   3.868  1.00  0.00     0.202 C 
BRANCH  34  35
ATOM     35  C   UNL     1      -2.110  -2.810   2.740  1.00  0.00     0.261 C 
BRANCH  35  36
ATOM     36  O   UNL     1      -2.374  -3.170   1.351  1.00  0.00    -0.460 OA
BRANCH  36  37
ATOM     37  C   UNL     1      -2.415  -4.477   1.030  1.00  0.00     0.338 C 
ATOM     38  O   UNL     1      -2.342  -5.400   1.819  1.00  0.00    -0.246 OA
BRANCH  37  39
ATOM     39  C   UNL     1      -2.577  -4.761  -0.410  1.00  0.00     0.060 A 
ATOM     40  C   UNL     1      -3.745  -5.411  -0.811  1.00  0.00     0.016 A 
ATOM     41  C   UNL     1      -1.496  -4.685  -1.290  1.00  0.00     0.016 A 
ATOM     42  C   UNL     1      -3.815  -6.034  -2.061  1.00  0.00     0.010 A 
ATOM     43  C   UNL     1      -1.584  -5.271  -2.564  1.00  0.00     0.010 A 
ATOM     44  C   UNL     1      -2.740  -5.961  -2.962  1.00  0.00    -0.014 A 
BRANCH  44  45
ATOM     45  C   UNL     1      -2.881  -6.491  -4.350  1.00  0.00     0.031 A 
ATOM     46  C   UNL     1      -2.057  -7.641  -4.872  1.00  0.00     0.074 A 
ATOM     47  C   UNL     1      -3.767  -5.894  -5.172  1.00  0.00     0.049 A 
ATOM     48  N   UNL     1      -1.984  -8.110  -6.094  1.00  0.00    -0.248 NA
ATOM     49  C   UNL     1      -1.218  -8.363  -3.904  1.00  0.00     0.031 C 
ATOM     50  C   UNL     1      -4.657  -4.793  -4.795  1.00  0.00     0.029 A 
ATOM     51  N   UNL     1      -4.065  -6.123  -6.493  1.00  0.00    -0.354 N 
ATOM     52  C   UNL     1      -1.075  -9.163  -6.055  1.00  0.00     0.074 A 
ATOM     53  C   UNL     1      -0.628  -9.268  -4.679  1.00  0.00     0.031 C 
ATOM     54  C   UNL     1      -5.409  -4.454  -5.850  1.00  0.00     0.029 A 
ATOM     55  C   UNL     1      -5.003  -5.255  -6.999  1.00  0.00     0.049 A 
ATOM     56  H   UNL     1      -3.647  -6.839  -7.025  1.00  0.00     0.167 HD
ATOM     57  C   UNL     1      -0.647  -9.957  -7.069  1.00  0.00     0.031 A 
ATOM     58  C   UNL     1      -5.458  -5.075  -8.253  1.00  0.00     0.031 A 
ATOM     59  C   UNL     1      -1.086  -9.851  -8.440  1.00  0.00     0.049 A 
ATOM     60  C   UNL     1      -4.916  -5.915  -9.369  1.00  0.00     0.074 A 
ATOM     61  C   UNL     1      -0.700 -10.616  -9.530  1.00  0.00     0.029 A 
ATOM     62  N   UNL     1      -2.003  -8.927  -8.915  1.00  0.00    -0.354 N 
ATOM     63  N   UNL     1      -4.029  -6.877  -9.313  1.00  0.00    -0.248 NA
ATOM     64  C   UNL     1      -5.427  -5.633 -10.717  1.00  0.00     0.031 C 
ATOM     65  C   UNL     1      -1.349 -10.125 -10.669  1.00  0.00     0.029 A 
ATOM     66  C   UNL     1      -2.176  -9.085 -10.282  1.00  0.00     0.049 A 
ATOM     67  H   UNL     1      -2.464  -8.255  -8.362  1.00  0.00     0.167 HD
ATOM     68  C   UNL     1      -3.875  -7.319 -10.621  1.00  0.00     0.074 A 
ATOM     69  C   UNL     1      -4.776  -6.534 -11.441  1.00  0.00     0.031 C 
ATOM     70  C   UNL     1      -3.056  -8.289 -11.097  1.00  0.00     0.031 A 
BRANCH  57  71
ATOM     71  C   UNL     1       0.398 -10.999  -6.756  1.00  0.00    -0.014 A 
ATOM     72  C   UNL     1       0.064 -12.201  -6.107  1.00  0.00     0.010 A 
ATOM     73  C   UNL     1       1.722 -10.806  -7.196  1.00  0.00     0.010 A 
ATOM     74  C   UNL     1       1.041 -13.177  -5.878  1.00  0.00     0.020 A 
ATOM     75  C   UNL     1       2.696 -11.787  -6.986  1.00  0.00     0.020 A 
ATOM     76  C   UNL     1       2.353 -12.961  -6.313  1.00  0.00     0.054 A 
BRANCH  76  77
ATOM     77  S   UNL     1       3.599 -14.250  -6.027  1.00  0.00     0.124 S 
ATOM     78  O   UNL     1       3.888 -14.077  -4.606  1.00  0.00    -0.237 OA
ATOM     79  O   UNL     1       2.884 -15.475  -6.377  1.00  0.00    -0.237 OA
ATOM     80  O   UNL     1       4.686 -13.888  -6.932  1.00  0.00    -0.744 OA
ENDBRANCH  76  77
ENDBRANCH  57  71
BRANCH  58  81
ATOM     81  C   UNL     1      -6.450  -4.000  -8.512  1.00  0.00    -0.014 A 
ATOM     82  C   UNL     1      -7.793  -4.315  -8.774  1.00  0.00     0.010 A 
ATOM     83  C   UNL     1      -6.060  -2.650  -8.432  1.00  0.00     0.010 A 
ATOM     84  C   UNL     1      -8.733  -3.296  -8.944  1.00  0.00     0.020 A 
ATOM     85  C   UNL     1      -7.002  -1.630  -8.574  1.00  0.00     0.020 A 
ATOM     86  C   UNL     1      -8.333  -1.960  -8.835  1.00  0.00     0.054 A 
BRANCH  86  87
ATOM     87  S   UNL     1      -9.583  -0.651  -8.958  1.00  0.00     0.124 S 
ATOM     88  O   UNL     1      -9.749  -0.527 -10.402  1.00  0.00    -0.237 OA
ATOM     89  O   UNL     1     -10.717  -1.223  -8.236  1.00  0.00    -0.237 OA
ATOM     90  O   UNL     1      -8.946   0.486  -8.298  1.00  0.00    -0.744 OA
ENDBRANCH  86  87
ENDBRANCH  58  81
BRANCH  70  91
ATOM     91  C   UNL     1      -3.108  -8.559 -12.575  1.00  0.00    -0.014 A 
ATOM     92  C   UNL     1      -2.502  -7.682 -13.492  1.00  0.00     0.010 A 
ATOM     93  C   UNL     1      -3.762  -9.709 -13.054  1.00  0.00     0.010 A 
ATOM     94  C   UNL     1      -2.578  -7.932 -14.866  1.00  0.00     0.020 A 
ATOM     95  C   UNL     1      -3.824  -9.972 -14.425  1.00  0.00     0.020 A 
ATOM     96  C   UNL     1      -3.245  -9.072 -15.324  1.00  0.00     0.054 A 
BRANCH  96  97
ATOM     97  S   UNL     1      -3.316  -9.390 -17.109  1.00  0.00     0.124 S 
ATOM     98  O   UNL     1      -4.366  -8.471 -17.539  1.00  0.00    -0.237 OA
ATOM     99  O   UNL     1      -1.966  -9.053 -17.552  1.00  0.00    -0.237 OA
ATOM    100  O   UNL     1      -3.656 -10.809 -17.193  1.00  0.00    -0.744 OA
ENDBRANCH  96  97
ENDBRANCH  70  91
ENDBRANCH  44  45
ENDBRANCH  37  39
ENDBRANCH  36  37
ENDBRANCH  35  36
ENDBRANCH  34  35
ENDBRANCH  33  34
ENDBRANCH  32  33
ENDBRANCH  31  32
ENDBRANCH   1  31
TORSDOF 26
