REMARK SMILES Cc1cccc(CS(=O)(=O)c2ccc(C(=O)OCCOCCOCCOC(=O)c3ccc(-c4c5nc(c(-c6ccc(S(=O)(=O)[O-])cc6)c6ccc([nH]6)c(-c6ccc(S(=O)(=O)[O-])cc6)c6nc(c(-c7ccc(S(=O)(=O)[O-])cc7)c7ccc4[nH]7)C=C6)C=C5)cc3)cc2F)n1
REMARK SMILES IDX 21 1 20 2 19 3 18 4 17 5 15 6 16 7 14 8 11 9 12 10 90 11
REMARK SMILES IDX 13 12 89 13 91 14 8 15 9 16 10 17 7 18 6 19 1 20 2 21 3 22
REMARK SMILES IDX 92 23 4 24 5 25 22 26 23 27 24 28 25 29 26 30 27 31 28 32
REMARK SMILES IDX 29 33 30 34 88 35 31 36 87 37 32 38 33 39 34 40 81 41 35 42
REMARK SMILES IDX 86 43 80 44 82 45 36 46 85 47 79 48 78 49 37 51 67 52 48 53
REMARK SMILES IDX 66 54 49 55 52 56 65 57 83 58 50 59 51 60 64 62 84 63 53 64
REMARK SMILES IDX 38 65 39 66 47 67 40 68 46 69 41 70 42 71 43 72 44 73 45 74
REMARK SMILES IDX 68 75 69 76 77 77 70 78 76 79 71 80 72 81 73 82 74 83 75 84
REMARK SMILES IDX 54 85 55 86 63 87 56 88 62 89 57 90 58 91 59 92 60 93 61 94
REMARK H PARENT 82 50 52 61
REMARK Flexibility Score: inf
ROOT
ATOM      1  C   UNL     1      -3.531  -1.158   6.712  1.00  0.00     0.188 C 
ENDROOT
BRANCH   1   2
ATOM      2  O   UNL     1      -3.704  -1.571   8.046  1.00  0.00    -0.376 OA
BRANCH   2   3
ATOM      3  C   UNL     1      -3.023  -0.917   9.103  1.00  0.00     0.202 C 
BRANCH   3   4
ATOM      4  C   UNL     1      -2.116   0.323   8.976  1.00  0.00     0.261 C 
BRANCH   4   5
ATOM      5  O   UNL     1      -2.131   1.048   7.743  1.00  0.00    -0.460 OA
BRANCH   5   6
ATOM      6  C   UNL     1      -1.012   0.916   6.988  1.00  0.00     0.338 C 
ATOM      7  O   UNL     1      -0.018   0.267   7.266  1.00  0.00    -0.246 OA
BRANCH   6   8
ATOM      8  C   UNL     1      -1.214   1.524   5.655  1.00  0.00     0.063 A 
ATOM      9  C   UNL     1      -1.365   2.643   3.083  1.00  0.00     0.103 A 
ATOM     10  C   UNL     1      -0.838   1.362   3.266  1.00  0.00     0.024 A 
ATOM     11  C   UNL     1      -1.853   3.335   4.197  1.00  0.00     0.142 A 
ATOM     12  C   UNL     1      -0.773   0.801   4.543  1.00  0.00     0.017 A 
ATOM     13  C   UNL     1      -1.788   2.783   5.481  1.00  0.00     0.056 A 
ATOM     14  F   UNL     1      -2.345   4.576   4.097  1.00  0.00    -0.206 F 
BRANCH   9  15
ATOM     15  S   UNL     1      -1.196   3.501   1.531  1.00  0.00     0.186 S 
ATOM     16  O   UNL     1       0.214   3.827   1.415  1.00  0.00    -0.223 OA
ATOM     17  O   UNL     1      -2.162   4.592   1.555  1.00  0.00    -0.223 OA
BRANCH  15  18
ATOM     18  C   UNL     1      -1.723   2.505   0.163  1.00  0.00     0.198 C 
BRANCH  18  19
ATOM     19  C   UNL     1      -1.071   1.162   0.079  1.00  0.00     0.056 A 
ATOM     20  C   UNL     1       2.385  -0.115  -0.019  1.00  0.00     0.067 C 
ATOM     21  C   UNL     1       0.885  -0.108  -0.027  1.00  0.00     0.038 A 
ATOM     22  C   UNL     1       0.165  -1.291  -0.105  1.00  0.00     0.023 A 
ATOM     23  N   UNL     1       0.280   1.105   0.054  1.00  0.00    -0.257 NA
ATOM     24  C   UNL     1      -1.223  -1.226  -0.117  1.00  0.00     0.004 A 
ATOM     25  C   UNL     1      -1.852   0.013  -0.032  1.00  0.00     0.025 A 
ENDBRANCH  18  19
ENDBRANCH  15  18
ENDBRANCH   9  15
ENDBRANCH   6   8
ENDBRANCH   5   6
ENDBRANCH   4   5
ENDBRANCH   3   4
ENDBRANCH   2   3
ENDBRANCH   1   2
BRANCH   1  26
ATOM     26  C   UNL     1      -4.413   0.019   6.247  1.00  0.00     0.188 C 
BRANCH  26  27
ATOM     27  O   UNL     1      -5.211   0.727   7.176  1.00  0.00    -0.376 OA
BRANCH  27  28
ATOM     28  C   UNL     1      -6.149   0.017   7.971  1.00  0.00     0.202 C 
BRANCH  28  29
ATOM     29  C   UNL     1      -7.001  -1.149   7.429  1.00  0.00     0.261 C 
BRANCH  29  30
ATOM     30  O   UNL     1      -6.376  -2.038   6.494  1.00  0.00    -0.460 OA
BRANCH  30  31
ATOM     31  C   UNL     1      -6.814  -1.955   5.213  1.00  0.00     0.338 C 
ATOM     32  O   UNL     1      -7.665  -1.199   4.767  1.00  0.00    -0.246 OA
BRANCH  31  33
ATOM     33  C   UNL     1      -5.966  -2.812   4.365  1.00  0.00     0.060 A 
ATOM     34  C   UNL     1      -5.051  -2.215   3.485  1.00  0.00     0.016 A 
ATOM     35  C   UNL     1      -6.079  -4.200   4.433  1.00  0.00     0.016 A 
ATOM     36  C   UNL     1      -4.221  -3.008   2.692  1.00  0.00     0.010 A 
ATOM     37  C   UNL     1      -5.271  -4.991   3.612  1.00  0.00     0.010 A 
ATOM     38  C   UNL     1      -4.339  -4.402   2.738  1.00  0.00    -0.014 A 
BRANCH  38  39
ATOM     39  C   UNL     1      -3.557  -5.259   1.816  1.00  0.00     0.031 A 
ATOM     40  C   UNL     1      -4.221  -5.804   0.583  1.00  0.00     0.074 A 
ATOM     41  C   UNL     1      -2.281  -5.580   2.096  1.00  0.00     0.049 A 
ATOM     42  N   UNL     1      -3.767  -6.670  -0.283  1.00  0.00    -0.248 NA
ATOM     43  C   UNL     1      -5.573  -5.303   0.290  1.00  0.00     0.031 C 
ATOM     44  C   UNL     1      -1.512  -5.075   3.233  1.00  0.00     0.029 A 
ATOM     45  N   UNL     1      -1.416  -6.433   1.456  1.00  0.00    -0.354 N 
ATOM     46  C   UNL     1      -4.784  -6.838  -1.216  1.00  0.00     0.074 A 
ATOM     47  C   UNL     1      -5.881  -5.989  -0.802  1.00  0.00     0.031 C 
ATOM     48  C   UNL     1      -0.297  -5.652   3.227  1.00  0.00     0.029 A 
ATOM     49  C   UNL     1      -0.222  -6.601   2.117  1.00  0.00     0.049 A 
ATOM     50  H   UNL     1      -1.631  -6.881   0.606  1.00  0.00     0.167 HD
ATOM     51  C   UNL     1      -4.802  -7.631  -2.313  1.00  0.00     0.031 A 
ATOM     52  C   UNL     1       0.795  -7.455   1.882  1.00  0.00     0.031 A 
ATOM     53  C   UNL     1      -3.720  -8.497  -2.701  1.00  0.00     0.049 A 
ATOM     54  C   UNL     1       0.706  -8.410   0.719  1.00  0.00     0.074 A 
ATOM     55  C   UNL     1      -3.635  -9.324  -3.808  1.00  0.00     0.029 A 
ATOM     56  N   UNL     1      -2.544  -8.668  -1.986  1.00  0.00    -0.354 N 
ATOM     57  N   UNL     1      -0.242  -8.526  -0.181  1.00  0.00    -0.248 NA
ATOM     58  C   UNL     1       1.822  -9.351   0.543  1.00  0.00     0.031 C 
ATOM     59  C   UNL     1      -2.441 -10.046  -3.724  1.00  0.00     0.029 A 
ATOM     60  C   UNL     1      -1.748  -9.618  -2.603  1.00  0.00     0.049 A 
ATOM     61  H   UNL     1      -2.310  -8.185  -1.160  1.00  0.00     0.167 HD
ATOM     62  C   UNL     1       0.172  -9.541  -1.038  1.00  0.00     0.074 A 
ATOM     63  C   UNL     1       1.466  -9.988  -0.565  1.00  0.00     0.031 C 
ATOM     64  C   UNL     1      -0.463 -10.060  -2.119  1.00  0.00     0.031 A 
BRANCH  51  65
ATOM     65  C   UNL     1      -6.053  -7.636  -3.151  1.00  0.00    -0.014 A 
ATOM     66  C   UNL     1      -6.412  -6.524  -3.934  1.00  0.00     0.010 A 
ATOM     67  C   UNL     1      -6.858  -8.789  -3.192  1.00  0.00     0.010 A 
ATOM     68  C   UNL     1      -7.571  -6.553  -4.714  1.00  0.00     0.020 A 
ATOM     69  C   UNL     1      -8.002  -8.833  -3.993  1.00  0.00     0.020 A 
ATOM     70  C   UNL     1      -8.359  -7.708  -4.738  1.00  0.00     0.054 A 
BRANCH  70  71
ATOM     71  S   UNL     1      -9.845  -7.723  -5.779  1.00  0.00     0.124 S 
ATOM     72  O   UNL     1     -10.722  -6.801  -5.062  1.00  0.00    -0.237 OA
ATOM     73  O   UNL     1      -9.339  -7.239  -7.061  1.00  0.00    -0.237 OA
ATOM     74  O   UNL     1     -10.266  -9.121  -5.764  1.00  0.00    -0.744 OA
ENDBRANCH  70  71
ENDBRANCH  51  65
BRANCH  52  75
ATOM     75  C   UNL     1       1.972  -7.481   2.795  1.00  0.00    -0.014 A 
ATOM     76  C   UNL     1       3.237  -7.066   2.343  1.00  0.00     0.010 A 
ATOM     77  C   UNL     1       1.835  -7.928   4.123  1.00  0.00     0.010 A 
ATOM     78  C   UNL     1       4.343  -7.109   3.197  1.00  0.00     0.020 A 
ATOM     79  C   UNL     1       2.932  -7.942   4.989  1.00  0.00     0.020 A 
ATOM     80  C   UNL     1       4.182  -7.542   4.516  1.00  0.00     0.054 A 
BRANCH  80  81
ATOM     81  S   UNL     1       5.623  -7.534   5.619  1.00  0.00     0.124 S 
ATOM     82  O   UNL     1       6.420  -8.633   5.084  1.00  0.00    -0.237 OA
ATOM     83  O   UNL     1       6.168  -6.195   5.410  1.00  0.00    -0.237 OA
ATOM     84  O   UNL     1       5.043  -7.765   6.940  1.00  0.00    -0.744 OA
ENDBRANCH  80  81
ENDBRANCH  52  75
BRANCH  64  85
ATOM     85  C   UNL     1       0.231 -11.160  -2.880  1.00  0.00    -0.014 A 
ATOM     86  C   UNL     1       0.347 -12.454  -2.342  1.00  0.00     0.010 A 
ATOM     87  C   UNL     1       0.703 -10.918  -4.184  1.00  0.00     0.010 A 
ATOM     88  C   UNL     1       0.938 -13.480  -3.086  1.00  0.00     0.020 A 
ATOM     89  C   UNL     1       1.267 -11.947  -4.942  1.00  0.00     0.020 A 
ATOM     90  C   UNL     1       1.388 -13.221  -4.384  1.00  0.00     0.054 A 
BRANCH  90  91
ATOM     91  S   UNL     1       2.088 -14.588  -5.351  1.00  0.00     0.124 S 
ATOM     92  O   UNL     1       3.360 -14.821  -4.672  1.00  0.00    -0.237 OA
ATOM     93  O   UNL     1       1.086 -15.638  -5.188  1.00  0.00    -0.237 OA
ATOM     94  O   UNL     1       2.195 -14.039  -6.701  1.00  0.00    -0.744 OA
ENDBRANCH  90  91
ENDBRANCH  64  85
ENDBRANCH  38  39
ENDBRANCH  31  33
ENDBRANCH  30  31
ENDBRANCH  29  30
ENDBRANCH  28  29
ENDBRANCH  27  28
ENDBRANCH  26  27
ENDBRANCH   1  26
TORSDOF 23
