REMARK SMILES Cc1cc(C(=O)OCCOCCOCCOC(=O)c2ccc(-c3c4nc(c(-c5ccc(S(=O)(=O)[O-])cc5)c5ccc([nH]5)c(-c5ccc(S(=O)(=O)[O-])cc5)c5nc(c(-c6ccc(S(=O)(=O)[O-])cc6)c6ccc3[nH]6)C=C5)C=C4)cc2)ccc1NC(=O)c1ccc(=O)n(CCOc2ccccc2)n1
REMARK SMILES IDX 10 1 9 2 8 3 7 4 5 5 6 6 4 7 1 8 2 9 3 10 81 11 80 12 79 13
REMARK SMILES IDX 82 14 83 15 84 17 85 18 86 19 100 20 87 21 90 22 88 23 89 24
REMARK SMILES IDX 91 25 92 26 93 27 94 28 95 29 99 30 96 31 98 32 97 33 11 34
REMARK SMILES IDX 12 35 13 36 14 37 15 38 16 39 17 40 18 41 19 42 20 43 78 44
REMARK SMILES IDX 21 45 77 46 22 47 23 48 24 49 71 50 25 51 76 52 70 53 72 54
REMARK SMILES IDX 26 55 75 56 69 57 68 58 27 60 57 61 38 62 56 63 39 64 42 65
REMARK SMILES IDX 55 66 73 67 40 68 41 69 54 71 74 72 43 73 28 74 29 75 37 76
REMARK SMILES IDX 30 77 36 78 31 79 32 80 33 81 34 82 35 83 58 84 59 85 67 86
REMARK SMILES IDX 60 87 66 88 61 89 62 90 63 91 64 92 65 93 44 94 45 95 53 96
REMARK SMILES IDX 46 97 52 98 47 99 48 100 49 101 50 102 51 103
REMARK H PARENT 82 16 72 59 42 70
REMARK Flexibility Score: inf
ROOT
ATOM      1  O   UNL     1      -4.153  -4.353  -1.401  1.00  0.00    -0.376 OA
ENDROOT
BRANCH   1   2
ATOM      2  C   UNL     1      -5.347  -3.619  -1.603  1.00  0.00     0.202 C 
BRANCH   2   3
ATOM      3  C   UNL     1      -5.313  -1.978  -1.499  1.00  0.00     0.261 C 
BRANCH   3   4
ATOM      4  O   UNL     1      -4.684  -1.063  -0.346  1.00  0.00    -0.460 OA
BRANCH   4   5
ATOM      5  C   UNL     1      -3.683  -0.258   0.215  1.00  0.00     0.338 C 
ATOM      6  O   UNL     1      -3.969   0.354   1.247  1.00  0.00    -0.246 OA
BRANCH   5   7
ATOM      7  C   UNL     1      -2.242   0.075  -0.224  1.00  0.00     0.060 A 
ATOM      8  C   UNL     1       1.503   0.023   0.900  1.00  0.00     0.046 C 
ATOM      9  C   UNL     1       0.194   0.438   0.269  1.00  0.00    -0.027 A 
ATOM     10  C   UNL     1      -1.057  -0.196   0.545  1.00  0.00     0.021 A 
ATOM     11  C   UNL     1       0.173   1.460  -0.676  1.00  0.00     0.044 A 
ATOM     12  C   UNL     1      -0.858   1.491  -1.615  1.00  0.00     0.027 A 
ATOM     13  C   UNL     1      -2.072   0.839  -1.373  1.00  0.00     0.018 A 
BRANCH  11  14
ATOM     14  N   UNL     1       0.979   2.614  -0.491  1.00  0.00    -0.320 N 
ATOM     15  C   UNL     1       0.440   3.888  -0.273  1.00  0.00     0.276 C 
ATOM     16  H   UNL     1       1.958   2.514  -0.516  1.00  0.00     0.170 HD
ATOM     17  O   UNL     1       1.120   4.889  -0.084  1.00  0.00    -0.267 OA
BRANCH  15  18
ATOM     18  C   UNL     1      -1.085   4.010  -0.252  1.00  0.00     0.149 A 
ATOM     19  C   UNL     1      -1.699   4.426  -1.527  1.00  0.00     0.042 A 
ATOM     20  N   UNL     1      -1.740   3.664   0.815  1.00  0.00    -0.164 NA
ATOM     21  C   UNL     1      -2.975   4.075  -1.688  1.00  0.00     0.076 A 
ATOM     22  N   UNL     1      -3.113   3.468   0.658  1.00  0.00    -0.226 N 
ATOM     23  C   UNL     1      -3.738   3.437  -0.587  1.00  0.00     0.266 A 
ATOM     24  O   UNL     1      -4.847   2.980  -0.848  1.00  0.00    -0.268 OA
BRANCH  22  25
ATOM     25  C   UNL     1      -3.880   3.147   1.865  1.00  0.00     0.190 C 
BRANCH  25  26
ATOM     26  C   UNL     1      -4.387   4.398   2.588  1.00  0.00     0.253 C 
BRANCH  26  27
ATOM     27  O   UNL     1      -5.565   4.956   1.992  1.00  0.00    -0.492 OA
BRANCH  27  28
ATOM     28  C   UNL     1      -5.460   5.830   0.950  1.00  0.00     0.119 A 
ATOM     29  C   UNL     1      -6.676   6.181   0.360  1.00  0.00     0.046 A 
ATOM     30  C   UNL     1      -4.282   6.362   0.430  1.00  0.00     0.046 A 
ATOM     31  C   UNL     1      -6.713   7.016  -0.760  1.00  0.00     0.004 A 
ATOM     32  C   UNL     1      -4.311   7.166  -0.714  1.00  0.00     0.004 A 
ATOM     33  C   UNL     1      -5.527   7.492  -1.310  1.00  0.00     0.000 A 
ENDBRANCH  27  28
ENDBRANCH  26  27
ENDBRANCH  25  26
ENDBRANCH  22  25
ENDBRANCH  15  18
ENDBRANCH  11  14
ENDBRANCH   5   7
ENDBRANCH   4   5
ENDBRANCH   3   4
ENDBRANCH   2   3
ENDBRANCH   1   2
BRANCH   1  34
ATOM     34  C   UNL     1      -3.670  -5.385  -2.270  1.00  0.00     0.188 C 
BRANCH  34  35
ATOM     35  C   UNL     1      -3.814  -5.207  -3.779  1.00  0.00     0.188 C 
BRANCH  35  36
ATOM     36  O   UNL     1      -4.082  -3.849  -4.082  1.00  0.00    -0.376 OA
BRANCH  36  37
ATOM     37  C   UNL     1      -4.276  -3.568  -5.453  1.00  0.00     0.202 C 
BRANCH  37  38
ATOM     38  C   UNL     1      -2.952  -3.475  -6.216  1.00  0.00     0.261 C 
BRANCH  38  39
ATOM     39  O   UNL     1      -2.172  -2.364  -5.729  1.00  0.00    -0.460 OA
BRANCH  39  40
ATOM     40  C   UNL     1      -0.956  -2.693  -5.158  1.00  0.00     0.338 C 
ATOM     41  O   UNL     1       0.042  -2.833  -5.793  1.00  0.00    -0.246 OA
BRANCH  40  42
ATOM     42  C   UNL     1      -1.092  -2.710  -3.659  1.00  0.00     0.060 A 
ATOM     43  C   UNL     1      -0.347  -3.464  -2.761  1.00  0.00     0.016 A 
ATOM     44  C   UNL     1      -2.078  -1.971  -3.097  1.00  0.00     0.016 A 
ATOM     45  C   UNL     1      -0.732  -3.618  -1.367  1.00  0.00     0.010 A 
ATOM     46  C   UNL     1      -2.421  -2.204  -1.754  1.00  0.00     0.010 A 
ATOM     47  C   UNL     1      -1.879  -3.058  -0.797  1.00  0.00    -0.014 A 
BRANCH  47  48
ATOM     48  C   UNL     1      -2.592  -3.495   0.573  1.00  0.00     0.031 A 
ATOM     49  C   UNL     1      -3.573  -2.775   1.552  1.00  0.00     0.074 A 
ATOM     50  C   UNL     1      -2.425  -4.757   1.029  1.00  0.00     0.049 A 
ATOM     51  N   UNL     1      -3.274  -2.132   2.660  1.00  0.00    -0.248 NA
ATOM     52  C   UNL     1      -5.044  -2.929   1.445  1.00  0.00     0.031 C 
ATOM     53  C   UNL     1      -3.034  -5.387   2.205  1.00  0.00     0.029 A 
ATOM     54  N   UNL     1      -1.493  -5.684   0.603  1.00  0.00    -0.354 N 
ATOM     55  C   UNL     1      -4.488  -1.691   3.240  1.00  0.00     0.074 A 
ATOM     56  C   UNL     1      -5.547  -2.085   2.344  1.00  0.00     0.031 C 
ATOM     57  C   UNL     1      -2.270  -6.432   2.565  1.00  0.00     0.029 A 
ATOM     58  C   UNL     1      -1.100  -6.438   1.702  1.00  0.00     0.049 A 
ATOM     59  H   UNL     1      -1.165  -5.791  -0.319  1.00  0.00     0.167 HD
ATOM     60  C   UNL     1      -4.796  -1.545   4.568  1.00  0.00     0.031 A 
ATOM     61  C   UNL     1       0.197  -6.356   2.111  1.00  0.00     0.031 A 
ATOM     62  C   UNL     1      -4.119  -2.555   5.336  1.00  0.00     0.049 A 
ATOM     63  C   UNL     1       0.338  -5.728   3.478  1.00  0.00     0.074 A 
ATOM     64  C   UNL     1      -4.521  -3.824   5.717  1.00  0.00     0.029 A 
ATOM     65  N   UNL     1      -2.755  -2.482   5.509  1.00  0.00    -0.354 N 
ATOM     66  N   UNL     1      -0.590  -5.032   4.079  1.00  0.00    -0.248 NA
ATOM     67  C   UNL     1       1.550  -5.854   4.281  1.00  0.00     0.031 C 
ATOM     68  C   UNL     1      -3.353  -4.570   5.999  1.00  0.00     0.029 A 
ATOM     69  C   UNL     1      -2.269  -3.720   5.873  1.00  0.00     0.049 A 
ATOM     70  H   UNL     1      -2.211  -1.671   5.391  1.00  0.00     0.167 HD
ATOM     71  C   UNL     1      -0.128  -4.624   5.303  1.00  0.00     0.074 A 
ATOM     72  C   UNL     1       1.209  -5.178   5.391  1.00  0.00     0.031 C 
ATOM     73  C   UNL     1      -0.864  -3.871   6.168  1.00  0.00     0.031 A 
BRANCH  60  74
ATOM     74  C   UNL     1      -6.099  -0.858   4.990  1.00  0.00    -0.014 A 
ATOM     75  C   UNL     1      -6.945  -1.339   6.011  1.00  0.00     0.010 A 
ATOM     76  C   UNL     1      -6.501   0.343   4.356  1.00  0.00     0.010 A 
ATOM     77  C   UNL     1      -8.171  -0.708   6.319  1.00  0.00     0.020 A 
ATOM     78  C   UNL     1      -7.721   0.982   4.657  1.00  0.00     0.020 A 
ATOM     79  C   UNL     1      -8.562   0.440   5.627  1.00  0.00     0.054 A 
BRANCH  79  80
ATOM     80  S   UNL     1     -10.203   1.165   5.957  1.00  0.00     0.124 S 
ATOM     81  O   UNL     1     -11.092   0.012   5.830  1.00  0.00    -0.237 OA
ATOM     82  O   UNL     1     -10.056   1.693   7.310  1.00  0.00    -0.237 OA
ATOM     83  O   UNL     1     -10.361   2.173   4.911  1.00  0.00    -0.744 OA
ENDBRANCH  79  80
ENDBRANCH  60  74
BRANCH  61  84
ATOM     84  C   UNL     1       1.186  -6.297   0.982  1.00  0.00    -0.014 A 
ATOM     85  C   UNL     1       1.148  -7.372   0.060  1.00  0.00     0.010 A 
ATOM     86  C   UNL     1       1.870  -5.127   0.603  1.00  0.00     0.010 A 
ATOM     87  C   UNL     1       1.641  -7.239  -1.240  1.00  0.00     0.020 A 
ATOM     88  C   UNL     1       2.394  -4.999  -0.706  1.00  0.00     0.020 A 
ATOM     89  C   UNL     1       2.232  -6.041  -1.629  1.00  0.00     0.054 A 
BRANCH  89  90
ATOM     90  S   UNL     1       2.580  -5.829  -3.407  1.00  0.00     0.124 S 
ATOM     91  O   UNL     1       3.604  -6.839  -3.650  1.00  0.00    -0.237 OA
ATOM     92  O   UNL     1       1.273  -6.111  -4.002  1.00  0.00    -0.237 OA
ATOM     93  O   UNL     1       3.024  -4.442  -3.499  1.00  0.00    -0.744 OA
ENDBRANCH  89  90
ENDBRANCH  61  84
BRANCH  73  94
ATOM     94  C   UNL     1      -0.359  -3.244   7.439  1.00  0.00    -0.014 A 
ATOM     95  C   UNL     1       0.966  -2.824   7.613  1.00  0.00     0.010 A 
ATOM     96  C   UNL     1      -1.287  -2.917   8.459  1.00  0.00     0.010 A 
ATOM     97  C   UNL     1       1.367  -2.176   8.787  1.00  0.00     0.020 A 
ATOM     98  C   UNL     1      -0.906  -2.231   9.613  1.00  0.00     0.020 A 
ATOM     99  C   UNL     1       0.430  -1.892   9.783  1.00  0.00     0.054 A 
BRANCH  99 100
ATOM    100  S   UNL     1       0.940  -1.022  11.284  1.00  0.00     0.124 S 
ATOM    101  O   UNL     1       1.170  -2.130  12.208  1.00  0.00    -0.237 OA
ATOM    102  O   UNL     1       2.140  -0.302  10.863  1.00  0.00    -0.237 OA
ATOM    103  O   UNL     1      -0.211  -0.176  11.590  1.00  0.00    -0.744 OA
ENDBRANCH  99 100
ENDBRANCH  73  94
ENDBRANCH  47  48
ENDBRANCH  40  42
ENDBRANCH  39  40
ENDBRANCH  38  39
ENDBRANCH  37  38
ENDBRANCH  36  37
ENDBRANCH  35  36
ENDBRANCH  34  35
ENDBRANCH   1  34
TORSDOF 26
