REMARK SMILES Cc1c(NC(=O)[C@@H]2CC=CC[C@@H]2C(=O)OCCOCCOCCOC(=O)c2ccc(-c3c4nc(c(-c5ccc(S(=O)(=O)[O-])cc5)c5ccc([nH]5)c(-c5ccc(S(=O)(=O)[O-])cc5)c5nc(c(-c6ccc(S(=O)(=O)[O-])cc6)c6ccc3[nH]6)C=C5)C=C4)cc2)cccc1C(=O)N1CCOCC1
REMARK SMILES IDX 19 1 18 2 17 3 16 4 15 5 13 6 14 7 12 8 7 9 8 10 9 11 11 12
REMARK SMILES IDX 10 13 5 14 4 15 6 17 3 18 1 19 2 20 90 21 87 22 89 23 88 24
REMARK SMILES IDX 91 25 92 26 93 27 94 28 98 29 95 30 97 31 96 32 20 33 21 34
REMARK SMILES IDX 22 35 23 36 24 37 25 38 26 39 27 40 28 41 86 42 29 43 85 44
REMARK SMILES IDX 30 45 31 46 32 47 79 48 33 49 84 50 78 51 80 52 34 53 83 54
REMARK SMILES IDX 77 55 76 56 35 58 65 59 46 60 64 61 47 62 50 63 63 64 81 65
REMARK SMILES IDX 48 66 49 67 62 69 82 70 51 71 36 72 37 73 45 74 38 75 44 76
REMARK SMILES IDX 39 77 40 78 41 79 42 80 43 81 66 82 67 83 75 84 68 85 74 86
REMARK SMILES IDX 69 87 70 88 71 89 72 90 73 91 52 92 53 93 61 94 54 95 60 96
REMARK SMILES IDX 55 97 56 98 57 99 58 100 59 101
REMARK H PARENT 4 16 80 57 50 68
REMARK Flexibility Score: inf
ROOT
ATOM      1  C   UNL     1      -7.224  -1.510   0.624  1.00  0.00     0.188 C 
ENDROOT
BRANCH   1   2
ATOM      2  O   UNL     1      -7.080  -2.948   0.579  1.00  0.00    -0.376 OA
BRANCH   2   3
ATOM      3  C   UNL     1      -6.396  -3.732   1.578  1.00  0.00     0.202 C 
BRANCH   3   4
ATOM      4  C   UNL     1      -5.019  -4.652   1.288  1.00  0.00     0.261 C 
BRANCH   4   5
ATOM      5  O   UNL     1      -3.312  -4.187   1.061  1.00  0.00    -0.463 OA
BRANCH   5   6
ATOM      6  C   UNL     1      -2.340  -3.865   0.038  1.00  0.00     0.310 C 
ATOM      7  O   UNL     1      -2.472  -3.917  -1.190  1.00  0.00    -0.252 OA
BRANCH   6   8
ATOM      8  C   UNL     1      -0.926  -3.392   0.302  1.00  0.00     0.116 C 
ATOM      9  C   UNL     1      -0.266  -3.851   1.562  1.00  0.00     0.097 C 
ATOM     10  C   UNL     1      -0.697  -2.982   2.720  1.00  0.00     0.041 C 
ATOM     11  C   UNL     1      -0.467  -1.526   2.374  1.00  0.00    -0.030 C 
ATOM     12  C   UNL     1      -0.622  -1.941  -0.081  1.00  0.00     0.043 C 
ATOM     13  C   UNL     1      -0.413  -1.066   1.113  1.00  0.00    -0.030 C 
BRANCH   9  14
ATOM     14  C   UNL     1      -0.570  -5.324   1.586  1.00  0.00     0.228 C 
ATOM     15  N   UNL     1       0.132  -6.036   0.610  1.00  0.00    -0.326 N 
ATOM     16  H   UNL     1      -0.241  -6.231  -0.280  1.00  0.00     0.169 HD
ATOM     17  O   UNL     1      -1.472  -5.832   2.242  1.00  0.00    -0.274 OA
BRANCH  15  18
ATOM     18  C   UNL     1       1.420  -6.450   1.006  1.00  0.00     0.044 A 
ATOM     19  C   UNL     1       0.300  -8.578   1.715  1.00  0.00     0.047 C 
ATOM     20  C   UNL     1       1.512  -7.680   1.672  1.00  0.00    -0.015 A 
ATOM     21  C   UNL     1       2.715  -7.962   2.339  1.00  0.00     0.045 A 
ATOM     22  C   UNL     1       2.496  -5.556   0.946  1.00  0.00     0.026 A 
ATOM     23  C   UNL     1       3.751  -7.012   2.386  1.00  0.00     0.014 A 
ATOM     24  C   UNL     1       3.652  -5.822   1.668  1.00  0.00     0.003 A 
BRANCH  21  25
ATOM     25  C   UNL     1       2.856  -9.173   3.173  1.00  0.00     0.254 C 
ATOM     26  O   UNL     1       3.169  -9.018   4.352  1.00  0.00    -0.269 OA
ATOM     27  N   UNL     1       2.553 -10.405   2.615  1.00  0.00    -0.334 N 
ATOM     28  C   UNL     1       2.629 -10.762   1.186  1.00  0.00     0.148 C 
ATOM     29  C   UNL     1       2.216 -11.509   3.509  1.00  0.00     0.148 C 
ATOM     30  C   UNL     1       1.466 -11.668   0.746  1.00  0.00     0.181 C 
ATOM     31  C   UNL     1       1.000 -12.270   2.974  1.00  0.00     0.181 C 
ATOM     32  O   UNL     1       1.286 -12.761   1.657  1.00  0.00    -0.378 OA
ENDBRANCH  21  25
ENDBRANCH  15  18
ENDBRANCH   9  14
ENDBRANCH   6   8
ENDBRANCH   5   6
ENDBRANCH   4   5
ENDBRANCH   3   4
ENDBRANCH   2   3
ENDBRANCH   1   2
BRANCH   1  33
ATOM     33  C   UNL     1      -7.379  -0.726   1.935  1.00  0.00     0.188 C 
BRANCH  33  34
ATOM     34  O   UNL     1      -6.431  -1.162   2.890  1.00  0.00    -0.376 OA
BRANCH  34  35
ATOM     35  C   UNL     1      -6.353  -0.436   4.101  1.00  0.00     0.202 C 
BRANCH  35  36
ATOM     36  C   UNL     1      -5.592   0.899   3.988  1.00  0.00     0.261 C 
BRANCH  36  37
ATOM     37  O   UNL     1      -4.157   0.758   3.813  1.00  0.00    -0.460 OA
BRANCH  37  38
ATOM     38  C   UNL     1      -3.574   1.198   2.637  1.00  0.00     0.338 C 
ATOM     39  O   UNL     1      -2.832   2.170   2.615  1.00  0.00    -0.246 OA
BRANCH  38  40
ATOM     40  C   UNL     1      -3.672   0.176   1.548  1.00  0.00     0.060 A 
ATOM     41  C   UNL     1      -3.625   0.275   0.154  1.00  0.00     0.016 A 
ATOM     42  C   UNL     1      -3.812  -1.079   2.003  1.00  0.00     0.016 A 
ATOM     43  C   UNL     1      -3.927  -0.854  -0.751  1.00  0.00     0.010 A 
ATOM     44  C   UNL     1      -4.226  -2.064   1.117  1.00  0.00     0.010 A 
ATOM     45  C   UNL     1      -4.314  -2.123  -0.304  1.00  0.00    -0.014 A 
BRANCH  45  46
ATOM     46  C   UNL     1      -4.875  -3.433  -1.269  1.00  0.00     0.031 A 
ATOM     47  C   UNL     1      -4.362  -5.117  -1.502  1.00  0.00     0.074 A 
ATOM     48  C   UNL     1      -5.814  -3.095  -2.181  1.00  0.00     0.049 A 
ATOM     49  N   UNL     1      -4.339  -5.747  -2.666  1.00  0.00    -0.248 NA
ATOM     50  C   UNL     1      -3.767  -6.118  -0.507  1.00  0.00     0.031 C 
ATOM     51  C   UNL     1      -6.553  -3.976  -3.079  1.00  0.00     0.029 A 
ATOM     52  N   UNL     1      -6.159  -1.811  -2.603  1.00  0.00    -0.354 N 
ATOM     53  C   UNL     1      -3.901  -7.076  -2.483  1.00  0.00     0.074 A 
ATOM     54  C   UNL     1      -3.496  -7.231  -1.148  1.00  0.00     0.031 C 
ATOM     55  C   UNL     1      -7.020  -3.245  -4.103  1.00  0.00     0.029 A 
ATOM     56  C   UNL     1      -6.493  -1.899  -3.955  1.00  0.00     0.049 A 
ATOM     57  H   UNL     1      -6.166  -0.996  -2.050  1.00  0.00     0.167 HD
ATOM     58  C   UNL     1      -4.014  -8.095  -3.373  1.00  0.00     0.031 A 
ATOM     59  C   UNL     1      -5.819  -1.184  -4.898  1.00  0.00     0.031 A 
ATOM     60  C   UNL     1      -4.650  -7.626  -4.561  1.00  0.00     0.049 A 
ATOM     61  C   UNL     1      -5.234  -2.059  -5.981  1.00  0.00     0.074 A 
ATOM     62  C   UNL     1      -5.983  -7.523  -4.904  1.00  0.00     0.029 A 
ATOM     63  N   UNL     1      -3.940  -6.765  -5.371  1.00  0.00    -0.354 N 
ATOM     64  N   UNL     1      -5.062  -3.348  -5.865  1.00  0.00    -0.248 NA
ATOM     65  C   UNL     1      -4.809  -1.563  -7.287  1.00  0.00     0.031 C 
ATOM     66  C   UNL     1      -6.085  -6.513  -5.890  1.00  0.00     0.029 A 
ATOM     67  C   UNL     1      -4.808  -6.069  -6.181  1.00  0.00     0.049 A 
ATOM     68  H   UNL     1      -2.961  -6.664  -5.370  1.00  0.00     0.167 HD
ATOM     69  C   UNL     1      -4.534  -3.852  -7.024  1.00  0.00     0.074 A 
ATOM     70  C   UNL     1      -4.397  -2.695  -7.887  1.00  0.00     0.031 C 
ATOM     71  C   UNL     1      -4.260  -5.178  -7.183  1.00  0.00     0.031 A 
BRANCH  58  72
ATOM     72  C   UNL     1      -3.893  -9.538  -2.907  1.00  0.00    -0.014 A 
ATOM     73  C   UNL     1      -4.993 -10.395  -3.084  1.00  0.00     0.010 A 
ATOM     74  C   UNL     1      -2.808 -10.046  -2.151  1.00  0.00     0.010 A 
ATOM     75  C   UNL     1      -5.067 -11.646  -2.453  1.00  0.00     0.020 A 
ATOM     76  C   UNL     1      -2.887 -11.286  -1.481  1.00  0.00     0.020 A 
ATOM     77  C   UNL     1      -4.028 -12.073  -1.628  1.00  0.00     0.054 A 
BRANCH  77  78
ATOM     78  S   UNL     1      -4.236 -13.621  -0.696  1.00  0.00     0.124 S 
ATOM     79  O   UNL     1      -5.596 -13.502  -0.172  1.00  0.00    -0.237 OA
ATOM     80  O   UNL     1      -4.049 -14.634  -1.729  1.00  0.00    -0.237 OA
ATOM     81  O   UNL     1      -3.185 -13.556   0.318  1.00  0.00    -0.744 OA
ENDBRANCH  77  78
ENDBRANCH  58  72
BRANCH  59  82
ATOM     82  C   UNL     1      -5.320   0.152  -4.439  1.00  0.00    -0.014 A 
ATOM     83  C   UNL     1      -6.284   1.069  -3.953  1.00  0.00     0.010 A 
ATOM     84  C   UNL     1      -3.966   0.422  -4.171  1.00  0.00     0.010 A 
ATOM     85  C   UNL     1      -5.930   2.136  -3.122  1.00  0.00     0.020 A 
ATOM     86  C   UNL     1      -3.601   1.513  -3.349  1.00  0.00     0.020 A 
ATOM     87  C   UNL     1      -4.592   2.336  -2.796  1.00  0.00     0.054 A 
BRANCH  87  88
ATOM     88  S   UNL     1      -4.220   3.566  -1.500  1.00  0.00     0.124 S 
ATOM     89  O   UNL     1      -4.632   4.817  -2.127  1.00  0.00    -0.237 OA
ATOM     90  O   UNL     1      -5.069   3.111  -0.398  1.00  0.00    -0.237 OA
ATOM     91  O   UNL     1      -2.784   3.410  -1.289  1.00  0.00    -0.744 OA
ENDBRANCH  87  88
ENDBRANCH  59  82
BRANCH  71  92
ATOM     92  C   UNL     1      -3.486  -5.830  -8.304  1.00  0.00    -0.014 A 
ATOM     93  C   UNL     1      -2.568  -5.159  -9.119  1.00  0.00     0.010 A 
ATOM     94  C   UNL     1      -3.559  -7.243  -8.443  1.00  0.00     0.010 A 
ATOM     95  C   UNL     1      -1.796  -5.858 -10.059  1.00  0.00     0.020 A 
ATOM     96  C   UNL     1      -2.756  -7.952  -9.332  1.00  0.00     0.020 A 
ATOM     97  C   UNL     1      -1.894  -7.248 -10.158  1.00  0.00     0.054 A 
BRANCH  97  98
ATOM     98  S   UNL     1      -0.848  -8.155 -11.321  1.00  0.00     0.124 S 
ATOM     99  O   UNL     1      -1.704  -8.220 -12.502  1.00  0.00    -0.237 OA
ATOM    100  O   UNL     1       0.329  -7.297 -11.446  1.00  0.00    -0.237 OA
ATOM    101  O   UNL     1      -0.612  -9.427 -10.643  1.00  0.00    -0.744 OA
ENDBRANCH  97  98
ENDBRANCH  71  92
ENDBRANCH  45  46
ENDBRANCH  38  40
ENDBRANCH  37  38
ENDBRANCH  36  37
ENDBRANCH  35  36
ENDBRANCH  34  35
ENDBRANCH  33  34
ENDBRANCH   1  33
TORSDOF 23
