REMARK SMILES O=C(OCCOCCOCCOC(=O)c1cccc(N2CCCCC2)n1)c1ccc(-c2c3nc(c(-c4ccc(S(=O)(=O)[O-])cc4)c4ccc([nH]4)c(-c4ccc(S(=O)(=O)[O-])cc4)c4nc(c(-c5ccc(S(=O)(=O)[O-])cc5)c5ccc2[nH]5)C=C4)C=C3)cc1
REMARK SMILES IDX 7 1 6 2 5 3 4 4 3 5 2 6 1 7 27 8 28 9 86 10 29 11 85 12
REMARK SMILES IDX 30 13 31 14 32 15 79 16 33 17 84 18 78 19 80 20 34 21 83 22
REMARK SMILES IDX 77 23 76 24 35 26 65 27 46 28 64 29 47 30 50 31 63 32 81 33
REMARK SMILES IDX 48 34 49 35 62 37 82 38 51 39 36 40 37 41 45 42 38 43 44 44
REMARK SMILES IDX 39 45 40 46 41 47 42 48 43 49 66 50 67 51 75 52 68 53 74 54
REMARK SMILES IDX 69 55 70 56 71 57 72 58 73 59 52 60 53 61 61 62 54 63 60 64
REMARK SMILES IDX 55 65 56 66 57 67 58 68 59 69 8 70 9 71 10 72 11 73 12 74
REMARK SMILES IDX 13 75 14 76 15 77 16 78 26 79 17 80 19 81 18 82 20 83 21 84
REMARK SMILES IDX 25 85 22 86 24 87 23 88
REMARK H PARENT 80 25 50 36
REMARK Flexibility Score: inf
ROOT
ATOM      1  C   UNL     1       2.365   2.164   0.527  1.00  0.00     0.188 C 
ENDROOT
BRANCH   1   2
ATOM      2  O   UNL     1       3.684   1.602   0.546  1.00  0.00    -0.376 OA
BRANCH   2   3
ATOM      3  C   UNL     1       4.396   1.742  -0.684  1.00  0.00     0.202 C 
BRANCH   3   4
ATOM      4  C   UNL     1       4.219   0.560  -1.644  1.00  0.00     0.261 C 
BRANCH   4   5
ATOM      5  O   UNL     1       2.856   0.101  -1.672  1.00  0.00    -0.460 OA
BRANCH   5   6
ATOM      6  C   UNL     1       2.320  -0.961  -1.016  1.00  0.00     0.338 C 
ATOM      7  O   UNL     1       1.130  -1.220  -1.192  1.00  0.00    -0.246 OA
BRANCH   6   8
ATOM      8  C   UNL     1       3.114  -1.880  -0.144  1.00  0.00     0.060 A 
ATOM      9  C   UNL     1       4.235  -1.509   0.598  1.00  0.00     0.016 A 
ATOM     10  C   UNL     1       2.656  -3.205  -0.022  1.00  0.00     0.016 A 
ATOM     11  C   UNL     1       4.964  -2.450   1.319  1.00  0.00     0.010 A 
ATOM     12  C   UNL     1       3.338  -4.138   0.770  1.00  0.00     0.010 A 
ATOM     13  C   UNL     1       4.527  -3.772   1.410  1.00  0.00    -0.014 A 
BRANCH  13  14
ATOM     14  C   UNL     1       5.379  -4.750   2.125  1.00  0.00     0.031 A 
ATOM     15  C   UNL     1       6.131  -5.787   1.340  1.00  0.00     0.074 A 
ATOM     16  C   UNL     1       5.589  -4.608   3.449  1.00  0.00     0.049 A 
ATOM     17  N   UNL     1       6.981  -6.686   1.766  1.00  0.00    -0.248 NA
ATOM     18  C   UNL     1       5.915  -5.806  -0.116  1.00  0.00     0.031 C 
ATOM     19  C   UNL     1       4.973  -3.581   4.294  1.00  0.00     0.029 A 
ATOM     20  N   UNL     1       6.413  -5.293   4.304  1.00  0.00    -0.354 N 
ATOM     21  C   UNL     1       7.400  -7.373   0.634  1.00  0.00     0.074 A 
ATOM     22  C   UNL     1       6.694  -6.809  -0.494  1.00  0.00     0.031 C 
ATOM     23  C   UNL     1       5.483  -3.674   5.533  1.00  0.00     0.029 A 
ATOM     24  C   UNL     1       6.405  -4.800   5.588  1.00  0.00     0.049 A 
ATOM     25  H   UNL     1       6.958  -6.064   4.026  1.00  0.00     0.167 HD
ATOM     26  C   UNL     1       8.301  -8.380   0.541  1.00  0.00     0.031 A 
ATOM     27  C   UNL     1       7.056  -5.215   6.691  1.00  0.00     0.031 A 
ATOM     28  C   UNL     1       8.986  -8.950   1.668  1.00  0.00     0.049 A 
ATOM     29  C   UNL     1       7.985  -6.390   6.576  1.00  0.00     0.074 A 
ATOM     30  C   UNL     1       9.853 -10.027   1.699  1.00  0.00     0.029 A 
ATOM     31  N   UNL     1       8.885  -8.477   2.968  1.00  0.00    -0.354 N 
ATOM     32  N   UNL     1       8.320  -7.068   5.504  1.00  0.00    -0.248 NA
ATOM     33  C   UNL     1       8.618  -6.859   7.815  1.00  0.00     0.031 C 
ATOM     34  C   UNL     1      10.253 -10.224   3.026  1.00  0.00     0.029 A 
ATOM     35  C   UNL     1       9.666  -9.245   3.812  1.00  0.00     0.049 A 
ATOM     36  H   UNL     1       8.338  -7.708   3.248  1.00  0.00     0.167 HD
ATOM     37  C   UNL     1       9.203  -8.047   5.939  1.00  0.00     0.074 A 
ATOM     38  C   UNL     1       9.376  -7.850   7.365  1.00  0.00     0.031 C 
ATOM     39  C   UNL     1       9.809  -9.029   5.228  1.00  0.00     0.031 A 
BRANCH  26  40
ATOM     40  C   UNL     1       8.551  -8.945  -0.829  1.00  0.00    -0.014 A 
ATOM     41  C   UNL     1       9.347  -8.255  -1.761  1.00  0.00     0.010 A 
ATOM     42  C   UNL     1       7.971 -10.173  -1.194  1.00  0.00     0.010 A 
ATOM     43  C   UNL     1       9.527  -8.766  -3.049  1.00  0.00     0.020 A 
ATOM     44  C   UNL     1       8.164 -10.695  -2.476  1.00  0.00     0.020 A 
ATOM     45  C   UNL     1       8.925  -9.978  -3.401  1.00  0.00     0.054 A 
BRANCH  45  46
ATOM     46  S   UNL     1       9.166 -10.617  -5.082  1.00  0.00     0.124 S 
ATOM     47  O   UNL     1       8.280  -9.754  -5.860  1.00  0.00    -0.237 OA
ATOM     48  O   UNL     1      10.595 -10.412  -5.304  1.00  0.00    -0.237 OA
ATOM     49  O   UNL     1       8.748 -12.013  -4.985  1.00  0.00    -0.744 OA
ENDBRANCH  45  46
ENDBRANCH  26  40
BRANCH  27  50
ATOM     50  C   UNL     1       6.805  -4.558   8.002  1.00  0.00    -0.014 A 
ATOM     51  C   UNL     1       7.804  -3.807   8.645  1.00  0.00     0.010 A 
ATOM     52  C   UNL     1       5.550  -4.697   8.624  1.00  0.00     0.010 A 
ATOM     53  C   UNL     1       7.560  -3.229   9.896  1.00  0.00     0.020 A 
ATOM     54  C   UNL     1       5.293  -4.100   9.859  1.00  0.00     0.020 A 
ATOM     55  C   UNL     1       6.307  -3.383  10.496  1.00  0.00     0.054 A 
BRANCH  55  56
ATOM     56  S   UNL     1       5.988  -2.601  12.102  1.00  0.00     0.124 S 
ATOM     57  O   UNL     1       6.589  -3.556  13.027  1.00  0.00    -0.237 OA
ATOM     58  O   UNL     1       6.675  -1.319  11.976  1.00  0.00    -0.237 OA
ATOM     59  O   UNL     1       4.529  -2.515  12.146  1.00  0.00    -0.744 OA
ENDBRANCH  55  56
ENDBRANCH  27  50
BRANCH  39  60
ATOM     60  C   UNL     1      10.712  -9.954   5.990  1.00  0.00    -0.014 A 
ATOM     61  C   UNL     1      10.177 -10.960   6.814  1.00  0.00     0.010 A 
ATOM     62  C   UNL     1      12.106  -9.835   5.859  1.00  0.00     0.010 A 
ATOM     63  C   UNL     1      11.025 -11.813   7.522  1.00  0.00     0.020 A 
ATOM     64  C   UNL     1      12.956 -10.699   6.550  1.00  0.00     0.020 A 
ATOM     65  C   UNL     1      12.410 -11.673   7.390  1.00  0.00     0.054 A 
BRANCH  65  66
ATOM     66  S   UNL     1      13.496 -12.810   8.292  1.00  0.00     0.124 S 
ATOM     67  O   UNL     1      13.500 -12.226   9.630  1.00  0.00    -0.237 OA
ATOM     68  O   UNL     1      12.803 -14.090   8.167  1.00  0.00    -0.237 OA
ATOM     69  O   UNL     1      14.762 -12.722   7.568  1.00  0.00    -0.744 OA
ENDBRANCH  65  66
ENDBRANCH  39  60
ENDBRANCH  13  14
ENDBRANCH   6   8
ENDBRANCH   5   6
ENDBRANCH   4   5
ENDBRANCH   3   4
ENDBRANCH   2   3
ENDBRANCH   1   2
BRANCH   1  70
ATOM     70  C   UNL     1       1.940   2.599   1.933  1.00  0.00     0.188 C 
BRANCH  70  71
ATOM     71  O   UNL     1       2.598   3.784   2.398  1.00  0.00    -0.376 OA
BRANCH  71  72
ATOM     72  C   UNL     1       3.990   3.662   2.681  1.00  0.00     0.202 C 
BRANCH  72  73
ATOM     73  C   UNL     1       4.345   3.007   4.019  1.00  0.00     0.261 C 
BRANCH  73  74
ATOM     74  O   UNL     1       3.839   1.670   4.166  1.00  0.00    -0.459 OA
BRANCH  74  75
ATOM     75  C   UNL     1       2.938   1.518   5.174  1.00  0.00     0.357 C 
ATOM     76  O   UNL     1       2.517   2.391   5.918  1.00  0.00    -0.244 OA
BRANCH  75  77
ATOM     77  C   UNL     1       2.590   0.091   5.356  1.00  0.00     0.150 A 
ATOM     78  C   UNL     1       3.139  -0.564   6.448  1.00  0.00     0.036 A 
ATOM     79  N   UNL     1       1.598  -0.411   4.572  1.00  0.00    -0.224 NA
ATOM     80  C   UNL     1       2.634  -1.813   6.768  1.00  0.00     0.006 A 
ATOM     81  C   UNL     1       1.077  -1.605   4.930  1.00  0.00     0.129 A 
ATOM     82  C   UNL     1       1.589  -2.333   6.007  1.00  0.00     0.047 A 
BRANCH  81  83
ATOM     83  N   UNL     1      -0.046  -2.033   4.247  1.00  0.00    -0.357 N 
ATOM     84  C   UNL     1       0.167  -2.649   2.946  1.00  0.00     0.118 C 
ATOM     85  C   UNL     1      -1.214  -2.448   5.011  1.00  0.00     0.118 C 
ATOM     86  C   UNL     1      -1.082  -2.462   2.081  1.00  0.00     0.022 C 
ATOM     87  C   UNL     1      -2.466  -2.196   4.173  1.00  0.00     0.022 C 
ATOM     88  C   UNL     1      -2.361  -2.878   2.810  1.00  0.00     0.004 C 
ENDBRANCH  81  83
ENDBRANCH  75  77
ENDBRANCH  74  75
ENDBRANCH  73  74
ENDBRANCH  72  73
ENDBRANCH  71  72
ENDBRANCH  70  71
ENDBRANCH   1  70
TORSDOF 21
