REMARK SMILES [NH3+][C@H]1CN(C(=O)OCC2c3ccccc3-c3ccccc32)C[C@@H]1C(=O)OCCOCCOCCOC(=O)c1ccc(-c2c3nc(c(-c4ccc(S(=O)(=O)[O-])cc4)c4ccc([nH]4)c(-c4ccc(S(=O)(=O)[O-])cc4)c4nc(c(-c5ccc(S(=O)(=O)[O-])cc5)c5ccc2[nH]5)C=C4)C=C3)cc1
REMARK SMILES IDX 30 1 29 2 28 3 27 4 26 5 24 6 25 7 23 8 2 9 3 10 4 11 22 12
REMARK SMILES IDX 1 13 5 17 6 18 7 19 8 20 9 21 10 22 21 23 11 24 15 25 16 26
REMARK SMILES IDX 20 27 12 28 14 29 17 30 19 31 13 32 18 33 31 34 32 35 33 36
REMARK SMILES IDX 34 37 35 38 36 39 37 40 38 41 39 42 97 43 40 44 96 45 41 46
REMARK SMILES IDX 42 47 43 48 90 49 44 50 95 51 89 52 91 53 45 54 94 55 88 56
REMARK SMILES IDX 87 57 46 59 76 60 57 61 75 62 58 63 61 64 74 65 92 66 59 67
REMARK SMILES IDX 60 68 73 70 93 71 62 72 47 73 48 74 56 75 49 76 55 77 50 78
REMARK SMILES IDX 51 79 52 80 53 81 54 82 77 83 78 84 86 85 79 86 85 87 80 88
REMARK SMILES IDX 81 89 82 90 83 91 84 92 63 93 64 94 72 95 65 96 71 97 66 98
REMARK SMILES IDX 67 99 68 100 69 101 70 102
REMARK H PARENT 1 14 1 15 1 16 91 58 61 69
REMARK Flexibility Score: inf
ROOT
ATOM      1  C   UNL     1       3.547  -0.575  -0.230  1.00  0.00     0.188 C 
ENDROOT
BRANCH   1   2
ATOM      2  O   UNL     1       4.882  -1.022  -0.151  1.00  0.00    -0.376 OA
BRANCH   2   3
ATOM      3  C   UNL     1       5.490  -1.117   1.122  1.00  0.00     0.202 C 
BRANCH   3   4
ATOM      4  C   UNL     1       4.781  -1.870   2.261  1.00  0.00     0.261 C 
BRANCH   4   5
ATOM      5  O   UNL     1       3.371  -1.653   2.437  1.00  0.00    -0.463 OA
BRANCH   5   6
ATOM      6  C   UNL     1       2.995  -0.428   2.886  1.00  0.00     0.316 C 
ATOM      7  O   UNL     1       3.784   0.485   3.065  1.00  0.00    -0.252 OA
BRANCH   6   8
ATOM      8  C   UNL     1       1.485  -0.376   3.086  1.00  0.00     0.178 C 
ATOM      9  C   UNL     1       0.672   0.265   1.935  1.00  0.00     0.216 C 
ATOM     10  C   UNL     1       0.758   1.783   2.212  1.00  0.00     0.188 C 
ATOM     11  N   UNL     1       1.209   1.872   3.579  1.00  0.00    -0.301 N 
ATOM     12  C   UNL     1       1.224   0.579   4.230  1.00  0.00     0.145 C 
BRANCH   9  13
ATOM     13  N   UNL     1      -0.727  -0.204   1.961  1.00  0.00    -0.353 N 
ATOM     14  H   UNL     1      -1.245   0.228   1.197  1.00  0.00     0.344 HD
ATOM     15  H   UNL     1      -1.155   0.053   2.850  1.00  0.00     0.344 HD
ATOM     16  H   UNL     1      -0.747  -1.218   1.855  1.00  0.00     0.344 HD
ENDBRANCH   9  13
BRANCH  11  17
ATOM     17  C   UNL     1       1.942   2.932   4.040  1.00  0.00     0.410 C 
ATOM     18  O   UNL     1       2.816   2.840   4.887  1.00  0.00    -0.224 OA
BRANCH  17  19
ATOM     19  O   UNL     1       1.447   4.095   3.545  1.00  0.00    -0.448 OA
BRANCH  19  20
ATOM     20  C   UNL     1       1.751   5.243   4.353  1.00  0.00     0.248 C 
BRANCH  20  21
ATOM     21  C   UNL     1       0.710   5.425   5.487  1.00  0.00     0.088 C 
ATOM     22  C   UNL     1       0.862   4.454   6.663  1.00  0.00    -0.029 A 
ATOM     23  C   UNL     1       0.960   6.754   6.184  1.00  0.00    -0.029 A 
ATOM     24  C   UNL     1       0.542   3.108   6.739  1.00  0.00     0.005 A 
ATOM     25  C   UNL     1       1.398   5.121   7.780  1.00  0.00    -0.014 A 
ATOM     26  C   UNL     1       1.407   6.540   7.507  1.00  0.00    -0.014 A 
ATOM     27  C   UNL     1       0.816   8.029   5.667  1.00  0.00     0.005 A 
ATOM     28  C   UNL     1       0.934   2.388   7.868  1.00  0.00     0.000 A 
ATOM     29  C   UNL     1       1.774   4.415   8.912  1.00  0.00     0.009 A 
ATOM     30  C   UNL     1       1.707   7.609   8.331  1.00  0.00     0.009 A 
ATOM     31  C   UNL     1       1.116   9.103   6.501  1.00  0.00     0.000 A 
ATOM     32  C   UNL     1       1.571   3.033   8.937  1.00  0.00     0.001 A 
ATOM     33  C   UNL     1       1.560   8.898   7.817  1.00  0.00     0.001 A 
ENDBRANCH  20  21
ENDBRANCH  19  20
ENDBRANCH  17  19
ENDBRANCH  11  17
ENDBRANCH   6   8
ENDBRANCH   5   6
ENDBRANCH   4   5
ENDBRANCH   3   4
ENDBRANCH   2   3
ENDBRANCH   1   2
BRANCH   1  34
ATOM     34  C   UNL     1       2.531  -1.730  -0.378  1.00  0.00     0.188 C 
BRANCH  34  35
ATOM     35  O   UNL     1       2.985  -3.021  -0.762  1.00  0.00    -0.376 OA
BRANCH  35  36
ATOM     36  C   UNL     1       4.001  -3.125  -1.749  1.00  0.00     0.202 C 
BRANCH  36  37
ATOM     37  C   UNL     1       3.748  -2.502  -3.129  1.00  0.00     0.261 C 
BRANCH  37  38
ATOM     38  O   UNL     1       3.401  -1.103  -3.136  1.00  0.00    -0.460 OA
BRANCH  38  39
ATOM     39  C   UNL     1       2.114  -0.813  -3.458  1.00  0.00     0.338 C 
ATOM     40  O   UNL     1       1.232  -1.610  -3.731  1.00  0.00    -0.246 OA
BRANCH  39  41
ATOM     41  C   UNL     1       1.841   0.630  -3.260  1.00  0.00     0.060 A 
ATOM     42  C   UNL     1       0.818   1.002  -2.374  1.00  0.00     0.016 A 
ATOM     43  C   UNL     1       2.518   1.604  -3.994  1.00  0.00     0.016 A 
ATOM     44  C   UNL     1       0.448   2.344  -2.245  1.00  0.00     0.010 A 
ATOM     45  C   UNL     1       2.131   2.947  -3.879  1.00  0.00     0.010 A 
ATOM     46  C   UNL     1       1.074   3.322  -3.028  1.00  0.00    -0.014 A 
BRANCH  46  47
ATOM     47  C   UNL     1       0.514   4.699  -3.091  1.00  0.00     0.031 A 
ATOM     48  C   UNL     1      -0.383   5.064  -4.247  1.00  0.00     0.074 A 
ATOM     49  C   UNL     1       0.780   5.612  -2.136  1.00  0.00     0.049 A 
ATOM     50  N   UNL     1      -0.918   6.218  -4.551  1.00  0.00    -0.248 NA
ATOM     51  C   UNL     1      -0.723   3.978  -5.183  1.00  0.00     0.031 C 
ATOM     52  C   UNL     1       1.586   5.376  -0.939  1.00  0.00     0.029 A 
ATOM     53  N   UNL     1       0.407   6.931  -2.035  1.00  0.00    -0.354 N 
ATOM     54  C   UNL     1      -1.649   6.002  -5.715  1.00  0.00     0.074 A 
ATOM     55  C   UNL     1      -1.470   4.612  -6.074  1.00  0.00     0.031 C 
ATOM     56  C   UNL     1       1.664   6.519  -0.234  1.00  0.00     0.029 A 
ATOM     57  C   UNL     1       0.950   7.577  -0.948  1.00  0.00     0.049 A 
ATOM     58  H   UNL     1      -0.193   7.372  -2.679  1.00  0.00     0.167 HD
ATOM     59  C   UNL     1      -2.402   6.879  -6.421  1.00  0.00     0.031 A 
ATOM     60  C   UNL     1       0.908   8.878  -0.591  1.00  0.00     0.031 A 
ATOM     61  C   UNL     1      -2.565   8.267  -6.077  1.00  0.00     0.049 A 
ATOM     62  C   UNL     1       0.143   9.859  -1.452  1.00  0.00     0.074 A 
ATOM     63  C   UNL     1      -3.307   9.234  -6.733  1.00  0.00     0.029 A 
ATOM     64  N   UNL     1      -1.972   8.889  -4.989  1.00  0.00    -0.354 N 
ATOM     65  N   UNL     1      -0.557   9.635  -2.540  1.00  0.00    -0.248 NA
ATOM     66  C   UNL     1       0.159  11.270  -1.033  1.00  0.00     0.031 C 
ATOM     67  C   UNL     1      -3.115  10.453  -6.075  1.00  0.00     0.029 A 
ATOM     68  C   UNL     1      -2.311  10.231  -4.969  1.00  0.00     0.049 A 
ATOM     69  H   UNL     1      -1.394   8.442  -4.329  1.00  0.00     0.167 HD
ATOM     70  C   UNL     1      -1.089  10.868  -2.912  1.00  0.00     0.074 A 
ATOM     71  C   UNL     1      -0.645  11.830  -1.926  1.00  0.00     0.031 C 
ATOM     72  C   UNL     1      -1.876  11.177  -3.973  1.00  0.00     0.031 A 
BRANCH  59  73
ATOM     73  C   UNL     1      -3.088   6.372  -7.663  1.00  0.00    -0.014 A 
ATOM     74  C   UNL     1      -4.190   5.502  -7.583  1.00  0.00     0.010 A 
ATOM     75  C   UNL     1      -2.658   6.817  -8.927  1.00  0.00     0.010 A 
ATOM     76  C   UNL     1      -4.831   5.064  -8.745  1.00  0.00     0.020 A 
ATOM     77  C   UNL     1      -3.314   6.404 -10.090  1.00  0.00     0.020 A 
ATOM     78  C   UNL     1      -4.389   5.519  -9.992  1.00  0.00     0.054 A 
BRANCH  78  79
ATOM     79  S   UNL     1      -5.264   4.961 -11.480  1.00  0.00     0.124 S 
ATOM     80  O   UNL     1      -4.866   3.558 -11.555  1.00  0.00    -0.237 OA
ATOM     81  O   UNL     1      -6.664   5.199 -11.135  1.00  0.00    -0.237 OA
ATOM     82  O   UNL     1      -4.732   5.816 -12.538  1.00  0.00    -0.744 OA
ENDBRANCH  78  79
ENDBRANCH  59  73
BRANCH  60  83
ATOM     83  C   UNL     1       1.668   9.361   0.601  1.00  0.00    -0.014 A 
ATOM     84  C   UNL     1       1.009   9.908   1.716  1.00  0.00     0.010 A 
ATOM     85  C   UNL     1       3.075   9.338   0.589  1.00  0.00     0.010 A 
ATOM     86  C   UNL     1       1.742  10.478   2.765  1.00  0.00     0.020 A 
ATOM     87  C   UNL     1       3.810   9.868   1.653  1.00  0.00     0.020 A 
ATOM     88  C   UNL     1       3.139  10.462   2.722  1.00  0.00     0.054 A 
BRANCH  88  89
ATOM     89  S   UNL     1       4.078  11.269   4.051  1.00  0.00     0.124 S 
ATOM     90  O   UNL     1       3.776  12.678   3.821  1.00  0.00    -0.237 OA
ATOM     91  O   UNL     1       3.490  10.693   5.255  1.00  0.00    -0.237 OA
ATOM     92  O   UNL     1       5.459  10.871   3.786  1.00  0.00    -0.744 OA
ENDBRANCH  88  89
ENDBRANCH  60  83
BRANCH  72  93
ATOM     93  C   UNL     1      -2.364  12.599  -4.100  1.00  0.00    -0.014 A 
ATOM     94  C   UNL     1      -1.497  13.647  -4.459  1.00  0.00     0.010 A 
ATOM     95  C   UNL     1      -3.732  12.877  -3.921  1.00  0.00     0.010 A 
ATOM     96  C   UNL     1      -1.985  14.950  -4.604  1.00  0.00     0.020 A 
ATOM     97  C   UNL     1      -4.229  14.172  -4.096  1.00  0.00     0.020 A 
ATOM     98  C   UNL     1      -3.348  15.204  -4.423  1.00  0.00     0.054 A 
BRANCH  98  99
ATOM     99  S   UNL     1      -3.963  16.894  -4.662  1.00  0.00     0.124 S 
ATOM    100  O   UNL     1      -3.447  17.577  -3.478  1.00  0.00    -0.237 OA
ATOM    101  O   UNL     1      -3.349  17.282  -5.929  1.00  0.00    -0.237 OA
ATOM    102  O   UNL     1      -5.415  16.733  -4.703  1.00  0.00    -0.744 OA
ENDBRANCH  98  99
ENDBRANCH  72  93
ENDBRANCH  46  47
ENDBRANCH  39  41
ENDBRANCH  38  39
ENDBRANCH  37  38
ENDBRANCH  36  37
ENDBRANCH  35  36
ENDBRANCH  34  35
ENDBRANCH   1  34
TORSDOF 25
