REMARK SMILES CCOc1c(Br)cc(CNc2cccc(C(=O)OCCOCCOCCOC(=O)c3ccc(-c4c5nc(c(-c6ccc(S(=O)(=O)[O-])cc6)c6ccc([nH]6)c(-c6ccc(S(=O)(=O)[O-])cc6)c6nc(c(-c7ccc(S(=O)(=O)[O-])cc7)c7ccc4[nH]7)C=C6)C=C5)cc3)c2C)cc1OC
REMARK SMILES IDX 22 1 21 2 20 3 19 4 18 5 16 6 17 7 15 8 11 9 12 10 90 11
REMARK SMILES IDX 13 12 91 13 14 14 10 15 9 17 8 18 4 19 5 20 93 21 6 22 7 23
REMARK SMILES IDX 92 24 3 25 2 26 1 27 94 28 95 29 23 30 24 31 25 32 26 33
REMARK SMILES IDX 27 34 28 35 29 36 30 37 31 38 89 39 32 40 88 41 33 42 34 43
REMARK SMILES IDX 35 44 82 45 36 46 87 47 81 48 83 49 37 50 86 51 80 52 79 53
REMARK SMILES IDX 38 55 68 56 49 57 67 58 50 59 53 60 66 61 84 62 51 63 52 64
REMARK SMILES IDX 65 66 85 67 54 68 39 69 40 70 48 71 41 72 47 73 42 74 43 75
REMARK SMILES IDX 44 76 45 77 46 78 69 79 70 80 78 81 71 82 77 83 72 84 73 85
REMARK SMILES IDX 74 86 75 87 76 88 55 89 56 90 64 91 57 92 63 93 58 94 59 95
REMARK SMILES IDX 60 96 61 97 62 98
REMARK H PARENT 10 16 83 54 53 65
REMARK Flexibility Score: inf
ROOT
ATOM      1  C   UNL     1       9.778   1.348   5.414  1.00  0.00     0.188 C 
ENDROOT
BRANCH   1   2
ATOM      2  O   UNL     1       9.858  -0.028   5.795  1.00  0.00    -0.376 OA
BRANCH   2   3
ATOM      3  C   UNL     1      11.034  -0.804   5.526  1.00  0.00     0.202 C 
BRANCH   3   4
ATOM      4  C   UNL     1      11.217  -1.775   4.264  1.00  0.00     0.261 C 
BRANCH   4   5
ATOM      5  O   UNL     1      11.095  -1.229   2.878  1.00  0.00    -0.460 OA
BRANCH   5   6
ATOM      6  C   UNL     1      11.566  -1.495   1.579  1.00  0.00     0.338 C 
ATOM      7  O   UNL     1      12.652  -2.062   1.470  1.00  0.00    -0.246 OA
BRANCH   6   8
ATOM      8  C   UNL     1      10.661  -0.885   0.061  1.00  0.00     0.065 A 
ATOM      9  C   UNL     1       8.982  -0.025  -1.805  1.00  0.00     0.038 A 
ATOM     10  C   UNL     1       9.942  -0.338  -2.740  1.00  0.00     0.026 A 
ATOM     11  C   UNL     1       9.232  -0.486  -0.441  1.00  0.00    -0.013 A 
ATOM     12  C   UNL     1      11.189  -0.855  -2.344  1.00  0.00     0.003 A 
ATOM     13  C   UNL     1       7.781  -0.583   0.160  1.00  0.00     0.047 C 
ATOM     14  C   UNL     1      11.564  -1.034  -0.998  1.00  0.00     0.016 A 
BRANCH   9  15
ATOM     15  N   UNL     1       7.781   0.635  -2.108  1.00  0.00    -0.381 N 
ATOM     16  H   UNL     1       7.429   1.169  -1.359  1.00  0.00     0.160 HD
BRANCH  15  17
ATOM     17  C   UNL     1       6.942   0.694  -3.304  1.00  0.00     0.149 C 
BRANCH  17  18
ATOM     18  C   UNL     1       5.434   0.727  -2.958  1.00  0.00    -0.024 A 
ATOM     19  C   UNL     1       2.600   0.650  -2.411  1.00  0.00     0.175 A 
ATOM     20  C   UNL     1       3.459  -0.394  -2.024  1.00  0.00     0.064 A 
ATOM     21  C   UNL     1       3.144   1.706  -3.159  1.00  0.00     0.162 A 
ATOM     22  Br  UNL     1       2.801  -1.998  -1.233  1.00  0.00    -0.047 Br
ATOM     23  C   UNL     1       4.844  -0.346  -2.279  1.00  0.00     0.025 A 
ATOM     24  C   UNL     1       4.553   1.741  -3.400  1.00  0.00     0.056 A 
BRANCH  19  25
ATOM     25  O   UNL     1       1.252   0.519  -2.171  1.00  0.00    -0.489 OA
BRANCH  25  26
ATOM     26  C   UNL     1       0.790   1.249  -1.022  1.00  0.00     0.226 C 
ATOM     27  C   UNL     1       0.680   0.367   0.208  1.00  0.00     0.049 C 
ENDBRANCH  25  26
ENDBRANCH  19  25
BRANCH  21  28
ATOM     28  O   UNL     1       2.477   2.755  -3.749  1.00  0.00    -0.493 OA
ATOM     29  C   UNL     1       1.060   2.707  -3.883  1.00  0.00     0.278 C 
ENDBRANCH  21  28
ENDBRANCH  17  18
ENDBRANCH  15  17
ENDBRANCH   9  15
ENDBRANCH   6   8
ENDBRANCH   5   6
ENDBRANCH   4   5
ENDBRANCH   3   4
ENDBRANCH   2   3
ENDBRANCH   1   2
BRANCH   1  30
ATOM     30  C   UNL     1      10.984   2.247   5.509  1.00  0.00     0.188 C 
BRANCH  30  31
ATOM     31  O   UNL     1      11.971   1.712   4.639  1.00  0.00    -0.376 OA
BRANCH  31  32
ATOM     32  C   UNL     1      13.266   2.235   4.828  1.00  0.00     0.202 C 
BRANCH  32  33
ATOM     33  C   UNL     1      13.354   3.722   4.471  1.00  0.00     0.261 C 
BRANCH  33  34
ATOM     34  O   UNL     1      13.303   3.980   3.044  1.00  0.00    -0.460 OA
BRANCH  34  35
ATOM     35  C   UNL     1      12.136   4.459   2.497  1.00  0.00     0.338 C 
ATOM     36  O   UNL     1      12.005   5.650   2.174  1.00  0.00    -0.246 OA
BRANCH  35  37
ATOM     37  C   UNL     1      11.230   3.359   2.077  1.00  0.00     0.060 A 
ATOM     38  C   UNL     1       9.836   3.285   2.045  1.00  0.00     0.016 A 
ATOM     39  C   UNL     1      11.864   2.219   1.745  1.00  0.00     0.016 A 
ATOM     40  C   UNL     1       9.100   2.019   2.030  1.00  0.00     0.010 A 
ATOM     41  C   UNL     1      11.143   1.037   1.833  1.00  0.00     0.010 A 
ATOM     42  C   UNL     1       9.738   0.771   2.054  1.00  0.00    -0.014 A 
BRANCH  42  43
ATOM     43  C   UNL     1       8.965  -0.766   2.452  1.00  0.00     0.031 A 
ATOM     44  C   UNL     1       9.142  -2.481   1.848  1.00  0.00     0.074 A 
ATOM     45  C   UNL     1       8.071  -0.735   3.473  1.00  0.00     0.049 A 
ATOM     46  N   UNL     1       8.372  -3.466   2.264  1.00  0.00    -0.248 NA
ATOM     47  C   UNL     1      10.018  -3.193   0.794  1.00  0.00     0.031 C 
ATOM     48  C   UNL     1       7.642  -1.842   4.324  1.00  0.00     0.029 A 
ATOM     49  N   UNL     1       7.271   0.324   3.894  1.00  0.00    -0.354 N 
ATOM     50  C   UNL     1       8.949  -4.691   1.890  1.00  0.00     0.074 A 
ATOM     51  C   UNL     1       9.764  -4.484   0.786  1.00  0.00     0.031 C 
ATOM     52  C   UNL     1       6.550  -1.482   5.008  1.00  0.00     0.029 A 
ATOM     53  C   UNL     1       6.117  -0.217   4.465  1.00  0.00     0.049 A 
ATOM     54  H   UNL     1       7.481   1.281   3.805  1.00  0.00     0.167 HD
ATOM     55  C   UNL     1       8.899  -5.798   2.664  1.00  0.00     0.031 A 
ATOM     56  C   UNL     1       4.902   0.085   3.941  1.00  0.00     0.031 A 
ATOM     57  C   UNL     1       7.722  -5.712   3.475  1.00  0.00     0.049 A 
ATOM     58  C   UNL     1       4.198  -1.167   3.467  1.00  0.00     0.074 A 
ATOM     59  C   UNL     1       7.436  -5.583   4.812  1.00  0.00     0.029 A 
ATOM     60  N   UNL     1       6.571  -5.377   2.786  1.00  0.00    -0.354 N 
ATOM     61  N   UNL     1       4.765  -2.348   3.463  1.00  0.00    -0.248 NA
ATOM     62  C   UNL     1       2.823  -1.246   3.009  1.00  0.00     0.031 C 
ATOM     63  C   UNL     1       6.090  -5.087   4.899  1.00  0.00     0.029 A 
ATOM     64  C   UNL     1       5.562  -4.983   3.620  1.00  0.00     0.049 A 
ATOM     65  H   UNL     1       6.487  -5.419   1.806  1.00  0.00     0.167 HD
ATOM     66  C   UNL     1       3.904  -3.319   3.045  1.00  0.00     0.074 A 
ATOM     67  C   UNL     1       2.696  -2.564   2.750  1.00  0.00     0.031 C 
ATOM     68  C   UNL     1       4.292  -4.634   2.975  1.00  0.00     0.031 A 
BRANCH  55  69
ATOM     69  C   UNL     1       9.984  -6.871   2.683  1.00  0.00    -0.014 A 
ATOM     70  C   UNL     1       9.731  -8.098   3.314  1.00  0.00     0.010 A 
ATOM     71  C   UNL     1      11.317  -6.687   2.213  1.00  0.00     0.010 A 
ATOM     72  C   UNL     1      10.731  -9.083   3.462  1.00  0.00     0.020 A 
ATOM     73  C   UNL     1      12.314  -7.679   2.318  1.00  0.00     0.020 A 
ATOM     74  C   UNL     1      12.017  -8.873   2.961  1.00  0.00     0.054 A 
BRANCH  74  75
ATOM     75  S   UNL     1      13.287 -10.155   3.191  1.00  0.00     0.124 S 
ATOM     76  O   UNL     1      13.445 -10.180   4.643  1.00  0.00    -0.237 OA
ATOM     77  O   UNL     1      12.658 -11.336   2.607  1.00  0.00    -0.237 OA
ATOM     78  O   UNL     1      14.442  -9.644   2.455  1.00  0.00    -0.744 OA
ENDBRANCH  74  75
ENDBRANCH  55  69
BRANCH  56  79
ATOM     79  C   UNL     1       4.828   1.540   3.559  1.00  0.00    -0.014 A 
ATOM     80  C   UNL     1       4.992   2.439   4.651  1.00  0.00     0.010 A 
ATOM     81  C   UNL     1       5.146   2.025   2.275  1.00  0.00     0.010 A 
ATOM     82  C   UNL     1       5.627   3.678   4.502  1.00  0.00     0.020 A 
ATOM     83  C   UNL     1       5.746   3.302   2.115  1.00  0.00     0.020 A 
ATOM     84  C   UNL     1       6.040   4.086   3.239  1.00  0.00     0.054 A 
BRANCH  84  85
ATOM     85  S   UNL     1       7.146   5.537   3.163  1.00  0.00     0.124 S 
ATOM     86  O   UNL     1       6.327   6.602   3.729  1.00  0.00    -0.237 OA
ATOM     87  O   UNL     1       8.264   5.104   4.004  1.00  0.00    -0.237 OA
ATOM     88  O   UNL     1       7.441   5.662   1.738  1.00  0.00    -0.744 OA
ENDBRANCH  84  85
ENDBRANCH  56  79
BRANCH  68  89
ATOM     89  C   UNL     1       3.601  -5.747   2.184  1.00  0.00    -0.014 A 
ATOM     90  C   UNL     1       2.346  -5.637   1.585  1.00  0.00     0.010 A 
ATOM     91  C   UNL     1       4.286  -6.976   1.950  1.00  0.00     0.010 A 
ATOM     92  C   UNL     1       1.815  -6.668   0.795  1.00  0.00     0.020 A 
ATOM     93  C   UNL     1       3.799  -7.987   1.121  1.00  0.00     0.020 A 
ATOM     94  C   UNL     1       2.547  -7.831   0.562  1.00  0.00     0.054 A 
BRANCH  94  95
ATOM     95  S   UNL     1       1.822  -9.138  -0.446  1.00  0.00     0.124 S 
ATOM     96  O   UNL     1       0.712  -9.581   0.394  1.00  0.00    -0.237 OA
ATOM     97  O   UNL     1       1.444  -8.424  -1.663  1.00  0.00    -0.237 OA
ATOM     98  O   UNL     1       2.907 -10.103  -0.605  1.00  0.00    -0.744 OA
ENDBRANCH  94  95
ENDBRANCH  68  89
ENDBRANCH  42  43
ENDBRANCH  35  37
ENDBRANCH  34  35
ENDBRANCH  33  34
ENDBRANCH  32  33
ENDBRANCH  31  32
ENDBRANCH  30  31
ENDBRANCH   1  30
TORSDOF 26
