REMARK SMILES O=C(NC(=S)Nc1cc(C(=O)OCCOCCOCCOC(=O)c2ccc(-c3c4nc(c(-c5ccc(S(=O)(=O)[O-])cc5)c5ccc([nH]5)c(-c5ccc(S(=O)(=O)[O-])cc5)c5nc(c(-c6ccc(S(=O)(=O)[O-])cc6)c6ccc3[nH]6)C=C5)C=C4)cc2)ccc1Br)c1ccc(F)cc1
REMARK SMILES IDX 16 1 15 2 14 3 13 4 12 5 10 6 11 7 9 8 7 9 8 10 86 11 85 12
REMARK SMILES IDX 87 13 84 14 6 15 4 17 5 18 3 19 1 20 2 21 88 23 89 24 94 25
REMARK SMILES IDX 90 26 93 27 91 28 92 29 17 30 18 31 19 32 20 33 21 34 22 35
REMARK SMILES IDX 23 36 24 37 25 38 83 39 26 40 82 41 27 42 28 43 29 44 76 45
REMARK SMILES IDX 30 46 81 47 75 48 77 49 31 50 80 51 74 52 73 53 32 55 62 56
REMARK SMILES IDX 43 57 61 58 44 59 47 60 60 61 78 62 45 63 46 64 59 66 79 67
REMARK SMILES IDX 48 68 33 69 34 70 42 71 35 72 41 73 36 74 37 75 38 76 39 77
REMARK SMILES IDX 40 78 63 79 64 80 72 81 65 82 71 83 66 84 67 85 68 86 69 87
REMARK SMILES IDX 70 88 49 89 50 90 58 91 51 92 57 93 52 94 53 95 54 96 55 97
REMARK SMILES IDX 56 98
REMARK H PARENT 6 16 3 22 77 54 47 65
REMARK Flexibility Score: inf
ROOT
ATOM      1  C   UNL     1       6.851  -5.181  -3.344  1.00  0.00     0.188 C 
ENDROOT
BRANCH   1   2
ATOM      2  O   UNL     1       6.461  -6.545  -3.448  1.00  0.00    -0.376 OA
BRANCH   2   3
ATOM      3  C   UNL     1       5.240  -6.779  -4.155  1.00  0.00     0.202 C 
BRANCH   3   4
ATOM      4  C   UNL     1       3.972  -6.580  -3.308  1.00  0.00     0.261 C 
BRANCH   4   5
ATOM      5  O   UNL     1       3.631  -5.182  -3.180  1.00  0.00    -0.460 OA
BRANCH   5   6
ATOM      6  C   UNL     1       3.754  -4.668  -1.939  1.00  0.00     0.338 C 
ATOM      7  O   UNL     1       4.041  -5.241  -0.904  1.00  0.00    -0.246 OA
BRANCH   6   8
ATOM      8  C   UNL     1       3.664  -3.205  -2.007  1.00  0.00     0.062 A 
ATOM      9  C   UNL     1       4.545  -0.165  -0.928  1.00  0.00     0.055 A 
ATOM     10  C   UNL     1       4.880  -2.111  -0.854  1.00  0.00     0.043 A 
ATOM     11  C   UNL     1       3.201   0.811  -2.000  1.00  0.00     0.041 A 
ATOM     12  C   UNL     1       1.994  -0.296  -3.147  1.00  0.00     0.019 A 
ATOM     13  Br  UNL     1       2.950   2.677  -1.870  1.00  0.00    -0.049 Br
ATOM     14  C   UNL     1       2.327  -2.232  -3.061  1.00  0.00     0.017 A 
BRANCH   9  15
ATOM     15  N   UNL     1       5.018   0.482   0.217  1.00  0.00    -0.331 N 
ATOM     16  H   UNL     1       5.990   0.509   0.369  1.00  0.00     0.169 HD
BRANCH  15  17
ATOM     17  C   UNL     1       4.212   1.072   1.127  1.00  0.00     0.177 C 
ATOM     18  S   UNL     1       4.874   2.107   2.257  1.00  0.00    -0.040 S 
BRANCH  17  19
ATOM     19  N   UNL     1       2.861   0.785   1.206  1.00  0.00    -0.299 N 
ATOM     20  O   UNL     1       0.738  -0.044   1.123  1.00  0.00    -0.269 OA
ATOM     21  C   UNL     1       1.901  -0.123   0.721  1.00  0.00     0.257 C 
ATOM     22  H   UNL     1       2.423   1.435   1.802  1.00  0.00     0.172 HD
BRANCH  21  23
ATOM     23  C   UNL     1       2.182  -1.245  -0.204  1.00  0.00     0.040 A 
ATOM     24  C   UNL     1       3.065  -1.677  -1.036  1.00  0.00     0.017 A 
ATOM     25  C   UNL     1       2.511  -0.837  -1.403  1.00  0.00     0.017 A 
ATOM     26  C   UNL     1       4.403  -1.543  -2.578  1.00  0.00     0.040 A 
ATOM     27  C   UNL     1       3.833  -0.679  -2.963  1.00  0.00     0.040 A 
ATOM     28  C   UNL     1       5.003  -0.850  -3.469  1.00  0.00     0.123 A 
ATOM     29  F   UNL     1       5.258  -1.245  -4.715  1.00  0.00    -0.207 F 
ENDBRANCH  21  23
ENDBRANCH  17  19
ENDBRANCH  15  17
ENDBRANCH   9  15
ENDBRANCH   6   8
ENDBRANCH   5   6
ENDBRANCH   4   5
ENDBRANCH   3   4
ENDBRANCH   2   3
ENDBRANCH   1   2
BRANCH   1  30
ATOM     30  C   UNL     1       7.626  -4.631  -4.542  1.00  0.00     0.188 C 
BRANCH  30  31
ATOM     31  O   UNL     1       6.870  -4.692  -5.754  1.00  0.00    -0.376 OA
BRANCH  31  32
ATOM     32  C   UNL     1       7.135  -3.614  -6.663  1.00  0.00     0.202 C 
BRANCH  32  33
ATOM     33  C   UNL     1       8.582  -3.582  -7.181  1.00  0.00     0.261 C 
BRANCH  33  34
ATOM     34  O   UNL     1       9.488  -3.103  -6.170  1.00  0.00    -0.460 OA
BRANCH  34  35
ATOM     35  C   UNL     1       9.317  -1.804  -5.819  1.00  0.00     0.338 C 
ATOM     36  O   UNL     1       8.642  -0.980  -6.413  1.00  0.00    -0.246 OA
BRANCH  35  37
ATOM     37  C   UNL     1       9.904  -1.584  -4.475  1.00  0.00     0.060 A 
ATOM     38  C   UNL     1       9.328  -0.606  -3.654  1.00  0.00     0.016 A 
ATOM     39  C   UNL     1      10.989  -2.339  -4.013  1.00  0.00     0.016 A 
ATOM     40  C   UNL     1       9.872  -0.342  -2.396  1.00  0.00     0.010 A 
ATOM     41  C   UNL     1      11.534  -2.074  -2.756  1.00  0.00     0.010 A 
ATOM     42  C   UNL     1      11.000  -1.049  -1.958  1.00  0.00    -0.014 A 
BRANCH  42  43
ATOM     43  C   UNL     1      11.741  -0.583  -0.764  1.00  0.00     0.031 A 
ATOM     44  C   UNL     1      12.832   0.435  -0.959  1.00  0.00     0.074 A 
ATOM     45  C   UNL     1      11.463  -1.054   0.464  1.00  0.00     0.049 A 
ATOM     46  N   UNL     1      13.586   1.019  -0.065  1.00  0.00    -0.248 NA
ATOM     47  C   UNL     1      13.108   0.847  -2.346  1.00  0.00     0.031 C 
ATOM     48  C   UNL     1      10.448  -2.058   0.784  1.00  0.00     0.029 A 
ATOM     49  N   UNL     1      12.028  -0.748   1.677  1.00  0.00    -0.354 N 
ATOM     50  C   UNL     1      14.419   1.871  -0.778  1.00  0.00     0.074 A 
ATOM     51  C   UNL     1      14.097   1.713  -2.179  1.00  0.00     0.031 C 
ATOM     52  C   UNL     1      10.474  -2.296   2.109  1.00  0.00     0.029 A 
ATOM     53  C   UNL     1      11.504  -1.463   2.727  1.00  0.00     0.049 A 
ATOM     54  H   UNL     1      12.742  -0.079   1.784  1.00  0.00     0.167 HD
ATOM     55  C   UNL     1      15.367   2.718  -0.313  1.00  0.00     0.031 A 
ATOM     56  C   UNL     1      11.826  -1.446   4.035  1.00  0.00     0.031 A 
ATOM     57  C   UNL     1      15.708   2.871   1.072  1.00  0.00     0.049 A 
ATOM     58  C   UNL     1      12.891  -0.501   4.529  1.00  0.00     0.074 A 
ATOM     59  C   UNL     1      16.638   3.722   1.642  1.00  0.00     0.029 A 
ATOM     60  N   UNL     1      15.137   2.147   2.105  1.00  0.00    -0.354 N 
ATOM     61  N   UNL     1      13.619   0.350   3.846  1.00  0.00    -0.248 NA
ATOM     62  C   UNL     1      13.166  -0.507   5.974  1.00  0.00     0.031 C 
ATOM     63  C   UNL     1      16.644   3.497   3.023  1.00  0.00     0.029 A 
ATOM     64  C   UNL     1      15.701   2.522   3.310  1.00  0.00     0.049 A 
ATOM     65  H   UNL     1      14.433   1.467   1.998  1.00  0.00     0.167 HD
ATOM     66  C   UNL     1      14.418   0.998   4.783  1.00  0.00     0.074 A 
ATOM     67  C   UNL     1      14.085   0.444   6.078  1.00  0.00     0.031 C 
ATOM     68  C   UNL     1      15.345   1.968   4.588  1.00  0.00     0.031 A 
BRANCH  55  69
ATOM     69  C   UNL     1      16.105   3.535  -1.331  1.00  0.00    -0.014 A 
ATOM     70  C   UNL     1      15.518   4.687  -1.883  1.00  0.00     0.010 A 
ATOM     71  C   UNL     1      17.394   3.150  -1.738  1.00  0.00     0.010 A 
ATOM     72  C   UNL     1      16.198   5.426  -2.854  1.00  0.00     0.020 A 
ATOM     73  C   UNL     1      18.081   3.894  -2.700  1.00  0.00     0.020 A 
ATOM     74  C   UNL     1      17.472   5.018  -3.264  1.00  0.00     0.054 A 
BRANCH  74  75
ATOM     75  S   UNL     1      18.345   5.992  -4.520  1.00  0.00     0.124 S 
ATOM     76  O   UNL     1      17.735   5.503  -5.754  1.00  0.00    -0.237 OA
ATOM     77  O   UNL     1      18.011   7.367  -4.158  1.00  0.00    -0.237 OA
ATOM     78  O   UNL     1      19.745   5.624  -4.327  1.00  0.00    -0.744 OA
ENDBRANCH  74  75
ENDBRANCH  55  69
BRANCH  56  79
ATOM     79  C   UNL     1      11.140  -2.355   4.989  1.00  0.00    -0.014 A 
ATOM     80  C   UNL     1      10.155  -1.864   5.864  1.00  0.00     0.010 A 
ATOM     81  C   UNL     1      11.505  -3.711   5.054  1.00  0.00     0.010 A 
ATOM     82  C   UNL     1       9.565  -2.709   6.809  1.00  0.00     0.020 A 
ATOM     83  C   UNL     1      10.906  -4.561   5.988  1.00  0.00     0.020 A 
ATOM     84  C   UNL     1       9.952  -4.051   6.871  1.00  0.00     0.054 A 
BRANCH  84  85
ATOM     85  S   UNL     1       9.167  -5.149   8.085  1.00  0.00     0.124 S 
ATOM     86  O   UNL     1       9.987  -4.923   9.271  1.00  0.00    -0.237 OA
ATOM     87  O   UNL     1       7.801  -4.635   8.153  1.00  0.00    -0.237 OA
ATOM     88  O   UNL     1       9.295  -6.469   7.472  1.00  0.00    -0.744 OA
ENDBRANCH  84  85
ENDBRANCH  56  79
BRANCH  68  89
ATOM     89  C   UNL     1      16.039   2.516   5.802  1.00  0.00    -0.014 A 
ATOM     90  C   UNL     1      17.099   1.816   6.404  1.00  0.00     0.010 A 
ATOM     91  C   UNL     1      15.668   3.775   6.306  1.00  0.00     0.010 A 
ATOM     92  C   UNL     1      17.765   2.359   7.505  1.00  0.00     0.020 A 
ATOM     93  C   UNL     1      16.342   4.327   7.397  1.00  0.00     0.020 A 
ATOM     94  C   UNL     1      17.379   3.610   7.998  1.00  0.00     0.054 A 
BRANCH  94  95
ATOM     95  S   UNL     1      18.288   4.332   9.393  1.00  0.00     0.124 S 
ATOM     96  O   UNL     1      17.619   3.724  10.538  1.00  0.00    -0.237 OA
ATOM     97  O   UNL     1      19.660   3.887   9.158  1.00  0.00    -0.237 OA
ATOM     98  O   UNL     1      18.073   5.769   9.232  1.00  0.00    -0.744 OA
ENDBRANCH  94  95
ENDBRANCH  68  89
ENDBRANCH  42  43
ENDBRANCH  35  37
ENDBRANCH  34  35
ENDBRANCH  33  34
ENDBRANCH  32  33
ENDBRANCH  31  32
ENDBRANCH  30  31
ENDBRANCH   1  30
TORSDOF 24
