REMARK SMILES O=C(CCN1C(=O)/C(=C/c2cc(Br)cc(Br)c2O)SC1=S)OCCOCCOCCOC(=O)c1ccc(-c2c3nc(c(-c4ccc(S(=O)(=O)[O-])cc4)c4ccc([nH]4)c(-c4ccc(S(=O)(=O)[O-])cc4)c4nc(c(-c5ccc(S(=O)(=O)[O-])cc5)c5ccc2[nH]5)C=C4)C=C3)cc1
REMARK SMILES IDX 26 1 25 2 24 3 23 4 22 5 2 6 1 7 3 8 4 9 5 10 6 11 20 12
REMARK SMILES IDX 7 13 8 14 19 15 21 16 9 17 10 18 11 19 17 20 12 21 15 22
REMARK SMILES IDX 13 23 14 24 16 25 18 26 27 28 28 29 29 30 30 31 31 32 32 33
REMARK SMILES IDX 33 34 34 35 35 36 93 37 36 38 92 39 37 40 38 41 39 42 86 43
REMARK SMILES IDX 40 44 91 45 85 46 87 47 41 48 90 49 84 50 83 51 42 53 72 54
REMARK SMILES IDX 53 55 71 56 54 57 57 58 70 59 88 60 55 61 56 62 69 64 89 65
REMARK SMILES IDX 58 66 43 67 44 68 52 69 45 70 51 71 46 72 47 73 48 74 49 75
REMARK SMILES IDX 50 76 73 77 74 78 82 79 75 80 81 81 76 82 77 83 78 84 79 85
REMARK SMILES IDX 80 86 59 87 60 88 68 89 61 90 67 91 62 92 63 93 64 94 65 95
REMARK SMILES IDX 66 96
REMARK H PARENT 18 27 87 52 57 63
REMARK Flexibility Score: inf
ROOT
ATOM      1  C   UNL     1       2.978  -1.702   1.109  1.00  0.00     0.188 C 
ENDROOT
BRANCH   1   2
ATOM      2  O   UNL     1       4.097  -0.810   1.076  1.00  0.00    -0.376 OA
BRANCH   2   3
ATOM      3  C   UNL     1       3.960   0.385   1.825  1.00  0.00     0.202 C 
BRANCH   3   4
ATOM      4  C   UNL     1       3.255   1.498   1.063  1.00  0.00     0.261 C 
BRANCH   4   5
ATOM      5  O   UNL     1       2.108   1.069   0.325  1.00  0.00    -0.463 OA
BRANCH   5   6
ATOM      6  C   UNL     1       2.127   1.300  -1.018  1.00  0.00     0.307 C 
ATOM      7  O   UNL     1       1.292   2.023  -1.548  1.00  0.00    -0.252 OA
BRANCH   6   8
ATOM      8  C   UNL     1       3.105   0.464  -1.816  1.00  0.00     0.144 C 
BRANCH   8   9
ATOM      9  C   UNL     1       4.117   1.279  -2.625  1.00  0.00     0.139 C 
BRANCH   9  10
ATOM     10  N   UNL     1       5.280   1.696  -1.823  1.00  0.00    -0.292 N 
ATOM     11  C   UNL     1       5.324   2.988  -1.329  1.00  0.00     0.266 C 
ATOM     12  C   UNL     1       6.319   0.862  -1.452  1.00  0.00     0.148 C 
ATOM     13  O   UNL     1       4.510   3.876  -1.542  1.00  0.00    -0.268 OA
ATOM     14  C   UNL     1       6.413   3.119  -0.321  1.00  0.00     0.081 C 
ATOM     15  S   UNL     1       7.348   1.685  -0.280  1.00  0.00    -0.054 SA
ATOM     16  S   UNL     1       6.625  -0.700  -1.945  1.00  0.00    -0.052 S 
ATOM     17  C   UNL     1       6.439   4.176   0.505  1.00  0.00     0.033 C 
BRANCH  17  18
ATOM     18  C   UNL     1       7.276   4.384   1.703  1.00  0.00     0.020 A 
ATOM     19  C   UNL     1       8.666   4.214   1.635  1.00  0.00     0.027 A 
ATOM     20  C   UNL     1       6.713   4.816   2.922  1.00  0.00     0.137 A 
ATOM     21  C   UNL     1       9.466   4.438   2.758  1.00  0.00     0.019 A 
ATOM     22  C   UNL     1       7.530   5.059   4.037  1.00  0.00     0.061 A 
ATOM     23  Br  UNL     1      11.334   4.167   2.643  1.00  0.00    -0.051 Br
ATOM     24  C   UNL     1       8.907   4.863   3.959  1.00  0.00     0.035 A 
ATOM     25  Br  UNL     1       6.810   5.663   5.688  1.00  0.00    -0.047 Br
BRANCH  20  26
ATOM     26  O   UNL     1       5.361   5.007   3.074  1.00  0.00    -0.506 OA
ATOM     27  H   UNL     1       4.783   4.855   2.352  1.00  0.00     0.293 HD
ENDBRANCH  20  26
ENDBRANCH  17  18
ENDBRANCH   9  10
ENDBRANCH   8   9
ENDBRANCH   6   8
ENDBRANCH   5   6
ENDBRANCH   4   5
ENDBRANCH   3   4
ENDBRANCH   2   3
ENDBRANCH   1   2
BRANCH   1  28
ATOM     28  C   UNL     1       2.380  -2.001   2.490  1.00  0.00     0.188 C 
BRANCH  28  29
ATOM     29  O   UNL     1       3.278  -2.170   3.584  1.00  0.00    -0.376 OA
BRANCH  29  30
ATOM     30  C   UNL     1       4.519  -2.834   3.363  1.00  0.00     0.202 C 
BRANCH  30  31
ATOM     31  C   UNL     1       4.439  -4.348   3.178  1.00  0.00     0.261 C 
BRANCH  31  32
ATOM     32  O   UNL     1       4.076  -4.703   1.835  1.00  0.00    -0.460 OA
BRANCH  32  33
ATOM     33  C   UNL     1       2.820  -5.177   1.665  1.00  0.00     0.338 C 
ATOM     34  O   UNL     1       1.956  -5.305   2.513  1.00  0.00    -0.246 OA
BRANCH  33  35
ATOM     35  C   UNL     1       2.586  -5.416   0.229  1.00  0.00     0.060 A 
ATOM     36  C   UNL     1       1.417  -4.912  -0.357  1.00  0.00     0.016 A 
ATOM     37  C   UNL     1       3.474  -6.202  -0.506  1.00  0.00     0.016 A 
ATOM     38  C   UNL     1       1.101  -5.247  -1.675  1.00  0.00     0.010 A 
ATOM     39  C   UNL     1       3.151  -6.545  -1.818  1.00  0.00     0.010 A 
ATOM     40  C   UNL     1       1.945  -6.104  -2.391  1.00  0.00    -0.014 A 
BRANCH  40  41
ATOM     41  C   UNL     1       1.510  -6.717  -3.666  1.00  0.00     0.031 A 
ATOM     42  C   UNL     1       0.954  -8.112  -3.629  1.00  0.00     0.074 A 
ATOM     43  C   UNL     1       1.696  -6.083  -4.836  1.00  0.00     0.049 A 
ATOM     44  N   UNL     1       0.693  -8.927  -4.616  1.00  0.00    -0.248 NA
ATOM     45  C   UNL     1       0.675  -8.666  -2.294  1.00  0.00     0.031 C 
ATOM     46  C   UNL     1       2.203  -4.722  -4.988  1.00  0.00     0.029 A 
ATOM     47  N   UNL     1       1.518  -6.529  -6.121  1.00  0.00    -0.354 N 
ATOM     48  C   UNL     1       0.250 -10.103  -4.022  1.00  0.00     0.074 A 
ATOM     49  C   UNL     1       0.288  -9.898  -2.591  1.00  0.00     0.031 C 
ATOM     50  C   UNL     1       2.338  -4.456  -6.298  1.00  0.00     0.029 A 
ATOM     51  C   UNL     1       1.970  -5.643  -7.069  1.00  0.00     0.049 A 
ATOM     52  H   UNL     1       1.108  -7.396  -6.342  1.00  0.00     0.167 HD
ATOM     53  C   UNL     1      -0.140 -11.255  -4.618  1.00  0.00     0.031 A 
ATOM     54  C   UNL     1       2.116  -5.791  -8.401  1.00  0.00     0.031 A 
ATOM     55  C   UNL     1      -0.148 -11.455  -6.041  1.00  0.00     0.049 A 
ATOM     56  C   UNL     1       1.722  -7.093  -9.046  1.00  0.00     0.074 A 
ATOM     57  C   UNL     1      -0.554 -12.569  -6.753  1.00  0.00     0.029 A 
ATOM     58  N   UNL     1       0.289 -10.521  -6.971  1.00  0.00    -0.354 N 
ATOM     59  N   UNL     1       1.266  -8.186  -8.481  1.00  0.00    -0.248 NA
ATOM     60  C   UNL     1       1.855  -7.180 -10.507  1.00  0.00     0.031 C 
ATOM     61  C   UNL     1      -0.309 -12.331  -8.109  1.00  0.00     0.029 A 
ATOM     62  C   UNL     1       0.190 -11.044  -8.248  1.00  0.00     0.049 A 
ATOM     63  H   UNL     1       0.621  -9.620  -6.753  1.00  0.00     0.167 HD
ATOM     64  C   UNL     1       1.032  -9.082  -9.518  1.00  0.00     0.074 A 
ATOM     65  C   UNL     1       1.395  -8.403 -10.746  1.00  0.00     0.031 C 
ATOM     66  C   UNL     1       0.553 -10.350  -9.460  1.00  0.00     0.031 A 
BRANCH  53  67
ATOM     67  C   UNL     1      -0.527 -12.399  -3.718  1.00  0.00    -0.014 A 
ATOM     68  C   UNL     1      -1.700 -12.360  -2.942  1.00  0.00     0.010 A 
ATOM     69  C   UNL     1       0.308 -13.528  -3.638  1.00  0.00     0.010 A 
ATOM     70  C   UNL     1      -1.997 -13.400  -2.057  1.00  0.00     0.020 A 
ATOM     71  C   UNL     1      -0.001 -14.584  -2.776  1.00  0.00     0.020 A 
ATOM     72  C   UNL     1      -1.138 -14.501  -1.971  1.00  0.00     0.054 A 
BRANCH  72  73
ATOM     73  S   UNL     1      -1.532 -15.826  -0.797  1.00  0.00     0.124 S 
ATOM     74  O   UNL     1      -1.182 -15.209   0.480  1.00  0.00    -0.237 OA
ATOM     75  O   UNL     1      -2.959 -16.041  -1.020  1.00  0.00    -0.237 OA
ATOM     76  O   UNL     1      -0.667 -16.927  -1.214  1.00  0.00    -0.744 OA
ENDBRANCH  72  73
ENDBRANCH  53  67
BRANCH  54  77
ATOM     77  C   UNL     1       2.696  -4.675  -9.194  1.00  0.00    -0.014 A 
ATOM     78  C   UNL     1       1.882  -3.886 -10.023  1.00  0.00     0.010 A 
ATOM     79  C   UNL     1       4.060  -4.351  -9.065  1.00  0.00     0.010 A 
ATOM     80  C   UNL     1       2.418  -2.785 -10.699  1.00  0.00     0.020 A 
ATOM     81  C   UNL     1       4.594  -3.238  -9.719  1.00  0.00     0.020 A 
ATOM     82  C   UNL     1       3.768  -2.461 -10.533  1.00  0.00     0.054 A 
BRANCH  82  83
ATOM     83  S   UNL     1       4.413  -0.963 -11.329  1.00  0.00     0.124 S 
ATOM     84  O   UNL     1       4.485  -1.369 -12.729  1.00  0.00    -0.237 OA
ATOM     85  O   UNL     1       3.389   0.029 -11.008  1.00  0.00    -0.237 OA
ATOM     86  O   UNL     1       5.699  -0.752 -10.669  1.00  0.00    -0.744 OA
ENDBRANCH  82  83
ENDBRANCH  54  77
BRANCH  66  87
ATOM     87  C   UNL     1       0.347 -11.085 -10.758  1.00  0.00    -0.014 A 
ATOM     88  C   UNL     1       1.430 -11.613 -11.480  1.00  0.00     0.010 A 
ATOM     89  C   UNL     1      -0.965 -11.339 -11.202  1.00  0.00     0.010 A 
ATOM     90  C   UNL     1       1.205 -12.376 -12.630  1.00  0.00     0.020 A 
ATOM     91  C   UNL     1      -1.194 -12.120 -12.337  1.00  0.00     0.020 A 
ATOM     92  C   UNL     1      -0.106 -12.629 -13.048  1.00  0.00     0.054 A 
BRANCH  92  93
ATOM     93  S   UNL     1      -0.373 -13.689 -14.496  1.00  0.00     0.124 S 
ATOM     94  O   UNL     1       0.013 -12.807 -15.594  1.00  0.00    -0.237 OA
ATOM     95  O   UNL     1       0.528 -14.811 -14.243  1.00  0.00    -0.237 OA
ATOM     96  O   UNL     1      -1.796 -14.014 -14.430  1.00  0.00    -0.744 OA
ENDBRANCH  92  93
ENDBRANCH  66  87
ENDBRANCH  40  41
ENDBRANCH  33  35
ENDBRANCH  32  33
ENDBRANCH  31  32
ENDBRANCH  30  31
ENDBRANCH  29  30
ENDBRANCH  28  29
ENDBRANCH   1  28
TORSDOF 24
