REMARK SMILES O=C(Cc1ccn[nH]1)Nc1cc(C(=O)OCCOCCOCCOC(=O)c2ccc(-c3c4nc(c(-c5ccc(S(=O)(=O)[O-])cc5)c5ccc([nH]5)c(-c5ccc(S(=O)(=O)[O-])cc5)c5nc(c(-c6ccc(S(=O)(=O)[O-])cc6)c6ccc3[nH]6)C=C5)C=C4)cc2)c(F)cc1F
REMARK SMILES IDX 19 1 18 2 17 3 16 4 15 5 13 6 14 7 12 8 10 9 11 10 90 11
REMARK SMILES IDX 89 12 91 13 87 14 88 15 9 16 1 17 2 18 3 20 4 21 5 22 8 23
REMARK SMILES IDX 6 24 7 25 20 27 21 28 22 29 23 30 24 31 25 32 26 33 27 34
REMARK SMILES IDX 28 35 86 36 29 37 85 38 30 39 31 40 32 41 79 42 33 43 84 44
REMARK SMILES IDX 78 45 80 46 34 47 83 48 77 49 76 50 35 52 65 53 46 54 64 55
REMARK SMILES IDX 47 56 50 57 63 58 81 59 48 60 49 61 62 63 82 64 51 65 36 66
REMARK SMILES IDX 37 67 45 68 38 69 44 70 39 71 40 72 41 73 42 74 43 75 66 76
REMARK SMILES IDX 67 77 75 78 68 79 74 80 69 81 70 82 71 83 72 84 73 85 52 86
REMARK SMILES IDX 53 87 61 88 54 89 60 90 55 91 56 92 57 93 58 94 59 95
REMARK H PARENT 9 19 8 26 80 51 50 62
REMARK Flexibility Score: inf
ROOT
ATOM      1  C   UNL     1      -2.180   2.742   2.096  1.00  0.00     0.188 C 
ENDROOT
BRANCH   1   2
ATOM      2  O   UNL     1      -3.091   3.114   3.109  1.00  0.00    -0.376 OA
BRANCH   2   3
ATOM      3  C   UNL     1      -2.970   4.358   3.777  1.00  0.00     0.202 C 
BRANCH   3   4
ATOM      4  C   UNL     1      -1.651   5.129   3.940  1.00  0.00     0.261 C 
BRANCH   4   5
ATOM      5  O   UNL     1      -0.737   5.058   2.842  1.00  0.00    -0.460 OA
BRANCH   5   6
ATOM      6  C   UNL     1       0.464   4.497   3.135  1.00  0.00     0.341 C 
ATOM      7  O   UNL     1       0.838   4.081   4.212  1.00  0.00    -0.246 OA
BRANCH   6   8
ATOM      8  C   UNL     1       1.252   4.298   1.908  1.00  0.00     0.098 A 
ATOM      9  C   UNL     1       2.644   2.830   0.580  1.00  0.00     0.078 A 
ATOM     10  C   UNL     1       1.784   3.023   1.663  1.00  0.00     0.048 A 
ATOM     11  C   UNL     1       2.965   3.914  -0.241  1.00  0.00     0.149 A 
ATOM     12  C   UNL     1       2.381   5.162  -0.044  1.00  0.00     0.081 A 
ATOM     13  F   UNL     1       3.793   3.733  -1.281  1.00  0.00    -0.205 F 
ATOM     14  C   UNL     1       1.527   5.350   1.039  1.00  0.00     0.140 A 
ATOM     15  F   UNL     1       1.006   6.568   1.243  1.00  0.00    -0.206 F 
BRANCH   9  16
ATOM     16  N   UNL     1       3.211   1.570   0.304  1.00  0.00    -0.323 N 
ATOM     17  O   UNL     1       1.226   0.411   0.376  1.00  0.00    -0.274 OA
ATOM     18  C   UNL     1       2.450   0.413   0.249  1.00  0.00     0.230 C 
ATOM     19  H   UNL     1       4.181   1.509   0.145  1.00  0.00     0.170 HD
BRANCH  18  20
ATOM     20  C   UNL     1       3.236  -0.865   0.008  1.00  0.00     0.155 C 
BRANCH  20  21
ATOM     21  C   UNL     1       3.920  -0.963  -1.322  1.00  0.00     0.044 A 
ATOM     22  C   UNL     1       4.476  -2.072  -1.932  1.00  0.00     0.045 A 
ATOM     23  N   UNL     1       4.131   0.065  -2.204  1.00  0.00    -0.282 N 
ATOM     24  C   UNL     1       5.069  -1.587  -3.110  1.00  0.00     0.135 A 
ATOM     25  N   UNL     1       4.891  -0.274  -3.257  1.00  0.00    -0.184 NA
ATOM     26  H   UNL     1       3.760   0.968  -2.077  1.00  0.00     0.190 HD
ENDBRANCH  20  21
ENDBRANCH  18  20
ENDBRANCH   9  16
ENDBRANCH   6   8
ENDBRANCH   5   6
ENDBRANCH   4   5
ENDBRANCH   3   4
ENDBRANCH   2   3
ENDBRANCH   1   2
BRANCH   1  27
ATOM     27  C   UNL     1      -2.159   3.524   0.767  1.00  0.00     0.188 C 
BRANCH  27  28
ATOM     28  O   UNL     1      -2.927   4.699   0.616  1.00  0.00    -0.376 OA
BRANCH  28  29
ATOM     29  C   UNL     1      -4.342   4.645   0.671  1.00  0.00     0.202 C 
BRANCH  29  30
ATOM     30  C   UNL     1      -5.194   3.436   0.249  1.00  0.00     0.261 C 
BRANCH  30  31
ATOM     31  O   UNL     1      -4.631   2.137   0.448  1.00  0.00    -0.460 OA
BRANCH  31  32
ATOM     32  C   UNL     1      -4.290   1.483  -0.691  1.00  0.00     0.338 C 
ATOM     33  O   UNL     1      -4.392   1.891  -1.835  1.00  0.00    -0.246 OA
BRANCH  32  34
ATOM     34  C   UNL     1      -3.598   0.232  -0.340  1.00  0.00     0.060 A 
ATOM     35  C   UNL     1      -2.240   0.114  -0.656  1.00  0.00     0.016 A 
ATOM     36  C   UNL     1      -4.288  -0.831   0.244  1.00  0.00     0.016 A 
ATOM     37  C   UNL     1      -1.568  -1.078  -0.397  1.00  0.00     0.010 A 
ATOM     38  C   UNL     1      -3.615  -2.033   0.484  1.00  0.00     0.010 A 
ATOM     39  C   UNL     1      -2.256  -2.167   0.147  1.00  0.00    -0.014 A 
BRANCH  39  40
ATOM     40  C   UNL     1      -1.589  -3.489   0.196  1.00  0.00     0.031 A 
ATOM     41  C   UNL     1      -1.837  -4.458  -0.926  1.00  0.00     0.074 A 
ATOM     42  C   UNL     1      -0.740  -3.806   1.191  1.00  0.00     0.049 A 
ATOM     43  N   UNL     1      -1.406  -5.684  -1.071  1.00  0.00    -0.248 NA
ATOM     44  C   UNL     1      -2.676  -3.976  -2.036  1.00  0.00     0.031 C 
ATOM     45  C   UNL     1      -0.352  -2.922   2.289  1.00  0.00     0.029 A 
ATOM     46  N   UNL     1      -0.054  -4.970   1.438  1.00  0.00    -0.354 N 
ATOM     47  C   UNL     1      -1.930  -6.124  -2.281  1.00  0.00     0.074 A 
ATOM     48  C   UNL     1      -2.723  -5.042  -2.822  1.00  0.00     0.031 C 
ATOM     49  C   UNL     1       0.488  -3.583   3.105  1.00  0.00     0.029 A 
ATOM     50  C   UNL     1       0.668  -4.947   2.607  1.00  0.00     0.049 A 
ATOM     51  H   UNL     1      -0.076  -5.747   0.833  1.00  0.00     0.167 HD
ATOM     52  C   UNL     1      -1.766  -7.323  -2.887  1.00  0.00     0.031 A 
ATOM     53  C   UNL     1       1.365  -5.925   3.221  1.00  0.00     0.031 A 
ATOM     54  C   UNL     1      -0.991  -8.403  -2.338  1.00  0.00     0.049 A 
ATOM     55  C   UNL     1       1.446  -7.288   2.578  1.00  0.00     0.074 A 
ATOM     56  C   UNL     1      -0.770  -9.660  -2.873  1.00  0.00     0.029 A 
ATOM     57  N   UNL     1      -0.319  -8.360  -1.127  1.00  0.00    -0.354 N 
ATOM     58  N   UNL     1       0.951  -7.690   1.431  1.00  0.00    -0.248 NA
ATOM     59  C   UNL     1       2.186  -8.327   3.309  1.00  0.00     0.031 C 
ATOM     60  C   UNL     1      -0.015 -10.397  -1.956  1.00  0.00     0.029 A 
ATOM     61  C   UNL     1       0.295  -9.576  -0.883  1.00  0.00     0.049 A 
ATOM     62  H   UNL     1      -0.283  -7.579  -0.528  1.00  0.00     0.167 HD
ATOM     63  C   UNL     1       1.347  -9.017   1.290  1.00  0.00     0.074 A 
ATOM     64  C   UNL     1       2.134  -9.345   2.461  1.00  0.00     0.031 C 
ATOM     65  C   UNL     1       1.087  -9.885   0.281  1.00  0.00     0.031 A 
BRANCH  52  66
ATOM     66  C   UNL     1      -2.481  -7.547  -4.192  1.00  0.00    -0.014 A 
ATOM     67  C   UNL     1      -2.064  -6.911  -5.375  1.00  0.00     0.010 A 
ATOM     68  C   UNL     1      -3.564  -8.444  -4.240  1.00  0.00     0.010 A 
ATOM     69  C   UNL     1      -2.737  -7.146  -6.577  1.00  0.00     0.020 A 
ATOM     70  C   UNL     1      -4.222  -8.702  -5.445  1.00  0.00     0.020 A 
ATOM     71  C   UNL     1      -3.812  -8.041  -6.604  1.00  0.00     0.054 A 
BRANCH  71  72
ATOM     72  S   UNL     1      -4.645  -8.353  -8.184  1.00  0.00     0.124 S 
ATOM     73  O   UNL     1      -5.357  -7.097  -8.403  1.00  0.00    -0.237 OA
ATOM     74  O   UNL     1      -3.527  -8.607  -9.090  1.00  0.00    -0.237 OA
ATOM     75  O   UNL     1      -5.494  -9.509  -7.908  1.00  0.00    -0.744 OA
ENDBRANCH  71  72
ENDBRANCH  52  66
BRANCH  53  76
ATOM     76  C   UNL     1       2.014  -5.672   4.539  1.00  0.00    -0.014 A 
ATOM     77  C   UNL     1       3.413  -5.686   4.670  1.00  0.00     0.010 A 
ATOM     78  C   UNL     1       1.225  -5.444   5.682  1.00  0.00     0.010 A 
ATOM     79  C   UNL     1       4.010  -5.503   5.922  1.00  0.00     0.020 A 
ATOM     80  C   UNL     1       1.818  -5.229   6.929  1.00  0.00     0.020 A 
ATOM     81  C   UNL     1       3.208  -5.274   7.044  1.00  0.00     0.054 A 
BRANCH  81  82
ATOM     82  S   UNL     1       4.006  -5.003   8.650  1.00  0.00     0.124 S 
ATOM     83  O   UNL     1       4.490  -6.341   8.978  1.00  0.00    -0.237 OA
ATOM     84  O   UNL     1       5.036  -4.019   8.327  1.00  0.00    -0.237 OA
ATOM     85  O   UNL     1       2.921  -4.505   9.492  1.00  0.00    -0.744 OA
ENDBRANCH  81  82
ENDBRANCH  53  76
BRANCH  65  86
ATOM     86  C   UNL     1       1.700 -11.260   0.360  1.00  0.00    -0.014 A 
ATOM     87  C   UNL     1       1.239 -12.220   1.279  1.00  0.00     0.010 A 
ATOM     88  C   UNL     1       2.710 -11.617  -0.553  1.00  0.00     0.010 A 
ATOM     89  C   UNL     1       1.798 -13.501   1.301  1.00  0.00     0.020 A 
ATOM     90  C   UNL     1       3.249 -12.905  -0.554  1.00  0.00     0.020 A 
ATOM     91  C   UNL     1       2.799 -13.836   0.383  1.00  0.00     0.054 A 
BRANCH  91  92
ATOM     92  S   UNL     1       3.472 -15.521   0.400  1.00  0.00     0.124 S 
ATOM     93  O   UNL     1       4.281 -15.513   1.615  1.00  0.00    -0.237 OA
ATOM     94  O   UNL     1       2.268 -16.347   0.451  1.00  0.00    -0.237 OA
ATOM     95  O   UNL     1       4.226 -15.606  -0.849  1.00  0.00    -0.744 OA
ENDBRANCH  91  92
ENDBRANCH  65  86
ENDBRANCH  39  40
ENDBRANCH  32  34
ENDBRANCH  31  32
ENDBRANCH  30  31
ENDBRANCH  29  30
ENDBRANCH  28  29
ENDBRANCH  27  28
ENDBRANCH   1  27
TORSDOF 23
