REMARK SMILES Cc1c(C(=O)OCCOCCOCCOC(=O)c2ccc(-c3c4nc(c(-c5ccc(S(=O)(=O)[O-])cc5)c5ccc([nH]5)c(-c5ccc(S(=O)(=O)[O-])cc5)c5nc(c(-c6ccc(S(=O)(=O)[O-])cc6)c6ccc3[nH]6)C=C5)C=C4)cc2)cccc1-n1c(C)cc(/C=C2/C(=O)NC(=S)N=C2O)c1C
REMARK SMILES IDX 10 1 9 2 8 3 7 4 6 5 4 6 5 7 3 8 1 9 2 10 81 11 78 12 80 13
REMARK SMILES IDX 79 14 82 15 83 16 97 17 84 18 85 19 86 20 98 21 87 22 88 23
REMARK SMILES IDX 89 24 95 25 90 26 91 27 94 28 92 29 93 31 96 32 11 34 12 35
REMARK SMILES IDX 13 36 14 37 15 38 16 39 17 40 18 41 19 42 77 43 20 44 76 45
REMARK SMILES IDX 21 46 22 47 23 48 70 49 24 50 75 51 69 52 71 53 25 54 74 55
REMARK SMILES IDX 68 56 67 57 26 59 56 60 37 61 55 62 38 63 41 64 54 65 72 66
REMARK SMILES IDX 39 67 40 68 53 70 73 71 42 72 27 73 28 74 36 75 29 76 35 77
REMARK SMILES IDX 30 78 31 79 32 80 33 81 34 82 57 83 58 84 66 85 59 86 65 87
REMARK SMILES IDX 60 88 61 89 62 90 63 91 64 92 43 93 44 94 52 95 45 96 51 97
REMARK SMILES IDX 46 98 47 99 48 100 49 101 50 102
REMARK H PARENT 91 30 96 33 71 58 41 69
REMARK Flexibility Score: inf
ROOT
ATOM      1  C   UNL     1       2.928  -5.715   2.322  1.00  0.00     0.188 C 
ENDROOT
BRANCH   1   2
ATOM      2  O   UNL     1       3.939  -5.084   1.504  1.00  0.00    -0.376 OA
BRANCH   2   3
ATOM      3  C   UNL     1       4.735  -3.951   1.912  1.00  0.00     0.202 C 
BRANCH   3   4
ATOM      4  C   UNL     1       4.735  -2.578   1.015  1.00  0.00     0.261 C 
BRANCH   4   5
ATOM      5  O   UNL     1       3.570  -1.311   0.970  1.00  0.00    -0.460 OA
BRANCH   5   6
ATOM      6  C   UNL     1       2.526  -0.833   0.122  1.00  0.00     0.338 C 
ATOM      7  O   UNL     1       2.369  -0.947  -1.092  1.00  0.00    -0.246 OA
BRANCH   6   8
ATOM      8  C   UNL     1       1.380   0.017   0.502  1.00  0.00     0.065 A 
ATOM      9  C   UNL     1       3.099   1.798   0.606  1.00  0.00     0.047 C 
ATOM     10  C   UNL     1       1.667   1.367   0.432  1.00  0.00    -0.012 A 
ATOM     11  C   UNL     1       0.619   2.223   0.034  1.00  0.00     0.049 A 
ATOM     12  C   UNL     1       0.055  -0.407   0.146  1.00  0.00     0.016 A 
ATOM     13  C   UNL     1      -0.694   1.820  -0.241  1.00  0.00     0.027 A 
ATOM     14  C   UNL     1      -0.982   0.477  -0.179  1.00  0.00     0.003 A 
BRANCH  11  15
ATOM     15  N   UNL     1       0.865   3.591   0.051  1.00  0.00    -0.318 N 
ATOM     16  C   UNL     1       1.453   4.314  -0.965  1.00  0.00     0.020 A 
ATOM     17  C   UNL     1       0.901   4.290   1.241  1.00  0.00     0.027 A 
ATOM     18  C   UNL     1       1.721   3.744  -2.320  1.00  0.00     0.065 C 
ATOM     19  C   UNL     1       1.769   5.549  -0.433  1.00  0.00     0.031 A 
ATOM     20  C   UNL     1       1.403   5.541   0.942  1.00  0.00    -0.003 A 
ATOM     21  C   UNL     1       0.497   3.615   2.522  1.00  0.00     0.065 C 
BRANCH  20  22
ATOM     22  C   UNL     1       1.706   6.565   1.877  1.00  0.00     0.029 C 
ATOM     23  C   UNL     1       1.004   6.972   2.949  1.00  0.00     0.102 C 
ATOM     24  C   UNL     1       1.724   7.842   3.900  1.00  0.00     0.262 C 
ATOM     25  C   UNL     1      -0.325   6.558   3.407  1.00  0.00     0.226 C 
ATOM     26  O   UNL     1       2.747   8.472   3.636  1.00  0.00    -0.269 OA
ATOM     27  N   UNL     1       1.180   7.851   5.154  1.00  0.00    -0.297 N 
ATOM     28  N   UNL     1      -0.790   6.664   4.598  1.00  0.00    -0.184 NA
ATOM     29  C   UNL     1       0.011   7.244   5.545  1.00  0.00     0.203 C 
ATOM     30  H   UNL     1       1.676   8.342   5.848  1.00  0.00     0.172 HD
ATOM     31  S   UNL     1      -0.390   7.317   7.171  1.00  0.00    -0.038 S 
BRANCH  25  32
ATOM     32  O   UNL     1      -1.153   6.075   2.476  1.00  0.00    -0.493 OA
ATOM     33  H   UNL     1      -0.859   5.979   1.592  1.00  0.00     0.295 HD
ENDBRANCH  25  32
ENDBRANCH  20  22
ENDBRANCH  11  15
ENDBRANCH   6   8
ENDBRANCH   5   6
ENDBRANCH   4   5
ENDBRANCH   3   4
ENDBRANCH   2   3
ENDBRANCH   1   2
BRANCH   1  34
ATOM     34  C   UNL     1       2.920  -5.611   3.853  1.00  0.00     0.188 C 
BRANCH  34  35
ATOM     35  O   UNL     1       3.127  -4.270   4.257  1.00  0.00    -0.376 OA
BRANCH  35  36
ATOM     36  C   UNL     1       3.086  -4.003   5.645  1.00  0.00     0.202 C 
BRANCH  36  37
ATOM     37  C   UNL     1       1.657  -3.804   6.178  1.00  0.00     0.261 C 
BRANCH  37  38
ATOM     38  O   UNL     1       1.025  -2.606   5.659  1.00  0.00    -0.460 OA
BRANCH  38  39
ATOM     39  C   UNL     1      -0.112  -2.758   4.884  1.00  0.00     0.338 C 
ATOM     40  O   UNL     1      -1.230  -2.650   5.354  1.00  0.00    -0.246 OA
BRANCH  39  41
ATOM     41  C   UNL     1       0.231  -2.816   3.421  1.00  0.00     0.060 A 
ATOM     42  C   UNL     1      -0.454  -3.384   2.341  1.00  0.00     0.016 A 
ATOM     43  C   UNL     1       1.453  -2.350   3.108  1.00  0.00     0.016 A 
ATOM     44  C   UNL     1       0.177  -3.611   1.017  1.00  0.00     0.010 A 
ATOM     45  C   UNL     1       2.034  -2.803   1.921  1.00  0.00     0.010 A 
ATOM     46  C   UNL     1       1.523  -3.332   0.724  1.00  0.00    -0.014 A 
BRANCH  46  47
ATOM     47  C   UNL     1       2.407  -3.723  -0.650  1.00  0.00     0.031 A 
ATOM     48  C   UNL     1       3.392  -2.857  -1.784  1.00  0.00     0.074 A 
ATOM     49  C   UNL     1       2.183  -4.965  -1.139  1.00  0.00     0.049 A 
ATOM     50  N   UNL     1       3.228  -2.915  -3.100  1.00  0.00    -0.248 NA
ATOM     51  C   UNL     1       4.511  -1.841  -1.560  1.00  0.00     0.031 C 
ATOM     52  C   UNL     1       2.829  -5.599  -2.285  1.00  0.00     0.029 A 
ATOM     53  N   UNL     1       1.138  -5.825  -0.822  1.00  0.00    -0.354 N 
ATOM     54  C   UNL     1       4.125  -2.024  -3.721  1.00  0.00     0.074 A 
ATOM     55  C   UNL     1       4.813  -1.312  -2.725  1.00  0.00     0.031 C 
ATOM     56  C   UNL     1       2.011  -6.549  -2.762  1.00  0.00     0.029 A 
ATOM     57  C   UNL     1       0.788  -6.520  -1.983  1.00  0.00     0.049 A 
ATOM     58  H   UNL     1       0.719  -5.926   0.064  1.00  0.00     0.167 HD
ATOM     59  C   UNL     1       4.423  -1.916  -5.040  1.00  0.00     0.031 A 
ATOM     60  C   UNL     1      -0.488  -6.509  -2.458  1.00  0.00     0.031 A 
ATOM     61  C   UNL     1       3.854  -2.993  -5.774  1.00  0.00     0.049 A 
ATOM     62  C   UNL     1      -0.614  -5.977  -3.873  1.00  0.00     0.074 A 
ATOM     63  C   UNL     1       4.321  -4.240  -6.139  1.00  0.00     0.029 A 
ATOM     64  N   UNL     1       2.486  -3.031  -5.867  1.00  0.00    -0.354 N 
ATOM     65  N   UNL     1       0.380  -5.561  -4.611  1.00  0.00    -0.248 NA
ATOM     66  C   UNL     1      -1.906  -5.798  -4.540  1.00  0.00     0.031 C 
ATOM     67  C   UNL     1       3.192  -5.032  -6.484  1.00  0.00     0.029 A 
ATOM     68  C   UNL     1       2.069  -4.236  -6.377  1.00  0.00     0.049 A 
ATOM     69  H   UNL     1       1.886  -2.296  -5.604  1.00  0.00     0.167 HD
ATOM     70  C   UNL     1      -0.114  -5.002  -5.764  1.00  0.00     0.074 A 
ATOM     71  C   UNL     1      -1.547  -5.193  -5.685  1.00  0.00     0.031 C 
ATOM     72  C   UNL     1       0.666  -4.365  -6.682  1.00  0.00     0.031 A 
BRANCH  59  73
ATOM     73  C   UNL     1       5.529  -0.972  -5.473  1.00  0.00    -0.014 A 
ATOM     74  C   UNL     1       6.720  -1.495  -6.000  1.00  0.00     0.010 A 
ATOM     75  C   UNL     1       5.510   0.414  -5.165  1.00  0.00     0.010 A 
ATOM     76  C   UNL     1       7.879  -0.708  -6.104  1.00  0.00     0.020 A 
ATOM     77  C   UNL     1       6.677   1.201  -5.236  1.00  0.00     0.020 A 
ATOM     78  C   UNL     1       7.864   0.625  -5.687  1.00  0.00     0.054 A 
BRANCH  78  79
ATOM     79  S   UNL     1       9.439   1.539  -5.611  1.00  0.00     0.124 S 
ATOM     80  O   UNL     1      10.364   0.544  -5.071  1.00  0.00    -0.237 OA
ATOM     81  O   UNL     1       9.658   1.906  -7.006  1.00  0.00    -0.237 OA
ATOM     82  O   UNL     1       9.150   2.651  -4.707  1.00  0.00    -0.744 OA
ENDBRANCH  78  79
ENDBRANCH  59  73
BRANCH  60  83
ATOM     83  C   UNL     1      -1.533  -6.462  -1.386  1.00  0.00    -0.014 A 
ATOM     84  C   UNL     1      -1.537  -7.520  -0.446  1.00  0.00     0.010 A 
ATOM     85  C   UNL     1      -2.267  -5.303  -1.083  1.00  0.00     0.010 A 
ATOM     86  C   UNL     1      -2.119  -7.371   0.815  1.00  0.00     0.020 A 
ATOM     87  C   UNL     1      -2.879  -5.158   0.180  1.00  0.00     0.020 A 
ATOM     88  C   UNL     1      -2.750  -6.173   1.137  1.00  0.00     0.054 A 
BRANCH  88  89
ATOM     89  S   UNL     1      -3.216  -5.914   2.879  1.00  0.00     0.124 S 
ATOM     90  O   UNL     1      -4.163  -6.998   3.117  1.00  0.00    -0.237 OA
ATOM     91  O   UNL     1      -1.925  -6.049   3.555  1.00  0.00    -0.237 OA
ATOM     92  O   UNL     1      -3.784  -4.569   2.877  1.00  0.00    -0.744 OA
ENDBRANCH  88  89
ENDBRANCH  60  83
BRANCH  72  93
ATOM     93  C   UNL     1       0.181  -3.719  -7.953  1.00  0.00    -0.014 A 
ATOM     94  C   UNL     1      -0.751  -4.333  -8.799  1.00  0.00     0.010 A 
ATOM     95  C   UNL     1       0.792  -2.526  -8.417  1.00  0.00     0.010 A 
ATOM     96  C   UNL     1      -1.088  -3.755 -10.032  1.00  0.00     0.020 A 
ATOM     97  C   UNL     1       0.480  -1.955  -9.650  1.00  0.00     0.020 A 
ATOM     98  C   UNL     1      -0.473  -2.569 -10.447  1.00  0.00     0.054 A 
BRANCH  98  99
ATOM     99  S   UNL     1      -0.892  -1.868 -12.061  1.00  0.00     0.124 S 
ATOM    100  O   UNL     1      -0.792  -3.027 -12.946  1.00  0.00    -0.237 OA
ATOM    101  O   UNL     1      -2.245  -1.369 -11.831  1.00  0.00    -0.237 OA
ATOM    102  O   UNL     1       0.124  -0.840 -12.274  1.00  0.00    -0.744 OA
ENDBRANCH  98  99
ENDBRANCH  72  93
ENDBRANCH  46  47
ENDBRANCH  39  41
ENDBRANCH  38  39
ENDBRANCH  37  38
ENDBRANCH  36  37
ENDBRANCH  35  36
ENDBRANCH  34  35
ENDBRANCH   1  34
TORSDOF 23
