REMARK SMILES C#CC[N@H+](CC(=O)OCCOCCOCCOC(=O)c1ccc(-c2c3nc(c(-c4ccc(S(=O)(=O)[O-])cc4)c4ccc([nH]4)c(-c4ccc(S(=O)(=O)[O-])cc4)c4nc(c(-c5ccc(S(=O)(=O)[O-])cc5)c5ccc2[nH]5)C=C4)C=C3)cc1)[C@H](C)c1nc2ccccc2s1
REMARK SMILES IDX 12 1 11 2 10 3 9 4 8 5 6 6 7 7 5 8 4 9 3 11 2 12 1 13 80 14
REMARK SMILES IDX 81 15 82 16 83 17 90 18 84 19 89 20 85 21 88 22 86 23 87 24
REMARK SMILES IDX 13 25 14 26 15 27 16 28 17 29 18 30 19 31 20 32 21 33 79 34
REMARK SMILES IDX 22 35 78 36 23 37 24 38 25 39 72 40 26 41 77 42 71 43 73 44
REMARK SMILES IDX 27 45 76 46 70 47 69 48 28 50 58 51 39 52 57 53 40 54 43 55
REMARK SMILES IDX 56 56 74 57 41 58 42 59 55 61 75 62 44 63 29 64 30 65 38 66
REMARK SMILES IDX 31 67 37 68 32 69 33 70 34 71 35 72 36 73 59 74 60 75 68 76
REMARK SMILES IDX 61 77 67 78 62 79 63 80 64 81 65 82 66 83 45 84 46 85 54 86
REMARK SMILES IDX 47 87 53 88 48 89 49 90 50 91 51 92 52 93
REMARK H PARENT 4 10 73 49 43 60
REMARK Flexibility Score: inf
ROOT
ATOM      1  C   UNL     1      -4.039  -5.396  -2.299  1.00  0.00     0.188 C 
ENDROOT
BRANCH   1   2
ATOM      2  O   UNL     1      -4.771  -5.561  -3.509  1.00  0.00    -0.376 OA
BRANCH   2   3
ATOM      3  C   UNL     1      -4.824  -4.474  -4.429  1.00  0.00     0.202 C 
BRANCH   3   4
ATOM      4  C   UNL     1      -5.092  -3.045  -3.916  1.00  0.00     0.261 C 
BRANCH   4   5
ATOM      5  O   UNL     1      -4.217  -2.600  -2.856  1.00  0.00    -0.459 OA
BRANCH   5   6
ATOM      6  C   UNL     1      -4.800  -2.176  -1.712  1.00  0.00     0.361 C 
ATOM      7  O   UNL     1      -6.018  -2.066  -1.575  1.00  0.00    -0.245 OA
BRANCH   6   8
ATOM      8  C   UNL     1      -3.868  -1.853  -0.537  1.00  0.00     0.387 C 
BRANCH   8   9
ATOM      9  N   UNL     1      -2.385  -1.995  -0.660  1.00  0.00    -0.308 N 
ATOM     10  H   UNL     1      -2.171  -2.931  -1.003  1.00  0.00     0.350 HD
BRANCH   9  11
ATOM     11  C   UNL     1      -1.816  -1.107  -1.688  1.00  0.00     0.355 C 
BRANCH  11  12
ATOM     12  C   UNL     1      -0.540  -1.612  -2.235  1.00  0.00    -0.047 C 
ATOM     13  C   UNL     1       0.532  -1.994  -2.635  1.00  0.00     0.010 C 
ENDBRANCH  11  12
ENDBRANCH   9  11
BRANCH   9  14
ATOM     14  C   UNL     1      -1.740  -1.869   0.704  1.00  0.00     0.242 C 
ATOM     15  C   UNL     1      -2.269  -0.690   1.547  1.00  0.00     0.083 C 
BRANCH  14  16
ATOM     16  C   UNL     1      -0.215  -1.798   0.704  1.00  0.00     0.151 A 
ATOM     17  N   UNL     1       0.456  -0.672   0.550  1.00  0.00    -0.235 NA
ATOM     18  S   UNL     1       0.756  -3.205   0.910  1.00  0.00    -0.113 S 
ATOM     19  C   UNL     1       1.796  -0.947   0.363  1.00  0.00     0.082 A 
ATOM     20  C   UNL     1       2.164  -2.284   0.516  1.00  0.00     0.055 A 
ATOM     21  C   UNL     1       2.773  -0.005  -0.015  1.00  0.00     0.030 A 
ATOM     22  C   UNL     1       3.490  -2.709   0.319  1.00  0.00     0.021 A 
ATOM     23  C   UNL     1       4.083  -0.424  -0.262  1.00  0.00     0.002 A 
ATOM     24  C   UNL     1       4.435  -1.760  -0.091  1.00  0.00     0.002 A 
ENDBRANCH  14  16
ENDBRANCH   9  14
ENDBRANCH   8   9
ENDBRANCH   6   8
ENDBRANCH   5   6
ENDBRANCH   4   5
ENDBRANCH   3   4
ENDBRANCH   2   3
ENDBRANCH   1   2
BRANCH   1  25
ATOM     25  C   UNL     1      -2.605  -4.842  -2.372  1.00  0.00     0.188 C 
BRANCH  25  26
ATOM     26  O   UNL     1      -2.258  -4.305  -3.626  1.00  0.00    -0.376 OA
BRANCH  26  27
ATOM     27  C   UNL     1      -1.288  -4.972  -4.407  1.00  0.00     0.202 C 
BRANCH  27  28
ATOM     28  C   UNL     1      -1.245  -6.510  -4.529  1.00  0.00     0.261 C 
BRANCH  28  29
ATOM     29  O   UNL     1      -1.754  -7.290  -3.436  1.00  0.00    -0.460 OA
BRANCH  29  30
ATOM     30  C   UNL     1      -0.894  -7.535  -2.417  1.00  0.00     0.338 C 
ATOM     31  O   UNL     1       0.267  -7.172  -2.339  1.00  0.00    -0.246 OA
BRANCH  30  32
ATOM     32  C   UNL     1      -1.656  -8.121  -1.290  1.00  0.00     0.060 A 
ATOM     33  C   UNL     1      -1.746  -7.407  -0.085  1.00  0.00     0.016 A 
ATOM     34  C   UNL     1      -2.239  -9.383  -1.405  1.00  0.00     0.016 A 
ATOM     35  C   UNL     1      -2.364  -7.979   1.026  1.00  0.00     0.010 A 
ATOM     36  C   UNL     1      -2.838  -9.966  -0.282  1.00  0.00     0.010 A 
ATOM     37  C   UNL     1      -2.854  -9.288   0.952  1.00  0.00    -0.014 A 
BRANCH  37  38
ATOM     38  C   UNL     1      -3.154 -10.023   2.208  1.00  0.00     0.031 A 
ATOM     39  C   UNL     1      -2.122 -10.992   2.730  1.00  0.00     0.074 A 
ATOM     40  C   UNL     1      -4.285  -9.803   2.904  1.00  0.00     0.049 A 
ATOM     41  N   UNL     1      -2.155 -11.746   3.798  1.00  0.00    -0.248 NA
ATOM     42  C   UNL     1      -0.890 -11.130   1.935  1.00  0.00     0.031 C 
ATOM     43  C   UNL     1      -5.338  -8.860   2.535  1.00  0.00     0.029 A 
ATOM     44  N   UNL     1      -4.730 -10.365   4.075  1.00  0.00    -0.354 N 
ATOM     45  C   UNL     1      -0.959 -12.457   3.795  1.00  0.00     0.074 A 
ATOM     46  C   UNL     1      -0.241 -12.074   2.599  1.00  0.00     0.031 C 
ATOM     47  C   UNL     1      -6.310  -8.908   3.463  1.00  0.00     0.029 A 
ATOM     48  C   UNL     1      -5.965  -9.909   4.472  1.00  0.00     0.049 A 
ATOM     49  H   UNL     1      -4.214 -11.032   4.583  1.00  0.00     0.167 HD
ATOM     50  C   UNL     1      -0.491 -13.341   4.709  1.00  0.00     0.031 A 
ATOM     51  C   UNL     1      -6.734 -10.270   5.519  1.00  0.00     0.031 A 
ATOM     52  C   UNL     1      -1.212 -13.729   5.893  1.00  0.00     0.049 A 
ATOM     53  C   UNL     1      -6.225 -11.311   6.485  1.00  0.00     0.074 A 
ATOM     54  C   UNL     1      -0.818 -14.603   6.891  1.00  0.00     0.029 A 
ATOM     55  N   UNL     1      -2.477 -13.277   6.236  1.00  0.00    -0.354 N 
ATOM     56  N   UNL     1      -5.079 -11.951   6.485  1.00  0.00    -0.248 NA
ATOM     57  C   UNL     1      -7.110 -11.665   7.603  1.00  0.00     0.031 C 
ATOM     58  C   UNL     1      -1.875 -14.737   7.796  1.00  0.00     0.029 A 
ATOM     59  C   UNL     1      -2.893 -13.880   7.411  1.00  0.00     0.049 A 
ATOM     60  H   UNL     1      -3.002 -12.623   5.719  1.00  0.00     0.167 HD
ATOM     61  C   UNL     1      -5.094 -12.758   7.620  1.00  0.00     0.074 A 
ATOM     62  C   UNL     1      -6.351 -12.504   8.293  1.00  0.00     0.031 C 
ATOM     63  C   UNL     1      -4.153 -13.628   8.068  1.00  0.00     0.031 A 
BRANCH  50  64
ATOM     64  C   UNL     1       0.849 -13.979   4.441  1.00  0.00    -0.014 A 
ATOM     65  C   UNL     1       2.041 -13.232   4.478  1.00  0.00     0.010 A 
ATOM     66  C   UNL     1       0.919 -15.361   4.183  1.00  0.00     0.010 A 
ATOM     67  C   UNL     1       3.271 -13.846   4.224  1.00  0.00     0.020 A 
ATOM     68  C   UNL     1       2.150 -15.986   3.963  1.00  0.00     0.020 A 
ATOM     69  C   UNL     1       3.317 -15.220   3.970  1.00  0.00     0.054 A 
BRANCH  69  70
ATOM     70  S   UNL     1       4.931 -15.995   3.675  1.00  0.00     0.124 S 
ATOM     71  O   UNL     1       5.300 -15.439   2.375  1.00  0.00    -0.237 OA
ATOM     72  O   UNL     1       5.722 -15.521   4.807  1.00  0.00    -0.237 OA
ATOM     73  O   UNL     1       4.636 -17.426   3.678  1.00  0.00    -0.744 OA
ENDBRANCH  69  70
ENDBRANCH  50  64
BRANCH  51  74
ATOM     74  C   UNL     1      -8.078  -9.652   5.710  1.00  0.00    -0.014 A 
ATOM     75  C   UNL     1      -8.344  -8.827   6.817  1.00  0.00     0.010 A 
ATOM     76  C   UNL     1      -9.109  -9.900   4.784  1.00  0.00     0.010 A 
ATOM     77  C   UNL     1      -9.617  -8.281   7.007  1.00  0.00     0.020 A 
ATOM     78  C   UNL     1     -10.373  -9.327   4.951  1.00  0.00     0.020 A 
ATOM     79  C   UNL     1     -10.622  -8.529   6.068  1.00  0.00     0.054 A 
BRANCH  79  80
ATOM     80  S   UNL     1     -12.250  -7.765   6.309  1.00  0.00     0.124 S 
ATOM     81  O   UNL     1     -12.759  -8.489   7.469  1.00  0.00    -0.237 OA
ATOM     82  O   UNL     1     -11.907  -6.364   6.537  1.00  0.00    -0.237 OA
ATOM     83  O   UNL     1     -12.944  -8.033   5.051  1.00  0.00    -0.744 OA
ENDBRANCH  79  80
ENDBRANCH  51  74
BRANCH  63  84
ATOM     84  C   UNL     1      -4.428 -14.340   9.371  1.00  0.00    -0.014 A 
ATOM     85  C   UNL     1      -5.461 -15.287   9.492  1.00  0.00     0.010 A 
ATOM     86  C   UNL     1      -3.621 -14.068  10.492  1.00  0.00     0.010 A 
ATOM     87  C   UNL     1      -5.721 -15.899  10.722  1.00  0.00     0.020 A 
ATOM     88  C   UNL     1      -3.851 -14.708  11.712  1.00  0.00     0.020 A 
ATOM     89  C   UNL     1      -4.917 -15.602  11.826  1.00  0.00     0.054 A 
BRANCH  89  90
ATOM     90  S   UNL     1      -5.274 -16.410  13.409  1.00  0.00     0.124 S 
ATOM     91  O   UNL     1      -6.521 -15.763  13.806  1.00  0.00    -0.237 OA
ATOM     92  O   UNL     1      -5.388 -17.817  13.031  1.00  0.00    -0.237 OA
ATOM     93  O   UNL     1      -4.114 -16.085  14.236  1.00  0.00    -0.744 OA
ENDBRANCH  89  90
ENDBRANCH  63  84
ENDBRANCH  37  38
ENDBRANCH  30  32
ENDBRANCH  29  30
ENDBRANCH  28  29
ENDBRANCH  27  28
ENDBRANCH  26  27
ENDBRANCH  25  26
ENDBRANCH   1  25
TORSDOF 25
