REMARK SMILES Cc1cc(C)c2c(O[C@@H](C)C(=O)OCCOCCOCCOC(=O)c3ccc(-c4c5nc(c(-c6ccc(S(=O)(=O)[O-])cc6)c6ccc([nH]6)c(-c6ccc(S(=O)(=O)[O-])cc6)c6nc(c(-c7ccc(S(=O)(=O)[O-])cc7)c7ccc4[nH]7)C=C6)C=C5)cc3)nsc2n1
REMARK SMILES IDX 18 1 17 2 16 3 15 4 14 5 13 6 11 7 12 8 9 9 10 10 8 11 7 12
REMARK SMILES IDX 1 13 2 14 3 15 88 16 4 17 87 18 5 19 6 20 86 21 85 22 19 23
REMARK SMILES IDX 20 24 21 25 22 26 23 27 24 28 25 29 26 30 84 31 27 32 83 33
REMARK SMILES IDX 28 34 29 35 30 36 77 37 31 38 82 39 76 40 78 41 32 42 81 43
REMARK SMILES IDX 75 44 74 45 33 47 63 48 44 49 62 50 45 51 48 52 61 53 79 54
REMARK SMILES IDX 46 55 47 56 60 58 80 59 49 60 34 61 35 62 43 63 36 64 42 65
REMARK SMILES IDX 37 66 38 67 39 68 40 69 41 70 64 71 65 72 73 73 66 74 72 75
REMARK SMILES IDX 67 76 68 77 69 78 70 79 71 80 50 81 51 82 59 83 52 84 58 85
REMARK SMILES IDX 53 86 54 87 55 88 56 89 57 90
REMARK H PARENT 78 46 48 57
REMARK Flexibility Score: inf
ROOT
ATOM      1  C   UNL     1       1.213   4.789   5.200  1.00  0.00     0.188 C 
ENDROOT
BRANCH   1   2
ATOM      2  C   UNL     1       0.951   4.263   6.632  1.00  0.00     0.188 C 
BRANCH   2   3
ATOM      3  O   UNL     1       1.607   3.075   7.060  1.00  0.00    -0.376 OA
BRANCH   3   4
ATOM      4  C   UNL     1       1.554   1.933   6.209  1.00  0.00     0.202 C 
BRANCH   4   5
ATOM      5  C   UNL     1       0.212   1.548   5.553  1.00  0.00     0.261 C 
BRANCH   5   6
ATOM      6  O   UNL     1      -0.416   2.605   4.796  1.00  0.00    -0.461 OA
BRANCH   6   7
ATOM      7  C   UNL     1      -1.717   2.905   5.028  1.00  0.00     0.347 C 
ATOM      8  O   UNL     1      -2.431   2.299   5.819  1.00  0.00    -0.248 OA
BRANCH   7   9
ATOM      9  C   UNL     1      -2.201   4.138   4.213  1.00  0.00     0.281 C 
ATOM     10  C   UNL     1      -3.666   4.051   3.781  1.00  0.00     0.066 C 
BRANCH   9  11
ATOM     11  O   UNL     1      -1.558   4.855   3.202  1.00  0.00    -0.462 OA
BRANCH  11  12
ATOM     12  C   UNL     1      -0.783   4.305   2.245  1.00  0.00     0.236 A 
ATOM     13  C   UNL     1       1.462  -0.225  -0.345  1.00  0.00     0.067 C 
ATOM     14  C   UNL     1       0.769   0.878   0.394  1.00  0.00     0.039 A 
ATOM     15  C   UNL     1      -0.279   0.590   1.248  1.00  0.00     0.027 A 
ATOM     16  N   UNL     1       1.167   2.124   0.121  1.00  0.00    -0.240 NA
ATOM     17  C   UNL     1      -0.991   1.613   1.912  1.00  0.00    -0.034 A 
ATOM     18  C   UNL     1       0.518   3.086   0.805  1.00  0.00     0.147 A 
ATOM     19  C   UNL     1      -2.152   1.099   2.719  1.00  0.00     0.045 C 
ATOM     20  C   UNL     1      -0.525   2.957   1.740  1.00  0.00     0.078 A 
ATOM     21  S   UNL     1       0.913   4.716   0.546  1.00  0.00    -0.012 S 
ATOM     22  N   UNL     1      -0.146   5.310   1.642  1.00  0.00    -0.153 NA
ENDBRANCH  11  12
ENDBRANCH   9  11
ENDBRANCH   7   9
ENDBRANCH   6   7
ENDBRANCH   5   6
ENDBRANCH   4   5
ENDBRANCH   3   4
ENDBRANCH   2   3
ENDBRANCH   1   2
BRANCH   1  23
ATOM     23  O   UNL     1       1.806   3.838   4.332  1.00  0.00    -0.376 OA
BRANCH  23  24
ATOM     24  C   UNL     1       3.095   4.037   3.772  1.00  0.00     0.202 C 
BRANCH  24  25
ATOM     25  C   UNL     1       4.298   4.316   4.673  1.00  0.00     0.261 C 
BRANCH  25  26
ATOM     26  O   UNL     1       3.977   5.061   5.824  1.00  0.00    -0.460 OA
BRANCH  26  27
ATOM     27  C   UNL     1       3.717   6.365   5.603  1.00  0.00     0.338 C 
ATOM     28  O   UNL     1       3.759   6.963   4.549  1.00  0.00    -0.246 OA
BRANCH  27  29
ATOM     29  C   UNL     1       3.271   6.921   6.886  1.00  0.00     0.060 A 
ATOM     30  C   UNL     1       2.660   8.176   6.872  1.00  0.00     0.016 A 
ATOM     31  C   UNL     1       3.729   6.312   8.058  1.00  0.00     0.016 A 
ATOM     32  C   UNL     1       2.870   8.985   7.960  1.00  0.00     0.010 A 
ATOM     33  C   UNL     1       3.958   7.118   9.127  1.00  0.00     0.010 A 
ATOM     34  C   UNL     1       3.677   8.474   8.976  1.00  0.00    -0.014 A 
BRANCH  34  35
ATOM     35  C   UNL     1       4.482   9.396   9.740  1.00  0.00     0.031 A 
ATOM     36  C   UNL     1       3.942   9.676  11.078  1.00  0.00     0.074 A 
ATOM     37  C   UNL     1       5.697   9.758   9.281  1.00  0.00     0.049 A 
ATOM     38  N   UNL     1       3.325  10.741  11.465  1.00  0.00    -0.248 NA
ATOM     39  C   UNL     1       3.854   8.545  12.018  1.00  0.00     0.031 C 
ATOM     40  C   UNL     1       6.445   9.236   8.127  1.00  0.00     0.029 A 
ATOM     41  N   UNL     1       6.590  10.601   9.847  1.00  0.00    -0.354 N 
ATOM     42  C   UNL     1       2.949  10.467  12.771  1.00  0.00     0.074 A 
ATOM     43  C   UNL     1       3.011   9.039  12.920  1.00  0.00     0.031 C 
ATOM     44  C   UNL     1       7.748   9.586   8.246  1.00  0.00     0.029 A 
ATOM     45  C   UNL     1       7.898  10.448   9.407  1.00  0.00     0.049 A 
ATOM     46  H   UNL     1       6.332  11.273  10.519  1.00  0.00     0.167 HD
ATOM     47  C   UNL     1       2.929  11.422  13.739  1.00  0.00     0.031 A 
ATOM     48  C   UNL     1       9.004  10.914  10.047  1.00  0.00     0.031 A 
ATOM     49  C   UNL     1       3.063  12.743  13.185  1.00  0.00     0.049 A 
ATOM     50  C   UNL     1       8.531  11.935  11.026  1.00  0.00     0.074 A 
ATOM     51  C   UNL     1       2.297  13.509  12.330  1.00  0.00     0.029 A 
ATOM     52  N   UNL     1       4.332  13.280  13.152  1.00  0.00    -0.354 N 
ATOM     53  N   UNL     1       7.971  13.062  10.680  1.00  0.00    -0.248 NA
ATOM     54  C   UNL     1       8.222  11.484  12.378  1.00  0.00     0.031 C 
ATOM     55  C   UNL     1       3.233  14.180  11.492  1.00  0.00     0.029 A 
ATOM     56  C   UNL     1       4.523  13.849  11.915  1.00  0.00     0.049 A 
ATOM     57  H   UNL     1       4.988  13.259  13.886  1.00  0.00     0.167 HD
ATOM     58  C   UNL     1       6.930  13.247  11.584  1.00  0.00     0.074 A 
ATOM     59  C   UNL     1       7.187  12.286  12.655  1.00  0.00     0.031 C 
ATOM     60  C   UNL     1       5.805  13.943  11.238  1.00  0.00     0.031 A 
BRANCH  47  61
ATOM     61  C   UNL     1       3.164  11.111  15.192  1.00  0.00    -0.014 A 
ATOM     62  C   UNL     1       2.908  12.102  16.152  1.00  0.00     0.010 A 
ATOM     63  C   UNL     1       3.825   9.943  15.636  1.00  0.00     0.010 A 
ATOM     64  C   UNL     1       3.318  11.939  17.483  1.00  0.00     0.020 A 
ATOM     65  C   UNL     1       4.186   9.745  16.965  1.00  0.00     0.020 A 
ATOM     66  C   UNL     1       3.958  10.761  17.877  1.00  0.00     0.054 A 
BRANCH  66  67
ATOM     67  S   UNL     1       4.567  10.600  19.570  1.00  0.00     0.124 S 
ATOM     68  O   UNL     1       5.587  11.643  19.623  1.00  0.00    -0.237 OA
ATOM     69  O   UNL     1       3.362  10.847  20.356  1.00  0.00    -0.237 OA
ATOM     70  O   UNL     1       5.071   9.229  19.625  1.00  0.00    -0.744 OA
ENDBRANCH  66  67
ENDBRANCH  47  61
BRANCH  48  71
ATOM     71  C   UNL     1      10.322  10.231  10.182  1.00  0.00    -0.014 A 
ATOM     72  C   UNL     1      11.434  10.899  10.732  1.00  0.00     0.010 A 
ATOM     73  C   UNL     1      10.412   8.830  10.044  1.00  0.00     0.010 A 
ATOM     74  C   UNL     1      12.557  10.186  11.193  1.00  0.00     0.020 A 
ATOM     75  C   UNL     1      11.529   8.113  10.494  1.00  0.00     0.020 A 
ATOM     76  C   UNL     1      12.585   8.792  11.095  1.00  0.00     0.054 A 
BRANCH  76  77
ATOM     77  S   UNL     1      13.940   7.862  11.873  1.00  0.00     0.124 S 
ATOM     78  O   UNL     1      15.085   8.222  11.042  1.00  0.00    -0.237 OA
ATOM     79  O   UNL     1      13.951   8.396  13.232  1.00  0.00    -0.237 OA
ATOM     80  O   UNL     1      13.509   6.469  11.764  1.00  0.00    -0.744 OA
ENDBRANCH  76  77
ENDBRANCH  48  71
BRANCH  60  81
ATOM     81  C   UNL     1       5.816  14.703   9.925  1.00  0.00    -0.014 A 
ATOM     82  C   UNL     1       5.944  14.088   8.661  1.00  0.00     0.010 A 
ATOM     83  C   UNL     1       5.530  16.078   9.966  1.00  0.00     0.010 A 
ATOM     84  C   UNL     1       5.819  14.835   7.478  1.00  0.00     0.020 A 
ATOM     85  C   UNL     1       5.387  16.825   8.793  1.00  0.00     0.020 A 
ATOM     86  C   UNL     1       5.543  16.203   7.554  1.00  0.00     0.054 A 
BRANCH  86  87
ATOM     87  S   UNL     1       5.357  17.165   6.025  1.00  0.00     0.124 S 
ATOM     88  O   UNL     1       6.704  17.133   5.463  1.00  0.00    -0.237 OA
ATOM     89  O   UNL     1       4.348  16.410   5.286  1.00  0.00    -0.237 OA
ATOM     90  O   UNL     1       4.915  18.479   6.492  1.00  0.00    -0.744 OA
ENDBRANCH  86  87
ENDBRANCH  60  81
ENDBRANCH  34  35
ENDBRANCH  27  29
ENDBRANCH  26  27
ENDBRANCH  25  26
ENDBRANCH  24  25
ENDBRANCH  23  24
ENDBRANCH   1  23
TORSDOF 22
