REMARK SMILES O=C(OCCOCCOCCOC(=O)c1ccc(-c2c3nc(c(-c4ccc(S(=O)(=O)[O-])cc4)c4ccc([nH]4)c(-c4ccc(S(=O)(=O)[O-])cc4)c4nc(c(-c5ccc(S(=O)(=O)[O-])cc5)c5ccc2[nH]5)C=C4)C=C3)cc1)C1=Cc2c(ccc(Cl)c2-c2ccccc2)O[C@H]1C(F)(F)F
REMARK SMILES IDX 8 1 7 2 6 3 5 4 4 5 3 6 2 7 1 8 75 9 76 10 91 11 77 12 90 13
REMARK SMILES IDX 78 14 83 15 79 16 81 17 80 18 82 19 92 20 93 21 94 22 95 23
REMARK SMILES IDX 84 24 85 25 89 26 86 27 88 28 87 29 9 30 10 31 11 32 12 33
REMARK SMILES IDX 13 34 14 35 15 36 16 37 74 38 17 39 73 40 18 41 19 42 20 43
REMARK SMILES IDX 67 44 21 45 72 46 66 47 68 48 22 49 71 50 65 51 64 52 23 54
REMARK SMILES IDX 53 55 34 56 52 57 35 58 38 59 51 60 69 61 36 62 37 63 50 65
REMARK SMILES IDX 70 66 39 67 24 68 25 69 33 70 26 71 32 72 27 73 28 74 29 75
REMARK SMILES IDX 30 76 31 77 54 78 55 79 63 80 56 81 62 82 57 83 58 84 59 85
REMARK SMILES IDX 60 86 61 87 40 88 41 89 49 90 42 91 48 92 43 93 44 94 45 95
REMARK SMILES IDX 46 96 47 97
REMARK H PARENT 68 53 38 64
REMARK Flexibility Score: inf
ROOT
ATOM      1  C   UNL     1       1.639  -0.891  -2.344  1.00  0.00     0.188 C 
ENDROOT
BRANCH   1   2
ATOM      2  C   UNL     1       0.517   0.347  -2.163  1.00  0.00     0.188 C 
BRANCH   2   3
ATOM      3  O   UNL     1       0.802   1.562  -1.485  1.00  0.00    -0.376 OA
BRANCH   3   4
ATOM      4  C   UNL     1       1.625   1.529  -0.342  1.00  0.00     0.202 C 
BRANCH   4   5
ATOM      5  C   UNL     1       1.566   0.310   0.594  1.00  0.00     0.261 C 
BRANCH   5   6
ATOM      6  O   UNL     1       1.742   0.677   1.972  1.00  0.00    -0.460 OA
BRANCH   6   7
ATOM      7  C   UNL     1       2.892   1.123   2.513  1.00  0.00     0.338 C 
ATOM      8  O   UNL     1       2.940   1.374   3.719  1.00  0.00    -0.246 OA
BRANCH   7   9
ATOM      9  C   UNL     1       4.103   1.325   1.693  1.00  0.00     0.087 C 
ATOM     10  C   UNL     1       4.274   1.068   0.384  1.00  0.00     0.028 C 
ATOM     11  C   UNL     1       5.319   1.811   2.422  1.00  0.00     0.316 C 
ATOM     12  C   UNL     1       5.233  -0.005   0.146  1.00  0.00     0.027 A 
ATOM     13  O   UNL     1       6.525   1.124   1.928  1.00  0.00    -0.475 OA
ATOM     14  C   UNL     1       6.344   0.072   1.037  1.00  0.00     0.128 A 
ATOM     15  C   UNL     1       5.064  -0.998  -0.873  1.00  0.00     0.011 A 
ATOM     16  C   UNL     1       7.319  -0.900   0.988  1.00  0.00     0.049 A 
ATOM     17  C   UNL     1       6.111  -1.952  -0.885  1.00  0.00     0.049 A 
ATOM     18  C   UNL     1       7.191  -1.914   0.039  1.00  0.00     0.025 A 
ATOM     19  Cl  UNL     1       6.236  -3.214  -2.069  1.00  0.00    -0.084 Cl
BRANCH  11  20
ATOM     20  C   UNL     1       5.341   3.352   2.275  1.00  0.00     0.430 C 
ATOM     21  F   UNL     1       5.411   3.729   0.972  1.00  0.00    -0.167 F 
ATOM     22  F   UNL     1       4.207   3.906   2.770  1.00  0.00    -0.167 F 
ATOM     23  F   UNL     1       6.384   3.921   2.912  1.00  0.00    -0.167 F 
ENDBRANCH  11  20
BRANCH  15  24
ATOM     24  C   UNL     1       3.888  -1.050  -1.877  1.00  0.00    -0.016 A 
ATOM     25  C   UNL     1       3.139  -2.643  -2.299  1.00  0.00     0.009 A 
ATOM     26  C   UNL     1       3.274   0.414  -2.754  1.00  0.00     0.009 A 
ATOM     27  C   UNL     1       1.911  -2.818  -3.605  1.00  0.00     0.001 A 
ATOM     28  C   UNL     1       2.014   0.253  -4.097  1.00  0.00     0.001 A 
ATOM     29  C   UNL     1       1.335  -1.371  -4.507  1.00  0.00     0.000 A 
ENDBRANCH  15  24
ENDBRANCH   7   9
ENDBRANCH   6   7
ENDBRANCH   5   6
ENDBRANCH   4   5
ENDBRANCH   3   4
ENDBRANCH   2   3
ENDBRANCH   1   2
BRANCH   1  30
ATOM     30  O   UNL     1       3.070  -1.276  -3.672  1.00  0.00    -0.376 OA
BRANCH  30  31
ATOM     31  C   UNL     1       4.168  -0.825  -4.643  1.00  0.00     0.202 C 
BRANCH  31  32
ATOM     32  C   UNL     1       4.380   0.532  -5.464  1.00  0.00     0.261 C 
BRANCH  32  33
ATOM     33  O   UNL     1       4.235   1.816  -4.785  1.00  0.00    -0.460 OA
BRANCH  33  34
ATOM     34  C   UNL     1       3.453   2.749  -5.387  1.00  0.00     0.338 C 
ATOM     35  O   UNL     1       3.006   2.677  -6.541  1.00  0.00    -0.246 OA
BRANCH  34  36
ATOM     36  C   UNL     1       3.009   3.830  -4.467  1.00  0.00     0.060 A 
ATOM     37  C   UNL     1       1.777   3.722  -3.799  1.00  0.00     0.016 A 
ATOM     38  C   UNL     1       3.680   5.053  -4.426  1.00  0.00     0.016 A 
ATOM     39  C   UNL     1       1.214   4.803  -3.110  1.00  0.00     0.010 A 
ATOM     40  C   UNL     1       3.106   6.148  -3.747  1.00  0.00     0.010 A 
ATOM     41  C   UNL     1       1.852   6.043  -3.112  1.00  0.00    -0.014 A 
BRANCH  41  42
ATOM     42  C   UNL     1       1.124   7.260  -2.644  1.00  0.00     0.031 A 
ATOM     43  C   UNL     1       0.487   8.163  -3.673  1.00  0.00     0.074 A 
ATOM     44  C   UNL     1       0.990   7.563  -1.337  1.00  0.00     0.049 A 
ATOM     45  N   UNL     1      -0.074   9.336  -3.521  1.00  0.00    -0.248 NA
ATOM     46  C   UNL     1       0.480   7.670  -5.060  1.00  0.00     0.031 C 
ATOM     47  C   UNL     1       1.449   6.740  -0.220  1.00  0.00     0.029 A 
ATOM     48  N   UNL     1       0.431   8.667  -0.731  1.00  0.00    -0.354 N 
ATOM     49  C   UNL     1      -0.476   9.733  -4.793  1.00  0.00     0.074 A 
ATOM     50  C   UNL     1      -0.085   8.680  -5.705  1.00  0.00     0.031 C 
ATOM     51  C   UNL     1       1.182   7.381   0.933  1.00  0.00     0.029 A 
ATOM     52  C   UNL     1       0.576   8.680   0.638  1.00  0.00     0.049 A 
ATOM     53  H   UNL     1      -0.028   9.380  -1.230  1.00  0.00     0.167 HD
ATOM     54  C   UNL     1      -1.107  10.872  -5.171  1.00  0.00     0.031 A 
ATOM     55  C   UNL     1       0.293   9.640   1.545  1.00  0.00     0.031 A 
ATOM     56  C   UNL     1      -1.491  11.928  -4.270  1.00  0.00     0.049 A 
ATOM     57  C   UNL     1      -0.305  10.951   1.086  1.00  0.00     0.074 A 
ATOM     58  C   UNL     1      -2.126  13.123  -4.568  1.00  0.00     0.029 A 
ATOM     59  N   UNL     1      -1.277  11.923  -2.901  1.00  0.00    -0.354 N 
ATOM     60  N   UNL     1      -0.658  11.324  -0.122  1.00  0.00    -0.248 NA
ATOM     61  C   UNL     1      -0.543  11.973   2.118  1.00  0.00     0.031 C 
ATOM     62  C   UNL     1      -2.234  13.868  -3.390  1.00  0.00     0.029 A 
ATOM     63  C   UNL     1      -1.738  13.106  -2.345  1.00  0.00     0.049 A 
ATOM     64  H   UNL     1      -0.859  11.188  -2.398  1.00  0.00     0.167 HD
ATOM     65  C   UNL     1      -1.188  12.606   0.013  1.00  0.00     0.074 A 
ATOM     66  C   UNL     1      -1.128  12.937   1.421  1.00  0.00     0.031 C 
ATOM     67  C   UNL     1      -1.681  13.434  -0.943  1.00  0.00     0.031 A 
BRANCH  54  68
ATOM     68  C   UNL     1      -1.380  11.066  -6.642  1.00  0.00    -0.014 A 
ATOM     69  C   UNL     1      -2.358  10.311  -7.314  1.00  0.00     0.010 A 
ATOM     70  C   UNL     1      -0.684  12.065  -7.348  1.00  0.00     0.010 A 
ATOM     71  C   UNL     1      -2.612  10.531  -8.671  1.00  0.00     0.020 A 
ATOM     72  C   UNL     1      -0.957  12.310  -8.697  1.00  0.00     0.020 A 
ATOM     73  C   UNL     1      -1.911  11.531  -9.353  1.00  0.00     0.054 A 
BRANCH  73  74
ATOM     74  S   UNL     1      -2.292  11.821 -11.103  1.00  0.00     0.124 S 
ATOM     75  O   UNL     1      -1.753  10.617 -11.733  1.00  0.00    -0.237 OA
ATOM     76  O   UNL     1      -3.748  11.928 -11.099  1.00  0.00    -0.237 OA
ATOM     77  O   UNL     1      -1.579  13.057 -11.415  1.00  0.00    -0.744 OA
ENDBRANCH  73  74
ENDBRANCH  54  68
BRANCH  55  78
ATOM     78  C   UNL     1       0.621   9.438   2.989  1.00  0.00    -0.014 A 
ATOM     79  C   UNL     1      -0.394   9.388   3.963  1.00  0.00     0.010 A 
ATOM     80  C   UNL     1       1.962   9.343   3.405  1.00  0.00     0.010 A 
ATOM     81  C   UNL     1      -0.074   9.276   5.321  1.00  0.00     0.020 A 
ATOM     82  C   UNL     1       2.285   9.195   4.758  1.00  0.00     0.020 A 
ATOM     83  C   UNL     1       1.265   9.178   5.710  1.00  0.00     0.054 A 
BRANCH  83  84
ATOM     84  S   UNL     1       1.656   8.999   7.473  1.00  0.00     0.124 S 
ATOM     85  O   UNL     1       1.345  10.328   7.990  1.00  0.00    -0.237 OA
ATOM     86  O   UNL     1       0.751   7.931   7.890  1.00  0.00    -0.237 OA
ATOM     87  O   UNL     1       3.073   8.643   7.477  1.00  0.00    -0.744 OA
ENDBRANCH  83  84
ENDBRANCH  55  78
BRANCH  67  88
ATOM     88  C   UNL     1      -2.242  14.765  -0.502  1.00  0.00    -0.014 A 
ATOM     89  C   UNL     1      -1.413  15.790  -0.012  1.00  0.00     0.010 A 
ATOM     90  C   UNL     1      -3.623  15.010  -0.625  1.00  0.00     0.010 A 
ATOM     91  C   UNL     1      -1.959  17.015   0.386  1.00  0.00     0.020 A 
ATOM     92  C   UNL     1      -4.168  16.245  -0.261  1.00  0.00     0.020 A 
ATOM     93  C   UNL     1      -3.334  17.235   0.260  1.00  0.00     0.054 A 
BRANCH  93  94
ATOM     94  S   UNL     1      -4.012  18.843   0.757  1.00  0.00     0.124 S 
ATOM     95  O   UNL     1      -3.900  18.785   2.212  1.00  0.00    -0.237 OA
ATOM     96  O   UNL     1      -3.116  19.787   0.094  1.00  0.00    -0.237 OA
ATOM     97  O   UNL     1      -5.378  18.820   0.238  1.00  0.00    -0.744 OA
ENDBRANCH  93  94
ENDBRANCH  67  88
ENDBRANCH  41  42
ENDBRANCH  34  36
ENDBRANCH  33  34
ENDBRANCH  32  33
ENDBRANCH  31  32
ENDBRANCH  30  31
ENDBRANCH   1  30
TORSDOF 22
