REMARK SMILES Cc1nn(-c2ccc(C(=O)OCCOCCOCCOC(=O)c3ccc(-c4c5nc(c(-c6ccc(S(=O)(=O)[O-])cc6)c6ccc([nH]6)c(-c6ccc(S(=O)(=O)[O-])cc6)c6nc(c(-c7ccc(S(=O)(=O)[O-])cc7)c7ccc4[nH]7)C=C6)C=C5)cc3)cc2)c(=O)c2ccccc12
REMARK SMILES IDX 16 1 15 2 14 3 13 4 12 5 11 6 9 7 10 8 8 9 5 10 6 11 84 12
REMARK SMILES IDX 7 13 83 14 4 15 1 16 2 17 3 18 92 19 87 20 91 21 85 22 88 23
REMARK SMILES IDX 90 24 86 25 89 26 17 27 18 28 19 29 20 30 21 31 22 32 23 33
REMARK SMILES IDX 24 34 82 35 25 36 81 37 26 38 27 39 28 40 75 41 29 42 80 43
REMARK SMILES IDX 74 44 76 45 30 46 79 47 73 48 72 49 31 51 61 52 42 53 60 54
REMARK SMILES IDX 43 55 46 56 59 57 77 58 44 59 45 60 58 62 78 63 47 64 32 65
REMARK SMILES IDX 33 66 41 67 34 68 40 69 35 70 36 71 37 72 38 73 39 74 62 75
REMARK SMILES IDX 63 76 71 77 64 78 70 79 65 80 66 81 67 82 68 83 69 84 48 85
REMARK SMILES IDX 49 86 57 87 50 88 56 89 51 90 52 91 53 92 54 93 55 94
REMARK H PARENT 76 50 46 61
REMARK Flexibility Score: inf
ROOT
ATOM      1  C   UNL     1       1.511   7.274   4.279  1.00  0.00     0.188 C 
ENDROOT
BRANCH   1   2
ATOM      2  C   UNL     1       0.327   8.259   4.161  1.00  0.00     0.188 C 
BRANCH   2   3
ATOM      3  O   UNL     1       0.342   9.452   4.911  1.00  0.00    -0.376 OA
BRANCH   3   4
ATOM      4  C   UNL     1       0.117   9.444   6.311  1.00  0.00     0.202 C 
BRANCH   4   5
ATOM      5  C   UNL     1      -0.574   8.312   7.086  1.00  0.00     0.261 C 
BRANCH   5   6
ATOM      6  O   UNL     1      -0.346   6.985   6.607  1.00  0.00    -0.460 OA
BRANCH   6   7
ATOM      7  C   UNL     1      -1.451   6.348   6.140  1.00  0.00     0.338 C 
ATOM      8  O   UNL     1      -2.593   6.772   6.124  1.00  0.00    -0.246 OA
BRANCH   7   9
ATOM      9  C   UNL     1      -1.043   5.104   5.458  1.00  0.00     0.060 A 
ATOM     10  C   UNL     1      -0.362   2.734   4.140  1.00  0.00     0.069 A 
ATOM     11  C   UNL     1      -1.160   3.685   3.494  1.00  0.00     0.029 A 
ATOM     12  C   UNL     1       0.159   3.022   5.412  1.00  0.00     0.029 A 
ATOM     13  C   UNL     1      -1.534   4.851   4.169  1.00  0.00     0.018 A 
ATOM     14  C   UNL     1      -0.162   4.211   6.066  1.00  0.00     0.018 A 
BRANCH  10  15
ATOM     15  N   UNL     1      -0.183   1.445   3.568  1.00  0.00    -0.196 N 
ATOM     16  C   UNL     1       0.784   0.311   0.201  1.00  0.00     0.069 C 
ATOM     17  C   UNL     1       0.319   0.289   1.640  1.00  0.00     0.066 A 
ATOM     18  N   UNL     1       0.138   1.433   2.231  1.00  0.00    -0.169 NA
ATOM     19  C   UNL     1       0.111  -1.014   2.310  1.00  0.00     0.010 A 
ATOM     20  C   UNL     1      -0.284  -0.983   3.640  1.00  0.00     0.051 A 
ATOM     21  C   UNL     1       0.246  -2.251   1.667  1.00  0.00     0.011 A 
ATOM     22  C   UNL     1      -0.372   0.301   4.346  1.00  0.00     0.279 A 
ATOM     23  C   UNL     1      -0.607  -2.167   4.319  1.00  0.00     0.014 A 
ATOM     24  C   UNL     1      -0.063  -3.434   2.348  1.00  0.00     0.001 A 
ATOM     25  O   UNL     1      -0.642   0.277   5.546  1.00  0.00    -0.267 OA
ATOM     26  C   UNL     1      -0.505  -3.392   3.669  1.00  0.00     0.001 A 
ENDBRANCH  10  15
ENDBRANCH   7   9
ENDBRANCH   6   7
ENDBRANCH   5   6
ENDBRANCH   4   5
ENDBRANCH   3   4
ENDBRANCH   2   3
ENDBRANCH   1   2
BRANCH   1  27
ATOM     27  O   UNL     1       2.556   7.498   5.205  1.00  0.00    -0.376 OA
BRANCH  27  28
ATOM     28  C   UNL     1       3.280   8.716   5.156  1.00  0.00     0.202 C 
BRANCH  28  29
ATOM     29  C   UNL     1       3.781   9.309   3.832  1.00  0.00     0.261 C 
BRANCH  29  30
ATOM     30  O   UNL     1       2.810   9.379   2.781  1.00  0.00    -0.460 OA
BRANCH  30  31
ATOM     31  C   UNL     1       3.050   8.581   1.709  1.00  0.00     0.338 C 
ATOM     32  O   UNL     1       3.993   7.824   1.548  1.00  0.00    -0.246 OA
BRANCH  31  33
ATOM     33  C   UNL     1       1.876   8.621   0.817  1.00  0.00     0.060 A 
ATOM     34  C   UNL     1       1.483   9.817   0.218  1.00  0.00     0.016 A 
ATOM     35  C   UNL     1       1.166   7.435   0.577  1.00  0.00     0.016 A 
ATOM     36  C   UNL     1       0.381   9.821  -0.640  1.00  0.00     0.010 A 
ATOM     37  C   UNL     1       0.055   7.446  -0.268  1.00  0.00     0.010 A 
ATOM     38  C   UNL     1      -0.334   8.636  -0.899  1.00  0.00    -0.014 A 
BRANCH  38  39
ATOM     39  C   UNL     1      -1.372   8.620  -1.958  1.00  0.00     0.031 A 
ATOM     40  C   UNL     1      -2.836   8.643  -1.637  1.00  0.00     0.074 A 
ATOM     41  C   UNL     1      -0.961   8.590  -3.240  1.00  0.00     0.049 A 
ATOM     42  N   UNL     1      -3.847   8.750  -2.460  1.00  0.00    -0.248 NA
ATOM     43  C   UNL     1      -3.218   8.530  -0.222  1.00  0.00     0.031 C 
ATOM     44  C   UNL     1       0.440   8.540  -3.664  1.00  0.00     0.029 A 
ATOM     45  N   UNL     1      -1.667   8.616  -4.417  1.00  0.00    -0.354 N 
ATOM     46  C   UNL     1      -4.987   8.747  -1.667  1.00  0.00     0.074 A 
ATOM     47  C   UNL     1      -4.544   8.574  -0.299  1.00  0.00     0.031 C 
ATOM     48  C   UNL     1       0.492   8.582  -5.003  1.00  0.00     0.029 A 
ATOM     49  C   UNL     1      -0.867   8.627  -5.536  1.00  0.00     0.049 A 
ATOM     50  H   UNL     1      -2.650   8.626  -4.457  1.00  0.00     0.167 HD
ATOM     51  C   UNL     1      -6.278   8.898  -2.051  1.00  0.00     0.031 A 
ATOM     52  C   UNL     1      -1.183   8.683  -6.846  1.00  0.00     0.031 A 
ATOM     53  C   UNL     1      -6.702   9.049  -3.423  1.00  0.00     0.049 A 
ATOM     54  C   UNL     1      -2.625   8.804  -7.248  1.00  0.00     0.074 A 
ATOM     55  C   UNL     1      -7.985   9.252  -3.902  1.00  0.00     0.029 A 
ATOM     56  N   UNL     1      -5.868   9.005  -4.532  1.00  0.00    -0.354 N 
ATOM     57  N   UNL     1      -3.685   8.889  -6.480  1.00  0.00    -0.248 NA
ATOM     58  C   UNL     1      -2.918   8.855  -8.687  1.00  0.00     0.031 C 
ATOM     59  C   UNL     1      -7.939   9.246  -5.297  1.00  0.00     0.029 A 
ATOM     60  C   UNL     1      -6.616   9.133  -5.693  1.00  0.00     0.049 A 
ATOM     61  H   UNL     1      -4.890   8.899  -4.499  1.00  0.00     0.167 HD
ATOM     62  C   UNL     1      -4.768   9.024  -7.341  1.00  0.00     0.074 A 
ATOM     63  C   UNL     1      -4.234   9.028  -8.687  1.00  0.00     0.031 C 
ATOM     64  C   UNL     1      -6.085   9.131  -7.036  1.00  0.00     0.031 A 
BRANCH  51  65
ATOM     65  C   UNL     1      -7.350   8.936  -0.989  1.00  0.00    -0.014 A 
ATOM     66  C   UNL     1      -8.347   7.942  -0.958  1.00  0.00     0.010 A 
ATOM     67  C   UNL     1      -7.465  10.042  -0.126  1.00  0.00     0.010 A 
ATOM     68  C   UNL     1      -9.458   8.073  -0.120  1.00  0.00     0.020 A 
ATOM     69  C   UNL     1      -8.560  10.161   0.736  1.00  0.00     0.020 A 
ATOM     70  C   UNL     1      -9.564   9.190   0.714  1.00  0.00     0.054 A 
BRANCH  70  71
ATOM     71  S   UNL     1     -11.040   9.370   1.754  1.00  0.00     0.124 S 
ATOM     72  O   UNL     1     -12.068   9.711   0.775  1.00  0.00    -0.237 OA
ATOM     73  O   UNL     1     -11.162   8.048   2.364  1.00  0.00    -0.237 OA
ATOM     74  O   UNL     1     -10.679  10.442   2.679  1.00  0.00    -0.744 OA
ENDBRANCH  70  71
ENDBRANCH  51  65
BRANCH  52  75
ATOM     75  C   UNL     1      -0.083   8.685  -7.850  1.00  0.00    -0.014 A 
ATOM     76  C   UNL     1       0.741   7.554  -8.005  1.00  0.00     0.010 A 
ATOM     77  C   UNL     1       0.213   9.850  -8.579  1.00  0.00     0.010 A 
ATOM     78  C   UNL     1       1.877   7.609  -8.816  1.00  0.00     0.020 A 
ATOM     79  C   UNL     1       1.330   9.897  -9.420  1.00  0.00     0.020 A 
ATOM     80  C   UNL     1       2.172   8.787  -9.506  1.00  0.00     0.054 A 
BRANCH  80  81
ATOM     81  S   UNL     1       3.691   8.855 -10.496  1.00  0.00     0.124 S 
ATOM     82  O   UNL     1       4.719   8.938  -9.461  1.00  0.00    -0.237 OA
ATOM     83  O   UNL     1       3.644   7.597 -11.236  1.00  0.00    -0.237 OA
ATOM     84  O   UNL     1       3.520  10.058 -11.305  1.00  0.00    -0.744 OA
ENDBRANCH  80  81
ENDBRANCH  52  75
BRANCH  64  85
ATOM     85  C   UNL     1      -7.076   9.255  -8.168  1.00  0.00    -0.014 A 
ATOM     86  C   UNL     1      -7.840  10.430  -8.305  1.00  0.00     0.010 A 
ATOM     87  C   UNL     1      -7.359   8.159  -9.002  1.00  0.00     0.010 A 
ATOM     88  C   UNL     1      -8.898  10.490  -9.216  1.00  0.00     0.020 A 
ATOM     89  C   UNL     1      -8.394   8.227  -9.940  1.00  0.00     0.020 A 
ATOM     90  C   UNL     1      -9.177   9.381 -10.019  1.00  0.00     0.054 A 
BRANCH  90  91
ATOM     91  S   UNL     1     -10.591   9.457 -11.153  1.00  0.00     0.124 S 
ATOM     92  O   UNL     1     -11.725   9.353 -10.239  1.00  0.00    -0.237 OA
ATOM     93  O   UNL     1     -10.418  10.758 -11.795  1.00  0.00    -0.237 OA
ATOM     94  O   UNL     1     -10.390   8.306 -12.030  1.00  0.00    -0.744 OA
ENDBRANCH  90  91
ENDBRANCH  64  85
ENDBRANCH  38  39
ENDBRANCH  31  33
ENDBRANCH  30  31
ENDBRANCH  29  30
ENDBRANCH  28  29
ENDBRANCH  27  28
ENDBRANCH   1  27
TORSDOF 21
