REMARK SMILES CCCC[C@@H](Sc1nc(OCCC2CCCCC2)cc(OCCC2CCCCC2)n1)C(=O)OCCOCCOCCOC(=O)c1ccc(-c2c3nc(c(-c4ccc(S(=O)(=O)[O-])cc4)c4ccc([nH]4)c(-c4ccc(S(=O)(=O)[O-])cc4)c4nc(c(-c5ccc(S(=O)(=O)[O-])cc5)c5ccc2[nH]5)C=C4)C=C3)cc1
REMARK SMILES IDX 36 1 35 2 34 3 33 4 31 5 32 6 5 7 4 8 3 9 2 10 1 11 6 12
REMARK SMILES IDX 7 13 8 14 30 15 9 16 20 17 19 18 10 19 11 20 12 21 13 22
REMARK SMILES IDX 14 23 18 24 15 25 17 26 16 27 21 28 22 29 23 30 24 31 25 32
REMARK SMILES IDX 29 33 26 34 28 35 27 36 37 37 38 38 39 39 40 40 41 41 42 42
REMARK SMILES IDX 43 43 44 44 45 45 46 46 104 47 47 48 103 49 48 50 49 51
REMARK SMILES IDX 50 52 97 53 51 54 102 55 96 56 98 57 52 58 101 59 95 60
REMARK SMILES IDX 94 61 53 63 83 64 64 65 82 66 65 67 68 68 81 69 99 70 66 71
REMARK SMILES IDX 67 72 80 74 100 75 69 76 54 77 55 78 63 79 56 80 62 81 57 82
REMARK SMILES IDX 58 83 59 84 60 85 61 86 84 87 85 88 93 89 86 90 92 91 87 92
REMARK SMILES IDX 88 93 89 94 90 95 91 96 70 97 71 98 79 99 72 100 78 101
REMARK SMILES IDX 73 102 74 103 75 104 76 105 77 106
REMARK H PARENT 98 62 68 73
REMARK Flexibility Score: inf
ROOT
ATOM      1  O   UNL     1      -2.343  -3.480   4.393  1.00  0.00    -0.376 OA
ENDROOT
BRANCH   1   2
ATOM      2  C   UNL     1      -2.157  -4.873   4.161  1.00  0.00     0.202 C 
BRANCH   2   3
ATOM      3  C   UNL     1      -2.436  -5.430   2.756  1.00  0.00     0.261 C 
BRANCH   3   4
ATOM      4  O   UNL     1      -1.695  -4.845   1.667  1.00  0.00    -0.462 OA
BRANCH   4   5
ATOM      5  C   UNL     1      -2.422  -4.086   0.789  1.00  0.00     0.319 C 
ATOM      6  O   UNL     1      -3.596  -3.775   0.964  1.00  0.00    -0.251 OA
BRANCH   5   7
ATOM      7  C   UNL     1      -1.658  -3.740  -0.503  1.00  0.00     0.164 C 
BRANCH   7   8
ATOM      8  C   UNL     1      -0.107  -3.734  -0.263  1.00  0.00     0.027 C 
BRANCH   8   9
ATOM      9  C   UNL     1       0.839  -2.792  -1.044  1.00  0.00     0.001 C 
BRANCH   9  10
ATOM     10  C   UNL     1       0.529  -1.290  -1.043  1.00  0.00    -0.003 C 
ATOM     11  C   UNL     1       1.284  -0.494   0.008  1.00  0.00     0.004 C 
ENDBRANCH   9  10
ENDBRANCH   8   9
ENDBRANCH   7   8
BRANCH   7  12
ATOM     12  S   UNL     1      -2.371  -5.057  -1.671  1.00  0.00    -0.071 SA
BRANCH  12  13
ATOM     13  C   UNL     1      -3.011  -4.126  -3.150  1.00  0.00     0.195 A 
ATOM     14  N   UNL     1      -3.057  -2.780  -3.051  1.00  0.00    -0.187 NA
ATOM     15  N   UNL     1      -2.488  -4.679  -4.269  1.00  0.00    -0.187 NA
ATOM     16  C   UNL     1      -1.989  -2.198  -3.584  1.00  0.00     0.221 A 
ATOM     17  C   UNL     1      -1.355  -4.077  -4.580  1.00  0.00     0.221 A 
ATOM     18  C   UNL     1      -0.935  -3.056  -3.767  1.00  0.00     0.136 A 
BRANCH  16  19
ATOM     19  O   UNL     1      -2.040  -0.851  -4.035  1.00  0.00    -0.477 OA
BRANCH  19  20
ATOM     20  C   UNL     1      -1.550  -0.037  -5.509  1.00  0.00     0.231 C 
BRANCH  20  21
ATOM     21  C   UNL     1       0.352   0.147  -6.450  1.00  0.00     0.045 C 
BRANCH  21  22
ATOM     22  C   UNL     1       2.021  -0.685  -6.178  1.00  0.00    -0.008 C 
ATOM     23  C   UNL     1       2.684  -1.015  -4.776  1.00  0.00     0.004 C 
ATOM     24  C   UNL     1       2.357  -1.844  -7.189  1.00  0.00     0.004 C 
ATOM     25  C   UNL     1       3.714  -2.139  -4.750  1.00  0.00     0.000 C 
ATOM     26  C   UNL     1       2.565  -3.287  -6.652  1.00  0.00     0.000 C 
ATOM     27  C   UNL     1       3.048  -3.418  -5.211  1.00  0.00     0.000 C 
ENDBRANCH  21  22
ENDBRANCH  20  21
ENDBRANCH  19  20
ENDBRANCH  16  19
BRANCH  17  28
ATOM     28  O   UNL     1      -0.601  -4.345  -5.725  1.00  0.00    -0.477 OA
BRANCH  28  29
ATOM     29  C   UNL     1      -1.205  -4.152  -7.041  1.00  0.00     0.231 C 
BRANCH  29  30
ATOM     30  C   UNL     1      -0.997  -2.799  -7.921  1.00  0.00     0.045 C 
BRANCH  30  31
ATOM     31  C   UNL     1      -1.133  -1.455  -7.175  1.00  0.00    -0.008 C 
ATOM     32  C   UNL     1      -0.152  -1.518  -5.586  1.00  0.00     0.004 C 
ATOM     33  C   UNL     1      -1.496   0.258  -7.862  1.00  0.00     0.004 C 
ATOM     34  C   UNL     1       0.150   0.083  -4.404  1.00  0.00     0.000 C 
ATOM     35  C   UNL     1      -1.172   1.807  -6.831  1.00  0.00     0.000 C 
ATOM     36  C   UNL     1      -0.348   1.789  -5.110  1.00  0.00     0.000 C 
ENDBRANCH  30  31
ENDBRANCH  29  30
ENDBRANCH  28  29
ENDBRANCH  17  28
ENDBRANCH  12  13
ENDBRANCH   7  12
ENDBRANCH   5   7
ENDBRANCH   4   5
ENDBRANCH   3   4
ENDBRANCH   2   3
ENDBRANCH   1   2
BRANCH   1  37
ATOM     37  C   UNL     1      -1.664  -2.571   3.541  1.00  0.00     0.188 C 
BRANCH  37  38
ATOM     38  C   UNL     1      -0.143  -2.699   3.444  1.00  0.00     0.188 C 
BRANCH  38  39
ATOM     39  O   UNL     1       0.370  -3.975   3.751  1.00  0.00    -0.376 OA
BRANCH  39  40
ATOM     40  C   UNL     1       1.592  -4.054   4.477  1.00  0.00     0.202 C 
BRANCH  40  41
ATOM     41  C   UNL     1       1.734  -3.324   5.841  1.00  0.00     0.261 C 
BRANCH  41  42
ATOM     42  O   UNL     1       1.343  -1.937   5.925  1.00  0.00    -0.460 OA
BRANCH  42  43
ATOM     43  C   UNL     1       2.052  -1.043   5.189  1.00  0.00     0.338 C 
ATOM     44  O   UNL     1       3.075  -1.282   4.570  1.00  0.00    -0.246 OA
BRANCH  43  45
ATOM     45  C   UNL     1       1.212   0.175   4.980  1.00  0.00     0.060 A 
ATOM     46  C   UNL     1       0.950   0.560   3.657  1.00  0.00     0.016 A 
ATOM     47  C   UNL     1       0.637   0.896   6.026  1.00  0.00     0.016 A 
ATOM     48  C   UNL     1       0.144   1.664   3.366  1.00  0.00     0.010 A 
ATOM     49  C   UNL     1      -0.139   2.033   5.738  1.00  0.00     0.010 A 
ATOM     50  C   UNL     1      -0.368   2.442   4.408  1.00  0.00    -0.014 A 
BRANCH  50  51
ATOM     51  C   UNL     1      -0.935   3.789   4.118  1.00  0.00     0.031 A 
ATOM     52  C   UNL     1      -0.049   4.989   4.342  1.00  0.00     0.074 A 
ATOM     53  C   UNL     1      -2.179   3.968   3.635  1.00  0.00     0.049 A 
ATOM     54  N   UNL     1      -0.336   6.263   4.277  1.00  0.00    -0.248 NA
ATOM     55  C   UNL     1       1.355   4.706   4.688  1.00  0.00     0.031 C 
ATOM     56  C   UNL     1      -3.115   2.904   3.278  1.00  0.00     0.029 A 
ATOM     57  N   UNL     1      -2.873   5.127   3.370  1.00  0.00    -0.354 N 
ATOM     58  C   UNL     1       0.838   6.932   4.606  1.00  0.00     0.074 A 
ATOM     59  C   UNL     1       1.837   5.924   4.883  1.00  0.00     0.031 C 
ATOM     60  C   UNL     1      -4.268   3.459   2.858  1.00  0.00     0.029 A 
ATOM     61  C   UNL     1      -4.171   4.915   2.963  1.00  0.00     0.049 A 
ATOM     62  H   UNL     1      -2.478   6.024   3.463  1.00  0.00     0.167 HD
ATOM     63  C   UNL     1       1.067   8.265   4.676  1.00  0.00     0.031 A 
ATOM     64  C   UNL     1      -5.176   5.789   2.739  1.00  0.00     0.031 A 
ATOM     65  C   UNL     1       0.074   9.270   4.404  1.00  0.00     0.049 A 
ATOM     66  C   UNL     1      -4.928   7.269   2.917  1.00  0.00     0.074 A 
ATOM     67  C   UNL     1       0.211  10.646   4.447  1.00  0.00     0.029 A 
ATOM     68  N   UNL     1      -1.239   9.010   4.042  1.00  0.00    -0.354 N 
ATOM     69  N   UNL     1      -3.818   7.888   3.245  1.00  0.00    -0.248 NA
ATOM     70  C   UNL     1      -6.071   8.168   2.693  1.00  0.00     0.031 C 
ATOM     71  C   UNL     1      -1.036  11.218   4.176  1.00  0.00     0.029 A 
ATOM     72  C   UNL     1      -1.931  10.199   3.888  1.00  0.00     0.049 A 
ATOM     73  H   UNL     1      -1.623   8.112   3.914  1.00  0.00     0.167 HD
ATOM     74  C   UNL     1      -4.122   9.247   3.233  1.00  0.00     0.074 A 
ATOM     75  C   UNL     1      -5.515   9.361   2.855  1.00  0.00     0.031 C 
ATOM     76  C   UNL     1      -3.317  10.305   3.505  1.00  0.00     0.031 A 
BRANCH  63  77
ATOM     77  C   UNL     1       2.435   8.714   5.121  1.00  0.00    -0.014 A 
ATOM     78  C   UNL     1       3.568   8.549   4.304  1.00  0.00     0.010 A 
ATOM     79  C   UNL     1       2.581   9.339   6.374  1.00  0.00     0.010 A 
ATOM     80  C   UNL     1       4.826   8.964   4.750  1.00  0.00     0.020 A 
ATOM     81  C   UNL     1       3.831   9.785   6.809  1.00  0.00     0.020 A 
ATOM     82  C   UNL     1       4.950   9.578   6.000  1.00  0.00     0.054 A 
BRANCH  82  83
ATOM     83  S   UNL     1       6.592  10.124   6.543  1.00  0.00     0.124 S 
ATOM     84  O   UNL     1       7.260   8.851   6.807  1.00  0.00    -0.237 OA
ATOM     85  O   UNL     1       7.083  10.861   5.381  1.00  0.00    -0.237 OA
ATOM     86  O   UNL     1       6.316  10.938   7.724  1.00  0.00    -0.744 OA
ENDBRANCH  82  83
ENDBRANCH  63  77
BRANCH  64  87
ATOM     87  C   UNL     1      -6.532   5.292   2.362  1.00  0.00    -0.014 A 
ATOM     88  C   UNL     1      -7.074   5.561   1.092  1.00  0.00     0.010 A 
ATOM     89  C   UNL     1      -7.300   4.557   3.285  1.00  0.00     0.010 A 
ATOM     90  C   UNL     1      -8.358   5.117   0.758  1.00  0.00     0.020 A 
ATOM     91  C   UNL     1      -8.571   4.084   2.944  1.00  0.00     0.020 A 
ATOM     92  C   UNL     1      -9.097   4.377   1.685  1.00  0.00     0.054 A 
BRANCH  92  93
ATOM     93  S   UNL     1     -10.740   3.768   1.210  1.00  0.00     0.124 S 
ATOM     94  O   UNL     1     -11.526   4.998   1.189  1.00  0.00    -0.237 OA
ATOM     95  O   UNL     1     -10.485   3.158  -0.092  1.00  0.00    -0.237 OA
ATOM     96  O   UNL     1     -11.079   2.828   2.276  1.00  0.00    -0.744 OA
ENDBRANCH  92  93
ENDBRANCH  64  87
BRANCH  76  97
ATOM     97  C   UNL     1      -3.896  11.690   3.356  1.00  0.00    -0.014 A 
ATOM     98  C   UNL     1      -4.848  12.194   4.260  1.00  0.00     0.010 A 
ATOM     99  C   UNL     1      -3.424  12.527   2.327  1.00  0.00     0.010 A 
ATOM    100  C   UNL     1      -5.337  13.497   4.119  1.00  0.00     0.020 A 
ATOM    101  C   UNL     1      -3.886  13.839   2.202  1.00  0.00     0.020 A 
ATOM    102  C   UNL     1      -4.851  14.312   3.092  1.00  0.00     0.054 A 
BRANCH 102 103
ATOM    103  S   UNL     1      -5.468  16.014   2.959  1.00  0.00     0.124 S 
ATOM    104  O   UNL     1      -6.832  15.808   2.481  1.00  0.00    -0.237 OA
ATOM    105  O   UNL     1      -5.349  16.504   4.330  1.00  0.00    -0.237 OA
ATOM    106  O   UNL     1      -4.559  16.639   2.000  1.00  0.00    -0.744 OA
ENDBRANCH 102 103
ENDBRANCH  76  97
ENDBRANCH  50  51
ENDBRANCH  43  45
ENDBRANCH  42  43
ENDBRANCH  41  42
ENDBRANCH  40  41
ENDBRANCH  39  40
ENDBRANCH  38  39
ENDBRANCH  37  38
ENDBRANCH   1  37
TORSDOF 33
