REMARK SMILES CC1(C)CCCC[C@@]1(C(=O)OCCOCCOCCOC(=O)c1ccc(-c2c3nc(c(-c4ccc(S(=O)(=O)[O-])cc4)c4ccc([nH]4)c(-c4ccc(S(=O)(=O)[O-])cc4)c4nc(c(-c5ccc(S(=O)(=O)[O-])cc5)c5ccc2[nH]5)C=C4)C=C3)cc1)[NH+]1CC[NH2+]CC1
REMARK SMILES IDX 16 1 15 2 14 3 13 4 12 5 11 6 9 7 10 8 8 9 1 10 2 11 3 12
REMARK SMILES IDX 4 13 5 14 7 15 6 16 83 17 84 18 88 19 85 21 87 22 86 23
REMARK SMILES IDX 17 26 18 27 19 28 20 29 21 30 22 31 23 32 24 33 82 34 25 35
REMARK SMILES IDX 81 36 26 37 27 38 28 39 75 40 29 41 80 42 74 43 76 44 30 45
REMARK SMILES IDX 79 46 73 47 72 48 31 50 61 51 42 52 60 53 43 54 46 55 59 56
REMARK SMILES IDX 77 57 44 58 45 59 58 61 78 62 47 63 32 64 33 65 41 66 34 67
REMARK SMILES IDX 40 68 35 69 36 70 37 71 38 72 39 73 62 74 63 75 71 76 64 77
REMARK SMILES IDX 70 78 65 79 66 80 67 81 68 82 69 83 48 84 49 85 57 86 50 87
REMARK SMILES IDX 56 88 51 89 52 90 53 91 54 92 55 93
REMARK H PARENT 83 20 86 24 86 25 76 49 46 60
REMARK Flexibility Score: inf
ROOT
ATOM      1  C   UNL     1       2.225  -5.125   3.227  1.00  0.00     0.188 C 
ENDROOT
BRANCH   1   2
ATOM      2  C   UNL     1       1.291  -4.071   3.818  1.00  0.00     0.188 C 
BRANCH   2   3
ATOM      3  O   UNL     1       0.058  -4.503   4.371  1.00  0.00    -0.376 OA
BRANCH   3   4
ATOM      4  C   UNL     1      -0.717  -5.421   3.613  1.00  0.00     0.202 C 
BRANCH   4   5
ATOM      5  C   UNL     1      -1.224  -5.017   2.210  1.00  0.00     0.261 C 
BRANCH   5   6
ATOM      6  O   UNL     1      -0.318  -4.331   1.312  1.00  0.00    -0.459 OA
BRANCH   6   7
ATOM      7  C   UNL     1      -0.375  -2.971   1.420  1.00  0.00     0.368 C 
ATOM      8  O   UNL     1      -1.060  -2.460   2.302  1.00  0.00    -0.245 OA
BRANCH   7   9
ATOM      9  C   UNL     1       0.392  -2.132   0.284  1.00  0.00     0.201 C 
ATOM     10  C   UNL     1       0.869   0.492  -0.276  1.00  0.00     0.018 C 
ATOM     11  C   UNL     1       0.272  -0.545   0.728  1.00  0.00     0.031 C 
ATOM     12  C   UNL     1       0.964  -0.290   2.094  1.00  0.00     0.018 C 
ATOM     13  C   UNL     1      -1.232  -0.106   0.828  1.00  0.00     0.013 C 
ATOM     14  C   UNL     1      -2.030  -0.417  -0.436  1.00  0.00     0.001 C 
ATOM     15  C   UNL     1      -0.469  -2.346  -1.000  1.00  0.00     0.082 C 
ATOM     16  C   UNL     1      -1.914  -1.867  -0.872  1.00  0.00     0.007 C 
BRANCH   9  17
ATOM     17  N   UNL     1       1.837  -2.671   0.089  1.00  0.00    -0.311 N 
ATOM     18  C   UNL     1       2.772  -1.706  -0.540  1.00  0.00     0.325 C 
ATOM     19  C   UNL     1       1.934  -3.942  -0.680  1.00  0.00     0.325 C 
ATOM     20  H   UNL     1       2.114  -2.840   1.056  1.00  0.00     0.349 HD
ATOM     21  C   UNL     1       4.179  -2.188  -0.975  1.00  0.00     0.322 C 
ATOM     22  C   UNL     1       3.380  -4.430  -0.944  1.00  0.00     0.322 C 
ATOM     23  N   UNL     1       4.187  -3.461  -1.693  1.00  0.00    -0.337 N 
ATOM     24  H   UNL     1       5.144  -3.802  -1.776  1.00  0.00     0.346 HD
ATOM     25  H   UNL     1       3.798  -3.334  -2.628  1.00  0.00     0.346 HD
ENDBRANCH   9  17
ENDBRANCH   7   9
ENDBRANCH   6   7
ENDBRANCH   5   6
ENDBRANCH   4   5
ENDBRANCH   3   4
ENDBRANCH   2   3
ENDBRANCH   1   2
BRANCH   1  26
ATOM     26  O   UNL     1       1.615  -6.195   2.519  1.00  0.00    -0.376 OA
BRANCH  26  27
ATOM     27  C   UNL     1       2.495  -7.166   1.953  1.00  0.00     0.202 C 
BRANCH  27  28
ATOM     28  C   UNL     1       3.583  -7.738   2.886  1.00  0.00     0.261 C 
BRANCH  28  29
ATOM     29  O   UNL     1       4.501  -6.764   3.428  1.00  0.00    -0.460 OA
BRANCH  29  30
ATOM     30  C   UNL     1       5.173  -6.003   2.534  1.00  0.00     0.338 C 
ATOM     31  O   UNL     1       5.273  -6.232   1.339  1.00  0.00    -0.246 OA
BRANCH  30  32
ATOM     32  C   UNL     1       5.556  -4.716   3.178  1.00  0.00     0.060 A 
ATOM     33  C   UNL     1       5.353  -3.535   2.455  1.00  0.00     0.016 A 
ATOM     34  C   UNL     1       6.087  -4.643   4.465  1.00  0.00     0.016 A 
ATOM     35  C   UNL     1       5.768  -2.299   2.949  1.00  0.00     0.010 A 
ATOM     36  C   UNL     1       6.516  -3.404   4.965  1.00  0.00     0.010 A 
ATOM     37  C   UNL     1       6.423  -2.237   4.180  1.00  0.00    -0.014 A 
BRANCH  37  38
ATOM     38  C   UNL     1       7.257  -1.043   4.487  1.00  0.00     0.031 A 
ATOM     39  C   UNL     1       8.746  -1.154   4.266  1.00  0.00     0.074 A 
ATOM     40  C   UNL     1       6.731   0.135   4.870  1.00  0.00     0.049 A 
ATOM     41  N   UNL     1       9.693  -0.280   4.494  1.00  0.00    -0.248 NA
ATOM     42  C   UNL     1       9.228  -2.432   3.716  1.00  0.00     0.031 C 
ATOM     43  C   UNL     1       5.309   0.416   5.048  1.00  0.00     0.029 A 
ATOM     44  N   UNL     1       7.352   1.321   5.183  1.00  0.00    -0.354 N 
ATOM     45  C   UNL     1      10.880  -0.912   4.137  1.00  0.00     0.074 A 
ATOM     46  C   UNL     1      10.538  -2.253   3.719  1.00  0.00     0.031 C 
ATOM     47  C   UNL     1       5.166   1.690   5.456  1.00  0.00     0.029 A 
ATOM     48  C   UNL     1       6.487   2.303   5.602  1.00  0.00     0.049 A 
ATOM     49  H   UNL     1       8.325   1.455   5.112  1.00  0.00     0.167 HD
ATOM     50  C   UNL     1      12.144  -0.424   4.144  1.00  0.00     0.031 A 
ATOM     51  C   UNL     1       6.730   3.544   6.074  1.00  0.00     0.031 A 
ATOM     52  C   UNL     1      12.493   0.904   4.568  1.00  0.00     0.049 A 
ATOM     53  C   UNL     1       8.149   4.050   6.150  1.00  0.00     0.074 A 
ATOM     54  C   UNL     1      13.745   1.491   4.620  1.00  0.00     0.029 A 
ATOM     55  N   UNL     1      11.588   1.854   5.019  1.00  0.00    -0.354 N 
ATOM     56  N   UNL     1       9.264   3.439   5.821  1.00  0.00    -0.248 NA
ATOM     57  C   UNL     1       8.341   5.420   6.646  1.00  0.00     0.031 C 
ATOM     58  C   UNL     1      13.604   2.774   5.160  1.00  0.00     0.029 A 
ATOM     59  C   UNL     1      12.256   3.015   5.372  1.00  0.00     0.049 A 
ATOM     60  H   UNL     1      10.614   1.722   5.080  1.00  0.00     0.167 HD
ATOM     61  C   UNL     1      10.285   4.361   6.042  1.00  0.00     0.074 A 
ATOM     62  C   UNL     1       9.653   5.573   6.521  1.00  0.00     0.031 C 
ATOM     63  C   UNL     1      11.622   4.217   5.857  1.00  0.00     0.031 A 
BRANCH  50  64
ATOM     64  C   UNL     1      13.242  -1.372   3.731  1.00  0.00    -0.014 A 
ATOM     65  C   UNL     1      13.357  -1.835   2.407  1.00  0.00     0.010 A 
ATOM     66  C   UNL     1      14.159  -1.829   4.695  1.00  0.00     0.010 A 
ATOM     67  C   UNL     1      14.320  -2.791   2.072  1.00  0.00     0.020 A 
ATOM     68  C   UNL     1      15.148  -2.756   4.356  1.00  0.00     0.020 A 
ATOM     69  C   UNL     1      15.203  -3.252   3.053  1.00  0.00     0.054 A 
BRANCH  69  70
ATOM     70  S   UNL     1      16.427  -4.512   2.601  1.00  0.00     0.124 S 
ATOM     71  O   UNL     1      15.594  -5.704   2.461  1.00  0.00    -0.237 OA
ATOM     72  O   UNL     1      16.984  -3.986   1.357  1.00  0.00    -0.237 OA
ATOM     73  O   UNL     1      17.347  -4.526   3.735  1.00  0.00    -0.744 OA
ENDBRANCH  69  70
ENDBRANCH  50  64
BRANCH  51  74
ATOM     74  C   UNL     1       5.593   4.386   6.543  1.00  0.00    -0.014 A 
ATOM     75  C   UNL     1       5.189   5.527   5.829  1.00  0.00     0.010 A 
ATOM     76  C   UNL     1       4.888   4.025   7.707  1.00  0.00     0.010 A 
ATOM     77  C   UNL     1       4.100   6.288   6.267  1.00  0.00     0.020 A 
ATOM     78  C   UNL     1       3.781   4.765   8.131  1.00  0.00     0.020 A 
ATOM     79  C   UNL     1       3.395   5.895   7.409  1.00  0.00     0.054 A 
BRANCH  79  80
ATOM     80  S   UNL     1       1.928   6.843   7.903  1.00  0.00     0.124 S 
ATOM     81  O   UNL     1       2.518   8.083   8.398  1.00  0.00    -0.237 OA
ATOM     82  O   UNL     1       1.188   6.951   6.648  1.00  0.00    -0.237 OA
ATOM     83  O   UNL     1       1.300   5.999   8.917  1.00  0.00    -0.744 OA
ENDBRANCH  79  80
ENDBRANCH  51  74
BRANCH  63  84
ATOM     84  C   UNL     1      12.500   5.415   6.126  1.00  0.00    -0.014 A 
ATOM     85  C   UNL     1      12.716   5.899   7.429  1.00  0.00     0.010 A 
ATOM     86  C   UNL     1      13.158   6.042   5.050  1.00  0.00     0.010 A 
ATOM     87  C   UNL     1      13.533   7.014   7.644  1.00  0.00     0.020 A 
ATOM     88  C   UNL     1      14.001   7.136   5.264  1.00  0.00     0.020 A 
ATOM     89  C   UNL     1      14.167   7.628   6.559  1.00  0.00     0.054 A 
BRANCH  89  90
ATOM     90  S   UNL     1      15.234   9.064   6.865  1.00  0.00     0.124 S 
ATOM     91  O   UNL     1      14.259  10.105   7.178  1.00  0.00    -0.237 OA
ATOM     92  O   UNL     1      16.058   8.618   7.985  1.00  0.00    -0.237 OA
ATOM     93  O   UNL     1      15.950   9.240   5.603  1.00  0.00    -0.744 OA
ENDBRANCH  89  90
ENDBRANCH  63  84
ENDBRANCH  37  38
ENDBRANCH  30  32
ENDBRANCH  29  30
ENDBRANCH  28  29
ENDBRANCH  27  28
ENDBRANCH  26  27
ENDBRANCH   1  26
TORSDOF 21
