REMARK SMILES C[C@]12C(=O)N(c3ccc(C(=O)OCCOCCOCCOC(=O)c4ccc(-c5c6nc(c(-c7ccc(S(=O)(=O)[O-])cc7)c7ccc([nH]7)c(-c7ccc(S(=O)(=O)[O-])cc7)c7nc(c(-c8ccc(S(=O)(=O)[O-])cc8)c8ccc5[nH]8)C=C7)C=C6)cc4)cc3)C(=O)[C@H]1[C@H]1c3ccccc3[C@@H]2c2ccccc21
REMARK SMILES IDX 17 1 16 2 15 3 14 4 13 5 12 6 10 7 11 8 9 9 6 10 7 11 85 12
REMARK SMILES IDX 8 13 84 14 5 15 1 16 2 17 3 18 88 19 96 20 4 21 86 22 89 23
REMARK SMILES IDX 95 24 97 25 87 26 90 27 102 28 94 29 98 30 91 31 101 32
REMARK SMILES IDX 93 33 99 34 92 35 100 36 18 37 19 38 20 39 21 40 22 41 23 42
REMARK SMILES IDX 24 43 25 44 83 45 26 46 82 47 27 48 28 49 29 50 76 51 30 52
REMARK SMILES IDX 81 53 75 54 77 55 31 56 80 57 74 58 73 59 32 61 62 62 43 63
REMARK SMILES IDX 61 64 44 65 47 66 60 67 78 68 45 69 46 70 59 72 79 73 48 74
REMARK SMILES IDX 33 75 34 76 42 77 35 78 41 79 36 80 37 81 38 82 39 83 40 84
REMARK SMILES IDX 63 85 64 86 72 87 65 88 71 89 66 90 67 91 68 92 69 93 70 94
REMARK SMILES IDX 49 95 50 96 58 97 51 98 57 99 52 100 53 101 54 102 55 103
REMARK SMILES IDX 56 104
REMARK H PARENT 77 60 47 71
REMARK Flexibility Score: inf
ROOT
ATOM      1  C   UNL     1       5.185   8.064   0.849  1.00  0.00     0.188 C 
ENDROOT
BRANCH   1   2
ATOM      2  C   UNL     1       5.428   8.553  -0.598  1.00  0.00     0.188 C 
BRANCH   2   3
ATOM      3  O   UNL     1       5.787   9.899  -0.849  1.00  0.00    -0.376 OA
BRANCH   3   4
ATOM      4  C   UNL     1       4.891  10.942  -0.486  1.00  0.00     0.202 C 
BRANCH   4   5
ATOM      5  C   UNL     1       3.388  10.780  -0.729  1.00  0.00     0.261 C 
BRANCH   5   6
ATOM      6  O   UNL     1       2.845   9.621  -0.075  1.00  0.00    -0.460 OA
BRANCH   6   7
ATOM      7  C   UNL     1       1.919   8.952  -0.802  1.00  0.00     0.338 C 
ATOM      8  O   UNL     1       1.384   9.318  -1.834  1.00  0.00    -0.246 OA
BRANCH   7   9
ATOM      9  C   UNL     1       1.785   7.579  -0.287  1.00  0.00     0.060 A 
ATOM     10  C   UNL     1       1.329   4.888   0.410  1.00  0.00     0.052 A 
ATOM     11  C   UNL     1       2.231   5.236  -0.617  1.00  0.00     0.028 A 
ATOM     12  C   UNL     1       0.759   5.928   1.157  1.00  0.00     0.028 A 
ATOM     13  C   UNL     1       2.409   6.561  -1.004  1.00  0.00     0.018 A 
ATOM     14  C   UNL     1       1.010   7.273   0.832  1.00  0.00     0.018 A 
BRANCH  10  15
ATOM     15  N   UNL     1       0.873   3.538   0.479  1.00  0.00    -0.250 N 
ATOM     16  C   UNL     1       1.071   0.070  -0.046  1.00  0.00     0.024 C 
ATOM     17  C   UNL     1       0.625   1.455  -0.534  1.00  0.00     0.071 C 
ATOM     18  C   UNL     1       1.589   2.495  -0.051  1.00  0.00     0.241 C 
ATOM     19  C   UNL     1      -0.734   1.832   0.122  1.00  0.00     0.107 C 
ATOM     20  C   UNL     1       0.545   1.641  -2.095  1.00  0.00     0.066 C 
ATOM     21  O   UNL     1       2.803   2.398  -0.176  1.00  0.00    -0.273 OA
ATOM     22  C   UNL     1      -0.395   3.134   0.855  1.00  0.00     0.238 C 
ATOM     23  C   UNL     1      -1.828   1.979  -0.994  1.00  0.00     0.063 C 
ATOM     24  C   UNL     1      -0.104   3.006  -2.414  1.00  0.00    -0.036 A 
ATOM     25  C   UNL     1      -0.461   0.604  -2.548  1.00  0.00    -0.036 A 
ATOM     26  O   UNL     1      -1.167   3.675   1.636  1.00  0.00    -0.274 OA
ATOM     27  C   UNL     1      -1.387   3.179  -1.828  1.00  0.00    -0.036 A 
ATOM     28  C   UNL     1      -1.737   0.754  -1.936  1.00  0.00    -0.036 A 
ATOM     29  C   UNL     1       0.454   4.027  -3.167  1.00  0.00     0.005 A 
ATOM     30  C   UNL     1      -0.200  -0.377  -3.495  1.00  0.00     0.005 A 
ATOM     31  C   UNL     1      -2.094   4.366  -1.970  1.00  0.00     0.004 A 
ATOM     32  C   UNL     1      -2.762  -0.103  -2.307  1.00  0.00     0.004 A 
ATOM     33  C   UNL     1      -0.248   5.231  -3.292  1.00  0.00     0.000 A 
ATOM     34  C   UNL     1      -1.232  -1.234  -3.852  1.00  0.00     0.000 A 
ATOM     35  C   UNL     1      -1.509   5.400  -2.697  1.00  0.00     0.000 A 
ATOM     36  C   UNL     1      -2.500  -1.098  -3.264  1.00  0.00     0.000 A 
ENDBRANCH  10  15
ENDBRANCH   7   9
ENDBRANCH   6   7
ENDBRANCH   5   6
ENDBRANCH   4   5
ENDBRANCH   3   4
ENDBRANCH   2   3
ENDBRANCH   1   2
BRANCH   1  37
ATOM     37  O   UNL     1       5.392   8.931   1.949  1.00  0.00    -0.376 OA
BRANCH  37  38
ATOM     38  C   UNL     1       6.661   9.546   2.104  1.00  0.00     0.202 C 
BRANCH  38  39
ATOM     39  C   UNL     1       7.923   8.681   2.117  1.00  0.00     0.261 C 
BRANCH  39  40
ATOM     40  O   UNL     1       8.109   7.922   0.913  1.00  0.00    -0.460 OA
BRANCH  40  41
ATOM     41  C   UNL     1       8.128   6.574   1.066  1.00  0.00     0.338 C 
ATOM     42  O   UNL     1       8.023   5.944   2.106  1.00  0.00    -0.246 OA
BRANCH  41  43
ATOM     43  C   UNL     1       8.109   5.954  -0.270  1.00  0.00     0.060 A 
ATOM     44  C   UNL     1       9.175   6.147  -1.149  1.00  0.00     0.016 A 
ATOM     45  C   UNL     1       7.008   5.168  -0.639  1.00  0.00     0.016 A 
ATOM     46  C   UNL     1       9.143   5.536  -2.404  1.00  0.00     0.010 A 
ATOM     47  C   UNL     1       6.969   4.579  -1.903  1.00  0.00     0.010 A 
ATOM     48  C   UNL     1       8.045   4.745  -2.787  1.00  0.00    -0.014 A 
BRANCH  48  49
ATOM     49  C   UNL     1       8.108   3.951  -4.036  1.00  0.00     0.031 A 
ATOM     50  C   UNL     1       7.458   4.415  -5.302  1.00  0.00     0.074 A 
ATOM     51  C   UNL     1       8.779   2.783  -4.001  1.00  0.00     0.049 A 
ATOM     52  N   UNL     1       7.488   3.854  -6.483  1.00  0.00    -0.248 NA
ATOM     53  C   UNL     1       6.680   5.661  -5.245  1.00  0.00     0.031 C 
ATOM     54  C   UNL     1       9.439   2.240  -2.812  1.00  0.00     0.029 A 
ATOM     55  N   UNL     1       9.024   1.852  -4.977  1.00  0.00    -0.354 N 
ATOM     56  C   UNL     1       6.766   4.692  -7.322  1.00  0.00     0.074 A 
ATOM     57  C   UNL     1       6.263   5.775  -6.502  1.00  0.00     0.031 C 
ATOM     58  C   UNL     1      10.025   1.077  -3.132  1.00  0.00     0.029 A 
ATOM     59  C   UNL     1       9.758   0.777  -4.537  1.00  0.00     0.049 A 
ATOM     60  H   UNL     1       8.704   1.945  -5.904  1.00  0.00     0.167 HD
ATOM     61  C   UNL     1       6.568   4.572  -8.656  1.00  0.00     0.031 A 
ATOM     62  C   UNL     1      10.172  -0.332  -5.183  1.00  0.00     0.031 A 
ATOM     63  C   UNL     1       7.061   3.473  -9.450  1.00  0.00     0.049 A 
ATOM     64  C   UNL     1       9.877  -0.476  -6.649  1.00  0.00     0.074 A 
ATOM     65  C   UNL     1       6.935   3.285 -10.816  1.00  0.00     0.029 A 
ATOM     66  N   UNL     1       7.760   2.378  -8.962  1.00  0.00    -0.354 N 
ATOM     67  N   UNL     1       9.259   0.364  -7.443  1.00  0.00    -0.248 NA
ATOM     68  C   UNL     1      10.340  -1.702  -7.312  1.00  0.00     0.031 C 
ATOM     69  C   UNL     1       7.484   2.044 -11.140  1.00  0.00     0.029 A 
ATOM     70  C   UNL     1       8.030   1.492  -9.992  1.00  0.00     0.049 A 
ATOM     71  H   UNL     1       8.024   2.250  -8.022  1.00  0.00     0.167 HD
ATOM     72  C   UNL     1       9.266  -0.226  -8.701  1.00  0.00     0.074 A 
ATOM     73  C   UNL     1       9.971  -1.484  -8.569  1.00  0.00     0.031 C 
ATOM     74  C   UNL     1       8.728   0.236  -9.856  1.00  0.00     0.031 A 
BRANCH  61  75
ATOM     75  C   UNL     1       5.819   5.662  -9.382  1.00  0.00    -0.014 A 
ATOM     76  C   UNL     1       4.589   5.378 -10.005  1.00  0.00     0.010 A 
ATOM     77  C   UNL     1       6.425   6.911  -9.605  1.00  0.00     0.010 A 
ATOM     78  C   UNL     1       4.004   6.302 -10.877  1.00  0.00     0.020 A 
ATOM     79  C   UNL     1       5.830   7.849 -10.455  1.00  0.00     0.020 A 
ATOM     80  C   UNL     1       4.638   7.526 -11.108  1.00  0.00     0.054 A 
BRANCH  80  81
ATOM     81  S   UNL     1       3.903   8.682 -12.299  1.00  0.00     0.124 S 
ATOM     82  O   UNL     1       4.162   8.020 -13.574  1.00  0.00    -0.237 OA
ATOM     83  O   UNL     1       2.504   8.721 -11.880  1.00  0.00    -0.237 OA
ATOM     84  O   UNL     1       4.645   9.921 -12.077  1.00  0.00    -0.744 OA
ENDBRANCH  80  81
ENDBRANCH  61  75
BRANCH  62  85
ATOM     85  C   UNL     1      10.932  -1.363  -4.424  1.00  0.00    -0.014 A 
ATOM     86  C   UNL     1      10.303  -2.080  -3.387  1.00  0.00     0.010 A 
ATOM     87  C   UNL     1      12.304  -1.556  -4.653  1.00  0.00     0.010 A 
ATOM     88  C   UNL     1      11.043  -2.919  -2.553  1.00  0.00     0.020 A 
ATOM     89  C   UNL     1      13.043  -2.423  -3.840  1.00  0.00     0.020 A 
ATOM     90  C   UNL     1      12.413  -3.073  -2.775  1.00  0.00     0.054 A 
BRANCH  90  91
ATOM     91  S   UNL     1      13.366  -4.116  -1.638  1.00  0.00     0.124 S 
ATOM     92  O   UNL     1      13.454  -3.266  -0.455  1.00  0.00    -0.237 OA
ATOM     93  O   UNL     1      12.518  -5.297  -1.503  1.00  0.00    -0.237 OA
ATOM     94  O   UNL     1      14.624  -4.335  -2.347  1.00  0.00    -0.744 OA
ENDBRANCH  90  91
ENDBRANCH  62  85
BRANCH  74  95
ATOM     95  C   UNL     1       8.837  -0.619 -11.094  1.00  0.00    -0.014 A 
ATOM     96  C   UNL     1       9.593  -0.169 -12.193  1.00  0.00     0.010 A 
ATOM     97  C   UNL     1       8.043  -1.770 -11.234  1.00  0.00     0.010 A 
ATOM     98  C   UNL     1       9.501  -0.816 -13.428  1.00  0.00     0.020 A 
ATOM     99  C   UNL     1       7.973  -2.438 -12.460  1.00  0.00     0.020 A 
ATOM    100  C   UNL     1       8.675  -1.935 -13.558  1.00  0.00     0.054 A 
BRANCH 100 101
ATOM    101  S   UNL     1       8.491  -2.700 -15.193  1.00  0.00     0.124 S 
ATOM    102  O   UNL     1       7.694  -1.708 -15.909  1.00  0.00    -0.237 OA
ATOM    103  O   UNL     1       9.876  -2.837 -15.639  1.00  0.00    -0.237 OA
ATOM    104  O   UNL     1       7.809  -3.961 -14.909  1.00  0.00    -0.744 OA
ENDBRANCH 100 101
ENDBRANCH  74  95
ENDBRANCH  48  49
ENDBRANCH  41  43
ENDBRANCH  40  41
ENDBRANCH  39  40
ENDBRANCH  38  39
ENDBRANCH  37  38
ENDBRANCH   1  37
TORSDOF 21
