REMARK SMILES O=C(OCCOCCOCCOC(=O)[C@H]1CCCCN1C(=O)c1nc(C2CC2)n[nH]1)c1ccc(-c2c3nc(c(-c4ccc(S(=O)(=O)[O-])cc4)c4ccc([nH]4)c(-c4ccc(S(=O)(=O)[O-])cc4)c4nc(c(-c5ccc(S(=O)(=O)[O-])cc5)c5ccc2[nH]5)C=C4)C=C3)cc1
REMARK SMILES IDX 7 1 6 2 5 3 4 4 3 5 2 6 1 7 31 8 32 9 90 10 33 11 89 12
REMARK SMILES IDX 34 13 35 14 36 15 83 16 37 17 88 18 82 19 84 20 38 21 87 22
REMARK SMILES IDX 81 23 80 24 39 26 69 27 50 28 68 29 51 30 54 31 67 32 85 33
REMARK SMILES IDX 52 34 53 35 66 37 86 38 55 39 40 40 41 41 49 42 42 43 48 44
REMARK SMILES IDX 43 45 44 46 45 47 46 48 47 49 70 50 71 51 79 52 72 53 78 54
REMARK SMILES IDX 73 55 74 56 75 57 76 58 77 59 56 60 57 61 65 62 58 63 64 64
REMARK SMILES IDX 59 65 60 66 61 67 62 68 63 69 8 70 9 71 10 72 11 73 12 74
REMARK SMILES IDX 13 75 14 76 15 77 16 78 20 79 17 80 19 81 18 82 21 83 22 84
REMARK SMILES IDX 23 85 24 86 30 87 25 88 29 89 26 91 27 92 28 93
REMARK H PARENT 84 25 54 36 30 90
REMARK Flexibility Score: inf
ROOT
ATOM      1  C   UNL     1      -0.712   5.263   1.193  1.00  0.00     0.188 C 
ENDROOT
BRANCH   1   2
ATOM      2  O   UNL     1      -1.080   3.934   1.548  1.00  0.00    -0.376 OA
BRANCH   2   3
ATOM      3  C   UNL     1      -2.232   3.785   2.369  1.00  0.00     0.202 C 
BRANCH   3   4
ATOM      4  C   UNL     1      -2.016   4.010   3.871  1.00  0.00     0.261 C 
BRANCH   4   5
ATOM      5  O   UNL     1      -1.230   5.157   4.157  1.00  0.00    -0.460 OA
BRANCH   5   6
ATOM      6  C   UNL     1       0.118   5.224   4.073  1.00  0.00     0.338 C 
ATOM      7  O   UNL     1       0.612   6.351   4.177  1.00  0.00    -0.246 OA
BRANCH   6   8
ATOM      8  C   UNL     1       1.044   4.042   3.849  1.00  0.00     0.060 A 
ATOM      9  C   UNL     1       0.812   2.678   3.592  1.00  0.00     0.016 A 
ATOM     10  C   UNL     1       2.374   4.388   3.895  1.00  0.00     0.016 A 
ATOM     11  C   UNL     1       1.861   1.697   3.551  1.00  0.00     0.010 A 
ATOM     12  C   UNL     1       3.363   3.400   3.883  1.00  0.00     0.010 A 
ATOM     13  C   UNL     1       3.179   2.042   3.788  1.00  0.00    -0.014 A 
BRANCH  13  14
ATOM     14  C   UNL     1       4.390   1.157   3.811  1.00  0.00     0.031 A 
ATOM     15  C   UNL     1       5.236   0.904   5.038  1.00  0.00     0.074 A 
ATOM     16  C   UNL     1       4.924   0.643   2.692  1.00  0.00     0.049 A 
ATOM     17  N   UNL     1       5.143  -0.083   5.889  1.00  0.00    -0.248 NA
ATOM     18  C   UNL     1       6.379   1.781   5.321  1.00  0.00     0.031 C 
ATOM     19  C   UNL     1       4.431   0.826   1.332  1.00  0.00     0.029 A 
ATOM     20  N   UNL     1       6.024  -0.165   2.554  1.00  0.00    -0.354 N 
ATOM     21  C   UNL     1       6.000   0.237   6.939  1.00  0.00     0.074 A 
ATOM     22  C   UNL     1       6.737   1.416   6.547  1.00  0.00     0.031 C 
ATOM     23  C   UNL     1       5.199   0.104   0.494  1.00  0.00     0.029 A 
ATOM     24  C   UNL     1       6.222  -0.594   1.268  1.00  0.00     0.049 A 
ATOM     25  H   UNL     1       6.613  -0.411   3.304  1.00  0.00     0.167 HD
ATOM     26  C   UNL     1       6.565  -0.575   7.862  1.00  0.00     0.031 A 
ATOM     27  C   UNL     1       7.103  -1.500   0.808  1.00  0.00     0.031 A 
ATOM     28  C   UNL     1       7.486  -1.605   7.446  1.00  0.00     0.049 A 
ATOM     29  C   UNL     1       7.947  -2.259   1.806  1.00  0.00     0.074 A 
ATOM     30  C   UNL     1       8.383  -2.332   8.204  1.00  0.00     0.029 A 
ATOM     31  N   UNL     1       7.691  -1.970   6.118  1.00  0.00    -0.354 N 
ATOM     32  N   UNL     1       7.981  -2.152   3.117  1.00  0.00    -0.248 NA
ATOM     33  C   UNL     1       8.825  -3.301   1.262  1.00  0.00     0.031 C 
ATOM     34  C   UNL     1       9.203  -3.054   7.326  1.00  0.00     0.029 A 
ATOM     35  C   UNL     1       8.739  -2.865   6.032  1.00  0.00     0.049 A 
ATOM     36  H   UNL     1       7.166  -1.639   5.354  1.00  0.00     0.167 HD
ATOM     37  C   UNL     1       8.837  -3.162   3.557  1.00  0.00     0.074 A 
ATOM     38  C   UNL     1       9.303  -3.851   2.369  1.00  0.00     0.031 C 
ATOM     39  C   UNL     1       9.186  -3.513   4.821  1.00  0.00     0.031 A 
BRANCH  26  40
ATOM     40  C   UNL     1       6.657   0.055   9.231  1.00  0.00    -0.014 A 
ATOM     41  C   UNL     1       5.471   0.204   9.973  1.00  0.00     0.010 A 
ATOM     42  C   UNL     1       7.866   0.499   9.803  1.00  0.00     0.010 A 
ATOM     43  C   UNL     1       5.487   0.783  11.245  1.00  0.00     0.020 A 
ATOM     44  C   UNL     1       7.889   1.078  11.081  1.00  0.00     0.020 A 
ATOM     45  C   UNL     1       6.695   1.221  11.791  1.00  0.00     0.054 A 
BRANCH  45  46
ATOM     46  S   UNL     1       6.674   1.973  13.443  1.00  0.00     0.124 S 
ATOM     47  O   UNL     1       5.893   3.190  13.214  1.00  0.00    -0.237 OA
ATOM     48  O   UNL     1       6.004   0.947  14.247  1.00  0.00    -0.237 OA
ATOM     49  O   UNL     1       8.078   2.185  13.753  1.00  0.00    -0.744 OA
ENDBRANCH  45  46
ENDBRANCH  26  40
BRANCH  27  50
ATOM     50  C   UNL     1       7.150  -1.808  -0.643  1.00  0.00    -0.014 A 
ATOM     51  C   UNL     1       6.666  -3.033  -1.134  1.00  0.00     0.010 A 
ATOM     52  C   UNL     1       7.675  -0.867  -1.546  1.00  0.00     0.010 A 
ATOM     53  C   UNL     1       6.739  -3.326  -2.498  1.00  0.00     0.020 A 
ATOM     54  C   UNL     1       7.728  -1.147  -2.914  1.00  0.00     0.020 A 
ATOM     55  C   UNL     1       7.272  -2.381  -3.379  1.00  0.00     0.054 A 
BRANCH  55  56
ATOM     56  S   UNL     1       7.338  -2.785  -5.146  1.00  0.00     0.124 S 
ATOM     57  O   UNL     1       8.329  -3.853  -5.178  1.00  0.00    -0.237 OA
ATOM     58  O   UNL     1       5.963  -3.183  -5.427  1.00  0.00    -0.237 OA
ATOM     59  O   UNL     1       7.756  -1.526  -5.769  1.00  0.00    -0.744 OA
ENDBRANCH  55  56
ENDBRANCH  27  50
BRANCH  39  60
ATOM     60  C   UNL     1      10.063  -4.728   4.997  1.00  0.00    -0.014 A 
ATOM     61  C   UNL     1      11.414  -4.747   4.609  1.00  0.00     0.010 A 
ATOM     62  C   UNL     1       9.522  -5.852   5.650  1.00  0.00     0.010 A 
ATOM     63  C   UNL     1      12.196  -5.883   4.841  1.00  0.00     0.020 A 
ATOM     64  C   UNL     1      10.308  -6.973   5.914  1.00  0.00     0.020 A 
ATOM     65  C   UNL     1      11.638  -6.987   5.494  1.00  0.00     0.054 A 
BRANCH  65  66
ATOM     66  S   UNL     1      12.684  -8.428   5.840  1.00  0.00     0.124 S 
ATOM     67  O   UNL     1      12.804  -9.038   4.517  1.00  0.00    -0.237 OA
ATOM     68  O   UNL     1      13.906  -7.817   6.362  1.00  0.00    -0.237 OA
ATOM     69  O   UNL     1      11.912  -9.192   6.812  1.00  0.00    -0.744 OA
ENDBRANCH  65  66
ENDBRANCH  39  60
ENDBRANCH  13  14
ENDBRANCH   6   8
ENDBRANCH   5   6
ENDBRANCH   4   5
ENDBRANCH   3   4
ENDBRANCH   2   3
ENDBRANCH   1   2
BRANCH   1  70
ATOM     70  C   UNL     1      -1.114   5.855  -0.167  1.00  0.00     0.188 C 
BRANCH  70  71
ATOM     71  O   UNL     1      -1.966   5.157  -1.049  1.00  0.00    -0.376 OA
BRANCH  71  72
ATOM     72  C   UNL     1      -1.854   3.750  -1.098  1.00  0.00     0.202 C 
BRANCH  72  73
ATOM     73  C   UNL     1      -0.490   3.090  -1.401  1.00  0.00     0.261 C 
BRANCH  73  74
ATOM     74  O   UNL     1       0.727   3.665  -0.830  1.00  0.00    -0.462 OA
BRANCH  74  75
ATOM     75  C   UNL     1       1.598   4.162  -1.752  1.00  0.00     0.328 C 
ATOM     76  O   UNL     1       1.285   4.252  -2.942  1.00  0.00    -0.250 OA
BRANCH  75  77
ATOM     77  C   UNL     1       3.071   4.524  -1.285  1.00  0.00     0.195 C 
ATOM     78  C   UNL     1       3.463   5.768  -2.137  1.00  0.00     0.037 C 
ATOM     79  N   UNL     1       3.635   4.755   0.112  1.00  0.00    -0.322 N 
ATOM     80  C   UNL     1       2.997   7.065  -1.470  1.00  0.00     0.005 C 
ATOM     81  C   UNL     1       3.183   5.972   0.757  1.00  0.00     0.121 C 
ATOM     82  C   UNL     1       3.599   7.178  -0.073  1.00  0.00     0.022 C 
BRANCH  79  83
ATOM     83  C   UNL     1       4.901   4.193   0.473  1.00  0.00     0.291 C 
ATOM     84  O   UNL     1       5.449   3.428  -0.330  1.00  0.00    -0.265 OA
BRANCH  83  85
ATOM     85  C   UNL     1       5.607   4.495   1.753  1.00  0.00     0.214 A 
ATOM     86  N   UNL     1       5.258   5.219   2.822  1.00  0.00    -0.207 NA
ATOM     87  N   UNL     1       6.797   3.886   2.072  1.00  0.00    -0.255 N 
ATOM     88  C   UNL     1       6.209   4.922   3.803  1.00  0.00     0.154 A 
ATOM     89  N   UNL     1       7.253   4.253   3.292  1.00  0.00    -0.158 NA
ATOM     90  H   UNL     1       7.265   3.255   1.479  1.00  0.00     0.192 HD
BRANCH  88  91
ATOM     91  C   UNL     1       6.073   5.083   5.389  1.00  0.00     0.060 C 
ATOM     92  C   UNL     1       4.864   5.686   6.089  1.00  0.00     0.012 C 
ATOM     93  C   UNL     1       5.144   4.248   6.298  1.00  0.00     0.012 C 
ENDBRANCH  88  91
ENDBRANCH  83  85
ENDBRANCH  79  83
ENDBRANCH  75  77
ENDBRANCH  74  75
ENDBRANCH  73  74
ENDBRANCH  72  73
ENDBRANCH  71  72
ENDBRANCH  70  71
ENDBRANCH   1  70
TORSDOF 23
