REMARK SMILES O=C(CCc1cncc([C@@H]2CN(c3ccccc3)CCO2)n1)OCCOCCOCCOC(=O)c1ccc(-c2c3nc(c(-c4ccc(S(=O)(=O)[O-])cc4)c4ccc([nH]4)c(-c4ccc(S(=O)(=O)[O-])cc4)c4nc(c(-c5ccc(S(=O)(=O)[O-])cc5)c5ccc2[nH]5)C=C4)C=C3)cc1
REMARK SMILES IDX 27 1 26 2 25 3 24 4 23 5 2 6 1 7 3 8 4 9 5 10 6 11 22 12
REMARK SMILES IDX 7 13 9 14 8 15 10 16 11 17 21 18 12 19 20 20 19 21 13 22
REMARK SMILES IDX 14 23 18 24 15 25 17 26 16 27 28 28 29 29 30 30 31 31 32 32
REMARK SMILES IDX 33 33 34 34 35 35 36 36 94 37 37 38 93 39 38 40 39 41 40 42
REMARK SMILES IDX 87 43 41 44 92 45 86 46 88 47 42 48 91 49 85 50 84 51 43 53
REMARK SMILES IDX 73 54 54 55 72 56 55 57 58 58 71 59 89 60 56 61 57 62 70 64
REMARK SMILES IDX 90 65 59 66 44 67 45 68 53 69 46 70 52 71 47 72 48 73 49 74
REMARK SMILES IDX 50 75 51 76 74 77 75 78 83 79 76 80 82 81 77 82 78 83 79 84
REMARK SMILES IDX 80 85 81 86 60 87 61 88 69 89 62 90 68 91 63 92 64 93 65 94
REMARK SMILES IDX 66 95 67 96
REMARK H PARENT 88 52 58 63
REMARK Flexibility Score: inf
ROOT
ATOM      1  C   UNL     1       2.405  -1.436   1.155  1.00  0.00     0.188 C 
ENDROOT
BRANCH   1   2
ATOM      2  O   UNL     1       3.744  -1.529   0.701  1.00  0.00    -0.376 OA
BRANCH   2   3
ATOM      3  C   UNL     1       4.598  -0.408   0.884  1.00  0.00     0.202 C 
BRANCH   3   4
ATOM      4  C   UNL     1       3.984   0.990   0.902  1.00  0.00     0.261 C 
BRANCH   4   5
ATOM      5  O   UNL     1       2.886   1.339   0.025  1.00  0.00    -0.463 OA
BRANCH   5   6
ATOM      6  C   UNL     1       2.573   1.054  -1.250  1.00  0.00     0.306 C 
ATOM      7  O   UNL     1       1.567   1.566  -1.744  1.00  0.00    -0.252 OA
BRANCH   6   8
ATOM      8  C   UNL     1       3.396   0.092  -2.060  1.00  0.00     0.129 C 
BRANCH   8   9
ATOM      9  C   UNL     1       4.384   0.792  -2.978  1.00  0.00     0.069 C 
BRANCH   9  10
ATOM     10  C   UNL     1       5.467   1.474  -2.194  1.00  0.00     0.060 A 
ATOM     11  C   UNL     1       6.649   0.829  -1.857  1.00  0.00     0.134 A 
ATOM     12  N   UNL     1       5.185   2.709  -1.718  1.00  0.00    -0.252 NA
ATOM     13  N   UNL     1       7.569   1.383  -1.032  1.00  0.00    -0.261 NA
ATOM     14  C   UNL     1       6.109   3.299  -0.916  1.00  0.00     0.090 A 
ATOM     15  C   UNL     1       7.283   2.632  -0.591  1.00  0.00     0.137 A 
BRANCH  14  16
ATOM     16  C   UNL     1       5.842   4.702  -0.423  1.00  0.00     0.188 C 
ATOM     17  C   UNL     1       4.390   4.857   0.115  1.00  0.00     0.155 C 
ATOM     18  O   UNL     1       6.125   5.582  -1.534  1.00  0.00    -0.368 OA
ATOM     19  N   UNL     1       4.059   6.280   0.332  1.00  0.00    -0.366 N 
ATOM     20  C   UNL     1       5.807   6.945  -1.233  1.00  0.00     0.182 C 
ATOM     21  C   UNL     1       4.329   7.112  -0.850  1.00  0.00     0.145 C 
BRANCH  19  22
ATOM     22  C   UNL     1       3.928   6.877   1.568  1.00  0.00     0.037 A 
ATOM     23  C   UNL     1       3.077   7.984   1.730  1.00  0.00     0.026 A 
ATOM     24  C   UNL     1       4.618   6.439   2.704  1.00  0.00     0.026 A 
ATOM     25  C   UNL     1       2.943   8.647   2.954  1.00  0.00     0.002 A 
ATOM     26  C   UNL     1       4.499   7.104   3.933  1.00  0.00     0.002 A 
ATOM     27  C   UNL     1       3.666   8.211   4.056  1.00  0.00     0.000 A 
ENDBRANCH  19  22
ENDBRANCH  14  16
ENDBRANCH   9  10
ENDBRANCH   8   9
ENDBRANCH   6   8
ENDBRANCH   5   6
ENDBRANCH   4   5
ENDBRANCH   3   4
ENDBRANCH   2   3
ENDBRANCH   1   2
BRANCH   1  28
ATOM     28  C   UNL     1       2.174  -1.231   2.653  1.00  0.00     0.188 C 
BRANCH  28  29
ATOM     29  O   UNL     1       3.343  -0.844   3.369  1.00  0.00    -0.376 OA
BRANCH  29  30
ATOM     30  C   UNL     1       3.760  -1.798   4.343  1.00  0.00     0.202 C 
BRANCH  30  31
ATOM     31  C   UNL     1       4.635  -2.935   3.797  1.00  0.00     0.261 C 
BRANCH  31  32
ATOM     32  O   UNL     1       4.115  -3.681   2.687  1.00  0.00    -0.460 OA
BRANCH  32  33
ATOM     33  C   UNL     1       3.021  -4.447   2.890  1.00  0.00     0.338 C 
ATOM     34  O   UNL     1       2.347  -4.508   3.900  1.00  0.00    -0.246 OA
BRANCH  33  35
ATOM     35  C   UNL     1       2.722  -5.149   1.623  1.00  0.00     0.060 A 
ATOM     36  C   UNL     1       1.482  -4.966   0.998  1.00  0.00     0.016 A 
ATOM     37  C   UNL     1       3.673  -6.008   1.066  1.00  0.00     0.016 A 
ATOM     38  C   UNL     1       1.195  -5.632  -0.198  1.00  0.00     0.010 A 
ATOM     39  C   UNL     1       3.370  -6.703  -0.106  1.00  0.00     0.010 A 
ATOM     40  C   UNL     1       2.124  -6.533  -0.735  1.00  0.00    -0.014 A 
BRANCH  40  41
ATOM     41  C   UNL     1       1.741  -7.470  -1.819  1.00  0.00     0.031 A 
ATOM     42  C   UNL     1       1.205  -8.818  -1.425  1.00  0.00     0.074 A 
ATOM     43  C   UNL     1       1.935  -7.173  -3.115  1.00  0.00     0.049 A 
ATOM     44  N   UNL     1       0.954  -9.862  -2.169  1.00  0.00    -0.248 NA
ATOM     45  C   UNL     1       0.930  -9.012   0.008  1.00  0.00     0.031 C 
ATOM     46  C   UNL     1       2.411  -5.891  -3.629  1.00  0.00     0.029 A 
ATOM     47  N   UNL     1       1.785  -7.954  -4.236  1.00  0.00    -0.354 N 
ATOM     48  C   UNL     1       0.513 -10.847  -1.293  1.00  0.00     0.074 A 
ATOM     49  C   UNL     1       0.544 -10.277   0.037  1.00  0.00     0.031 C 
ATOM     50  C   UNL     1       2.550  -5.985  -4.964  1.00  0.00     0.029 A 
ATOM     51  C   UNL     1       2.213  -7.344  -5.390  1.00  0.00     0.049 A 
ATOM     52  H   UNL     1       1.406  -8.863  -4.213  1.00  0.00     0.167 HD
ATOM     53  C   UNL     1       0.132 -12.117  -1.567  1.00  0.00     0.031 A 
ATOM     54  C   UNL     1       2.360  -7.837  -6.638  1.00  0.00     0.031 A 
ATOM     55  C   UNL     1       0.146 -12.693  -2.883  1.00  0.00     0.049 A 
ATOM     56  C   UNL     1       1.995  -9.272  -6.918  1.00  0.00     0.074 A 
ATOM     57  C   UNL     1      -0.233 -13.966  -3.269  1.00  0.00     0.029 A 
ATOM     58  N   UNL     1       0.583 -12.040  -4.026  1.00  0.00    -0.354 N 
ATOM     59  N   UNL     1       1.550 -10.187  -6.088  1.00  0.00    -0.248 NA
ATOM     60  C   UNL     1       2.148  -9.743  -8.303  1.00  0.00     0.031 C 
ATOM     61  C   UNL     1       0.033 -14.102  -4.636  1.00  0.00     0.029 A 
ATOM     62  C   UNL     1       0.511 -12.892  -5.114  1.00  0.00     0.049 A 
ATOM     63  H   UNL     1       0.897 -11.107  -4.059  1.00  0.00     0.167 HD
ATOM     64  C   UNL     1       1.341 -11.330  -6.855  1.00  0.00     0.074 A 
ATOM     65  C   UNL     1       1.709 -10.993  -8.215  1.00  0.00     0.031 C 
ATOM     66  C   UNL     1       0.878 -12.544  -6.466  1.00  0.00     0.031 A 
BRANCH  53  67
ATOM     67  C   UNL     1      -0.259 -12.978  -0.396  1.00  0.00    -0.014 A 
ATOM     68  C   UNL     1      -1.436 -12.734   0.336  1.00  0.00     0.010 A 
ATOM     69  C   UNL     1       0.584 -14.034  -0.003  1.00  0.00     0.010 A 
ATOM     70  C   UNL     1      -1.726 -13.485   1.478  1.00  0.00     0.020 A 
ATOM     71  C   UNL     1       0.281 -14.807   1.119  1.00  0.00     0.020 A 
ATOM     72  C   UNL     1      -0.858 -14.509   1.870  1.00  0.00     0.054 A 
BRANCH  72  73
ATOM     73  S   UNL     1      -1.238 -15.446   3.374  1.00  0.00     0.124 S 
ATOM     74  O   UNL     1      -0.898 -14.485   4.420  1.00  0.00    -0.237 OA
ATOM     75  O   UNL     1      -2.662 -15.733   3.224  1.00  0.00    -0.237 OA
ATOM     76  O   UNL     1      -0.358 -16.610   3.289  1.00  0.00    -0.744 OA
ENDBRANCH  72  73
ENDBRANCH  53  67
BRANCH  54  77
ATOM     77  C   UNL     1       2.910  -6.960  -7.707  1.00  0.00    -0.014 A 
ATOM     78  C   UNL     1       2.081  -6.457  -8.724  1.00  0.00     0.010 A 
ATOM     79  C   UNL     1       4.265  -6.578  -7.678  1.00  0.00     0.010 A 
ATOM     80  C   UNL     1       2.592  -5.575  -9.683  1.00  0.00     0.020 A 
ATOM     81  C   UNL     1       4.773  -5.679  -8.620  1.00  0.00     0.020 A 
ATOM     82  C   UNL     1       3.932  -5.182  -9.617  1.00  0.00     0.054 A 
BRANCH  82  83
ATOM     83  S   UNL     1       4.543  -3.950 -10.802  1.00  0.00     0.124 S 
ATOM     84  O   UNL     1       4.616  -4.724 -12.037  1.00  0.00    -0.237 OA
ATOM     85  O   UNL     1       3.502  -2.927 -10.756  1.00  0.00    -0.237 OA
ATOM     86  O   UNL     1       5.829  -3.544 -10.240  1.00  0.00    -0.744 OA
ENDBRANCH  82  83
ENDBRANCH  54  77
BRANCH  66  87
ATOM     87  C   UNL     1       0.688 -13.602  -7.523  1.00  0.00    -0.014 A 
ATOM     88  C   UNL     1       1.781 -14.280  -8.090  1.00  0.00     0.010 A 
ATOM     89  C   UNL     1      -0.618 -13.994  -7.873  1.00  0.00     0.010 A 
ATOM     90  C   UNL     1       1.570 -15.323  -8.997  1.00  0.00     0.020 A 
ATOM     91  C   UNL     1      -0.833 -15.053  -8.759  1.00  0.00     0.020 A 
ATOM     92  C   UNL     1       0.264 -15.707  -9.321  1.00  0.00     0.054 A 
BRANCH  92  93
ATOM     93  S   UNL     1       0.017 -17.115 -10.440  1.00  0.00     0.124 S 
ATOM     94  O   UNL     1       0.392 -16.547 -11.732  1.00  0.00    -0.237 OA
ATOM     95  O   UNL     1       0.935 -18.116  -9.902  1.00  0.00    -0.237 OA
ATOM     96  O   UNL     1      -1.401 -17.434 -10.288  1.00  0.00    -0.744 OA
ENDBRANCH  92  93
ENDBRANCH  66  87
ENDBRANCH  40  41
ENDBRANCH  33  35
ENDBRANCH  32  33
ENDBRANCH  31  32
ENDBRANCH  30  31
ENDBRANCH  29  30
ENDBRANCH  28  29
ENDBRANCH   1  28
TORSDOF 24
