REMARK SMILES COc1ccc(CCC(=O)N(C)C[C@H](C)C(=O)OCCOCCOCCOC(=O)c2ccc(-c3c4nc(c(-c5ccc(S(=O)(=O)[O-])cc5)c5ccc([nH]5)c(-c5ccc(S(=O)(=O)[O-])cc5)c5nc(c(-c6ccc(S(=O)(=O)[O-])cc6)c6ccc3[nH]6)C=C5)C=C4)cc2)cc1F
REMARK SMILES IDX 20 1 19 2 18 3 16 4 17 5 14 6 15 7 13 8 11 9 12 10 9 11
REMARK SMILES IDX 10 12 8 13 7 14 6 15 3 16 4 17 91 18 5 19 90 20 92 21 2 22
REMARK SMILES IDX 1 23 21 24 22 25 23 26 24 27 25 28 26 29 27 30 28 31 29 32
REMARK SMILES IDX 30 33 31 34 89 35 32 36 88 37 33 38 34 39 35 40 82 41 36 42
REMARK SMILES IDX 87 43 81 44 83 45 37 46 86 47 80 48 79 49 38 51 68 52 49 53
REMARK SMILES IDX 67 54 50 55 53 56 66 57 84 58 51 59 52 60 65 62 85 63 54 64
REMARK SMILES IDX 39 65 40 66 48 67 41 68 47 69 42 70 43 71 44 72 45 73 46 74
REMARK SMILES IDX 69 75 70 76 78 77 71 78 77 79 72 80 73 81 74 82 75 83 76 84
REMARK SMILES IDX 55 85 56 86 64 87 57 88 63 89 58 90 59 91 60 92 61 93 62 94
REMARK H PARENT 83 50 53 61
REMARK Flexibility Score: inf
ROOT
ATOM      1  C   UNL     1      -6.999  -3.095   5.648  1.00  0.00     0.202 C 
ENDROOT
BRANCH   1   2
ATOM      2  C   UNL     1      -6.049  -4.185   6.192  1.00  0.00     0.261 C 
BRANCH   2   3
ATOM      3  O   UNL     1      -4.624  -4.004   6.230  1.00  0.00    -0.463 OA
BRANCH   3   4
ATOM      4  C   UNL     1      -3.981  -4.660   5.233  1.00  0.00     0.310 C 
ATOM      5  O   UNL     1      -4.555  -5.043   4.218  1.00  0.00    -0.252 OA
BRANCH   4   6
ATOM      6  C   UNL     1      -2.504  -4.931   5.415  1.00  0.00     0.115 C 
ATOM      7  C   UNL     1      -1.693  -3.813   6.067  1.00  0.00     0.022 C 
BRANCH   6   8
ATOM      8  C   UNL     1      -2.228  -6.278   6.106  1.00  0.00     0.134 C 
BRANCH   8   9
ATOM      9  N   UNL     1      -3.066  -7.407   5.678  1.00  0.00    -0.345 N 
ATOM     10  C   UNL     1      -2.364  -8.603   5.242  1.00  0.00     0.146 C 
BRANCH   9  11
ATOM     11  C   UNL     1      -4.393  -7.442   6.079  1.00  0.00     0.222 C 
ATOM     12  O   UNL     1      -4.775  -6.768   7.042  1.00  0.00    -0.275 OA
BRANCH  11  13
ATOM     13  C   UNL     1      -5.407  -8.307   5.334  1.00  0.00     0.105 C 
BRANCH  13  14
ATOM     14  C   UNL     1      -5.721  -7.922   3.877  1.00  0.00     0.045 C 
BRANCH  14  15
ATOM     15  C   UNL     1      -4.662  -8.350   2.892  1.00  0.00    -0.044 A 
ATOM     16  C   UNL     1      -2.438  -9.230   1.437  1.00  0.00     0.154 A 
ATOM     17  C   UNL     1      -2.612  -7.871   1.671  1.00  0.00     0.050 A 
ATOM     18  C   UNL     1      -3.406 -10.139   1.860  1.00  0.00     0.165 A 
ATOM     19  C   UNL     1      -3.736  -7.434   2.372  1.00  0.00     0.008 A 
ATOM     20  C   UNL     1      -4.520  -9.706   2.572  1.00  0.00     0.047 A 
ATOM     21  F   UNL     1      -3.240 -11.455   1.663  1.00  0.00    -0.203 F 
BRANCH  16  22
ATOM     22  O   UNL     1      -1.240  -9.635   0.914  1.00  0.00    -0.494 OA
ATOM     23  C   UNL     1      -1.405 -10.068  -0.434  1.00  0.00     0.278 C 
ENDBRANCH  16  22
ENDBRANCH  14  15
ENDBRANCH  13  14
ENDBRANCH  11  13
ENDBRANCH   9  11
ENDBRANCH   8   9
ENDBRANCH   6   8
ENDBRANCH   4   6
ENDBRANCH   3   4
ENDBRANCH   2   3
ENDBRANCH   1   2
BRANCH   1  24
ATOM     24  O   UNL     1      -6.683  -2.064   4.732  1.00  0.00    -0.376 OA
BRANCH  24  25
ATOM     25  C   UNL     1      -5.574  -2.195   3.880  1.00  0.00     0.188 C 
BRANCH  25  26
ATOM     26  C   UNL     1      -4.260  -1.710   4.497  1.00  0.00     0.188 C 
BRANCH  26  27
ATOM     27  O   UNL     1      -4.203  -1.232   5.829  1.00  0.00    -0.376 OA
BRANCH  27  28
ATOM     28  C   UNL     1      -5.156  -0.282   6.282  1.00  0.00     0.202 C 
BRANCH  28  29
ATOM     29  C   UNL     1      -5.639   0.900   5.414  1.00  0.00     0.261 C 
BRANCH  29  30
ATOM     30  O   UNL     1      -5.417   0.823   4.002  1.00  0.00    -0.460 OA
BRANCH  30  31
ATOM     31  C   UNL     1      -4.235   1.332   3.562  1.00  0.00     0.338 C 
ATOM     32  O   UNL     1      -3.383   1.882   4.226  1.00  0.00    -0.246 OA
BRANCH  31  33
ATOM     33  C   UNL     1      -4.045   0.877   2.161  1.00  0.00     0.060 A 
ATOM     34  C   UNL     1      -2.919   0.091   1.860  1.00  0.00     0.016 A 
ATOM     35  C   UNL     1      -4.982   1.170   1.171  1.00  0.00     0.016 A 
ATOM     36  C   UNL     1      -2.728  -0.404   0.572  1.00  0.00     0.010 A 
ATOM     37  C   UNL     1      -4.762   0.719  -0.133  1.00  0.00     0.010 A 
ATOM     38  C   UNL     1      -3.622  -0.047  -0.442  1.00  0.00    -0.014 A 
BRANCH  38  39
ATOM     39  C   UNL     1      -3.237  -0.258  -1.857  1.00  0.00     0.031 A 
ATOM     40  C   UNL     1      -2.590   0.892  -2.581  1.00  0.00     0.074 A 
ATOM     41  C   UNL     1      -3.432  -1.432  -2.483  1.00  0.00     0.049 A 
ATOM     42  N   UNL     1      -2.236   0.991  -3.835  1.00  0.00    -0.248 NA
ATOM     43  C   UNL     1      -2.307   2.094  -1.777  1.00  0.00     0.031 C 
ATOM     44  C   UNL     1      -3.980  -2.641  -1.873  1.00  0.00     0.029 A 
ATOM     45  N   UNL     1      -3.192  -1.790  -3.787  1.00  0.00    -0.354 N 
ATOM     46  C   UNL     1      -1.705   2.268  -3.974  1.00  0.00     0.074 A 
ATOM     47  C   UNL     1      -1.806   2.916  -2.685  1.00  0.00     0.031 C 
ATOM     48  C   UNL     1      -4.049  -3.606  -2.808  1.00  0.00     0.029 A 
ATOM     49  C   UNL     1      -3.589  -3.070  -4.089  1.00  0.00     0.049 A 
ATOM     50  H   UNL     1      -2.774  -1.186  -4.443  1.00  0.00     0.167 HD
ATOM     51  C   UNL     1      -1.179   2.851  -5.076  1.00  0.00     0.031 A 
ATOM     52  C   UNL     1      -3.606  -3.721  -5.271  1.00  0.00     0.031 A 
ATOM     53  C   UNL     1      -1.099   2.210  -6.360  1.00  0.00     0.049 A 
ATOM     54  C   UNL     1      -3.106  -3.017  -6.509  1.00  0.00     0.074 A 
ATOM     55  C   UNL     1      -0.582   2.714  -7.541  1.00  0.00     0.029 A 
ATOM     56  N   UNL     1      -1.554   0.930  -6.636  1.00  0.00    -0.354 N 
ATOM     57  N   UNL     1      -2.599  -1.812  -6.628  1.00  0.00    -0.248 NA
ATOM     58  C   UNL     1      -3.176  -3.766  -7.773  1.00  0.00     0.031 C 
ATOM     59  C   UNL     1      -0.785   1.764  -8.545  1.00  0.00     0.029 A 
ATOM     60  C   UNL     1      -1.358   0.637  -7.975  1.00  0.00     0.049 A 
ATOM     61  H   UNL     1      -1.958   0.320  -5.977  1.00  0.00     0.167 HD
ATOM     62  C   UNL     1      -2.258  -1.673  -7.971  1.00  0.00     0.074 A 
ATOM     63  C   UNL     1      -2.605  -2.920  -8.620  1.00  0.00     0.031 C 
ATOM     64  C   UNL     1      -1.704  -0.611  -8.608  1.00  0.00     0.031 A 
BRANCH  51  65
ATOM     65  C   UNL     1      -0.691   4.269  -4.945  1.00  0.00    -0.014 A 
ATOM     66  C   UNL     1       0.458   4.583  -4.197  1.00  0.00     0.010 A 
ATOM     67  C   UNL     1      -1.380   5.302  -5.608  1.00  0.00     0.010 A 
ATOM     68  C   UNL     1       0.888   5.908  -4.084  1.00  0.00     0.020 A 
ATOM     69  C   UNL     1      -0.934   6.624  -5.524  1.00  0.00     0.020 A 
ATOM     70  C   UNL     1       0.189   6.920  -4.749  1.00  0.00     0.054 A 
BRANCH  70  71
ATOM     71  S   UNL     1       0.787   8.626  -4.608  1.00  0.00     0.124 S 
ATOM     72  O   UNL     1       0.467   8.944  -3.219  1.00  0.00    -0.237 OA
ATOM     73  O   UNL     1       2.210   8.490  -4.909  1.00  0.00    -0.237 OA
ATOM     74  O   UNL     1       0.007   9.352  -5.608  1.00  0.00    -0.744 OA
ENDBRANCH  70  71
ENDBRANCH  51  65
BRANCH  52  75
ATOM     75  C   UNL     1      -4.133  -5.113  -5.352  1.00  0.00    -0.014 A 
ATOM     76  C   UNL     1      -3.279  -6.187  -5.657  1.00  0.00     0.010 A 
ATOM     77  C   UNL     1      -5.500  -5.370  -5.136  1.00  0.00     0.010 A 
ATOM     78  C   UNL     1      -3.783  -7.488  -5.760  1.00  0.00     0.020 A 
ATOM     79  C   UNL     1      -6.002  -6.673  -5.207  1.00  0.00     0.020 A 
ATOM     80  C   UNL     1      -5.141  -7.723  -5.528  1.00  0.00     0.054 A 
BRANCH  80  81
ATOM     81  S   UNL     1      -5.757  -9.428  -5.609  1.00  0.00     0.124 S 
ATOM     82  O   UNL     1      -5.684  -9.710  -7.039  1.00  0.00    -0.237 OA
ATOM     83  O   UNL     1      -4.798 -10.145  -4.771  1.00  0.00    -0.237 OA
ATOM     84  O   UNL     1      -7.106  -9.331  -5.057  1.00  0.00    -0.744 OA
ENDBRANCH  80  81
ENDBRANCH  52  75
BRANCH  64  85
ATOM     85  C   UNL     1      -1.388  -0.759 -10.075  1.00  0.00    -0.014 A 
ATOM     86  C   UNL     1      -2.403  -0.812 -11.046  1.00  0.00     0.010 A 
ATOM     87  C   UNL     1      -0.043  -0.779 -10.492  1.00  0.00     0.010 A 
ATOM     88  C   UNL     1      -2.080  -0.916 -12.402  1.00  0.00     0.020 A 
ATOM     89  C   UNL     1       0.284  -0.848 -11.848  1.00  0.00     0.020 A 
ATOM     90  C   UNL     1      -0.738  -0.931 -12.795  1.00  0.00     0.054 A 
BRANCH  90  91
ATOM     91  S   UNL     1      -0.346  -1.021 -14.564  1.00  0.00     0.124 S 
ATOM     92  O   UNL     1      -0.715  -2.396 -14.888  1.00  0.00    -0.237 OA
ATOM     93  O   UNL     1      -1.207   0.012 -15.134  1.00  0.00    -0.237 OA
ATOM     94  O   UNL     1       1.085  -0.731 -14.618  1.00  0.00    -0.744 OA
ENDBRANCH  90  91
ENDBRANCH  64  85
ENDBRANCH  38  39
ENDBRANCH  31  33
ENDBRANCH  30  31
ENDBRANCH  29  30
ENDBRANCH  28  29
ENDBRANCH  27  28
ENDBRANCH  26  27
ENDBRANCH  25  26
ENDBRANCH  24  25
ENDBRANCH   1  24
TORSDOF 27
