REMARK SMILES Cc1ccc2occ(/C=N/NC(=O)CCC(=O)Nc3ccc(C(=O)OCCOCCOCCOC(=O)c4ccc(-c5c6nc(c(-c7ccc(S(=O)(=O)[O-])cc7)c7ccc([nH]7)c(-c7ccc(S(=O)(=O)[O-])cc7)c7nc(c(-c8ccc(S(=O)(=O)[O-])cc8)c8ccc5[nH]8)C=C7)C=C6)cc4)cc3)c(=O)c2c1
REMARK SMILES IDX 28 1 27 2 26 3 25 4 23 5 24 6 22 7 19 8 20 9 98 10 21 11
REMARK SMILES IDX 97 12 18 13 16 14 17 15 15 17 14 18 12 19 11 20 13 22 10 23
REMARK SMILES IDX 9 24 8 25 1 26 2 27 3 28 102 29 4 30 101 31 5 32 99 33 6 34
REMARK SMILES IDX 100 35 7 36 29 37 30 38 31 39 32 40 33 41 34 42 35 43 36 44
REMARK SMILES IDX 37 45 38 46 96 47 39 48 95 49 40 50 41 51 42 52 89 53 43 54
REMARK SMILES IDX 94 55 88 56 90 57 44 58 93 59 87 60 86 61 45 63 75 64 56 65
REMARK SMILES IDX 74 66 57 67 60 68 73 69 91 70 58 71 59 72 72 74 92 75 61 76
REMARK SMILES IDX 46 77 47 78 55 79 48 80 54 81 49 82 50 83 51 84 52 85 53 86
REMARK SMILES IDX 76 87 77 88 85 89 78 90 84 91 79 92 80 93 81 94 82 95 83 96
REMARK SMILES IDX 62 97 63 98 71 99 64 100 70 101 65 102 66 103 67 104 68 105
REMARK SMILES IDX 69 106
REMARK H PARENT 18 16 11 21 90 62 60 73
REMARK Flexibility Score: inf
ROOT
ATOM      1  O   UNL     1      13.372   1.616  -0.066  1.00  0.00    -0.376 OA
ENDROOT
BRANCH   1   2
ATOM      2  C   UNL     1      13.518   2.795  -0.839  1.00  0.00     0.202 C 
BRANCH   2   3
ATOM      3  C   UNL     1      12.348   3.778  -0.902  1.00  0.00     0.261 C 
BRANCH   3   4
ATOM      4  O   UNL     1      11.072   3.211  -1.191  1.00  0.00    -0.460 OA
BRANCH   4   5
ATOM      5  C   UNL     1      10.812   2.710  -2.424  1.00  0.00     0.338 C 
ATOM      6  O   UNL     1      11.572   2.622  -3.360  1.00  0.00    -0.246 OA
BRANCH   5   7
ATOM      7  C   UNL     1       9.427   2.188  -2.347  1.00  0.00     0.060 A 
ATOM      8  C   UNL     1       6.753   1.348  -2.115  1.00  0.00     0.041 A 
ATOM      9  C   UNL     1       7.691   0.554  -2.793  1.00  0.00     0.027 A 
ATOM     10  C   UNL     1       7.201   2.517  -1.523  1.00  0.00     0.027 A 
ATOM     11  C   UNL     1       9.026   0.983  -2.931  1.00  0.00     0.018 A 
ATOM     12  C   UNL     1       8.514   2.932  -1.616  1.00  0.00     0.018 A 
BRANCH   8  13
ATOM     13  N   UNL     1       5.412   0.933  -2.072  1.00  0.00    -0.326 N 
ATOM     14  C   UNL     1       4.262   1.559  -1.682  1.00  0.00     0.224 C 
ATOM     15  O   UNL     1       3.202   0.930  -1.801  1.00  0.00    -0.275 OA
ATOM     16  H   UNL     1       5.274   0.010  -2.385  1.00  0.00     0.169 HD
BRANCH  14  17
ATOM     17  C   UNL     1       4.209   3.008  -1.230  1.00  0.00     0.110 C 
BRANCH  17  18
ATOM     18  C   UNL     1       4.360   3.378   0.253  1.00  0.00     0.112 C 
BRANCH  18  19
ATOM     19  C   UNL     1       5.485   2.811   1.127  1.00  0.00     0.240 C 
ATOM     20  N   UNL     1       5.555   1.473   1.431  1.00  0.00    -0.247 N 
ATOM     21  H   UNL     1       6.320   1.181   1.978  1.00  0.00     0.193 HD
ATOM     22  O   UNL     1       6.352   3.570   1.574  1.00  0.00    -0.273 OA
BRANCH  20  23
ATOM     23  N   UNL     1       4.671   0.513   1.051  1.00  0.00    -0.180 NA
ATOM     24  C   UNL     1       3.452   0.763   1.399  1.00  0.00     0.148 C 
BRANCH  24  25
ATOM     25  C   UNL     1       2.267   0.095   0.858  1.00  0.00     0.078 A 
ATOM     26  C   UNL     1      -3.836   0.865  -0.076  1.00  0.00     0.044 C 
ATOM     27  C   UNL     1      -2.530   0.131  -0.050  1.00  0.00    -0.050 A 
ATOM     28  C   UNL     1      -2.460  -1.262  -0.197  1.00  0.00     0.007 A 
ATOM     29  C   UNL     1      -1.351   0.854   0.134  1.00  0.00     0.019 A 
ATOM     30  C   UNL     1      -1.227  -1.926  -0.158  1.00  0.00     0.048 A 
ATOM     31  C   UNL     1      -0.134   0.177   0.219  1.00  0.00     0.066 A 
ATOM     32  C   UNL     1      -0.059  -1.204   0.059  1.00  0.00     0.137 A 
ATOM     33  C   UNL     1       1.072   0.913   0.591  1.00  0.00     0.201 A 
ATOM     34  O   UNL     1       1.124  -1.901   0.139  1.00  0.00    -0.463 OA
ATOM     35  O   UNL     1       1.071   2.131   0.729  1.00  0.00    -0.288 OA
ATOM     36  C   UNL     1       2.231  -1.213   0.588  1.00  0.00     0.209 A 
ENDBRANCH  24  25
ENDBRANCH  20  23
ENDBRANCH  18  19
ENDBRANCH  17  18
ENDBRANCH  14  17
ENDBRANCH   8  13
ENDBRANCH   5   7
ENDBRANCH   4   5
ENDBRANCH   3   4
ENDBRANCH   2   3
ENDBRANCH   1   2
BRANCH   1  37
ATOM     37  C   UNL     1      12.273   0.769  -0.348  1.00  0.00     0.188 C 
BRANCH  37  38
ATOM     38  C   UNL     1      11.165   0.832   0.725  1.00  0.00     0.188 C 
BRANCH  38  39
ATOM     39  O   UNL     1      11.367   1.576   1.918  1.00  0.00    -0.376 OA
BRANCH  39  40
ATOM     40  C   UNL     1      12.633   1.553   2.561  1.00  0.00     0.202 C 
BRANCH  40  41
ATOM     41  C   UNL     1      13.395   0.235   2.819  1.00  0.00     0.261 C 
BRANCH  41  42
ATOM     42  O   UNL     1      13.337  -0.777   1.802  1.00  0.00    -0.460 OA
BRANCH  42  43
ATOM     43  C   UNL     1      12.507  -1.820   2.047  1.00  0.00     0.338 C 
ATOM     44  O   UNL     1      11.824  -1.996   3.041  1.00  0.00    -0.246 OA
BRANCH  43  45
ATOM     45  C   UNL     1      12.395  -2.662   0.832  1.00  0.00     0.060 A 
ATOM     46  C   UNL     1      11.133  -2.809   0.238  1.00  0.00     0.016 A 
ATOM     47  C   UNL     1      13.499  -3.336   0.307  1.00  0.00     0.016 A 
ATOM     48  C   UNL     1      10.962  -3.657  -0.857  1.00  0.00     0.010 A 
ATOM     49  C   UNL     1      13.322  -4.206  -0.777  1.00  0.00     0.010 A 
ATOM     50  C   UNL     1      12.046  -4.401  -1.339  1.00  0.00    -0.014 A 
BRANCH  50  51
ATOM     51  C   UNL     1      11.800  -5.526  -2.280  1.00  0.00     0.031 A 
ATOM     52  C   UNL     1      11.732  -6.925  -1.721  1.00  0.00     0.074 A 
ATOM     53  C   UNL     1      11.605  -5.319  -3.596  1.00  0.00     0.049 A 
ATOM     54  N   UNL     1      11.559  -8.061  -2.345  1.00  0.00    -0.248 NA
ATOM     55  C   UNL     1      11.879  -7.056  -0.262  1.00  0.00     0.031 C 
ATOM     56  C   UNL     1      11.595  -4.016  -4.258  1.00  0.00     0.029 A 
ATOM     57  N   UNL     1      11.382  -6.215  -4.614  1.00  0.00    -0.354 N 
ATOM     58  C   UNL     1      11.592  -9.042  -1.359  1.00  0.00     0.074 A 
ATOM     59  C   UNL     1      11.829  -8.370  -0.101  1.00  0.00     0.031 C 
ATOM     60  C   UNL     1      11.386  -4.197  -5.575  1.00  0.00     0.029 A 
ATOM     61  C   UNL     1      11.283  -5.629  -5.855  1.00  0.00     0.049 A 
ATOM     62  H   UNL     1      11.300  -7.185  -4.469  1.00  0.00     0.167 HD
ATOM     63  C   UNL     1      11.435 -10.381  -1.486  1.00  0.00     0.031 A 
ATOM     64  C   UNL     1      11.148  -6.185  -7.077  1.00  0.00     0.031 A 
ATOM     65  C   UNL     1      11.211 -11.052  -2.740  1.00  0.00     0.049 A 
ATOM     66  C   UNL     1      11.049  -7.686  -7.202  1.00  0.00     0.074 A 
ATOM     67  C   UNL     1      11.026 -12.405  -2.969  1.00  0.00     0.029 A 
ATOM     68  N   UNL     1      11.150 -10.425  -3.975  1.00  0.00    -0.354 N 
ATOM     69  N   UNL     1      11.060  -8.597  -6.258  1.00  0.00    -0.248 NA
ATOM     70  C   UNL     1      10.906  -8.232  -8.560  1.00  0.00     0.031 C 
ATOM     71  C   UNL     1      10.918 -12.603  -4.348  1.00  0.00     0.029 A 
ATOM     72  C   UNL     1      10.956 -11.366  -4.972  1.00  0.00     0.049 A 
ATOM     73  H   UNL     1      11.232  -9.455  -4.121  1.00  0.00     0.167 HD
ATOM     74  C   UNL     1      10.884  -9.818  -6.905  1.00  0.00     0.074 A 
ATOM     75  C   UNL     1      10.758  -9.527  -8.318  1.00  0.00     0.031 C 
ATOM     76  C   UNL     1      10.825 -11.066  -6.376  1.00  0.00     0.031 A 
BRANCH  63  77
ATOM     77  C   UNL     1      11.537 -11.219  -0.237  1.00  0.00    -0.014 A 
ATOM     78  C   UNL     1      10.542 -11.177   0.757  1.00  0.00     0.010 A 
ATOM     79  C   UNL     1      12.624 -12.098  -0.079  1.00  0.00     0.010 A 
ATOM     80  C   UNL     1      10.651 -11.975   1.900  1.00  0.00     0.020 A 
ATOM     81  C   UNL     1      12.720 -12.920   1.047  1.00  0.00     0.020 A 
ATOM     82  C   UNL     1      11.739 -12.842   2.036  1.00  0.00     0.054 A 
BRANCH  82  83
ATOM     83  S   UNL     1      11.833 -13.891   3.513  1.00  0.00     0.124 S 
ATOM     84  O   UNL     1      12.132 -12.915   4.558  1.00  0.00    -0.237 OA
ATOM     85  O   UNL     1      10.499 -14.483   3.569  1.00  0.00    -0.237 OA
ATOM     86  O   UNL     1      12.914 -14.825   3.208  1.00  0.00    -0.744 OA
ENDBRANCH  82  83
ENDBRANCH  63  77
BRANCH  64  87
ATOM     87  C   UNL     1      11.116  -5.323  -8.293  1.00  0.00    -0.014 A 
ATOM     88  C   UNL     1       9.951  -5.220  -9.075  1.00  0.00     0.010 A 
ATOM     89  C   UNL     1      12.266  -4.615  -8.691  1.00  0.00     0.010 A 
ATOM     90  C   UNL     1       9.944  -4.447 -10.241  1.00  0.00     0.020 A 
ATOM     91  C   UNL     1      12.253  -3.815  -9.837  1.00  0.00     0.020 A 
ATOM     92  C   UNL     1      11.095  -3.747 -10.613  1.00  0.00     0.054 A 
BRANCH  92  93
ATOM     93  S   UNL     1      11.049  -2.719 -12.107  1.00  0.00     0.124 S 
ATOM     94  O   UNL     1      11.009  -3.723 -13.166  1.00  0.00    -0.237 OA
ATOM     95  O   UNL     1       9.822  -1.948 -11.919  1.00  0.00    -0.237 OA
ATOM     96  O   UNL     1      12.284  -1.942 -12.026  1.00  0.00    -0.744 OA
ENDBRANCH  92  93
ENDBRANCH  64  87
BRANCH  76  97
ATOM     97  C   UNL     1      10.551 -12.215  -7.316  1.00  0.00    -0.014 A 
ATOM     98  C   UNL     1      11.501 -12.644  -8.260  1.00  0.00     0.010 A 
ATOM     99  C   UNL     1       9.330 -12.909  -7.214  1.00  0.00     0.010 A 
ATOM    100  C   UNL     1      11.217 -13.716  -9.112  1.00  0.00     0.020 A 
ATOM    101  C   UNL     1       9.057 -14.003  -8.039  1.00  0.00     0.020 A 
ATOM    102  C   UNL     1       9.996 -14.388  -8.997  1.00  0.00     0.054 A 
BRANCH 102 103
ATOM    103  S   UNL     1       9.663 -15.793 -10.095  1.00  0.00     0.124 S 
ATOM    104  O   UNL     1       9.453 -15.132 -11.380  1.00  0.00    -0.237 OA
ATOM    105  O   UNL     1      10.888 -16.581  -9.986  1.00  0.00    -0.237 OA
ATOM    106  O   UNL     1       8.475 -16.415  -9.513  1.00  0.00    -0.744 OA
ENDBRANCH 102 103
ENDBRANCH  76  97
ENDBRANCH  50  51
ENDBRANCH  43  45
ENDBRANCH  42  43
ENDBRANCH  41  42
ENDBRANCH  40  41
ENDBRANCH  39  40
ENDBRANCH  38  39
ENDBRANCH  37  38
ENDBRANCH   1  37
TORSDOF 26
