REMARK SMILES C=C1C(=O)O[C@H]2[C@@H]1[C@@H](OC(=O)[C@]1(C)O[C@@H]1C)[C@@H](OC(C)=O)/C(C(=O)OCCOCCOCCOC(=O)c1ccc(-c3c4nc(c(-c5ccc(S(=O)(=O)[O-])cc5)c5ccc([nH]5)c(-c5ccc(S(=O)(=O)[O-])cc5)c5nc(c(-c6ccc(S(=O)(=O)[O-])cc6)c6ccc3[nH]6)C=C5)C=C4)cc1)=C/[C@@H]1O[C@@H]1[C@]1(C)O[C@H]21
REMARK SMILES IDX 29 1 28 2 27 3 26 4 25 5 23 6 24 7 22 8 97 9 17 10 8 11 7 12
REMARK SMILES IDX 1 13 2 14 3 15 5 16 4 17 6 18 104 19 101 20 103 21 102 22
REMARK SMILES IDX 9 24 10 25 11 26 12 27 14 28 15 29 13 30 16 31 18 32 19 33
REMARK SMILES IDX 20 34 21 35 98 36 99 37 100 38 30 40 31 41 32 42 33 43 34 44
REMARK SMILES IDX 35 45 36 46 37 47 38 48 96 49 39 50 95 51 40 52 41 53 42 54
REMARK SMILES IDX 89 55 43 56 94 57 88 58 90 59 44 60 93 61 87 62 86 63 45 65
REMARK SMILES IDX 75 66 56 67 74 68 57 69 60 70 73 71 91 72 58 73 59 74 72 76
REMARK SMILES IDX 92 77 61 78 46 79 47 80 55 81 48 82 54 83 49 84 50 85 51 86
REMARK SMILES IDX 52 87 53 88 76 89 77 90 85 91 78 92 84 93 79 94 80 95 81 96
REMARK SMILES IDX 82 97 83 98 62 99 63 100 71 101 64 102 70 103 65 104 66 105
REMARK SMILES IDX 67 106 68 107 69 108
REMARK H PARENT 90 64 60 75
REMARK Flexibility Score: 90.00
ROOT
ATOM      1  C   UNL     1      -9.296   0.999   6.579  1.00  0.00     0.188 C 
ENDROOT
BRANCH   1   2
ATOM      2  O   UNL     1     -10.601   1.375   6.152  1.00  0.00    -0.376 OA
BRANCH   2   3
ATOM      3  C   UNL     1     -11.700   0.727   6.787  1.00  0.00     0.202 C 
BRANCH   3   4
ATOM      4  C   UNL     1     -11.885  -0.742   6.405  1.00  0.00     0.261 C 
BRANCH   4   5
ATOM      5  O   UNL     1     -10.902  -1.580   7.047  1.00  0.00    -0.460 OA
BRANCH   5   6
ATOM      6  C   UNL     1     -10.045  -2.201   6.202  1.00  0.00     0.337 C 
ATOM      7  O   UNL     1     -10.067  -2.128   4.986  1.00  0.00    -0.246 OA
BRANCH   6   8
ATOM      8  C   UNL     1      -9.019  -2.938   6.955  1.00  0.00     0.080 C 
ATOM      9  C   UNL     1      -9.358  -4.025   7.677  1.00  0.00     0.022 C 
BRANCH   8  10
ATOM     10  C   UNL     1      -7.558  -2.659   6.687  1.00  0.00     0.255 C 
BRANCH  10  11
ATOM     11  C   UNL     1      -7.048  -2.636   5.198  1.00  0.00     0.234 C 
BRANCH  11  12
ATOM     12  C   UNL     1      -6.988  -4.098   4.635  1.00  0.00     0.115 C 
ATOM     13  C   UNL     1      -6.577  -3.655   2.111  1.00  0.00     0.021 C 
ATOM     14  C   UNL     1      -6.718  -4.409   3.201  1.00  0.00     0.041 C 
ATOM     15  C   UNL     1      -6.777  -5.892   3.109  1.00  0.00     0.334 C 
ATOM     16  O   UNL     1      -7.503  -6.319   4.182  1.00  0.00    -0.455 OA
ATOM     17  O   UNL     1      -6.220  -6.598   2.293  1.00  0.00    -0.247 OA
ATOM     18  C   UNL     1      -8.068  -5.176   4.880  1.00  0.00     0.220 C 
BRANCH  18  19
ATOM     19  C   UNL     1      -9.442  -4.925   4.313  1.00  0.00     0.195 C 
ATOM     20  C   UNL     1     -10.822  -4.994   5.029  1.00  0.00     0.125 CG0
ATOM     21  O   UNL     1     -10.267  -6.102   4.313  1.00  0.00    -0.359 OA
ATOM     22  C   UNL     1     -11.944  -4.336   4.244  1.00  0.00     0.048 C 
ATOM     23  G   UNL     1     -11.284  -5.334   6.456  1.00  0.00     0.000 G0
ENDBRANCH  18  19
ENDBRANCH  11  12
BRANCH  11  24
ATOM     24  O   UNL     1      -7.663  -1.686   4.286  1.00  0.00    -0.455 OA
BRANCH  24  25
ATOM     25  C   UNL     1      -7.270  -0.363   4.315  1.00  0.00     0.341 C 
ATOM     26  O   UNL     1      -6.610   0.123   5.222  1.00  0.00    -0.249 OA
BRANCH  25  27
ATOM     27  C   UNL     1      -7.689   0.419   3.083  1.00  0.00     0.188 C 
ATOM     28  O   UNL     1      -6.662   1.357   2.662  1.00  0.00    -0.354 OA
ATOM     29  C   UNL     1      -7.912   1.944   2.998  1.00  0.00     0.160 C 
ATOM     30  C   UNL     1      -8.234  -0.336   1.897  1.00  0.00     0.058 C 
ATOM     31  C   UNL     1      -7.813   2.983   4.044  1.00  0.00     0.042 C 
ENDBRANCH  25  27
ENDBRANCH  24  25
ENDBRANCH  11  24
ENDBRANCH  10  11
BRANCH  10  32
ATOM     32  O   UNL     1      -7.083  -1.519   7.420  1.00  0.00    -0.453 OA
BRANCH  32  33
ATOM     33  C   UNL     1      -6.496  -1.844   8.610  1.00  0.00     0.303 C 
ATOM     34  C   UNL     1      -5.324  -0.961   8.874  1.00  0.00     0.139 C 
ATOM     35  O   UNL     1      -6.797  -2.806   9.304  1.00  0.00    -0.253 OA
ENDBRANCH  32  33
ENDBRANCH  10  32
ENDBRANCH   8  10
BRANCH   9  36
ATOM     36  C   UNL     1     -10.593  -4.804   7.700  1.00  0.00     0.174 C 
ATOM     37  O   UNL     1     -10.477  -6.179   7.271  1.00  0.00    -0.362 OA
ATOM     38  C   UNL     1     -11.284  -5.334   6.456  1.00  0.00     0.186 CG0
ATOM     39  G   UNL     1     -10.822  -4.994   5.029  1.00  0.00     0.000 G0
ENDBRANCH   9  36
ENDBRANCH   6   8
ENDBRANCH   5   6
ENDBRANCH   4   5
ENDBRANCH   3   4
ENDBRANCH   2   3
ENDBRANCH   1   2
BRANCH   1  40
ATOM     40  C   UNL     1      -8.985   1.090   8.071  1.00  0.00     0.188 C 
BRANCH  40  41
ATOM     41  O   UNL     1      -9.417   2.290   8.704  1.00  0.00    -0.376 OA
BRANCH  41  42
ATOM     42  C   UNL     1      -9.012   3.512   8.081  1.00  0.00     0.202 C 
BRANCH  42  43
ATOM     43  C   UNL     1      -7.517   3.829   8.208  1.00  0.00     0.261 C 
BRANCH  43  44
ATOM     44  O   UNL     1      -6.731   3.175   7.191  1.00  0.00    -0.460 OA
BRANCH  44  45
ATOM     45  C   UNL     1      -5.388   3.288   7.383  1.00  0.00     0.338 C 
ATOM     46  O   UNL     1      -4.838   3.795   8.346  1.00  0.00    -0.246 OA
BRANCH  45  47
ATOM     47  C   UNL     1      -4.639   2.663   6.273  1.00  0.00     0.060 A 
ATOM     48  C   UNL     1      -4.051   1.416   6.484  1.00  0.00     0.016 A 
ATOM     49  C   UNL     1      -4.429   3.331   5.064  1.00  0.00     0.016 A 
ATOM     50  C   UNL     1      -3.311   0.796   5.474  1.00  0.00     0.010 A 
ATOM     51  C   UNL     1      -3.660   2.725   4.058  1.00  0.00     0.010 A 
ATOM     52  C   UNL     1      -3.094   1.453   4.257  1.00  0.00    -0.014 A 
BRANCH  52  53
ATOM     53  C   UNL     1      -2.119   0.887   3.288  1.00  0.00     0.031 A 
ATOM     54  C   UNL     1      -0.660   1.190   3.486  1.00  0.00     0.074 A 
ATOM     55  C   UNL     1      -2.496   0.069   2.288  1.00  0.00     0.049 A 
ATOM     56  N   UNL     1       0.368   0.810   2.773  1.00  0.00    -0.248 NA
ATOM     57  C   UNL     1      -0.314   2.003   4.663  1.00  0.00     0.031 C 
ATOM     58  C   UNL     1      -3.857  -0.402   2.053  1.00  0.00     0.029 A 
ATOM     59  N   UNL     1      -1.765  -0.518   1.282  1.00  0.00    -0.354 N 
ATOM     60  C   UNL     1       1.484   1.317   3.427  1.00  0.00     0.074 A 
ATOM     61  C   UNL     1       1.008   2.042   4.585  1.00  0.00     0.031 C 
ATOM     62  C   UNL     1      -3.873  -1.177   0.954  1.00  0.00     0.029 A 
ATOM     63  C   UNL     1      -2.526  -1.243   0.393  1.00  0.00     0.049 A 
ATOM     64  H   UNL     1      -0.788  -0.427   1.204  1.00  0.00     0.167 HD
ATOM     65  C   UNL     1       2.790   1.199   3.091  1.00  0.00     0.031 A 
ATOM     66  C   UNL     1      -2.183  -1.863  -0.755  1.00  0.00     0.031 A 
ATOM     67  C   UNL     1       3.263   0.553   1.898  1.00  0.00     0.049 A 
ATOM     68  C   UNL     1      -0.743  -1.830  -1.204  1.00  0.00     0.074 A 
ATOM     69  C   UNL     1       4.560   0.454   1.429  1.00  0.00     0.029 A 
ATOM     70  N   UNL     1       2.450  -0.082   0.972  1.00  0.00    -0.354 N 
ATOM     71  N   UNL     1       0.300  -1.326  -0.586  1.00  0.00    -0.248 NA
ATOM     72  C   UNL     1      -0.433  -2.441  -2.505  1.00  0.00     0.031 C 
ATOM     73  C   UNL     1       4.525  -0.192   0.188  1.00  0.00     0.029 A 
ATOM     74  C   UNL     1       3.213  -0.545  -0.086  1.00  0.00     0.049 A 
ATOM     75  H   UNL     1       1.475  -0.188   1.054  1.00  0.00     0.167 HD
ATOM     76  C   UNL     1       1.389  -1.574  -1.415  1.00  0.00     0.074 A 
ATOM     77  C   UNL     1       0.883  -2.285  -2.571  1.00  0.00     0.031 C 
ATOM     78  C   UNL     1       2.692  -1.243  -1.235  1.00  0.00     0.031 A 
BRANCH  65  79
ATOM     79  C   UNL     1       3.782   1.863   4.003  1.00  0.00    -0.014 A 
ATOM     80  C   UNL     1       4.108   1.304   5.251  1.00  0.00     0.010 A 
ATOM     81  C   UNL     1       4.373   3.078   3.615  1.00  0.00     0.010 A 
ATOM     82  C   UNL     1       4.976   1.974   6.117  1.00  0.00     0.020 A 
ATOM     83  C   UNL     1       5.256   3.741   4.471  1.00  0.00     0.020 A 
ATOM     84  C   UNL     1       5.535   3.195   5.725  1.00  0.00     0.054 A 
BRANCH  84  85
ATOM     85  S   UNL     1       6.642   4.056   6.875  1.00  0.00     0.124 S 
ATOM     86  O   UNL     1       5.702   4.571   7.868  1.00  0.00    -0.237 OA
ATOM     87  O   UNL     1       7.522   2.986   7.338  1.00  0.00    -0.237 OA
ATOM     88  O   UNL     1       7.285   5.070   6.042  1.00  0.00    -0.744 OA
ENDBRANCH  84  85
ENDBRANCH  65  79
BRANCH  66  89
ATOM     89  C   UNL     1      -3.224  -2.511  -1.604  1.00  0.00    -0.014 A 
ATOM     90  C   UNL     1      -3.252  -3.905  -1.790  1.00  0.00     0.010 A 
ATOM     91  C   UNL     1      -4.184  -1.720  -2.264  1.00  0.00     0.010 A 
ATOM     92  C   UNL     1      -4.206  -4.491  -2.632  1.00  0.00     0.020 A 
ATOM     93  C   UNL     1      -5.152  -2.303  -3.086  1.00  0.00     0.020 A 
ATOM     94  C   UNL     1      -5.149  -3.685  -3.277  1.00  0.00     0.054 A 
BRANCH  94  95
ATOM     95  S   UNL     1      -6.399  -4.459  -4.342  1.00  0.00     0.124 S 
ATOM     96  O   UNL     1      -5.626  -4.778  -5.537  1.00  0.00    -0.237 OA
ATOM     97  O   UNL     1      -6.835  -5.601  -3.543  1.00  0.00    -0.237 OA
ATOM     98  O   UNL     1      -7.402  -3.408  -4.506  1.00  0.00    -0.744 OA
ENDBRANCH  94  95
ENDBRANCH  66  89
BRANCH  78  99
ATOM     99  C   UNL     1       3.671  -1.655  -2.301  1.00  0.00    -0.014 A 
ATOM    100  C   UNL     1       3.728  -0.979  -3.533  1.00  0.00     0.010 A 
ATOM    101  C   UNL     1       4.598  -2.680  -2.037  1.00  0.00     0.010 A 
ATOM    102  C   UNL     1       4.684  -1.334  -4.489  1.00  0.00     0.020 A 
ATOM    103  C   UNL     1       5.570  -3.021  -2.981  1.00  0.00     0.020 A 
ATOM    104  C   UNL     1       5.600  -2.352  -4.206  1.00  0.00     0.054 A 
BRANCH 104 105
ATOM    105  S   UNL     1       6.872  -2.751  -5.436  1.00  0.00     0.124 S 
ATOM    106  O   UNL     1       6.110  -3.503  -6.429  1.00  0.00    -0.237 OA
ATOM    107  O   UNL     1       7.333  -1.432  -5.864  1.00  0.00    -0.237 OA
ATOM    108  O   UNL     1       7.852  -3.530  -4.681  1.00  0.00    -0.744 OA
ENDBRANCH 104 105
ENDBRANCH  78  99
ENDBRANCH  52  53
ENDBRANCH  45  47
ENDBRANCH  44  45
ENDBRANCH  43  44
ENDBRANCH  42  43
ENDBRANCH  41  42
ENDBRANCH  40  41
ENDBRANCH   1  40
TORSDOF 25
