REMARK SMILES C[C@H](NS(=O)(=O)c1ccc(-c2cc(-c3ccccc3)c3cc([N+](=O)[O-])ccc3n2)cc1)C(=O)OCCOCCOCCOC(=O)c1ccc(-c2c3nc(c(-c4ccc(S(=O)(=O)[O-])cc4)c4ccc([nH]4)c(-c4ccc(S(=O)(=O)[O-])cc4)c4nc(c(-c5ccc(S(=O)(=O)[O-])cc5)c5ccc2[nH]5)C=C4)C=C3)cc1
REMARK SMILES IDX 38 1 37 2 36 3 35 4 34 5 32 6 33 7 2 8 1 9 3 10 4 12 5 13
REMARK SMILES IDX 6 14 7 15 8 16 31 17 9 18 30 19 10 20 11 21 12 22 29 23
REMARK SMILES IDX 13 24 28 25 20 26 27 27 21 28 26 29 22 30 14 31 15 32 19 33
REMARK SMILES IDX 16 34 18 35 17 36 23 37 24 38 25 39 39 40 40 41 41 42 42 43
REMARK SMILES IDX 43 44 44 45 45 46 46 47 47 48 105 49 48 50 104 51 49 52
REMARK SMILES IDX 50 53 51 54 98 55 52 56 103 57 97 58 99 59 53 60 102 61
REMARK SMILES IDX 96 62 95 63 54 65 84 66 65 67 83 68 66 69 69 70 82 71 100 72
REMARK SMILES IDX 67 73 68 74 81 76 101 77 70 78 55 79 56 80 64 81 57 82 63 83
REMARK SMILES IDX 58 84 59 85 60 86 61 87 62 88 85 89 86 90 94 91 87 92 93 93
REMARK SMILES IDX 88 94 89 95 90 96 91 97 92 98 71 99 72 100 80 101 73 102
REMARK SMILES IDX 79 103 74 104 75 105 76 106 77 107 78 108
REMARK H PARENT 3 11 99 64 69 75
REMARK Flexibility Score: inf
ROOT
ATOM      1  C   UNL     1      -3.065   0.271   2.194  1.00  0.00     0.188 C 
ENDROOT
BRANCH   1   2
ATOM      2  O   UNL     1      -4.375   0.117   1.679  1.00  0.00    -0.376 OA
BRANCH   2   3
ATOM      3  C   UNL     1      -4.684   0.615   0.376  1.00  0.00     0.202 C 
BRANCH   3   4
ATOM      4  C   UNL     1      -3.778   1.646  -0.301  1.00  0.00     0.261 C 
BRANCH   4   5
ATOM      5  O   UNL     1      -2.430   1.170  -0.364  1.00  0.00    -0.462 OA
BRANCH   5   6
ATOM      6  C   UNL     1      -1.463   2.101  -0.191  1.00  0.00     0.323 C 
ATOM      7  O   UNL     1      -1.670   3.310  -0.202  1.00  0.00    -0.250 OA
BRANCH   6   8
ATOM      8  C   UNL     1      -0.111   1.459   0.088  1.00  0.00     0.176 C 
ATOM      9  C   UNL     1       0.847   2.546   0.610  1.00  0.00     0.038 C 
BRANCH   8  10
ATOM     10  N   UNL     1       0.619   0.738  -0.966  1.00  0.00    -0.197 NA
ATOM     11  H   UNL     1       1.115  -0.012  -0.484  1.00  0.00     0.142 HD
BRANCH  10  12
ATOM     12  S   UNL     1      -0.070   0.018  -2.313  1.00  0.00     0.241 S 
ATOM     13  O   UNL     1       0.995  -0.855  -2.792  1.00  0.00    -0.207 OA
ATOM     14  O   UNL     1      -1.381  -0.492  -2.054  1.00  0.00    -0.207 OA
BRANCH  12  15
ATOM     15  C   UNL     1      -0.209   1.313  -3.523  1.00  0.00     0.082 A 
ATOM     16  C   UNL     1      -0.039   0.972  -4.866  1.00  0.00     0.022 A 
ATOM     17  C   UNL     1      -0.235   2.654  -3.153  1.00  0.00     0.022 A 
ATOM     18  C   UNL     1       0.378   1.954  -5.769  1.00  0.00     0.012 A 
ATOM     19  C   UNL     1       0.089   3.640  -4.075  1.00  0.00     0.012 A 
ATOM     20  C   UNL     1       0.681   3.244  -5.289  1.00  0.00     0.000 A 
BRANCH  20  21
ATOM     21  C   UNL     1       2.099   3.732  -5.464  1.00  0.00     0.072 A 
ATOM     22  C   UNL     1       2.414   5.059  -5.201  1.00  0.00     0.038 A 
ATOM     23  N   UNL     1       2.924   2.749  -5.018  1.00  0.00    -0.248 NA
ATOM     24  C   UNL     1       3.244   5.323  -4.100  1.00  0.00    -0.007 A 
ATOM     25  C   UNL     1       3.489   2.936  -3.827  1.00  0.00     0.072 A 
ATOM     26  C   UNL     1       3.600   4.219  -3.270  1.00  0.00     0.015 A 
ATOM     27  C   UNL     1       3.856   1.823  -3.078  1.00  0.00     0.036 A 
ATOM     28  C   UNL     1       3.976   4.333  -1.907  1.00  0.00     0.096 A 
ATOM     29  C   UNL     1       4.237   1.935  -1.738  1.00  0.00     0.088 A 
ATOM     30  C   UNL     1       4.263   3.196  -1.147  1.00  0.00     0.270 A 
BRANCH  24  31
ATOM     31  C   UNL     1       3.692   6.690  -3.764  1.00  0.00    -0.018 A 
ATOM     32  C   UNL     1       5.045   6.896  -3.418  1.00  0.00     0.009 A 
ATOM     33  C   UNL     1       2.837   7.799  -3.739  1.00  0.00     0.009 A 
ATOM     34  C   UNL     1       5.511   8.136  -2.986  1.00  0.00     0.001 A 
ATOM     35  C   UNL     1       3.311   9.053  -3.331  1.00  0.00     0.001 A 
ATOM     36  C   UNL     1       4.639   9.215  -2.938  1.00  0.00     0.000 A 
ENDBRANCH  24  31
BRANCH  30  37
ATOM     37  N   UNL     1       4.526   3.330   0.290  1.00  0.00     0.062 N 
ATOM     38  O   UNL     1       4.356   4.444   0.804  1.00  0.00    -0.258 OA
ATOM     39  O   UNL     1       4.875   2.313   0.905  1.00  0.00    -0.258 OA
ENDBRANCH  30  37
ENDBRANCH  20  21
ENDBRANCH  12  15
ENDBRANCH  10  12
ENDBRANCH   8  10
ENDBRANCH   6   8
ENDBRANCH   5   6
ENDBRANCH   4   5
ENDBRANCH   3   4
ENDBRANCH   2   3
ENDBRANCH   1   2
BRANCH   1  40
ATOM     40  C   UNL     1      -2.153  -0.951   2.079  1.00  0.00     0.188 C 
BRANCH  40  41
ATOM     41  O   UNL     1      -1.899  -1.577   0.833  1.00  0.00    -0.376 OA
BRANCH  41  42
ATOM     42  C   UNL     1      -2.891  -2.434   0.273  1.00  0.00     0.202 C 
BRANCH  42  43
ATOM     43  C   UNL     1      -3.399  -3.674   1.042  1.00  0.00     0.261 C 
BRANCH  43  44
ATOM     44  O   UNL     1      -2.995  -3.763   2.406  1.00  0.00    -0.460 OA
BRANCH  44  45
ATOM     45  C   UNL     1      -1.710  -4.153   2.594  1.00  0.00     0.338 C 
ATOM     46  O   UNL     1      -0.980  -4.682   1.775  1.00  0.00    -0.246 OA
BRANCH  45  47
ATOM     47  C   UNL     1      -1.260  -3.594   3.893  1.00  0.00     0.060 A 
ATOM     48  C   UNL     1      -0.000  -2.982   3.935  1.00  0.00     0.016 A 
ATOM     49  C   UNL     1      -2.100  -3.553   5.013  1.00  0.00     0.016 A 
ATOM     50  C   UNL     1       0.442  -2.369   5.108  1.00  0.00     0.010 A 
ATOM     51  C   UNL     1      -1.653  -2.948   6.190  1.00  0.00     0.010 A 
ATOM     52  C   UNL     1      -0.366  -2.387   6.253  1.00  0.00    -0.014 A 
BRANCH  52  53
ATOM     53  C   UNL     1       0.223  -2.069   7.575  1.00  0.00     0.031 A 
ATOM     54  C   UNL     1       0.776  -3.217   8.376  1.00  0.00     0.074 A 
ATOM     55  C   UNL     1       0.266  -0.817   8.064  1.00  0.00     0.049 A 
ATOM     56  N   UNL     1       1.288  -3.221   9.578  1.00  0.00    -0.248 NA
ATOM     57  C   UNL     1       0.741  -4.542   7.730  1.00  0.00     0.031 C 
ATOM     58  C   UNL     1      -0.200   0.385   7.374  1.00  0.00     0.029 A 
ATOM     59  N   UNL     1       0.723  -0.354   9.274  1.00  0.00    -0.354 N 
ATOM     60  C   UNL     1       1.625  -4.545   9.835  1.00  0.00     0.074 A 
ATOM     61  C   UNL     1       1.239  -5.319   8.677  1.00  0.00     0.031 C 
ATOM     62  C   UNL     1      -0.018   1.448   8.180  1.00  0.00     0.029 A 
ATOM     63  C   UNL     1       0.549   0.998   9.452  1.00  0.00     0.049 A 
ATOM     64  H   UNL     1       1.137  -0.937   9.951  1.00  0.00     0.167 HD
ATOM     65  C   UNL     1       2.207  -5.073  10.936  1.00  0.00     0.031 A 
ATOM     66  C   UNL     1       0.799   1.776  10.525  1.00  0.00     0.031 A 
ATOM     67  C   UNL     1       2.570  -4.311  12.097  1.00  0.00     0.049 A 
ATOM     68  C   UNL     1       1.385   1.154  11.770  1.00  0.00     0.074 A 
ATOM     69  C   UNL     1       3.170  -4.753  13.262  1.00  0.00     0.029 A 
ATOM     70  N   UNL     1       2.357  -2.949  12.245  1.00  0.00    -0.354 N 
ATOM     71  N   UNL     1       1.723  -0.095  11.989  1.00  0.00    -0.248 NA
ATOM     72  C   UNL     1       1.630   2.051  12.909  1.00  0.00     0.031 C 
ATOM     73  C   UNL     1       3.273  -3.666  14.136  1.00  0.00     0.029 A 
ATOM     74  C   UNL     1       2.792  -2.537  13.491  1.00  0.00     0.049 A 
ATOM     75  H   UNL     1       1.956  -2.362  11.563  1.00  0.00     0.167 HD
ATOM     76  C   UNL     1       2.244  -0.128  13.279  1.00  0.00     0.074 A 
ATOM     77  C   UNL     1       2.188   1.227  13.787  1.00  0.00     0.031 C 
ATOM     78  C   UNL     1       2.729  -1.183  13.980  1.00  0.00     0.031 A 
BRANCH  65  79
ATOM     79  C   UNL     1       2.444  -6.558  10.942  1.00  0.00    -0.014 A 
ATOM     80  C   UNL     1       3.446  -7.138  10.143  1.00  0.00     0.010 A 
ATOM     81  C   UNL     1       1.662  -7.382  11.771  1.00  0.00     0.010 A 
ATOM     82  C   UNL     1       3.637  -8.521  10.146  1.00  0.00     0.020 A 
ATOM     83  C   UNL     1       1.868  -8.763  11.796  1.00  0.00     0.020 A 
ATOM     84  C   UNL     1       2.845  -9.325  10.972  1.00  0.00     0.054 A 
BRANCH  84  85
ATOM     85  S   UNL     1       3.131 -11.116  10.976  1.00  0.00     0.124 S 
ATOM     86  O   UNL     1       2.562 -11.515   9.692  1.00  0.00    -0.237 OA
ATOM     87  O   UNL     1       4.586 -11.208  11.075  1.00  0.00    -0.237 OA
ATOM     88  O   UNL     1       2.400 -11.581  12.153  1.00  0.00    -0.744 OA
ENDBRANCH  84  85
ENDBRANCH  65  79
BRANCH  66  89
ATOM     89  C   UNL     1       0.474   3.229  10.488  1.00  0.00    -0.014 A 
ATOM     90  C   UNL     1       1.496   4.196  10.473  1.00  0.00     0.010 A 
ATOM     91  C   UNL     1      -0.867   3.656  10.482  1.00  0.00     0.010 A 
ATOM     92  C   UNL     1       1.183   5.559  10.465  1.00  0.00     0.020 A 
ATOM     93  C   UNL     1      -1.183   5.017  10.449  1.00  0.00     0.020 A 
ATOM     94  C   UNL     1      -0.155   5.961  10.450  1.00  0.00     0.054 A 
BRANCH  94  95
ATOM     95  S   UNL     1      -0.540   7.734  10.383  1.00  0.00     0.124 S 
ATOM     96  O   UNL     1      -0.236   8.163  11.745  1.00  0.00    -0.237 OA
ATOM     97  O   UNL     1       0.372   8.216   9.349  1.00  0.00    -0.237 OA
ATOM     98  O   UNL     1      -1.954   7.763  10.017  1.00  0.00    -0.744 OA
ENDBRANCH  94  95
ENDBRANCH  66  89
BRANCH  78  99
ATOM     99  C   UNL     1       3.276  -0.918  15.358  1.00  0.00    -0.014 A 
ATOM    100  C   UNL     1       2.425  -0.641  16.442  1.00  0.00     0.010 A 
ATOM    101  C   UNL     1       4.662  -1.018  15.583  1.00  0.00     0.010 A 
ATOM    102  C   UNL     1       2.953  -0.441  17.721  1.00  0.00     0.020 A 
ATOM    103  C   UNL     1       5.191  -0.846  16.864  1.00  0.00     0.020 A 
ATOM    104  C   UNL     1       4.333  -0.544  17.924  1.00  0.00     0.054 A 
BRANCH 104 105
ATOM    105  S   UNL     1       4.990  -0.324  19.600  1.00  0.00     0.124 S 
ATOM    106  O   UNL     1       4.894   1.122  19.777  1.00  0.00    -0.237 OA
ATOM    107  O   UNL     1       4.073  -1.120  20.412  1.00  0.00    -0.237 OA
ATOM    108  O   UNL     1       6.350  -0.852  19.511  1.00  0.00    -0.744 OA
ENDBRANCH 104 105
ENDBRANCH  78  99
ENDBRANCH  52  53
ENDBRANCH  45  47
ENDBRANCH  44  45
ENDBRANCH  43  44
ENDBRANCH  42  43
ENDBRANCH  41  42
ENDBRANCH  40  41
ENDBRANCH   1  40
TORSDOF 26
