REMARK SMILES O=C(CNC(=O)[C@@H](CC1=c2ccccc2=NC1)N1C(=O)N=C2C=CC=C[C@H]2C1=O)OCCOCCOCCOC(=O)c1ccc(-c2c3nc(c(-c4ccc(S(=O)(=O)[O-])cc4)c4ccc([nH]4)c(-c4ccc(S(=O)(=O)[O-])cc4)c4nc(c(-c5ccc(S(=O)(=O)[O-])cc5)c5ccc2[nH]5)C=C4)C=C3)cc1
REMARK SMILES IDX 34 1 33 2 32 3 31 4 30 5 2 6 1 7 3 8 4 9 5 10 6 12 7 13 8 14
REMARK SMILES IDX 9 15 10 16 17 17 11 18 15 19 16 20 12 21 14 22 13 23 18 24
REMARK SMILES IDX 19 25 28 26 21 27 20 28 27 29 29 30 22 31 26 32 23 33 25 34
REMARK SMILES IDX 24 35 35 36 36 37 37 38 38 39 39 40 40 41 41 42 42 43 43 44
REMARK SMILES IDX 101 45 44 46 100 47 45 48 46 49 47 50 94 51 48 52 99 53
REMARK SMILES IDX 93 54 95 55 49 56 98 57 92 58 91 59 50 61 80 62 61 63 79 64
REMARK SMILES IDX 62 65 65 66 78 67 96 68 63 69 64 70 77 72 97 73 66 74 51 75
REMARK SMILES IDX 52 76 60 77 53 78 59 79 54 80 55 81 56 82 57 83 58 84 81 85
REMARK SMILES IDX 82 86 90 87 83 88 89 89 84 90 85 91 86 92 87 93 88 94 67 95
REMARK SMILES IDX 68 96 76 97 69 98 75 99 70 100 71 101 72 102 73 103 74 104
REMARK H PARENT 4 11 95 60 65 71
REMARK Flexibility Score: inf
ROOT
ATOM      1  C   UNL     1       4.138   2.701   1.475  1.00  0.00     0.188 C 
ENDROOT
BRANCH   1   2
ATOM      2  O   UNL     1       5.057   2.257   0.479  1.00  0.00    -0.376 OA
BRANCH   2   3
ATOM      3  C   UNL     1       4.782   2.311  -0.914  1.00  0.00     0.202 C 
BRANCH   3   4
ATOM      4  C   UNL     1       5.218   0.992  -1.643  1.00  0.00     0.261 C 
BRANCH   4   5
ATOM      5  O   UNL     1       4.042   0.331  -2.181  1.00  0.00    -0.462 OA
BRANCH   5   6
ATOM      6  C   UNL     1       3.670  -0.949  -2.364  1.00  0.00     0.325 C 
ATOM      7  O   UNL     1       2.841  -1.151  -3.262  1.00  0.00    -0.250 OA
BRANCH   6   8
ATOM      8  C   UNL     1       3.922  -2.108  -1.364  1.00  0.00     0.238 C 
BRANCH   8   9
ATOM      9  N   UNL     1       5.128  -2.564  -0.652  1.00  0.00    -0.343 N 
ATOM     10  C   UNL     1       5.291  -2.728   0.724  1.00  0.00     0.244 C 
ATOM     11  H   UNL     1       5.909  -2.777  -1.212  1.00  0.00     0.164 HD
ATOM     12  O   UNL     1       5.578  -3.841   1.160  1.00  0.00    -0.273 OA
BRANCH  10  13
ATOM     13  C   UNL     1       5.416  -1.460   1.579  1.00  0.00     0.188 C 
BRANCH  13  14
ATOM     14  C   UNL     1       4.312  -0.419   1.447  1.00  0.00     0.069 C 
BRANCH  14  15
ATOM     15  C   UNL     1       2.828  -0.560   1.284  1.00  0.00    -0.037 C 
ATOM     16  C   UNL     1       1.981  -1.500   1.677  1.00  0.00     0.001 A 
ATOM     17  C   UNL     1       2.067   0.413   0.398  1.00  0.00     0.174 C 
ATOM     18  C   UNL     1       2.104  -2.763   2.309  1.00  0.00     0.010 A 
ATOM     19  C   UNL     1       0.678  -0.995   1.204  1.00  0.00     0.065 A 
ATOM     20  N   UNL     1       0.641   0.124   0.555  1.00  0.00    -0.280 NA
ATOM     21  C   UNL     1       1.000  -3.519   2.412  1.00  0.00     0.001 A 
ATOM     22  C   UNL     1      -0.502  -1.819   1.467  1.00  0.00     0.028 A 
ATOM     23  C   UNL     1      -0.307  -3.033   1.999  1.00  0.00     0.002 A 
ENDBRANCH  14  15
ENDBRANCH  13  14
BRANCH  13  24
ATOM     24  N   UNL     1       6.193  -1.413   2.881  1.00  0.00    -0.249 N 
ATOM     25  C   UNL     1       7.472  -0.856   2.789  1.00  0.00     0.351 C 
ATOM     26  C   UNL     1       5.577  -1.490   4.126  1.00  0.00     0.244 C 
ATOM     27  N   UNL     1       8.314  -0.845   3.854  1.00  0.00    -0.197 NA
ATOM     28  O   UNL     1       7.836  -0.251   1.783  1.00  0.00    -0.246 OA
ATOM     29  C   UNL     1       6.513  -1.601   5.357  1.00  0.00     0.151 C 
ATOM     30  O   UNL     1       4.352  -1.467   4.255  1.00  0.00    -0.273 OA
ATOM     31  C   UNL     1       7.893  -1.081   5.047  1.00  0.00     0.062 C 
ATOM     32  C   UNL     1       6.049  -0.979   6.662  1.00  0.00    -0.007 C 
ATOM     33  C   UNL     1       8.834  -0.751   6.147  1.00  0.00     0.025 C 
ATOM     34  C   UNL     1       6.883  -0.400   7.546  1.00  0.00    -0.003 C 
ATOM     35  C   UNL     1       8.306  -0.365   7.313  1.00  0.00     0.002 C 
ENDBRANCH  13  24
ENDBRANCH  10  13
ENDBRANCH   8   9
ENDBRANCH   6   8
ENDBRANCH   5   6
ENDBRANCH   4   5
ENDBRANCH   3   4
ENDBRANCH   2   3
ENDBRANCH   1   2
BRANCH   1  36
ATOM     36  C   UNL     1       3.058   3.769   1.254  1.00  0.00     0.188 C 
BRANCH  36  37
ATOM     37  O   UNL     1       3.451   5.129   1.339  1.00  0.00    -0.376 OA
BRANCH  37  38
ATOM     38  C   UNL     1       4.672   5.387   2.013  1.00  0.00     0.202 C 
BRANCH  38  39
ATOM     39  C   UNL     1       4.692   5.263   3.555  1.00  0.00     0.261 C 
BRANCH  39  40
ATOM     40  O   UNL     1       4.276   4.003   4.135  1.00  0.00    -0.460 OA
BRANCH  40  41
ATOM     41  C   UNL     1       2.998   3.906   4.575  1.00  0.00     0.338 C 
ATOM     42  O   UNL     1       2.130   4.768   4.458  1.00  0.00    -0.246 OA
BRANCH  41  43
ATOM     43  C   UNL     1       2.739   2.577   5.190  1.00  0.00     0.060 A 
ATOM     44  C   UNL     1       3.591   2.084   6.177  1.00  0.00     0.016 A 
ATOM     45  C   UNL     1       1.557   1.876   4.897  1.00  0.00     0.016 A 
ATOM     46  C   UNL     1       3.227   0.936   6.895  1.00  0.00     0.010 A 
ATOM     47  C   UNL     1       1.206   0.710   5.613  1.00  0.00     0.010 A 
ATOM     48  C   UNL     1       2.023   0.238   6.648  1.00  0.00    -0.014 A 
BRANCH  48  49
ATOM     49  C   UNL     1       1.583  -0.797   7.646  1.00  0.00     0.031 A 
ATOM     50  C   UNL     1       1.516  -2.277   7.365  1.00  0.00     0.074 A 
ATOM     51  C   UNL     1       1.309  -0.370   8.898  1.00  0.00     0.049 A 
ATOM     52  N   UNL     1       1.409  -3.269   8.219  1.00  0.00    -0.248 NA
ATOM     53  C   UNL     1       1.559  -2.705   5.965  1.00  0.00     0.031 C 
ATOM     54  C   UNL     1       1.287   1.036   9.303  1.00  0.00     0.029 A 
ATOM     55  N   UNL     1       1.064  -1.055  10.066  1.00  0.00    -0.354 N 
ATOM     56  C   UNL     1       1.386  -4.439   7.463  1.00  0.00     0.074 A 
ATOM     57  C   UNL     1       1.451  -4.027   6.077  1.00  0.00     0.031 C 
ATOM     58  C   UNL     1       1.156   1.108  10.633  1.00  0.00     0.029 A 
ATOM     59  C   UNL     1       1.017  -0.241  11.177  1.00  0.00     0.049 A 
ATOM     60  H   UNL     1       0.935  -2.030  10.105  1.00  0.00     0.167 HD
ATOM     61  C   UNL     1       1.330  -5.729   7.886  1.00  0.00     0.031 A 
ATOM     62  C   UNL     1       0.904  -0.524  12.492  1.00  0.00     0.031 A 
ATOM     63  C   UNL     1       1.252  -6.129   9.275  1.00  0.00     0.049 A 
ATOM     64  C   UNL     1       0.848  -1.958  12.939  1.00  0.00     0.074 A 
ATOM     65  C   UNL     1       1.260  -7.415   9.795  1.00  0.00     0.029 A 
ATOM     66  N   UNL     1       1.139  -5.270  10.357  1.00  0.00    -0.354 N 
ATOM     67  N   UNL     1       0.946  -3.047  12.216  1.00  0.00    -0.248 NA
ATOM     68  C   UNL     1       0.684  -2.203  14.379  1.00  0.00     0.031 C 
ATOM     69  C   UNL     1       1.059  -7.336  11.174  1.00  0.00     0.029 A 
ATOM     70  C   UNL     1       1.034  -5.999  11.534  1.00  0.00     0.049 A 
ATOM     71  H   UNL     1       1.134  -4.287  10.300  1.00  0.00     0.167 HD
ATOM     72  C   UNL     1       0.879  -4.106  13.116  1.00  0.00     0.074 A 
ATOM     73  C   UNL     1       0.756  -3.527  14.437  1.00  0.00     0.031 C 
ATOM     74  C   UNL     1       0.915  -5.436  12.858  1.00  0.00     0.031 A 
BRANCH  61  75
ATOM     75  C   UNL     1       1.377  -6.851   6.865  1.00  0.00    -0.014 A 
ATOM     76  C   UNL     1       0.298  -7.754   6.761  1.00  0.00     0.010 A 
ATOM     77  C   UNL     1       2.562  -7.136   6.164  1.00  0.00     0.010 A 
ATOM     78  C   UNL     1       0.420  -8.936   6.021  1.00  0.00     0.020 A 
ATOM     79  C   UNL     1       2.677  -8.302   5.396  1.00  0.00     0.020 A 
ATOM     80  C   UNL     1       1.615  -9.209   5.353  1.00  0.00     0.054 A 
BRANCH  80  81
ATOM     81  S   UNL     1       1.776 -10.777   4.449  1.00  0.00     0.124 S 
ATOM     82  O   UNL     1       1.850 -11.753   5.531  1.00  0.00    -0.237 OA
ATOM     83  O   UNL     1       0.553 -10.808   3.651  1.00  0.00    -0.237 OA
ATOM     84  O   UNL     1       3.007 -10.604   3.679  1.00  0.00    -0.744 OA
ENDBRANCH  80  81
ENDBRANCH  61  75
BRANCH  62  85
ATOM     85  C   UNL     1       0.915   0.597  13.476  1.00  0.00    -0.014 A 
ATOM     86  C   UNL     1      -0.112   1.561  13.470  1.00  0.00     0.010 A 
ATOM     87  C   UNL     1       1.998   0.764  14.358  1.00  0.00     0.010 A 
ATOM     88  C   UNL     1      -0.021   2.703  14.267  1.00  0.00     0.020 A 
ATOM     89  C   UNL     1       2.071   1.886  15.191  1.00  0.00     0.020 A 
ATOM     90  C   UNL     1       1.078   2.865  15.113  1.00  0.00     0.054 A 
BRANCH  90  91
ATOM     91  S   UNL     1       1.203   4.388  16.090  1.00  0.00     0.124 S 
ATOM     92  O   UNL     1       1.545   5.372  15.066  1.00  0.00    -0.237 OA
ATOM     93  O   UNL     1      -0.137   4.510  16.659  1.00  0.00    -0.237 OA
ATOM     94  O   UNL     1       2.262   4.093  17.052  1.00  0.00    -0.744 OA
ENDBRANCH  90  91
ENDBRANCH  62  85
BRANCH  74  95
ATOM     95  C   UNL     1       0.832  -6.400  14.019  1.00  0.00    -0.014 A 
ATOM     96  C   UNL     1       1.911  -7.267  14.284  1.00  0.00     0.010 A 
ATOM     97  C   UNL     1      -0.353  -6.549  14.762  1.00  0.00     0.010 A 
ATOM     98  C   UNL     1       1.792  -8.288  15.231  1.00  0.00     0.020 A 
ATOM     99  C   UNL     1      -0.464  -7.546  15.738  1.00  0.00     0.020 A 
ATOM    100  C   UNL     1       0.599  -8.429  15.944  1.00  0.00     0.054 A 
BRANCH 100 101
ATOM    101  S   UNL     1       0.448  -9.793  17.131  1.00  0.00     0.124 S 
ATOM    102  O   UNL     1       0.324 -10.953  16.252  1.00  0.00    -0.237 OA
ATOM    103  O   UNL     1       1.697  -9.703  17.883  1.00  0.00    -0.237 OA
ATOM    104  O   UNL     1      -0.754  -9.456  17.891  1.00  0.00    -0.744 OA
ENDBRANCH 100 101
ENDBRANCH  74  95
ENDBRANCH  48  49
ENDBRANCH  41  43
ENDBRANCH  40  41
ENDBRANCH  39  40
ENDBRANCH  38  39
ENDBRANCH  37  38
ENDBRANCH  36  37
ENDBRANCH   1  36
TORSDOF 25
