REMARK SMILES CC(C)(C)c1cc(NC(=O)[C@H]2[C@@H](C(=O)OCCOCCOCCOC(=O)c3ccc(-c4c5nc(c(-c6ccc(S(=O)(=O)[O-])cc6)c6ccc([nH]6)c(-c6ccc(S(=O)(=O)[O-])cc6)c6nc(c(-c7ccc(S(=O)(=O)[O-])cc7)c7ccc4[nH]7)C=C6)C=C5)cc3)[C@H]3C=C[C@@H]2C3)no1
REMARK SMILES IDX 19 1 18 2 17 3 16 4 15 5 13 6 14 7 12 8 11 9 90 10 87 11
REMARK SMILES IDX 89 12 91 13 88 14 9 15 8 16 10 18 7 19 5 20 6 21 93 22 92 23
REMARK SMILES IDX 2 24 1 25 3 26 4 27 20 28 21 29 22 30 23 31 24 32 25 33
REMARK SMILES IDX 26 34 27 35 28 36 86 37 29 38 85 39 30 40 31 41 32 42 79 43
REMARK SMILES IDX 33 44 84 45 78 46 80 47 34 48 83 49 77 50 76 51 35 53 65 54
REMARK SMILES IDX 46 55 64 56 47 57 50 58 63 59 81 60 48 61 49 62 62 64 82 65
REMARK SMILES IDX 51 66 36 67 37 68 45 69 38 70 44 71 39 72 40 73 41 74 42 75
REMARK SMILES IDX 43 76 66 77 67 78 75 79 68 80 74 81 69 82 70 83 71 84 72 85
REMARK SMILES IDX 73 86 52 87 53 88 61 89 54 90 60 91 55 92 56 93 57 94 58 95
REMARK SMILES IDX 59 96
REMARK H PARENT 8 17 80 52 50 63
REMARK Flexibility Score: inf
ROOT
ATOM      1  C   UNL     1       1.718   8.673  -1.562  1.00  0.00     0.188 C 
ENDROOT
BRANCH   1   2
ATOM      2  O   UNL     1       2.767   9.350  -2.239  1.00  0.00    -0.376 OA
BRANCH   2   3
ATOM      3  C   UNL     1       4.115   8.990  -1.979  1.00  0.00     0.202 C 
BRANCH   3   4
ATOM      4  C   UNL     1       4.663   9.128  -0.547  1.00  0.00     0.261 C 
BRANCH   4   5
ATOM      5  O   UNL     1       4.037   8.343   0.508  1.00  0.00    -0.463 OA
BRANCH   5   6
ATOM      6  C   UNL     1       3.275   9.063   1.375  1.00  0.00     0.310 C 
ATOM      7  O   UNL     1       3.113  10.275   1.236  1.00  0.00    -0.252 OA
BRANCH   6   8
ATOM      8  C   UNL     1       2.785   8.342   2.641  1.00  0.00     0.119 C 
ATOM      9  C   UNL     1       2.076   6.947   2.876  1.00  0.00     0.100 C 
ATOM     10  C   UNL     1       0.739   7.343   3.585  1.00  0.00     0.025 C 
ATOM     11  C   UNL     1       1.729   9.309   3.287  1.00  0.00     0.027 C 
ATOM     12  C   UNL     1      -0.131   8.132   2.647  1.00  0.00    -0.027 C 
ATOM     13  C   UNL     1       1.215   8.491   4.470  1.00  0.00     0.017 C 
ATOM     14  C   UNL     1       0.471   9.306   2.439  1.00  0.00    -0.027 C 
BRANCH   9  15
ATOM     15  C   UNL     1       1.820   5.897   1.804  1.00  0.00     0.230 C 
ATOM     16  N   UNL     1       2.788   5.064   1.347  1.00  0.00    -0.308 N 
ATOM     17  H   UNL     1       2.551   4.529   0.556  1.00  0.00     0.171 HD
ATOM     18  O   UNL     1       0.693   5.701   1.339  1.00  0.00    -0.274 OA
BRANCH  16  19
ATOM     19  C   UNL     1       4.050   4.867   1.839  1.00  0.00     0.176 A 
ATOM     20  C   UNL     1       5.990   3.908   2.251  1.00  0.00     0.144 A 
ATOM     21  C   UNL     1       4.921   3.849   1.388  1.00  0.00     0.096 A 
ATOM     22  O   UNL     1       5.791   4.935   3.120  1.00  0.00    -0.359 OA
ATOM     23  N   UNL     1       4.600   5.548   2.843  1.00  0.00    -0.062 NA
BRANCH  20  24
ATOM     24  C   UNL     1       7.236   3.109   2.476  1.00  0.00     0.023 C 
ATOM     25  C   UNL     1       7.578   2.256   1.245  1.00  0.00     0.019 C 
ATOM     26  C   UNL     1       7.017   2.183   3.686  1.00  0.00     0.019 C 
ATOM     27  C   UNL     1       8.410   4.064   2.760  1.00  0.00     0.019 C 
ENDBRANCH  20  24
ENDBRANCH  16  19
ENDBRANCH   9  15
ENDBRANCH   6   8
ENDBRANCH   5   6
ENDBRANCH   4   5
ENDBRANCH   3   4
ENDBRANCH   2   3
ENDBRANCH   1   2
BRANCH   1  28
ATOM     28  C   UNL     1       1.939   7.228  -1.117  1.00  0.00     0.188 C 
BRANCH  28  29
ATOM     29  O   UNL     1       2.916   6.503  -1.842  1.00  0.00    -0.376 OA
BRANCH  29  30
ATOM     30  C   UNL     1       2.451   5.328  -2.484  1.00  0.00     0.202 C 
BRANCH  30  31
ATOM     31  C   UNL     1       1.497   5.611  -3.649  1.00  0.00     0.261 C 
BRANCH  31  32
ATOM     32  O   UNL     1       0.259   6.253  -3.281  1.00  0.00    -0.460 OA
BRANCH  32  33
ATOM     33  C   UNL     1      -0.586   5.558  -2.483  1.00  0.00     0.338 C 
ATOM     34  O   UNL     1      -0.431   4.412  -2.083  1.00  0.00    -0.246 OA
BRANCH  33  35
ATOM     35  C   UNL     1      -1.642   6.488  -2.030  1.00  0.00     0.060 A 
ATOM     36  C   UNL     1      -1.627   6.970  -0.716  1.00  0.00     0.016 A 
ATOM     37  C   UNL     1      -2.647   6.895  -2.903  1.00  0.00     0.016 A 
ATOM     38  C   UNL     1      -2.599   7.865  -0.273  1.00  0.00     0.010 A 
ATOM     39  C   UNL     1      -3.639   7.774  -2.449  1.00  0.00     0.010 A 
ATOM     40  C   UNL     1      -3.627   8.259  -1.127  1.00  0.00    -0.014 A 
BRANCH  40  41
ATOM     41  C   UNL     1      -4.778   9.026  -0.588  1.00  0.00     0.031 A 
ATOM     42  C   UNL     1      -6.076   8.297  -0.379  1.00  0.00     0.074 A 
ATOM     43  C   UNL     1      -4.678  10.323  -0.240  1.00  0.00     0.049 A 
ATOM     44  N   UNL     1      -7.266   8.776  -0.134  1.00  0.00    -0.248 NA
ATOM     45  C   UNL     1      -6.019   6.827  -0.456  1.00  0.00     0.031 C 
ATOM     46  C   UNL     1      -3.449  11.115  -0.233  1.00  0.00     0.029 A 
ATOM     47  N   UNL     1      -5.647  11.208   0.172  1.00  0.00    -0.354 N 
ATOM     48  C   UNL     1      -8.111   7.674  -0.091  1.00  0.00     0.074 A 
ATOM     49  C   UNL     1      -7.295   6.501  -0.316  1.00  0.00     0.031 C 
ATOM     50  C   UNL     1      -3.741  12.372   0.147  1.00  0.00     0.029 A 
ATOM     51  C   UNL     1      -5.185  12.494   0.335  1.00  0.00     0.049 A 
ATOM     52  H   UNL     1      -6.582  10.946   0.336  1.00  0.00     0.167 HD
ATOM     53  C   UNL     1      -9.450   7.649   0.097  1.00  0.00     0.031 A 
ATOM     54  C   UNL     1      -5.858  13.645   0.549  1.00  0.00     0.031 A 
ATOM     55  C   UNL     1     -10.247   8.820   0.347  1.00  0.00     0.049 A 
ATOM     56  C   UNL     1      -7.366  13.609   0.634  1.00  0.00     0.074 A 
ATOM     57  C   UNL     1     -11.614   8.900   0.546  1.00  0.00     0.029 A 
ATOM     58  N   UNL     1      -9.751  10.112   0.433  1.00  0.00    -0.354 N 
ATOM     59  N   UNL     1      -8.171  12.573   0.611  1.00  0.00    -0.248 NA
ATOM     60  C   UNL     1      -8.058  14.901   0.757  1.00  0.00     0.031 C 
ATOM     61  C   UNL     1     -11.954  10.249   0.684  1.00  0.00     0.029 A 
ATOM     62  C   UNL     1     -10.790  11.000   0.648  1.00  0.00     0.049 A 
ATOM     63  H   UNL     1      -8.802  10.360   0.354  1.00  0.00     0.167 HD
ATOM     64  C   UNL     1      -9.457  13.086   0.753  1.00  0.00     0.074 A 
ATOM     65  C   UNL     1      -9.324  14.523   0.870  1.00  0.00     0.031 C 
ATOM     66  C   UNL     1     -10.642  12.427   0.786  1.00  0.00     0.031 A 
BRANCH  53  67
ATOM     67  C   UNL     1     -10.154   6.328  -0.045  1.00  0.00    -0.014 A 
ATOM     68  C   UNL     1     -10.048   5.316   0.924  1.00  0.00     0.010 A 
ATOM     69  C   UNL     1     -10.986   6.124  -1.163  1.00  0.00     0.010 A 
ATOM     70  C   UNL     1     -10.742   4.113   0.764  1.00  0.00     0.020 A 
ATOM     71  C   UNL     1     -11.703   4.936  -1.312  1.00  0.00     0.020 A 
ATOM     72  C   UNL     1     -11.567   3.932  -0.352  1.00  0.00     0.054 A 
BRANCH  72  73
ATOM     73  S   UNL     1     -12.489   2.379  -0.513  1.00  0.00     0.124 S 
ATOM     74  O   UNL     1     -11.425   1.427  -0.820  1.00  0.00    -0.237 OA
ATOM     75  O   UNL     1     -13.101   2.233   0.805  1.00  0.00    -0.237 OA
ATOM     76  O   UNL     1     -13.424   2.640  -1.605  1.00  0.00    -0.744 OA
ENDBRANCH  72  73
ENDBRANCH  53  67
BRANCH  54  77
ATOM     77  C   UNL     1      -5.134  14.948   0.616  1.00  0.00    -0.014 A 
ATOM     78  C   UNL     1      -5.148  15.722   1.790  1.00  0.00     0.010 A 
ATOM     79  C   UNL     1      -4.468  15.451  -0.518  1.00  0.00     0.010 A 
ATOM     80  C   UNL     1      -4.538  16.981   1.821  1.00  0.00     0.020 A 
ATOM     81  C   UNL     1      -3.827  16.693  -0.482  1.00  0.00     0.020 A 
ATOM     82  C   UNL     1      -3.881  17.459   0.683  1.00  0.00     0.054 A 
BRANCH  82  83
ATOM     83  S   UNL     1      -3.083  19.087   0.749  1.00  0.00     0.124 S 
ATOM     84  O   UNL     1      -4.231  19.988   0.760  1.00  0.00    -0.237 OA
ATOM     85  O   UNL     1      -2.323  19.016   1.994  1.00  0.00    -0.237 OA
ATOM     86  O   UNL     1      -2.273  19.122  -0.466  1.00  0.00    -0.744 OA
ENDBRANCH  82  83
ENDBRANCH  54  77
BRANCH  66  87
ATOM     87  C   UNL     1     -11.894  13.232   1.021  1.00  0.00    -0.014 A 
ATOM     88  C   UNL     1     -12.432  14.064   0.024  1.00  0.00     0.010 A 
ATOM     89  C   UNL     1     -12.594  13.075   2.233  1.00  0.00     0.010 A 
ATOM     90  C   UNL     1     -13.639  14.737   0.242  1.00  0.00     0.020 A 
ATOM     91  C   UNL     1     -13.814  13.720   2.442  1.00  0.00     0.020 A 
ATOM     92  C   UNL     1     -14.325  14.555   1.447  1.00  0.00     0.054 A 
BRANCH  92  93
ATOM     93  S   UNL     1     -15.925  15.380   1.674  1.00  0.00     0.124 S 
ATOM     94  O   UNL     1     -15.529  16.776   1.832  1.00  0.00    -0.237 OA
ATOM     95  O   UNL     1     -16.628  15.062   0.433  1.00  0.00    -0.237 OA
ATOM     96  O   UNL     1     -16.474  14.750   2.873  1.00  0.00    -0.744 OA
ENDBRANCH  92  93
ENDBRANCH  66  87
ENDBRANCH  40  41
ENDBRANCH  33  35
ENDBRANCH  32  33
ENDBRANCH  31  32
ENDBRANCH  30  31
ENDBRANCH  29  30
ENDBRANCH  28  29
ENDBRANCH   1  28
TORSDOF 23
