REMARK SMILES Cc1nc2ccc(OCC(=O)OCCOCCOCCOC(=O)c3ccc(-c4c5nc(c(-c6ccc(S(=O)(=O)[O-])cc6)c6ccc([nH]6)c(-c6ccc(S(=O)(=O)[O-])cc6)c6nc(c(-c7ccc(S(=O)(=O)[O-])cc7)c7ccc4[nH]7)C=C6)C=C5)cc3)cc2c(=O)n1-c1ccc2c(c1)OCO2
REMARK SMILES IDX 16 1 15 2 14 3 13 4 12 5 10 6 11 7 9 8 8 9 7 10 1 11 2 12
REMARK SMILES IDX 3 13 88 14 4 15 86 16 5 17 85 18 87 19 6 20 84 21 89 22
REMARK SMILES IDX 90 23 94 24 91 25 93 26 92 27 95 28 97 29 96 30 17 31 18 32
REMARK SMILES IDX 19 33 20 34 21 35 22 36 23 37 24 38 25 39 83 40 26 41 82 42
REMARK SMILES IDX 27 43 28 44 29 45 76 46 30 47 81 48 75 49 77 50 31 51 80 52
REMARK SMILES IDX 74 53 73 54 32 56 62 57 43 58 61 59 44 60 47 61 60 62 78 63
REMARK SMILES IDX 45 64 46 65 59 67 79 68 48 69 33 70 34 71 42 72 35 73 41 74
REMARK SMILES IDX 36 75 37 76 38 77 39 78 40 79 63 80 64 81 72 82 65 83 71 84
REMARK SMILES IDX 66 85 67 86 68 87 69 88 70 89 49 90 50 91 58 92 51 93 57 94
REMARK SMILES IDX 52 95 53 96 54 97 55 98 56 99
REMARK H PARENT 77 55 47 66
REMARK Flexibility Score: inf
ROOT
ATOM      1  C   UNL     1      -0.954   6.745  -3.452  1.00  0.00     0.188 C 
ENDROOT
BRANCH   1   2
ATOM      2  O   UNL     1      -1.691   7.963  -3.520  1.00  0.00    -0.376 OA
BRANCH   2   3
ATOM      3  C   UNL     1      -2.926   7.985  -4.219  1.00  0.00     0.202 C 
BRANCH   3   4
ATOM      4  C   UNL     1      -2.835   7.839  -5.737  1.00  0.00     0.261 C 
BRANCH   4   5
ATOM      5  O   UNL     1      -2.325   6.563  -6.185  1.00  0.00    -0.461 OA
BRANCH   5   6
ATOM      6  C   UNL     1      -1.131   6.586  -6.838  1.00  0.00     0.344 C 
ATOM      7  O   UNL     1      -0.456   7.594  -7.018  1.00  0.00    -0.248 OA
BRANCH   6   8
ATOM      8  C   UNL     1      -0.738   5.228  -7.437  1.00  0.00     0.351 C 
BRANCH   8   9
ATOM      9  O   UNL     1      -1.171   4.016  -6.837  1.00  0.00    -0.482 OA
BRANCH   9  10
ATOM     10  C   UNL     1      -0.372   3.370  -5.934  1.00  0.00     0.121 A 
ATOM     11  C   UNL     1       1.317   0.315  -0.555  1.00  0.00     0.088 C 
ATOM     12  C   UNL     1       0.899   0.665  -1.968  1.00  0.00     0.113 A 
ATOM     13  N   UNL     1       1.391   1.726  -2.522  1.00  0.00    -0.234 NA
ATOM     14  N   UNL     1      -0.034  -0.147  -2.588  1.00  0.00    -0.264 N 
ATOM     15  C   UNL     1       0.890   2.100  -3.772  1.00  0.00     0.078 A 
ATOM     16  C   UNL     1      -0.790   0.326  -3.668  1.00  0.00     0.266 A 
ATOM     17  C   UNL     1       1.536   3.112  -4.476  1.00  0.00     0.033 A 
ATOM     18  C   UNL     1      -0.302   1.592  -4.271  1.00  0.00     0.070 A 
ATOM     19  O   UNL     1      -1.749  -0.251  -4.174  1.00  0.00    -0.268 OA
ATOM     20  C   UNL     1       0.903   3.766  -5.537  1.00  0.00     0.049 A 
ATOM     21  C   UNL     1      -0.939   2.225  -5.348  1.00  0.00     0.062 A 
BRANCH  14  22
ATOM     22  C   UNL     1       0.119  -1.555  -2.457  1.00  0.00     0.054 A 
ATOM     23  C   UNL     1      -0.898  -2.384  -1.952  1.00  0.00     0.031 A 
ATOM     24  C   UNL     1       1.343  -2.104  -2.880  1.00  0.00     0.077 A 
ATOM     25  C   UNL     1      -0.687  -3.769  -1.853  1.00  0.00     0.053 A 
ATOM     26  C   UNL     1       1.495  -3.467  -2.821  1.00  0.00     0.167 A 
ATOM     27  C   UNL     1       0.510  -4.280  -2.317  1.00  0.00     0.165 A 
ATOM     28  O   UNL     1       2.579  -4.158  -3.259  1.00  0.00    -0.454 OA
ATOM     29  O   UNL     1       0.862  -5.594  -2.366  1.00  0.00    -0.454 OA
ATOM     30  C   UNL     1       2.114  -5.510  -3.086  1.00  0.00     0.468 C 
ENDBRANCH  14  22
ENDBRANCH   9  10
ENDBRANCH   8   9
ENDBRANCH   6   8
ENDBRANCH   5   6
ENDBRANCH   4   5
ENDBRANCH   3   4
ENDBRANCH   2   3
ENDBRANCH   1   2
BRANCH   1  31
ATOM     31  C   UNL     1      -1.733   5.419  -3.399  1.00  0.00     0.188 C 
BRANCH  31  32
ATOM     32  O   UNL     1      -2.940   5.574  -2.664  1.00  0.00    -0.376 OA
BRANCH  32  33
ATOM     33  C   UNL     1      -3.142   4.675  -1.594  1.00  0.00     0.202 C 
BRANCH  33  34
ATOM     34  C   UNL     1      -2.238   4.927  -0.387  1.00  0.00     0.261 C 
BRANCH  34  35
ATOM     35  O   UNL     1      -0.869   5.171  -0.755  1.00  0.00    -0.460 OA
BRANCH  35  36
ATOM     36  C   UNL     1       0.077   4.420  -0.166  1.00  0.00     0.338 C 
ATOM     37  O   UNL     1      -0.114   3.476   0.600  1.00  0.00    -0.246 OA
BRANCH  36  38
ATOM     38  C   UNL     1       1.412   4.966  -0.482  1.00  0.00     0.060 A 
ATOM     39  C   UNL     1       2.269   5.293   0.564  1.00  0.00     0.016 A 
ATOM     40  C   UNL     1       1.855   5.104  -1.799  1.00  0.00     0.016 A 
ATOM     41  C   UNL     1       3.565   5.743   0.287  1.00  0.00     0.010 A 
ATOM     42  C   UNL     1       3.177   5.477  -2.075  1.00  0.00     0.010 A 
ATOM     43  C   UNL     1       4.052   5.802  -1.034  1.00  0.00    -0.014 A 
BRANCH  43  44
ATOM     44  C   UNL     1       5.487   6.127  -1.283  1.00  0.00     0.031 A 
ATOM     45  C   UNL     1       5.905   7.362  -2.038  1.00  0.00     0.074 A 
ATOM     46  C   UNL     1       6.433   5.299  -0.789  1.00  0.00     0.049 A 
ATOM     47  N   UNL     1       7.102   7.885  -2.145  1.00  0.00    -0.248 NA
ATOM     48  C   UNL     1       4.869   8.095  -2.782  1.00  0.00     0.031 C 
ATOM     49  C   UNL     1       6.165   4.019  -0.128  1.00  0.00     0.029 A 
ATOM     50  N   UNL     1       7.801   5.422  -0.723  1.00  0.00    -0.354 N 
ATOM     51  C   UNL     1       6.958   9.014  -2.944  1.00  0.00     0.074 A 
ATOM     52  C   UNL     1       5.574   9.061  -3.359  1.00  0.00     0.031 C 
ATOM     53  C   UNL     1       7.313   3.525   0.360  1.00  0.00     0.029 A 
ATOM     54  C   UNL     1       8.405   4.435   0.027  1.00  0.00     0.049 A 
ATOM     55  H   UNL     1       8.301   6.144  -1.168  1.00  0.00     0.167 HD
ATOM     56  C   UNL     1       7.885   9.947  -3.265  1.00  0.00     0.031 A 
ATOM     57  C   UNL     1       9.680   4.297   0.445  1.00  0.00     0.031 A 
ATOM     58  C   UNL     1       9.256   9.906  -2.824  1.00  0.00     0.049 A 
ATOM     59  C   UNL     1      10.685   5.364   0.104  1.00  0.00     0.074 A 
ATOM     60  C   UNL     1      10.248  10.849  -3.029  1.00  0.00     0.029 A 
ATOM     61  N   UNL     1       9.826   8.880  -2.087  1.00  0.00    -0.354 N 
ATOM     62  N   UNL     1      10.501   6.485  -0.551  1.00  0.00    -0.248 NA
ATOM     63  C   UNL     1      12.063   5.161   0.575  1.00  0.00     0.031 C 
ATOM     64  C   UNL     1      11.432  10.368  -2.469  1.00  0.00     0.029 A 
ATOM     65  C   UNL     1      11.162   9.158  -1.852  1.00  0.00     0.049 A 
ATOM     66  H   UNL     1       9.352   8.075  -1.776  1.00  0.00     0.167 HD
ATOM     67  C   UNL     1      11.732   7.132  -0.547  1.00  0.00     0.074 A 
ATOM     68  C   UNL     1      12.649   6.287   0.189  1.00  0.00     0.031 C 
ATOM     69  C   UNL     1      12.067   8.318  -1.108  1.00  0.00     0.031 A 
BRANCH  56  70
ATOM     70  C   UNL     1       7.462  11.150  -4.072  1.00  0.00    -0.014 A 
ATOM     71  C   UNL     1       8.020  11.383  -5.343  1.00  0.00     0.010 A 
ATOM     72  C   UNL     1       6.658  12.146  -3.487  1.00  0.00     0.010 A 
ATOM     73  C   UNL     1       7.828  12.608  -5.989  1.00  0.00     0.020 A 
ATOM     74  C   UNL     1       6.441  13.361  -4.143  1.00  0.00     0.020 A 
ATOM     75  C   UNL     1       7.054  13.597  -5.375  1.00  0.00     0.054 A 
BRANCH  75  76
ATOM     76  S   UNL     1       6.890  15.212  -6.184  1.00  0.00     0.124 S 
ATOM     77  O   UNL     1       8.215  15.792  -5.989  1.00  0.00    -0.237 OA
ATOM     78  O   UNL     1       6.556  14.847  -7.559  1.00  0.00    -0.237 OA
ATOM     79  O   UNL     1       5.810  15.860  -5.442  1.00  0.00    -0.744 OA
ENDBRANCH  75  76
ENDBRANCH  56  70
BRANCH  57  80
ATOM     80  C   UNL     1      10.046   3.152   1.326  1.00  0.00    -0.014 A 
ATOM     81  C   UNL     1      10.041   1.833   0.838  1.00  0.00     0.010 A 
ATOM     82  C   UNL     1      10.351   3.374   2.682  1.00  0.00     0.010 A 
ATOM     83  C   UNL     1      10.294   0.757   1.694  1.00  0.00     0.020 A 
ATOM     84  C   UNL     1      10.635   2.303   3.535  1.00  0.00     0.020 A 
ATOM     85  C   UNL     1      10.580   0.999   3.041  1.00  0.00     0.054 A 
BRANCH  85  86
ATOM     86  S   UNL     1      10.883  -0.413   4.139  1.00  0.00     0.124 S 
ATOM     87  O   UNL     1       9.529  -0.908   4.372  1.00  0.00    -0.237 OA
ATOM     88  O   UNL     1      11.736  -1.275   3.325  1.00  0.00    -0.237 OA
ATOM     89  O   UNL     1      11.537   0.190   5.298  1.00  0.00    -0.744 OA
ENDBRANCH  85  86
ENDBRANCH  57  80
BRANCH  69  90
ATOM     90  C   UNL     1      13.485   8.806  -0.962  1.00  0.00    -0.014 A 
ATOM     91  C   UNL     1      13.749   9.967  -0.210  1.00  0.00     0.010 A 
ATOM     92  C   UNL     1      14.529   8.208  -1.690  1.00  0.00     0.010 A 
ATOM     93  C   UNL     1      15.021  10.546  -0.223  1.00  0.00     0.020 A 
ATOM     94  C   UNL     1      15.809   8.768  -1.681  1.00  0.00     0.020 A 
ATOM     95  C   UNL     1      16.039   9.949  -0.970  1.00  0.00     0.054 A 
BRANCH  95  96
ATOM     96  S   UNL     1      17.671  10.741  -1.016  1.00  0.00     0.124 S 
ATOM     97  O   UNL     1      17.445  11.858  -1.928  1.00  0.00    -0.237 OA
ATOM     98  O   UNL     1      17.892  11.103   0.382  1.00  0.00    -0.237 OA
ATOM     99  O   UNL     1      18.548   9.688  -1.523  1.00  0.00    -0.744 OA
ENDBRANCH  95  96
ENDBRANCH  69  90
ENDBRANCH  43  44
ENDBRANCH  36  38
ENDBRANCH  35  36
ENDBRANCH  34  35
ENDBRANCH  33  34
ENDBRANCH  32  33
ENDBRANCH  31  32
ENDBRANCH   1  31
TORSDOF 23
