REMARK SMILES CC[C@@](C)([NH2+]CCC(=O)NC(C)C)C(=O)OCCOCCOCCOC(=O)c1ccc(-c2c3nc(c(-c4ccc(S(=O)(=O)[O-])cc4)c4ccc([nH]4)c(-c4ccc(S(=O)(=O)[O-])cc4)c4nc(c(-c5ccc(S(=O)(=O)[O-])cc5)c5ccc2[nH]5)C=C4)C=C3)cc1
REMARK SMILES IDX 20 1 19 2 18 3 17 4 16 5 14 6 15 7 3 8 4 9 2 10 1 11 5 12
REMARK SMILES IDX 6 15 7 16 8 17 9 18 10 19 11 21 12 22 13 23 21 24 22 25
REMARK SMILES IDX 23 26 24 27 25 28 26 29 27 30 28 31 29 32 87 33 30 34 86 35
REMARK SMILES IDX 31 36 32 37 33 38 80 39 34 40 85 41 79 42 81 43 35 44 84 45
REMARK SMILES IDX 78 46 77 47 36 49 66 50 47 51 65 52 48 53 51 54 64 55 82 56
REMARK SMILES IDX 49 57 50 58 63 60 83 61 52 62 37 63 38 64 46 65 39 66 45 67
REMARK SMILES IDX 40 68 41 69 42 70 43 71 44 72 67 73 68 74 76 75 69 76 75 77
REMARK SMILES IDX 70 78 71 79 72 80 73 81 74 82 53 83 54 84 62 85 55 86 61 87
REMARK SMILES IDX 56 88 57 89 58 90 59 91 60 92
REMARK H PARENT 5 13 5 14 10 20 81 48 51 59
REMARK Flexibility Score: inf
ROOT
ATOM      1  C   UNL     1       4.178  -1.955  -2.678  1.00  0.00     0.188 C 
ENDROOT
BRANCH   1   2
ATOM      2  O   UNL     1       5.457  -2.481  -2.360  1.00  0.00    -0.376 OA
BRANCH   2   3
ATOM      3  C   UNL     1       5.784  -2.491  -0.976  1.00  0.00     0.202 C 
BRANCH   3   4
ATOM      4  C   UNL     1       4.986  -3.483  -0.122  1.00  0.00     0.261 C 
BRANCH   4   5
ATOM      5  O   UNL     1       3.561  -3.330  -0.223  1.00  0.00    -0.459 OA
BRANCH   5   6
ATOM      6  C   UNL     1       2.971  -2.396   0.566  1.00  0.00     0.367 C 
ATOM      7  O   UNL     1       3.599  -1.689   1.347  1.00  0.00    -0.245 OA
BRANCH   6   8
ATOM      8  C   UNL     1       1.421  -2.323   0.379  1.00  0.00     0.191 C 
ATOM      9  C   UNL     1       0.811  -2.486   1.774  1.00  0.00     0.092 C 
BRANCH   8  10
ATOM     10  C   UNL     1       1.047  -0.949  -0.262  1.00  0.00     0.077 C 
ATOM     11  C   UNL     1       1.346   0.314   0.534  1.00  0.00     0.011 C 
ENDBRANCH   8  10
BRANCH   8  12
ATOM     12  N   UNL     1       0.908  -3.314  -0.597  1.00  0.00    -0.332 N 
ATOM     13  H   UNL     1       1.543  -3.255  -1.393  1.00  0.00     0.347 HD
ATOM     14  H   UNL     1      -0.068  -3.020  -0.636  1.00  0.00     0.347 HD
BRANCH  12  15
ATOM     15  C   UNL     1       0.720  -4.731  -0.371  1.00  0.00     0.271 C 
BRANCH  15  16
ATOM     16  C   UNL     1      -0.440  -5.201   0.510  1.00  0.00     0.161 C 
BRANCH  16  17
ATOM     17  C   UNL     1      -1.828  -5.363  -0.092  1.00  0.00     0.225 C 
ATOM     18  O   UNL     1      -2.307  -6.491  -0.252  1.00  0.00    -0.275 OA
ATOM     19  N   UNL     1      -2.638  -4.299  -0.354  1.00  0.00    -0.354 N 
ATOM     20  H   UNL     1      -3.592  -4.519  -0.461  1.00  0.00     0.163 HD
BRANCH  19  21
ATOM     21  C   UNL     1      -2.312  -2.893  -0.499  1.00  0.00     0.075 C 
ATOM     22  C   UNL     1      -2.466  -2.479  -1.960  1.00  0.00     0.030 C 
ATOM     23  C   UNL     1      -3.117  -1.995   0.428  1.00  0.00     0.030 C 
ENDBRANCH  19  21
ENDBRANCH  16  17
ENDBRANCH  15  16
ENDBRANCH  12  15
ENDBRANCH   8  12
ENDBRANCH   6   8
ENDBRANCH   5   6
ENDBRANCH   4   5
ENDBRANCH   3   4
ENDBRANCH   2   3
ENDBRANCH   1   2
BRANCH   1  24
ATOM     24  C   UNL     1       3.157  -3.013  -3.139  1.00  0.00     0.188 C 
BRANCH  24  25
ATOM     25  O   UNL     1       3.546  -4.360  -3.356  1.00  0.00    -0.376 OA
BRANCH  25  26
ATOM     26  C   UNL     1       4.731  -4.605  -4.095  1.00  0.00     0.202 C 
BRANCH  26  27
ATOM     27  C   UNL     1       4.851  -4.025  -5.513  1.00  0.00     0.261 C 
BRANCH  27  28
ATOM     28  O   UNL     1       4.473  -2.642  -5.646  1.00  0.00    -0.460 OA
BRANCH  28  29
ATOM     29  C   UNL     1       3.337  -2.416  -6.357  1.00  0.00     0.338 C 
ATOM     30  O   UNL     1       2.655  -3.243  -6.935  1.00  0.00    -0.246 OA
BRANCH  29  31
ATOM     31  C   UNL     1       2.896  -1.014  -6.171  1.00  0.00     0.060 A 
ATOM     32  C   UNL     1       1.626  -0.787  -5.618  1.00  0.00     0.016 A 
ATOM     33  C   UNL     1       3.686   0.061  -6.578  1.00  0.00     0.016 A 
ATOM     34  C   UNL     1       1.137   0.513  -5.479  1.00  0.00     0.010 A 
ATOM     35  C   UNL     1       3.179   1.363  -6.470  1.00  0.00     0.010 A 
ATOM     36  C   UNL     1       1.895   1.594  -5.941  1.00  0.00    -0.014 A 
BRANCH  36  37
ATOM     37  C   UNL     1       1.286   2.945  -6.032  1.00  0.00     0.031 A 
ATOM     38  C   UNL     1       0.663   3.368  -7.336  1.00  0.00     0.074 A 
ATOM     39  C   UNL     1       1.283   3.787  -4.982  1.00  0.00     0.049 A 
ATOM     40  N   UNL     1       0.157   4.525  -7.674  1.00  0.00    -0.248 NA
ATOM     41  C   UNL     1       0.601   2.349  -8.397  1.00  0.00     0.031 C 
ATOM     42  C   UNL     1       1.799   3.483  -3.648  1.00  0.00     0.029 A 
ATOM     43  N   UNL     1       0.841   5.084  -4.885  1.00  0.00    -0.354 N 
ATOM     44  C   UNL     1      -0.270   4.380  -8.989  1.00  0.00     0.074 A 
ATOM     45  C   UNL     1       0.046   3.026  -9.391  1.00  0.00     0.031 C 
ATOM     46  C   UNL     1       1.666   4.574  -2.872  1.00  0.00     0.029 A 
ATOM     47  C   UNL     1       1.093   5.662  -3.663  1.00  0.00     0.049 A 
ATOM     48  H   UNL     1       0.387   5.555  -5.620  1.00  0.00     0.167 HD
ATOM     49  C   UNL     1      -0.867   5.292  -9.793  1.00  0.00     0.031 A 
ATOM     50  C   UNL     1       0.914   6.932  -3.243  1.00  0.00     0.031 A 
ATOM     51  C   UNL     1      -1.167   6.644  -9.404  1.00  0.00     0.049 A 
ATOM     52  C   UNL     1       0.332   7.954  -4.187  1.00  0.00     0.074 A 
ATOM     53  C   UNL     1      -1.781   7.635 -10.149  1.00  0.00     0.029 A 
ATOM     54  N   UNL     1      -0.865   7.199  -8.171  1.00  0.00    -0.354 N 
ATOM     55  N   UNL     1      -0.086   7.796  -5.421  1.00  0.00    -0.248 NA
ATOM     56  C   UNL     1       0.195   9.328  -3.680  1.00  0.00     0.031 C 
ATOM     57  C   UNL     1      -1.801   8.807  -9.386  1.00  0.00     0.029 A 
ATOM     58  C   UNL     1      -1.254   8.527  -8.144  1.00  0.00     0.049 A 
ATOM     59  H   UNL     1      -0.438   6.719  -7.424  1.00  0.00     0.167 HD
ATOM     60  C   UNL     1      -0.559   9.042  -5.824  1.00  0.00     0.074 A 
ATOM     61  C   UNL     1      -0.390   9.939  -4.701  1.00  0.00     0.031 C 
ATOM     62  C   UNL     1      -1.087   9.410  -7.018  1.00  0.00     0.031 A 
BRANCH  49  63
ATOM     63  C   UNL     1      -1.204   4.869 -11.196  1.00  0.00    -0.014 A 
ATOM     64  C   UNL     1      -2.281   4.003 -11.457  1.00  0.00     0.010 A 
ATOM     65  C   UNL     1      -0.469   5.395 -12.274  1.00  0.00     0.010 A 
ATOM     66  C   UNL     1      -2.602   3.654 -12.771  1.00  0.00     0.020 A 
ATOM     67  C   UNL     1      -0.801   5.066 -13.590  1.00  0.00     0.020 A 
ATOM     68  C   UNL     1      -1.860   4.188 -13.830  1.00  0.00     0.054 A 
BRANCH  68  69
ATOM     69  S   UNL     1      -2.327   3.752 -15.527  1.00  0.00     0.124 S 
ATOM     70  O   UNL     1      -1.877   2.365 -15.616  1.00  0.00    -0.237 OA
ATOM     71  O   UNL     1      -3.775   3.943 -15.520  1.00  0.00    -0.237 OA
ATOM     72  O   UNL     1      -1.580   4.701 -16.348  1.00  0.00    -0.744 OA
ENDBRANCH  68  69
ENDBRANCH  49  63
BRANCH  50  73
ATOM     73  C   UNL     1       1.332   7.335  -1.871  1.00  0.00    -0.014 A 
ATOM     74  C   UNL     1       0.377   7.699  -0.906  1.00  0.00     0.010 A 
ATOM     75  C   UNL     1       2.697   7.393  -1.536  1.00  0.00     0.010 A 
ATOM     76  C   UNL     1       0.779   8.140   0.359  1.00  0.00     0.020 A 
ATOM     77  C   UNL     1       3.103   7.805  -0.264  1.00  0.00     0.020 A 
ATOM     78  C   UNL     1       2.141   8.191   0.671  1.00  0.00     0.054 A 
BRANCH  78  79
ATOM     79  S   UNL     1       2.641   8.736   2.328  1.00  0.00     0.124 S 
ATOM     80  O   UNL     1       2.423  10.177   2.252  1.00  0.00    -0.237 OA
ATOM     81  O   UNL     1       1.721   8.001   3.193  1.00  0.00    -0.237 OA
ATOM     82  O   UNL     1       4.038   8.316   2.417  1.00  0.00    -0.744 OA
ENDBRANCH  78  79
ENDBRANCH  50  73
BRANCH  62  83
ATOM     83  C   UNL     1      -1.562  10.833  -7.166  1.00  0.00    -0.014 A 
ATOM     84  C   UNL     1      -0.653  11.900  -7.274  1.00  0.00     0.010 A 
ATOM     85  C   UNL     1      -2.941  11.096  -7.260  1.00  0.00     0.010 A 
ATOM     86  C   UNL     1      -1.116  13.209  -7.442  1.00  0.00     0.020 A 
ATOM     87  C   UNL     1      -3.407  12.399  -7.455  1.00  0.00     0.020 A 
ATOM     88  C   UNL     1      -2.491  13.450  -7.531  1.00  0.00     0.054 A 
BRANCH  88  89
ATOM     89  S   UNL     1      -3.066  15.151  -7.792  1.00  0.00     0.124 S 
ATOM     90  O   UNL     1      -2.860  15.747  -6.475  1.00  0.00    -0.237 OA
ATOM     91  O   UNL     1      -2.177  15.633  -8.846  1.00  0.00    -0.237 OA
ATOM     92  O   UNL     1      -4.462  14.987  -8.190  1.00  0.00    -0.744 OA
ENDBRANCH  88  89
ENDBRANCH  62  83
ENDBRANCH  36  37
ENDBRANCH  29  31
ENDBRANCH  28  29
ENDBRANCH  27  28
ENDBRANCH  26  27
ENDBRANCH  25  26
ENDBRANCH  24  25
ENDBRANCH   1  24
TORSDOF 26
