REMARK SMILES Cc1cc(N2C[C@H](C(=O)OCCOCCOCCOC(=O)c3ccc(-c4c5nc(c(-c6ccc(S(=O)(=O)[O-])cc6)c6ccc([nH]6)c(-c6ccc(S(=O)(=O)[O-])cc6)c6nc(c(-c7ccc(S(=O)(=O)[O-])cc7)c7ccc4[nH]7)C=C6)C=C5)cc3)CC2=O)cc(C)c1Br
REMARK SMILES IDX 15 1 14 2 13 3 12 4 11 5 10 6 8 7 9 8 7 9 5 10 6 11 83 12
REMARK SMILES IDX 82 13 84 14 4 15 1 16 2 17 3 18 88 19 86 20 89 21 85 22
REMARK SMILES IDX 87 23 16 24 17 25 18 26 19 27 20 28 21 29 22 30 23 31 81 32
REMARK SMILES IDX 24 33 80 34 25 35 26 36 27 37 74 38 28 39 79 40 73 41 75 42
REMARK SMILES IDX 29 43 78 44 72 45 71 46 30 48 60 49 41 50 59 51 42 52 45 53
REMARK SMILES IDX 58 54 76 55 43 56 44 57 57 59 77 60 46 61 31 62 32 63 40 64
REMARK SMILES IDX 33 65 39 66 34 67 35 68 36 69 37 70 38 71 61 72 62 73 70 74
REMARK SMILES IDX 63 75 69 76 64 77 65 78 66 79 67 80 68 81 47 82 48 83 56 84
REMARK SMILES IDX 49 85 55 86 50 87 51 88 52 89 53 90 54 91
REMARK H PARENT 75 47 45 58
REMARK Flexibility Score: inf
ROOT
ATOM      1  C   UNL     1       6.031   4.415   0.852  1.00  0.00     0.188 C 
ENDROOT
BRANCH   1   2
ATOM      2  C   UNL     1       7.469   3.997   0.549  1.00  0.00     0.188 C 
BRANCH   2   3
ATOM      3  O   UNL     1       8.068   4.613  -0.585  1.00  0.00    -0.376 OA
BRANCH   3   4
ATOM      4  C   UNL     1       7.362   4.518  -1.820  1.00  0.00     0.202 C 
BRANCH   4   5
ATOM      5  C   UNL     1       7.217   3.112  -2.425  1.00  0.00     0.261 C 
BRANCH   5   6
ATOM      6  O   UNL     1       6.615   2.136  -1.549  1.00  0.00    -0.463 OA
BRANCH   6   7
ATOM      7  C   UNL     1       7.423   1.124  -1.146  1.00  0.00     0.311 C 
ATOM      8  O   UNL     1       8.582   0.966  -1.518  1.00  0.00    -0.252 OA
BRANCH   7   9
ATOM      9  C   UNL     1       6.790   0.179  -0.146  1.00  0.00     0.128 C 
ATOM     10  N   UNL     1       4.499  -0.319  -0.368  1.00  0.00    -0.312 N 
ATOM     11  C   UNL     1       5.407   0.512   0.384  1.00  0.00     0.141 C 
ATOM     12  C   UNL     1       5.175  -1.296  -1.099  1.00  0.00     0.227 C 
ATOM     13  C   UNL     1       6.644  -1.191  -0.789  1.00  0.00     0.117 C 
ATOM     14  O   UNL     1       4.711  -2.135  -1.857  1.00  0.00    -0.274 OA
BRANCH  10  15
ATOM     15  C   UNL     1       3.091  -0.248  -0.223  1.00  0.00     0.044 A 
ATOM     16  C   UNL     1       0.170  -2.682  -0.140  1.00  0.00     0.045 C 
ATOM     17  C   UNL     1       0.917  -1.377  -0.135  1.00  0.00    -0.035 A 
ATOM     18  C   UNL     1       2.313  -1.408  -0.292  1.00  0.00     0.031 A 
ATOM     19  C   UNL     1       0.277  -0.136   0.016  1.00  0.00     0.023 A 
ATOM     20  C   UNL     1       1.033   1.049   0.084  1.00  0.00    -0.035 A 
ATOM     21  Br  UNL     1      -1.630  -0.059   0.109  1.00  0.00    -0.050 Br
ATOM     22  C   UNL     1       2.439   0.967   0.005  1.00  0.00     0.031 A 
ATOM     23  C   UNL     1       0.381   2.402   0.192  1.00  0.00     0.045 C 
ENDBRANCH  10  15
ENDBRANCH   7   9
ENDBRANCH   6   7
ENDBRANCH   5   6
ENDBRANCH   4   5
ENDBRANCH   3   4
ENDBRANCH   2   3
ENDBRANCH   1   2
BRANCH   1  24
ATOM     24  O   UNL     1       5.125   4.259  -0.227  1.00  0.00    -0.376 OA
BRANCH  24  25
ATOM     25  C   UNL     1       3.812   4.798  -0.093  1.00  0.00     0.202 C 
BRANCH  25  26
ATOM     26  C   UNL     1       3.554   6.062   0.749  1.00  0.00     0.261 C 
BRANCH  26  27
ATOM     27  O   UNL     1       4.094   6.085   2.084  1.00  0.00    -0.460 OA
BRANCH  27  28
ATOM     28  C   UNL     1       3.868   5.030   2.905  1.00  0.00     0.338 C 
ATOM     29  O   UNL     1       3.080   4.126   2.713  1.00  0.00    -0.246 OA
BRANCH  28  30
ATOM     30  C   UNL     1       4.964   5.010   3.925  1.00  0.00     0.060 A 
ATOM     31  C   UNL     1       5.477   3.768   4.332  1.00  0.00     0.016 A 
ATOM     32  C   UNL     1       5.561   6.185   4.394  1.00  0.00     0.016 A 
ATOM     33  C   UNL     1       6.556   3.699   5.223  1.00  0.00     0.010 A 
ATOM     34  C   UNL     1       6.628   6.116   5.298  1.00  0.00     0.010 A 
ATOM     35  C   UNL     1       7.113   4.873   5.744  1.00  0.00    -0.014 A 
BRANCH  35  36
ATOM     36  C   UNL     1       8.024   4.828   6.921  1.00  0.00     0.031 A 
ATOM     37  C   UNL     1       7.415   5.074   8.279  1.00  0.00     0.074 A 
ATOM     38  C   UNL     1       9.344   4.582   6.817  1.00  0.00     0.049 A 
ATOM     39  N   UNL     1       8.001   5.231   9.437  1.00  0.00    -0.248 NA
ATOM     40  C   UNL     1       5.944   5.157   8.332  1.00  0.00     0.031 C 
ATOM     41  C   UNL     1      10.058   4.252   5.585  1.00  0.00     0.029 A 
ATOM     42  N   UNL     1      10.328   4.588   7.781  1.00  0.00    -0.354 N 
ATOM     43  C   UNL     1       6.974   5.439  10.351  1.00  0.00     0.074 A 
ATOM     44  C   UNL     1       5.732   5.417   9.613  1.00  0.00     0.031 C 
ATOM     45  C   UNL     1      11.368   4.106   5.865  1.00  0.00     0.029 A 
ATOM     46  C   UNL     1      11.595   4.379   7.285  1.00  0.00     0.049 A 
ATOM     47  H   UNL     1      10.142   4.729   8.737  1.00  0.00     0.167 HD
ATOM     48  C   UNL     1       7.054   5.627  11.689  1.00  0.00     0.031 A 
ATOM     49  C   UNL     1      12.798   4.438   7.896  1.00  0.00     0.031 A 
ATOM     50  C   UNL     1       8.285   5.663  12.428  1.00  0.00     0.049 A 
ATOM     51  C   UNL     1      12.869   4.767   9.372  1.00  0.00     0.074 A 
ATOM     52  C   UNL     1       8.465   5.872  13.784  1.00  0.00     0.029 A 
ATOM     53  N   UNL     1       9.543   5.481  11.879  1.00  0.00    -0.354 N 
ATOM     54  N   UNL     1      11.891   4.977  10.221  1.00  0.00    -0.248 NA
ATOM     55  C   UNL     1      14.210   4.866   9.974  1.00  0.00     0.031 C 
ATOM     56  C   UNL     1       9.836   5.869  14.047  1.00  0.00     0.029 A 
ATOM     57  C   UNL     1      10.505   5.584  12.868  1.00  0.00     0.049 A 
ATOM     58  H   UNL     1       9.726   5.305  10.928  1.00  0.00     0.167 HD
ATOM     59  C   UNL     1      12.497   5.177  11.460  1.00  0.00     0.074 A 
ATOM     60  C   UNL     1      13.924   5.066  11.254  1.00  0.00     0.031 C 
ATOM     61  C   UNL     1      11.921   5.425  12.661  1.00  0.00     0.031 A 
BRANCH  48  62
ATOM     62  C   UNL     1       5.770   5.830  12.447  1.00  0.00    -0.014 A 
ATOM     63  C   UNL     1       4.884   4.760  12.667  1.00  0.00     0.010 A 
ATOM     64  C   UNL     1       5.486   7.086  13.013  1.00  0.00     0.010 A 
ATOM     65  C   UNL     1       3.728   4.948  13.428  1.00  0.00     0.020 A 
ATOM     66  C   UNL     1       4.346   7.270  13.799  1.00  0.00     0.020 A 
ATOM     67  C   UNL     1       3.470   6.200  13.995  1.00  0.00     0.054 A 
BRANCH  67  68
ATOM     68  S   UNL     1       1.993   6.395  15.028  1.00  0.00     0.124 S 
ATOM     69  O   UNL     1       0.920   6.304  14.040  1.00  0.00    -0.237 OA
ATOM     70  O   UNL     1       2.097   5.265  15.947  1.00  0.00    -0.237 OA
ATOM     71  O   UNL     1       2.166   7.711  15.638  1.00  0.00    -0.744 OA
ENDBRANCH  67  68
ENDBRANCH  48  62
BRANCH  49  72
ATOM     72  C   UNL     1      14.060   4.232   7.124  1.00  0.00    -0.014 A 
ATOM     73  C   UNL     1      14.916   3.153   7.412  1.00  0.00     0.010 A 
ATOM     74  C   UNL     1      14.452   5.163   6.144  1.00  0.00     0.010 A 
ATOM     75  C   UNL     1      16.156   3.036   6.773  1.00  0.00     0.020 A 
ATOM     76  C   UNL     1      15.674   5.030   5.476  1.00  0.00     0.020 A 
ATOM     77  C   UNL     1      16.529   3.980   5.812  1.00  0.00     0.054 A 
BRANCH  77  78
ATOM     78  S   UNL     1      18.143   3.813   4.999  1.00  0.00     0.124 S 
ATOM     79  O   UNL     1      19.061   4.195   6.067  1.00  0.00    -0.237 OA
ATOM     80  O   UNL     1      18.161   2.403   4.621  1.00  0.00    -0.237 OA
ATOM     81  O   UNL     1      18.060   4.751   3.881  1.00  0.00    -0.744 OA
ENDBRANCH  77  78
ENDBRANCH  49  72
BRANCH  61  82
ATOM     82  C   UNL     1      12.805   5.501  13.880  1.00  0.00    -0.014 A 
ATOM     83  C   UNL     1      13.637   6.606  14.126  1.00  0.00     0.010 A 
ATOM     84  C   UNL     1      12.707   4.488  14.855  1.00  0.00     0.010 A 
ATOM     85  C   UNL     1      14.362   6.691  15.319  1.00  0.00     0.020 A 
ATOM     86  C   UNL     1      13.406   4.584  16.060  1.00  0.00     0.020 A 
ATOM     87  C   UNL     1      14.235   5.685  16.283  1.00  0.00     0.054 A 
BRANCH  87  88
ATOM     88  S   UNL     1      15.117   5.865  17.858  1.00  0.00     0.124 S 
ATOM     89  O   UNL     1      16.504   5.647  17.459  1.00  0.00    -0.237 OA
ATOM     90  O   UNL     1      14.784   7.231  18.256  1.00  0.00    -0.237 OA
ATOM     91  O   UNL     1      14.540   4.820  18.702  1.00  0.00    -0.744 OA
ENDBRANCH  87  88
ENDBRANCH  61  82
ENDBRANCH  35  36
ENDBRANCH  28  30
ENDBRANCH  27  28
ENDBRANCH  26  27
ENDBRANCH  25  26
ENDBRANCH  24  25
ENDBRANCH   1  24
TORSDOF 21
