REMARK SMILES CC(C)[C@@H](NC(=O)c1ccc2[nH]nnc2c1)C(=O)OCCOCCOCCOC(=O)c1ccc(-c2c3nc(c(-c4ccc(S(=O)(=O)[O-])cc4)c4ccc([nH]4)c(-c4ccc(S(=O)(=O)[O-])cc4)c4nc(c(-c5ccc(S(=O)(=O)[O-])cc5)c5ccc2[nH]5)C=C4)C=C3)cc1
REMARK SMILES IDX 24 1 23 2 22 3 21 4 20 5 19 6 17 7 18 8 4 9 2 10 1 11 3 12
REMARK SMILES IDX 5 13 6 14 7 16 8 17 9 18 16 19 10 20 15 21 11 22 14 23 12 24
REMARK SMILES IDX 13 25 25 27 26 28 27 29 28 30 29 31 30 32 31 33 32 34 90 35
REMARK SMILES IDX 33 36 89 37 34 38 35 39 36 40 83 41 37 42 88 43 82 44 84 45
REMARK SMILES IDX 38 46 87 47 81 48 80 49 39 51 69 52 50 53 68 54 51 55 54 56
REMARK SMILES IDX 67 57 85 58 52 59 53 60 66 62 86 63 55 64 40 65 41 66 49 67
REMARK SMILES IDX 42 68 48 69 43 70 44 71 45 72 46 73 47 74 70 75 71 76 79 77
REMARK SMILES IDX 72 78 78 79 73 80 74 81 75 82 76 83 77 84 56 85 57 86 65 87
REMARK SMILES IDX 58 88 64 89 59 90 60 91 61 92 62 93 63 94
REMARK H PARENT 5 15 12 26 84 50 54 61
REMARK Flexibility Score: inf
ROOT
ATOM      1  C   UNL     1      -0.431  -0.525   5.234  1.00  0.00     0.188 C 
ENDROOT
BRANCH   1   2
ATOM      2  C   UNL     1      -1.791  -1.043   5.684  1.00  0.00     0.188 C 
BRANCH   2   3
ATOM      3  O   UNL     1      -1.774  -2.338   6.251  1.00  0.00    -0.376 OA
BRANCH   3   4
ATOM      4  C   UNL     1      -1.390  -3.409   5.384  1.00  0.00     0.202 C 
BRANCH   4   5
ATOM      5  C   UNL     1      -1.752  -3.345   3.892  1.00  0.00     0.261 C 
BRANCH   5   6
ATOM      6  O   UNL     1      -0.919  -2.676   2.912  1.00  0.00    -0.462 OA
BRANCH   6   7
ATOM      7  C   UNL     1      -1.488  -1.606   2.286  1.00  0.00     0.328 C 
ATOM      8  O   UNL     1      -2.421  -0.947   2.741  1.00  0.00    -0.250 OA
BRANCH   7   9
ATOM      9  C   UNL     1      -1.042  -1.367   0.840  1.00  0.00     0.195 C 
BRANCH   9  10
ATOM     10  C   UNL     1       0.493  -1.198   0.620  1.00  0.00     0.017 C 
ATOM     11  C   UNL     1       0.788  -0.470  -0.707  1.00  0.00     0.010 C 
ATOM     12  C   UNL     1       1.202  -0.407   1.724  1.00  0.00     0.010 C 
ENDBRANCH   9  10
BRANCH   9  13
ATOM     13  N   UNL     1      -1.608  -2.325  -0.151  1.00  0.00    -0.338 N 
ATOM     14  C   UNL     1      -2.816  -2.972  -0.261  1.00  0.00     0.252 C 
ATOM     15  H   UNL     1      -0.985  -2.540  -0.882  1.00  0.00     0.164 HD
ATOM     16  O   UNL     1      -3.200  -3.341  -1.368  1.00  0.00    -0.269 OA
BRANCH  14  17
ATOM     17  C   UNL     1      -3.575  -3.431   0.915  1.00  0.00     0.042 A 
ATOM     18  C   UNL     1      -4.510  -2.609   1.555  1.00  0.00     0.016 A 
ATOM     19  C   UNL     1      -3.355  -4.753   1.340  1.00  0.00     0.046 A 
ATOM     20  C   UNL     1      -5.170  -3.038   2.720  1.00  0.00     0.031 A 
ATOM     21  C   UNL     1      -3.990  -5.181   2.516  1.00  0.00     0.113 A 
ATOM     22  C   UNL     1      -4.847  -4.317   3.186  1.00  0.00     0.086 A 
ATOM     23  N   UNL     1      -3.834  -6.328   3.248  1.00  0.00    -0.130 NA
ATOM     24  N   UNL     1      -5.125  -4.994   4.343  1.00  0.00    -0.258 N 
ATOM     25  N   UNL     1      -4.516  -6.192   4.379  1.00  0.00    -0.069 NA
ATOM     26  H   UNL     1      -5.701  -4.645   5.061  1.00  0.00     0.192 HD
ENDBRANCH  14  17
ENDBRANCH   9  13
ENDBRANCH   7   9
ENDBRANCH   6   7
ENDBRANCH   5   6
ENDBRANCH   4   5
ENDBRANCH   3   4
ENDBRANCH   2   3
ENDBRANCH   1   2
BRANCH   1  27
ATOM     27  O   UNL     1       0.505  -1.514   4.852  1.00  0.00    -0.376 OA
BRANCH  27  28
ATOM     28  C   UNL     1       1.657  -1.826   5.629  1.00  0.00     0.202 C 
BRANCH  28  29
ATOM     29  C   UNL     1       1.872  -1.224   7.024  1.00  0.00     0.261 C 
BRANCH  29  30
ATOM     30  O   UNL     1       1.774   0.206   7.139  1.00  0.00    -0.460 OA
BRANCH  30  31
ATOM     31  C   UNL     1       2.249   0.972   6.124  1.00  0.00     0.338 C 
ATOM     32  O   UNL     1       3.087   0.660   5.307  1.00  0.00    -0.246 OA
BRANCH  31  33
ATOM     33  C   UNL     1       1.347   2.156   6.009  1.00  0.00     0.060 A 
ATOM     34  C   UNL     1       1.013   2.607   4.724  1.00  0.00     0.016 A 
ATOM     35  C   UNL     1       0.729   2.725   7.128  1.00  0.00     0.016 A 
ATOM     36  C   UNL     1       0.121   3.672   4.560  1.00  0.00     0.010 A 
ATOM     37  C   UNL     1      -0.161   3.790   6.965  1.00  0.00     0.010 A 
ATOM     38  C   UNL     1      -0.427   4.304   5.683  1.00  0.00    -0.014 A 
BRANCH  38  39
ATOM     39  C   UNL     1      -1.034   5.654   5.555  1.00  0.00     0.031 A 
ATOM     40  C   UNL     1      -0.164   6.836   5.900  1.00  0.00     0.074 A 
ATOM     41  C   UNL     1      -2.298   5.851   5.136  1.00  0.00     0.049 A 
ATOM     42  N   UNL     1      -0.464   8.107   5.947  1.00  0.00    -0.248 NA
ATOM     43  C   UNL     1       1.238   6.536   6.245  1.00  0.00     0.031 C 
ATOM     44  C   UNL     1      -3.230   4.809   4.714  1.00  0.00     0.029 A 
ATOM     45  N   UNL     1      -3.015   7.017   5.004  1.00  0.00    -0.354 N 
ATOM     46  C   UNL     1       0.702   8.753   6.345  1.00  0.00     0.074 A 
ATOM     47  C   UNL     1       1.704   7.734   6.557  1.00  0.00     0.031 C 
ATOM     48  C   UNL     1      -4.401   5.382   4.377  1.00  0.00     0.029 A 
ATOM     49  C   UNL     1      -4.315   6.826   4.597  1.00  0.00     0.049 A 
ATOM     50  H   UNL     1      -2.633   7.907   5.183  1.00  0.00     0.167 HD
ATOM     51  C   UNL     1       0.925  10.076   6.514  1.00  0.00     0.031 A 
ATOM     52  C   UNL     1      -5.324   7.711   4.446  1.00  0.00     0.031 A 
ATOM     53  C   UNL     1      -0.070  11.092   6.311  1.00  0.00     0.049 A 
ATOM     54  C   UNL     1      -5.077   9.176   4.719  1.00  0.00     0.074 A 
ATOM     55  C   UNL     1       0.063  12.463   6.447  1.00  0.00     0.029 A 
ATOM     56  N   UNL     1      -1.382  10.851   5.937  1.00  0.00    -0.354 N 
ATOM     57  N   UNL     1      -3.966   9.773   5.084  1.00  0.00    -0.248 NA
ATOM     58  C   UNL     1      -6.220  10.087   4.556  1.00  0.00     0.031 C 
ATOM     59  C   UNL     1      -1.187  13.045   6.219  1.00  0.00     0.029 A 
ATOM     60  C   UNL     1      -2.079  12.045   5.865  1.00  0.00     0.049 A 
ATOM     61  H   UNL     1      -1.762   9.963   5.749  1.00  0.00     0.167 HD
ATOM     62  C   UNL     1      -4.270  11.131   5.158  1.00  0.00     0.074 A 
ATOM     63  C   UNL     1      -5.664  11.267   4.792  1.00  0.00     0.031 C 
ATOM     64  C   UNL     1      -3.466  12.170   5.494  1.00  0.00     0.031 A 
BRANCH  51  65
ATOM     65  C   UNL     1       2.293  10.493   6.988  1.00  0.00    -0.014 A 
ATOM     66  C   UNL     1       3.423  10.382   6.157  1.00  0.00     0.010 A 
ATOM     67  C   UNL     1       2.443  11.025   8.281  1.00  0.00     0.010 A 
ATOM     68  C   UNL     1       4.684  10.759   6.627  1.00  0.00     0.020 A 
ATOM     69  C   UNL     1       3.696  11.434   8.742  1.00  0.00     0.020 A 
ATOM     70  C   UNL     1       4.812  11.282   7.917  1.00  0.00     0.054 A 
BRANCH  70  71
ATOM     71  S   UNL     1       6.457  11.784   8.492  1.00  0.00     0.124 S 
ATOM     72  O   UNL     1       7.120  10.494   8.668  1.00  0.00    -0.237 OA
ATOM     73  O   UNL     1       6.948  12.596   7.382  1.00  0.00    -0.237 OA
ATOM     74  O   UNL     1       6.185  12.517   9.726  1.00  0.00    -0.744 OA
ENDBRANCH  70  71
ENDBRANCH  51  65
BRANCH  52  75
ATOM     75  C   UNL     1      -6.678   7.238   4.038  1.00  0.00    -0.014 A 
ATOM     76  C   UNL     1      -7.220   7.585   2.787  1.00  0.00     0.010 A 
ATOM     77  C   UNL     1      -7.443   6.444   4.913  1.00  0.00     0.010 A 
ATOM     78  C   UNL     1      -8.502   7.158   2.425  1.00  0.00     0.020 A 
ATOM     79  C   UNL     1      -8.713   5.990   4.543  1.00  0.00     0.020 A 
ATOM     80  C   UNL     1      -9.238   6.358   3.303  1.00  0.00     0.054 A 
BRANCH  80  81
ATOM     81  S   UNL     1     -10.873   5.763   2.787  1.00  0.00     0.124 S 
ATOM     82  O   UNL     1     -11.674   6.982   2.845  1.00  0.00    -0.237 OA
ATOM     83  O   UNL     1     -10.608   5.241   1.449  1.00  0.00    -0.237 OA
ATOM     84  O   UNL     1     -11.200   4.750   3.788  1.00  0.00    -0.744 OA
ENDBRANCH  80  81
ENDBRANCH  52  75
BRANCH  64  85
ATOM     85  C   UNL     1      -4.046  13.561   5.437  1.00  0.00    -0.014 A 
ATOM     86  C   UNL     1      -4.990  14.005   6.380  1.00  0.00     0.010 A 
ATOM     87  C   UNL     1      -3.578  14.463   4.463  1.00  0.00     0.010 A 
ATOM     88  C   UNL     1      -5.476  15.316   6.330  1.00  0.00     0.020 A 
ATOM     89  C   UNL     1      -4.036  15.782   4.429  1.00  0.00     0.020 A 
ATOM     90  C   UNL     1      -4.994  16.197   5.356  1.00  0.00     0.054 A 
BRANCH  90  91
ATOM     91  S   UNL     1      -5.604  17.905   5.344  1.00  0.00     0.124 S 
ATOM     92  O   UNL     1      -6.971  17.737   4.860  1.00  0.00    -0.237 OA
ATOM     93  O   UNL     1      -5.477  18.300   6.745  1.00  0.00    -0.237 OA
ATOM     94  O   UNL     1      -4.698  18.592   4.425  1.00  0.00    -0.744 OA
ENDBRANCH  90  91
ENDBRANCH  64  85
ENDBRANCH  38  39
ENDBRANCH  31  33
ENDBRANCH  30  31
ENDBRANCH  29  30
ENDBRANCH  28  29
ENDBRANCH  27  28
ENDBRANCH   1  27
TORSDOF 23
