REMARK SMILES O=C(OCCOCCOCCOC(=O)c1ccc(-c2c3nc(c(-c4ccc(S(=O)(=O)[O-])cc4)c4ccc([nH]4)c(-c4ccc(S(=O)(=O)[O-])cc4)c4nc(c(-c5ccc(S(=O)(=O)[O-])cc5)c5ccc2[nH]5)C=C4)C=C3)cc1)c1ccc(N/C=C\C(=O)c2ccco2)cc1
REMARK SMILES IDX 7 1 6 2 5 3 4 4 3 5 2 6 1 7 75 8 76 9 90 10 77 11 89 12
REMARK SMILES IDX 78 13 79 14 80 16 81 17 82 18 83 19 84 20 85 21 88 22 86 23
REMARK SMILES IDX 87 24 8 25 9 26 10 27 11 28 12 29 13 30 14 31 15 32 16 33
REMARK SMILES IDX 74 34 17 35 73 36 18 37 19 38 20 39 67 40 21 41 72 42 66 43
REMARK SMILES IDX 68 44 22 45 71 46 65 47 64 48 23 50 53 51 34 52 52 53 35 54
REMARK SMILES IDX 38 55 51 56 69 57 36 58 37 59 50 61 70 62 39 63 24 64 25 65
REMARK SMILES IDX 33 66 26 67 32 68 27 69 28 70 29 71 30 72 31 73 54 74 55 75
REMARK SMILES IDX 63 76 56 77 62 78 57 79 58 80 59 81 60 82 61 83 40 84 41 85
REMARK SMILES IDX 49 86 42 87 48 88 43 89 44 90 45 91 46 92 47 93
REMARK H PARENT 79 15 68 49 38 60
REMARK Flexibility Score: inf
ROOT
ATOM      1  C   UNL     1       2.603   1.085  -1.985  1.00  0.00     0.188 C 
ENDROOT
BRANCH   1   2
ATOM      2  O   UNL     1       3.899   0.983  -1.381  1.00  0.00    -0.376 OA
BRANCH   2   3
ATOM      3  C   UNL     1       4.658  -0.144  -1.818  1.00  0.00     0.202 C 
BRANCH   3   4
ATOM      4  C   UNL     1       4.553  -1.348  -0.880  1.00  0.00     0.261 C 
BRANCH   4   5
ATOM      5  O   UNL     1       3.191  -1.577  -0.494  1.00  0.00    -0.460 OA
BRANCH   5   6
ATOM      6  C   UNL     1       2.582  -1.217   0.663  1.00  0.00     0.338 C 
ATOM      7  O   UNL     1       1.396  -1.511   0.807  1.00  0.00    -0.246 OA
BRANCH   6   8
ATOM      8  C   UNL     1       3.277  -0.532   1.799  1.00  0.00     0.060 A 
ATOM      9  C   UNL     1       4.330   0.379   1.692  1.00  0.00     0.018 A 
ATOM     10  C   UNL     1       2.760  -0.773   3.079  1.00  0.00     0.018 A 
ATOM     11  C   UNL     1       4.906   0.969   2.827  1.00  0.00     0.027 A 
ATOM     12  C   UNL     1       3.312  -0.156   4.207  1.00  0.00     0.027 A 
ATOM     13  C   UNL     1       4.410   0.707   4.101  1.00  0.00     0.038 A 
BRANCH  13  14
ATOM     14  N   UNL     1       4.984   1.206   5.278  1.00  0.00    -0.362 N 
ATOM     15  H   UNL     1       4.441   1.099   6.092  1.00  0.00     0.166 HD
BRANCH  14  16
ATOM     16  C   UNL     1       6.194   1.820   5.455  1.00  0.00     0.087 C 
ATOM     17  C   UNL     1       7.005   1.792   6.522  1.00  0.00     0.074 C 
BRANCH  17  18
ATOM     18  C   UNL     1       6.862   0.958   7.756  1.00  0.00     0.222 C 
ATOM     19  O   UNL     1       7.649   1.174   8.678  1.00  0.00    -0.286 OA
BRANCH  18  20
ATOM     20  C   UNL     1       5.901  -0.118   7.759  1.00  0.00     0.173 A 
ATOM     21  C   UNL     1       5.982  -1.419   7.299  1.00  0.00     0.054 A 
ATOM     22  O   UNL     1       4.624   0.141   8.181  1.00  0.00    -0.461 OA
ATOM     23  C   UNL     1       4.701  -1.992   7.478  1.00  0.00     0.043 A 
ATOM     24  C   UNL     1       3.918  -1.012   8.038  1.00  0.00     0.196 A 
ENDBRANCH  18  20
ENDBRANCH  17  18
ENDBRANCH  14  16
ENDBRANCH  13  14
ENDBRANCH   6   8
ENDBRANCH   5   6
ENDBRANCH   4   5
ENDBRANCH   3   4
ENDBRANCH   2   3
ENDBRANCH   1   2
BRANCH   1  25
ATOM     25  C   UNL     1       2.147   2.548  -2.006  1.00  0.00     0.188 C 
BRANCH  25  26
ATOM     26  O   UNL     1       2.824   3.356  -2.974  1.00  0.00    -0.376 OA
BRANCH  26  27
ATOM     27  C   UNL     1       4.207   3.609  -2.737  1.00  0.00     0.202 C 
BRANCH  27  28
ATOM     28  C   UNL     1       4.523   4.710  -1.719  1.00  0.00     0.261 C 
BRANCH  28  29
ATOM     29  O   UNL     1       4.061   4.436  -0.384  1.00  0.00    -0.460 OA
BRANCH  29  30
ATOM     30  C   UNL     1       3.070   5.256   0.043  1.00  0.00     0.338 C 
ATOM     31  O   UNL     1       2.509   6.133  -0.599  1.00  0.00    -0.246 OA
BRANCH  30  32
ATOM     32  C   UNL     1       2.701   4.976   1.439  1.00  0.00     0.060 A 
ATOM     33  C   UNL     1       1.459   4.391   1.705  1.00  0.00     0.016 A 
ATOM     34  C   UNL     1       3.466   5.518   2.476  1.00  0.00     0.016 A 
ATOM     35  C   UNL     1       0.949   4.405   3.006  1.00  0.00     0.010 A 
ATOM     36  C   UNL     1       2.953   5.527   3.779  1.00  0.00     0.010 A 
ATOM     37  C   UNL     1       1.670   5.017   4.043  1.00  0.00    -0.014 A 
BRANCH  37  38
ATOM     38  C   UNL     1       1.024   5.261   5.360  1.00  0.00     0.031 A 
ATOM     39  C   UNL     1       0.479   6.632   5.680  1.00  0.00     0.074 A 
ATOM     40  C   UNL     1       0.906   4.275   6.268  1.00  0.00     0.049 A 
ATOM     41  N   UNL     1      -0.089   7.063   6.779  1.00  0.00    -0.248 NA
ATOM     42  C   UNL     1       0.591   7.652   4.624  1.00  0.00     0.031 C 
ATOM     43  C   UNL     1       1.371   2.900   6.094  1.00  0.00     0.029 A 
ATOM     44  N   UNL     1       0.360   4.291   7.527  1.00  0.00    -0.354 N 
ATOM     45  C   UNL     1      -0.398   8.400   6.551  1.00  0.00     0.074 A 
ATOM     46  C   UNL     1       0.071   8.717   5.218  1.00  0.00     0.031 C 
ATOM     47  C   UNL     1       1.096   2.204   7.212  1.00  0.00     0.029 A 
ATOM     48  C   UNL     1       0.453   3.088   8.183  1.00  0.00     0.049 A 
ATOM     49  H   UNL     1      -0.059   5.089   7.923  1.00  0.00     0.167 HD
ATOM     50  C   UNL     1      -1.019   9.286   7.367  1.00  0.00     0.031 A 
ATOM     51  C   UNL     1       0.073   2.740   9.427  1.00  0.00     0.031 A 
ATOM     52  C   UNL     1      -1.482   8.990   8.697  1.00  0.00     0.049 A 
ATOM     53  C   UNL     1      -0.585   3.747  10.328  1.00  0.00     0.074 A 
ATOM     54  C   UNL     1      -2.126   9.829   9.593  1.00  0.00     0.029 A 
ATOM     55  N   UNL     1      -1.355   7.762   9.325  1.00  0.00    -0.354 N 
ATOM     56  N   UNL     1      -0.862   5.006  10.095  1.00  0.00    -0.248 NA
ATOM     57  C   UNL     1      -0.988   3.274  11.661  1.00  0.00     0.031 C 
ATOM     58  C   UNL     1      -2.358   9.116  10.775  1.00  0.00     0.029 A 
ATOM     59  C   UNL     1      -1.897   7.822  10.599  1.00  0.00     0.049 A 
ATOM     60  H   UNL     1      -0.940   6.964   8.925  1.00  0.00     0.167 HD
ATOM     61  C   UNL     1      -1.479   5.474  11.250  1.00  0.00     0.074 A 
ATOM     62  C   UNL     1      -1.551   4.361  12.173  1.00  0.00     0.031 C 
ATOM     63  C   UNL     1      -1.947   6.718  11.519  1.00  0.00     0.031 A 
BRANCH  50  64
ATOM     64  C   UNL     1      -1.225  10.681   6.843  1.00  0.00    -0.014 A 
ATOM     65  C   UNL     1      -2.221  10.953   5.888  1.00  0.00     0.010 A 
ATOM     66  C   UNL     1      -0.447  11.740   7.345  1.00  0.00     0.010 A 
ATOM     67  C   UNL     1      -2.412  12.255   5.418  1.00  0.00     0.020 A 
ATOM     68  C   UNL     1      -0.649  13.047   6.891  1.00  0.00     0.020 A 
ATOM     69  C   UNL     1      -1.620  13.293   5.918  1.00  0.00     0.054 A 
BRANCH  69  70
ATOM     70  S   UNL     1      -1.901  14.979   5.310  1.00  0.00     0.124 S 
ATOM     71  O   UNL     1      -1.251  14.940   4.003  1.00  0.00    -0.237 OA
ATOM     72  O   UNL     1      -3.359  15.075   5.283  1.00  0.00    -0.237 OA
ATOM     73  O   UNL     1      -1.245  15.820   6.308  1.00  0.00    -0.744 OA
ENDBRANCH  69  70
ENDBRANCH  50  64
BRANCH  51  74
ATOM     74  C   UNL     1       0.316   1.361   9.917  1.00  0.00    -0.014 A 
ATOM     75  C   UNL     1      -0.725   0.418   9.931  1.00  0.00     0.010 A 
ATOM     76  C   UNL     1       1.588   0.998  10.389  1.00  0.00     0.010 A 
ATOM     77  C   UNL     1      -0.496  -0.876  10.405  1.00  0.00     0.020 A 
ATOM     78  C   UNL     1       1.819  -0.296  10.862  1.00  0.00     0.020 A 
ATOM     79  C   UNL     1       0.776  -1.226  10.863  1.00  0.00     0.054 A 
BRANCH  79  80
ATOM     80  S   UNL     1       1.110  -2.939  11.358  1.00  0.00     0.124 S 
ATOM     81  O   UNL     1       0.847  -2.900  12.792  1.00  0.00    -0.237 OA
ATOM     82  O   UNL     1       0.156  -3.703  10.558  1.00  0.00    -0.237 OA
ATOM     83  O   UNL     1       2.508  -3.122  10.971  1.00  0.00    -0.744 OA
ENDBRANCH  79  80
ENDBRANCH  51  74
BRANCH  63  84
ATOM     84  C   UNL     1      -2.589   6.935  12.862  1.00  0.00    -0.014 A 
ATOM     85  C   UNL     1      -1.811   7.037  14.029  1.00  0.00     0.010 A 
ATOM     86  C   UNL     1      -3.987   7.058  12.955  1.00  0.00     0.010 A 
ATOM     87  C   UNL     1      -2.424   7.224  15.272  1.00  0.00     0.020 A 
ATOM     88  C   UNL     1      -4.601   7.264  14.193  1.00  0.00     0.020 A 
ATOM     89  C   UNL     1      -3.816   7.329  15.347  1.00  0.00     0.054 A 
BRANCH  89  90
ATOM     90  S   UNL     1      -4.592   7.593  16.965  1.00  0.00     0.124 S 
ATOM     91  O   UNL     1      -4.574   6.248  17.534  1.00  0.00    -0.237 OA
ATOM     92  O   UNL     1      -3.697   8.556  17.602  1.00  0.00    -0.237 OA
ATOM     93  O   UNL     1      -5.917   8.111  16.631  1.00  0.00    -0.744 OA
ENDBRANCH  89  90
ENDBRANCH  63  84
ENDBRANCH  37  38
ENDBRANCH  30  32
ENDBRANCH  29  30
ENDBRANCH  28  29
ENDBRANCH  27  28
ENDBRANCH  26  27
ENDBRANCH  25  26
ENDBRANCH   1  25
TORSDOF 24
