REMARK SMILES O=C(OCCOCCOCCOC(=O)c1ccc(-c2c3nc(c(-c4ccc(S(=O)(=O)[O-])cc4)c4ccc([nH]4)c(-c4ccc(S(=O)(=O)[O-])cc4)c4nc(c(-c5ccc(S(=O)(=O)[O-])cc5)c5ccc2[nH]5)C=C4)C=C3)cc1)C(=O)N1CC[N@H+]2CCC[C@H]2C1
REMARK SMILES IDX 8 1 7 2 6 3 5 4 4 5 3 6 2 7 1 8 75 9 76 10 77 11 78 12 85 13
REMARK SMILES IDX 79 14 84 15 80 16 83 17 81 18 82 20 9 21 10 22 11 23 12 24
REMARK SMILES IDX 13 25 14 26 15 27 16 28 74 29 17 30 73 31 18 32 19 33 20 34
REMARK SMILES IDX 67 35 21 36 72 37 66 38 68 39 22 40 71 41 65 42 64 43 23 45
REMARK SMILES IDX 53 46 34 47 52 48 35 49 38 50 51 51 69 52 36 53 37 54 50 56
REMARK SMILES IDX 70 57 39 58 24 59 25 60 33 61 26 62 32 63 27 64 28 65 29 66
REMARK SMILES IDX 30 67 31 68 54 69 55 70 63 71 56 72 62 73 57 74 58 75 59 76
REMARK SMILES IDX 60 77 61 78 40 79 41 80 49 81 42 82 48 83 43 84 44 85 45 86
REMARK SMILES IDX 46 87 47 88
REMARK H PARENT 80 19 68 44 38 55
REMARK Flexibility Score: inf
ROOT
ATOM      1  C   UNL     1       2.055  -0.910  -2.771  1.00  0.00     0.188 C 
ENDROOT
BRANCH   1   2
ATOM      2  C   UNL     1       3.160  -0.096  -2.093  1.00  0.00     0.188 C 
BRANCH   2   3
ATOM      3  O   UNL     1       4.427  -0.747  -1.926  1.00  0.00    -0.376 OA
BRANCH   3   4
ATOM      4  C   UNL     1       4.473  -1.915  -1.102  1.00  0.00     0.202 C 
BRANCH   4   5
ATOM      5  C   UNL     1       4.394  -1.678   0.418  1.00  0.00     0.262 C 
BRANCH   5   6
ATOM      6  O   UNL     1       3.075  -1.235   0.775  1.00  0.00    -0.456 OA
BRANCH   6   7
ATOM      7  C   UNL     1       2.778   0.024   1.142  1.00  0.00     0.397 C 
ATOM      8  O   UNL     1       1.679   0.510   0.892  1.00  0.00    -0.240 OA
BRANCH   7   9
ATOM      9  C   UNL     1       3.731   0.799   2.057  1.00  0.00     0.332 C 
ATOM     10  O   UNL     1       3.519   0.679   3.265  1.00  0.00    -0.261 OA
BRANCH   9  11
ATOM     11  N   UNL     1       4.697   1.678   1.539  1.00  0.00    -0.321 N 
ATOM     12  C   UNL     1       5.444   1.515   0.291  1.00  0.00     0.181 C 
ATOM     13  C   UNL     1       5.472   2.412   2.522  1.00  0.00     0.185 C 
ATOM     14  C   UNL     1       6.931   1.098   0.584  1.00  0.00     0.284 C 
ATOM     15  C   UNL     1       6.593   1.471   3.005  1.00  0.00     0.204 C 
ATOM     16  N   UNL     1       7.133   0.565   1.948  1.00  0.00    -0.330 N 
ATOM     17  C   UNL     1       7.772   2.221   3.606  1.00  0.00     0.073 C 
ATOM     18  C   UNL     1       8.525   0.312   2.309  1.00  0.00     0.262 C 
ATOM     19  H   UNL     1       6.626  -0.319   1.911  1.00  0.00     0.348 HD
ATOM     20  C   UNL     1       9.014   1.538   3.060  1.00  0.00     0.068 C 
ENDBRANCH   9  11
ENDBRANCH   7   9
ENDBRANCH   6   7
ENDBRANCH   5   6
ENDBRANCH   4   5
ENDBRANCH   3   4
ENDBRANCH   2   3
ENDBRANCH   1   2
BRANCH   1  21
ATOM     21  O   UNL     1       2.134  -0.984  -4.194  1.00  0.00    -0.376 OA
BRANCH  21  22
ATOM     22  C   UNL     1       3.393  -1.365  -4.727  1.00  0.00     0.202 C 
BRANCH  22  23
ATOM     23  C   UNL     1       4.125  -0.207  -5.431  1.00  0.00     0.261 C 
BRANCH  23  24
ATOM     24  O   UNL     1       3.870   1.093  -4.871  1.00  0.00    -0.460 OA
BRANCH  24  25
ATOM     25  C   UNL     1       2.716   1.668  -5.279  1.00  0.00     0.338 C 
ATOM     26  O   UNL     1       1.932   1.234  -6.126  1.00  0.00    -0.246 OA
BRANCH  25  27
ATOM     27  C   UNL     1       2.465   2.916  -4.539  1.00  0.00     0.060 A 
ATOM     28  C   UNL     1       1.273   3.051  -3.817  1.00  0.00     0.016 A 
ATOM     29  C   UNL     1       3.329   4.006  -4.683  1.00  0.00     0.016 A 
ATOM     30  C   UNL     1       0.905   4.298  -3.301  1.00  0.00     0.010 A 
ATOM     31  C   UNL     1       2.956   5.254  -4.169  1.00  0.00     0.010 A 
ATOM     32  C   UNL     1       1.718   5.420  -3.522  1.00  0.00    -0.014 A 
BRANCH  32  33
ATOM     33  C   UNL     1       1.193   6.787  -3.258  1.00  0.00     0.031 A 
ATOM     34  C   UNL     1       0.640   7.589  -4.412  1.00  0.00     0.074 A 
ATOM     35  C   UNL     1       1.183   7.314  -2.019  1.00  0.00     0.049 A 
ATOM     36  N   UNL     1       0.162   8.808  -4.423  1.00  0.00    -0.248 NA
ATOM     37  C   UNL     1       0.628   6.927  -5.727  1.00  0.00     0.031 C 
ATOM     38  C   UNL     1       1.643   6.638  -0.808  1.00  0.00     0.029 A 
ATOM     39  N   UNL     1       0.770   8.549  -1.580  1.00  0.00    -0.354 N 
ATOM     40  C   UNL     1      -0.203   9.060  -5.742  1.00  0.00     0.074 A 
ATOM     41  C   UNL     1       0.137   7.880  -6.506  1.00  0.00     0.031 C 
ATOM     42  C   UNL     1       1.492   7.470   0.238  1.00  0.00     0.029 A 
ATOM     43  C   UNL     1       0.953   8.746  -0.232  1.00  0.00     0.049 A 
ATOM     44  H   UNL     1       0.380   9.229  -2.176  1.00  0.00     0.167 HD
ATOM     45  C   UNL     1      -0.777  10.167  -6.271  1.00  0.00     0.031 A 
ATOM     46  C   UNL     1       0.728   9.834   0.534  1.00  0.00     0.031 A 
ATOM     47  C   UNL     1      -1.111  11.348  -5.520  1.00  0.00     0.049 A 
ATOM     48  C   UNL     1       0.157  11.082  -0.090  1.00  0.00     0.074 A 
ATOM     49  C   UNL     1      -1.706  12.514  -5.970  1.00  0.00     0.029 A 
ATOM     50  N   UNL     1      -0.873  11.518  -4.165  1.00  0.00    -0.354 N 
ATOM     51  N   UNL     1      -0.199  11.296  -1.334  1.00  0.00    -0.248 NA
ATOM     52  C   UNL     1      -0.048  12.237   0.799  1.00  0.00     0.031 C 
ATOM     53  C   UNL     1      -1.781  13.410  -4.898  1.00  0.00     0.029 A 
ATOM     54  C   UNL     1      -1.285  12.780  -3.768  1.00  0.00     0.049 A 
ATOM     55  H   UNL     1      -0.471  10.842  -3.573  1.00  0.00     0.167 HD
ATOM     56  C   UNL     1      -0.695  12.596  -1.370  1.00  0.00     0.074 A 
ATOM     57  C   UNL     1      -0.603  13.118  -0.023  1.00  0.00     0.031 C 
ATOM     58  C   UNL     1      -1.188  13.292  -2.425  1.00  0.00     0.031 A 
BRANCH  45  59
ATOM     59  C   UNL     1      -1.054  10.165  -7.752  1.00  0.00    -0.014 A 
ATOM     60  C   UNL     1      -2.093   9.389  -8.298  1.00  0.00     0.010 A 
ATOM     61  C   UNL     1      -0.286  10.979  -8.604  1.00  0.00     0.010 A 
ATOM     62  C   UNL     1      -2.333   9.399  -9.675  1.00  0.00     0.020 A 
ATOM     63  C   UNL     1      -0.540  11.011  -9.978  1.00  0.00     0.020 A 
ATOM     64  C   UNL     1      -1.552  10.207 -10.507  1.00  0.00     0.054 A 
BRANCH  64  65
ATOM     65  S   UNL     1      -1.895  10.215 -12.289  1.00  0.00     0.124 S 
ATOM     66  O   UNL     1      -1.359   8.921 -12.704  1.00  0.00    -0.237 OA
ATOM     67  O   UNL     1      -3.350  10.336 -12.336  1.00  0.00    -0.237 OA
ATOM     68  O   UNL     1      -1.160  11.378 -12.778  1.00  0.00    -0.744 OA
ENDBRANCH  64  65
ENDBRANCH  45  59
BRANCH  46  69
ATOM     69  C   UNL     1       1.067   9.804   1.984  1.00  0.00    -0.014 A 
ATOM     70  C   UNL     1       0.057   9.811   2.961  1.00  0.00     0.010 A 
ATOM     71  C   UNL     1       2.413   9.779   2.393  1.00  0.00     0.010 A 
ATOM     72  C   UNL     1       0.386   9.809   4.321  1.00  0.00     0.020 A 
ATOM     73  C   UNL     1       2.746   9.751   3.749  1.00  0.00     0.020 A 
ATOM     74  C   UNL     1       1.730   9.778   4.706  1.00  0.00     0.054 A 
BRANCH  74  75
ATOM     75  S   UNL     1       2.139   9.728   6.473  1.00  0.00     0.124 S 
ATOM     76  O   UNL     1       1.893  11.107   6.882  1.00  0.00    -0.237 OA
ATOM     77  O   UNL     1       1.198   8.736   6.989  1.00  0.00    -0.237 OA
ATOM     78  O   UNL     1       3.540   9.311   6.486  1.00  0.00    -0.744 OA
ENDBRANCH  74  75
ENDBRANCH  46  69
BRANCH  58  79
ATOM     79  C   UNL     1      -1.698  14.686  -2.168  1.00  0.00    -0.014 A 
ATOM     80  C   UNL     1      -0.816  15.754  -1.925  1.00  0.00     0.010 A 
ATOM     81  C   UNL     1      -3.080  14.942  -2.232  1.00  0.00     0.010 A 
ATOM     82  C   UNL     1      -1.309  17.047  -1.722  1.00  0.00     0.020 A 
ATOM     83  C   UNL     1      -3.575  16.238  -2.055  1.00  0.00     0.020 A 
ATOM     84  C   UNL     1      -2.687  17.280  -1.788  1.00  0.00     0.054 A 
BRANCH  84  85
ATOM     85  S   UNL     1      -3.299  18.974  -1.567  1.00  0.00     0.124 S 
ATOM     86  O   UNL     1      -3.160  19.162  -0.126  1.00  0.00    -0.237 OA
ATOM     87  O   UNL     1      -2.385  19.758  -2.394  1.00  0.00    -0.237 OA
ATOM     88  O   UNL     1      -4.674  18.912  -2.058  1.00  0.00    -0.744 OA
ENDBRANCH  84  85
ENDBRANCH  58  79
ENDBRANCH  32  33
ENDBRANCH  25  27
ENDBRANCH  24  25
ENDBRANCH  23  24
ENDBRANCH  22  23
ENDBRANCH  21  22
ENDBRANCH   1  21
TORSDOF 21
