REMARK SMILES O=C(OCCOCCOCCOC(=O)c1ccc(-c2c3nc(c(-c4ccc(S(=O)(=O)[O-])cc4)c4ccc([nH]4)c(-c4ccc(S(=O)(=O)[O-])cc4)c4nc(c(-c5ccc(S(=O)(=O)[O-])cc5)c5ccc2[nH]5)C=C4)C=C3)cc1)C1=Cc2cc(Cl)cc(-c3ccc(Cl)cc3)c2O[C@@H]1C(F)(F)F
REMARK SMILES IDX 8 1 7 2 6 3 5 4 4 5 3 6 2 7 1 8 75 9 76 10 92 11 77 12 91 13
REMARK SMILES IDX 78 14 90 15 79 16 82 17 80 18 81 19 93 20 94 21 95 22 96 23
REMARK SMILES IDX 83 24 84 25 89 26 85 27 88 28 86 29 87 30 9 31 10 32 11 33
REMARK SMILES IDX 12 34 13 35 14 36 15 37 16 38 74 39 17 40 73 41 18 42 19 43
REMARK SMILES IDX 20 44 67 45 21 46 72 47 66 48 68 49 22 50 71 51 65 52 64 53
REMARK SMILES IDX 23 55 53 56 34 57 52 58 35 59 38 60 51 61 69 62 36 63 37 64
REMARK SMILES IDX 50 66 70 67 39 68 24 69 25 70 33 71 26 72 32 73 27 74 28 75
REMARK SMILES IDX 29 76 30 77 31 78 54 79 55 80 63 81 56 82 62 83 57 84 58 85
REMARK SMILES IDX 59 86 60 87 61 88 40 89 41 90 49 91 42 92 48 93 43 94 44 95
REMARK SMILES IDX 45 96 46 97 47 98
REMARK H PARENT 68 54 38 65
REMARK Flexibility Score: inf
ROOT
ATOM      1  C   UNL     1       1.467  -2.490   2.310  1.00  0.00     0.188 C 
ENDROOT
BRANCH   1   2
ATOM      2  C   UNL     1       2.087  -1.984   0.998  1.00  0.00     0.188 C 
BRANCH   2   3
ATOM      3  O   UNL     1       3.573  -2.042   0.677  1.00  0.00    -0.376 OA
BRANCH   3   4
ATOM      4  C   UNL     1       4.484  -0.875  -0.305  1.00  0.00     0.202 C 
BRANCH   4   5
ATOM      5  C   UNL     1       3.904   1.219  -0.415  1.00  0.00     0.261 C 
BRANCH   5   6
ATOM      6  O   UNL     1       2.955   1.838  -1.433  1.00  0.00    -0.460 OA
BRANCH   6   7
ATOM      7  C   UNL     1       3.099   1.287  -2.650  1.00  0.00     0.338 C 
ATOM      8  O   UNL     1       2.370   1.416  -3.602  1.00  0.00    -0.246 OA
BRANCH   7   9
ATOM      9  C   UNL     1       3.954   0.182  -2.238  1.00  0.00     0.087 C 
ATOM     10  C   UNL     1       5.348   0.476  -2.000  1.00  0.00     0.027 C 
ATOM     11  C   UNL     1       2.721  -0.389  -0.901  1.00  0.00     0.316 C 
ATOM     12  C   UNL     1       6.071   0.676  -0.381  1.00  0.00     0.019 A 
ATOM     13  O   UNL     1       3.419  -0.002   0.902  1.00  0.00    -0.475 OA
ATOM     14  C   UNL     1       7.372   1.104  -0.339  1.00  0.00     0.032 A 
ATOM     15  C   UNL     1       5.170   0.518   1.094  1.00  0.00     0.135 A 
ATOM     16  C   UNL     1       7.884   1.323   0.940  1.00  0.00     0.042 A 
ATOM     17  C   UNL     1       5.784   0.716   2.324  1.00  0.00     0.026 A 
ATOM     18  Cl  UNL     1       9.523   1.870   1.060  1.00  0.00    -0.084 Cl
ATOM     19  C   UNL     1       7.151   1.127   2.168  1.00  0.00     0.033 A 
BRANCH  11  20
ATOM     20  C   UNL     1       2.470  -1.887  -1.754  1.00  0.00     0.430 C 
ATOM     21  F   UNL     1       2.804  -3.061  -1.191  1.00  0.00    -0.167 F 
ATOM     22  F   UNL     1       1.171  -1.973  -2.134  1.00  0.00    -0.167 F 
ATOM     23  F   UNL     1       3.184  -1.911  -2.923  1.00  0.00    -0.167 F 
ENDBRANCH  11  20
BRANCH  17  24
ATOM     24  C   UNL     1       5.349   0.532   3.707  1.00  0.00    -0.015 A 
ATOM     25  C   UNL     1       4.700   1.548   4.418  1.00  0.00     0.010 A 
ATOM     26  C   UNL     1       5.806  -0.586   4.441  1.00  0.00     0.010 A 
ATOM     27  C   UNL     1       4.406   1.397   5.781  1.00  0.00     0.021 A 
ATOM     28  C   UNL     1       5.488  -0.755   5.795  1.00  0.00     0.021 A 
ATOM     29  C   UNL     1       4.761   0.229   6.452  1.00  0.00     0.041 A 
ATOM     30  Cl  UNL     1       4.288  -0.005   8.089  1.00  0.00    -0.084 Cl
ENDBRANCH  17  24
ENDBRANCH   7   9
ENDBRANCH   6   7
ENDBRANCH   5   6
ENDBRANCH   4   5
ENDBRANCH   3   4
ENDBRANCH   2   3
ENDBRANCH   1   2
BRANCH   1  31
ATOM     31  O   UNL     1       2.046  -2.120   3.529  1.00  0.00    -0.376 OA
BRANCH  31  32
ATOM     32  C   UNL     1       3.439  -2.322   3.597  1.00  0.00     0.202 C 
BRANCH  32  33
ATOM     33  C   UNL     1       4.026  -3.731   3.475  1.00  0.00     0.261 C 
BRANCH  33  34
ATOM     34  O   UNL     1       3.735  -4.396   2.243  1.00  0.00    -0.460 OA
BRANCH  34  35
ATOM     35  C   UNL     1       2.754  -5.328   2.285  1.00  0.00     0.338 C 
ATOM     36  O   UNL     1       2.103  -5.684   3.250  1.00  0.00    -0.246 OA
BRANCH  35  37
ATOM     37  C   UNL     1       2.471  -5.722   0.897  1.00  0.00     0.060 A 
ATOM     38  C   UNL     1       1.251  -5.376   0.292  1.00  0.00     0.016 A 
ATOM     39  C   UNL     1       3.432  -6.458   0.211  1.00  0.00     0.016 A 
ATOM     40  C   UNL     1       0.994  -5.755  -1.022  1.00  0.00     0.010 A 
ATOM     41  C   UNL     1       3.154  -6.883  -1.081  1.00  0.00     0.010 A 
ATOM     42  C   UNL     1       1.927  -6.555  -1.686  1.00  0.00    -0.014 A 
BRANCH  42  43
ATOM     43  C   UNL     1       1.525  -7.318  -2.881  1.00  0.00     0.031 A 
ATOM     44  C   UNL     1       0.976  -8.693  -2.651  1.00  0.00     0.074 A 
ATOM     45  C   UNL     1       1.739  -6.844  -4.117  1.00  0.00     0.049 A 
ATOM     46  N   UNL     1       0.732  -9.643  -3.510  1.00  0.00    -0.248 NA
ATOM     47  C   UNL     1       0.692  -9.052  -1.249  1.00  0.00     0.031 C 
ATOM     48  C   UNL     1       2.235  -5.508  -4.436  1.00  0.00     0.029 A 
ATOM     49  N   UNL     1       1.602  -7.461  -5.332  1.00  0.00    -0.354 N 
ATOM     50  C   UNL     1       0.299 -10.723  -2.752  1.00  0.00     0.074 A 
ATOM     51  C   UNL     1       0.333 -10.319  -1.365  1.00  0.00     0.031 C 
ATOM     52  C   UNL     1       2.397  -5.417  -5.768  1.00  0.00     0.029 A 
ATOM     53  C   UNL     1       2.065  -6.703  -6.380  1.00  0.00     0.049 A 
ATOM     54  H   UNL     1       1.210  -8.358  -5.444  1.00  0.00     0.167 HD
ATOM     55  C   UNL     1      -0.076 -11.950  -3.178  1.00  0.00     0.031 A 
ATOM     56  C   UNL     1       2.245  -7.035  -7.674  1.00  0.00     0.031 A 
ATOM     57  C   UNL     1      -0.044 -12.345  -4.559  1.00  0.00     0.049 A 
ATOM     58  C   UNL     1       1.884  -8.426  -8.127  1.00  0.00     0.074 A 
ATOM     59  C   UNL     1      -0.420 -13.552  -5.117  1.00  0.00     0.029 A 
ATOM     60  N   UNL     1       0.419 -11.546  -5.597  1.00  0.00    -0.354 N 
ATOM     61  N   UNL     1       1.434  -9.434  -7.415  1.00  0.00    -0.248 NA
ATOM     62  C   UNL     1       2.047  -8.725  -9.556  1.00  0.00     0.031 C 
ATOM     63  C   UNL     1      -0.102 -13.513  -6.478  1.00  0.00     0.029 A 
ATOM     64  C   UNL     1       0.375 -12.248  -6.788  1.00  0.00     0.049 A 
ATOM     65  H   UNL     1       0.733 -10.618  -5.499  1.00  0.00     0.167 HD
ATOM     66  C   UNL     1       1.227 -10.476  -8.314  1.00  0.00     0.074 A 
ATOM     67  C   UNL     1       1.602  -9.974  -9.621  1.00  0.00     0.031 C 
ATOM     68  C   UNL     1       0.755 -11.727  -8.080  1.00  0.00     0.031 A 
BRANCH  55  69
ATOM     69  C   UNL     1      -0.462 -12.956  -2.125  1.00  0.00    -0.014 A 
ATOM     70  C   UNL     1      -1.586 -12.771  -1.298  1.00  0.00     0.010 A 
ATOM     71  C   UNL     1       0.340 -14.097  -1.937  1.00  0.00     0.010 A 
ATOM     72  C   UNL     1      -1.858 -13.666  -0.261  1.00  0.00     0.020 A 
ATOM     73  C   UNL     1       0.046 -15.018  -0.930  1.00  0.00     0.020 A 
ATOM     74  C   UNL     1      -1.036 -14.782  -0.081  1.00  0.00     0.054 A 
BRANCH  74  75
ATOM     75  S   UNL     1      -1.404 -15.921   1.281  1.00  0.00     0.124 S 
ATOM     76  O   UNL     1      -1.064 -15.113   2.450  1.00  0.00    -0.237 OA
ATOM     77  O   UNL     1      -2.827 -16.189   1.095  1.00  0.00    -0.237 OA
ATOM     78  O   UNL     1      -0.520 -17.057   1.033  1.00  0.00    -0.744 OA
ENDBRANCH  74  75
ENDBRANCH  55  69
BRANCH  56  79
ATOM     79  C   UNL     1       2.822  -6.030  -8.609  1.00  0.00    -0.014 A 
ATOM     80  C   UNL     1       2.032  -5.431  -9.604  1.00  0.00     0.010 A 
ATOM     81  C   UNL     1       4.160  -5.615  -8.458  1.00  0.00     0.010 A 
ATOM     82  C   UNL     1       2.562  -4.426 -10.420  1.00  0.00     0.020 A 
ATOM     83  C   UNL     1       4.684  -4.591  -9.251  1.00  0.00     0.020 A 
ATOM     84  C   UNL     1       3.881  -4.001 -10.226  1.00  0.00     0.054 A 
BRANCH  84  85
ATOM     85  S   UNL     1       4.510  -2.620 -11.221  1.00  0.00     0.124 S 
ATOM     86  O   UNL     1       4.583  -3.210 -12.554  1.00  0.00    -0.237 OA
ATOM     87  O   UNL     1       3.476  -1.605 -11.034  1.00  0.00    -0.237 OA
ATOM     88  O   UNL     1       5.797  -2.309 -10.603  1.00  0.00    -0.744 OA
ENDBRANCH  84  85
ENDBRANCH  56  79
BRANCH  68  89
ATOM     89  C   UNL     1       0.553 -12.639  -9.264  1.00  0.00    -0.014 A 
ATOM     90  C   UNL     1       1.635 -13.205  -9.960  1.00  0.00     0.010 A 
ATOM     91  C   UNL     1      -0.758 -13.021  -9.608  1.00  0.00     0.010 A 
ATOM     92  C   UNL     1       1.407 -14.127 -10.986  1.00  0.00     0.020 A 
ATOM     93  C   UNL     1      -0.988 -13.968 -10.607  1.00  0.00     0.020 A 
ATOM     94  C   UNL     1       0.097 -14.511 -11.295  1.00  0.00     0.054 A 
BRANCH  94  95
ATOM     95  S   UNL     1      -0.165 -15.770 -12.573  1.00  0.00     0.124 S 
ATOM     96  O   UNL     1       0.228 -15.060 -13.787  1.00  0.00    -0.237 OA
ATOM     97  O   UNL     1       0.734 -16.842 -12.153  1.00  0.00    -0.237 OA
ATOM     98  O   UNL     1      -1.589 -16.081 -12.469  1.00  0.00    -0.744 OA
ENDBRANCH  94  95
ENDBRANCH  68  89
ENDBRANCH  42  43
ENDBRANCH  35  37
ENDBRANCH  34  35
ENDBRANCH  33  34
ENDBRANCH  32  33
ENDBRANCH  31  32
ENDBRANCH   1  31
TORSDOF 22
