REMARK SMILES C[C@](Nc1ccc(C(N)=O)nn1)(C(=O)OCCOCCOCCOC(=O)c1ccc(-c2c3nc(c(-c4ccc(S(=O)(=O)[O-])cc4)c4ccc([nH]4)c(-c4ccc(S(=O)(=O)[O-])cc4)c4nc(c(-c5ccc(S(=O)(=O)[O-])cc5)c5ccc2[nH]5)C=C4)C=C3)cc1)c1ccccc1
REMARK SMILES IDX 19 1 18 2 17 3 16 4 15 5 13 6 14 7 2 8 1 9 87 10 88 11 92 12
REMARK SMILES IDX 89 13 91 14 90 15 3 16 4 18 5 19 12 20 6 21 11 22 7 23 8 24
REMARK SMILES IDX 9 25 10 26 20 29 21 30 22 31 23 32 24 33 25 34 26 35 27 36
REMARK SMILES IDX 28 37 86 38 29 39 85 40 30 41 31 42 32 43 79 44 33 45 84 46
REMARK SMILES IDX 78 47 80 48 34 49 83 50 77 51 76 52 35 54 65 55 46 56 64 57
REMARK SMILES IDX 47 58 50 59 63 60 81 61 48 62 49 63 62 65 82 66 51 67 36 68
REMARK SMILES IDX 37 69 45 70 38 71 44 72 39 73 40 74 41 75 42 76 43 77 66 78
REMARK SMILES IDX 67 79 75 80 68 81 74 82 69 83 70 84 71 85 72 86 73 87 52 88
REMARK SMILES IDX 53 89 61 90 54 91 60 92 55 93 56 94 57 95 58 96 59 97
REMARK H PARENT 3 17 9 27 9 28 80 53 50 64
REMARK Flexibility Score: inf
ROOT
ATOM      1  C   UNL     1      -2.320   1.195  -1.331  1.00  0.00     0.188 C 
ENDROOT
BRANCH   1   2
ATOM      2  O   UNL     1      -3.598   0.588  -1.436  1.00  0.00    -0.376 OA
BRANCH   2   3
ATOM      3  C   UNL     1      -3.834  -0.632  -0.748  1.00  0.00     0.202 C 
BRANCH   3   4
ATOM      4  C   UNL     1      -2.833  -1.801  -0.851  1.00  0.00     0.261 C 
BRANCH   4   5
ATOM      5  O   UNL     1      -1.423  -1.509  -0.678  1.00  0.00    -0.461 OA
BRANCH   5   6
ATOM      6  C   UNL     1      -0.640  -1.731  -1.774  1.00  0.00     0.336 C 
ATOM      7  O   UNL     1      -1.105  -2.103  -2.852  1.00  0.00    -0.249 OA
BRANCH   6   8
ATOM      8  C   UNL     1       0.917  -1.552  -1.560  1.00  0.00     0.160 C 
ATOM      9  C   UNL     1       1.429  -3.005  -1.645  1.00  0.00     0.053 C 
BRANCH   8  10
ATOM     10  C   UNL     1       1.431  -0.644  -2.709  1.00  0.00    -0.012 A 
ATOM     11  C   UNL     1       2.173  -1.145  -3.792  1.00  0.00     0.007 A 
ATOM     12  C   UNL     1       1.087   0.725  -2.752  1.00  0.00     0.007 A 
ATOM     13  C   UNL     1       2.532  -0.329  -4.870  1.00  0.00     0.000 A 
ATOM     14  C   UNL     1       1.423   1.532  -3.842  1.00  0.00     0.000 A 
ATOM     15  C   UNL     1       2.147   1.006  -4.902  1.00  0.00     0.000 A 
ENDBRANCH   8  10
BRANCH   8  16
ATOM     16  N   UNL     1       1.332  -0.897  -0.287  1.00  0.00    -0.350 N 
ATOM     17  H   UNL     1       1.318   0.087  -0.289  1.00  0.00     0.163 HD
BRANCH  16  18
ATOM     18  C   UNL     1       1.732  -1.486   0.887  1.00  0.00     0.149 A 
ATOM     19  C   UNL     1       2.860  -2.285   0.975  1.00  0.00     0.051 A 
ATOM     20  N   UNL     1       1.039  -1.198   2.011  1.00  0.00    -0.132 NA
ATOM     21  C   UNL     1       3.225  -2.856   2.192  1.00  0.00     0.040 A 
ATOM     22  N   UNL     1       1.380  -1.760   3.231  1.00  0.00    -0.143 NA
ATOM     23  C   UNL     1       2.447  -2.585   3.298  1.00  0.00     0.150 A 
BRANCH  23  24
ATOM     24  C   UNL     1       2.762  -3.211   4.612  1.00  0.00     0.269 C 
ATOM     25  N   UNL     1       2.016  -2.806   5.686  1.00  0.00    -0.364 N 
ATOM     26  O   UNL     1       3.644  -4.053   4.736  1.00  0.00    -0.268 OA
ATOM     27  H   UNL     1       1.312  -2.128   5.568  1.00  0.00     0.160 HD
ATOM     28  H   UNL     1       2.184  -3.192   6.575  1.00  0.00     0.160 HD
ENDBRANCH  23  24
ENDBRANCH  16  18
ENDBRANCH   8  16
ENDBRANCH   6   8
ENDBRANCH   5   6
ENDBRANCH   4   5
ENDBRANCH   3   4
ENDBRANCH   2   3
ENDBRANCH   1   2
BRANCH   1  29
ATOM     29  C   UNL     1      -1.651   1.272   0.053  1.00  0.00     0.188 C 
BRANCH  29  30
ATOM     30  O   UNL     1      -2.418   0.741   1.100  1.00  0.00    -0.376 OA
BRANCH  30  31
ATOM     31  C   UNL     1      -3.002   1.611   2.042  1.00  0.00     0.202 C 
BRANCH  31  32
ATOM     32  C   UNL     1      -3.601   2.975   1.652  1.00  0.00     0.261 C 
BRANCH  32  33
ATOM     33  O   UNL     1      -3.139   3.602   0.449  1.00  0.00    -0.460 OA
BRANCH  33  34
ATOM     34  C   UNL     1      -2.064   4.418   0.551  1.00  0.00     0.338 C 
ATOM     35  O   UNL     1      -1.400   4.631   1.557  1.00  0.00    -0.246 OA
BRANCH  34  36
ATOM     36  C   UNL     1      -1.683   4.849  -0.811  1.00  0.00     0.060 A 
ATOM     37  C   UNL     1      -0.413   4.518  -1.303  1.00  0.00     0.016 A 
ATOM     38  C   UNL     1      -2.580   5.568  -1.605  1.00  0.00     0.016 A 
ATOM     39  C   UNL     1      -0.037   4.911  -2.591  1.00  0.00     0.010 A 
ATOM     40  C   UNL     1      -2.193   5.974  -2.886  1.00  0.00     0.010 A 
ATOM     41  C   UNL     1      -0.918   5.655  -3.385  1.00  0.00    -0.014 A 
BRANCH  41  42
ATOM     42  C   UNL     1      -0.462   6.266  -4.658  1.00  0.00     0.031 A 
ATOM     43  C   UNL     1       0.134   7.643  -4.610  1.00  0.00     0.074 A 
ATOM     44  C   UNL     1      -0.614   5.641  -5.840  1.00  0.00     0.049 A 
ATOM     45  N   UNL     1       0.445   8.449  -5.591  1.00  0.00    -0.248 NA
ATOM     46  C   UNL     1       0.413   8.180  -3.269  1.00  0.00     0.031 C 
ATOM     47  C   UNL     1      -1.101   4.276  -6.021  1.00  0.00     0.029 A 
ATOM     48  N   UNL     1      -0.395   6.096  -7.120  1.00  0.00    -0.354 N 
ATOM     49  C   UNL     1       0.931   9.602  -4.987  1.00  0.00     0.074 A 
ATOM     50  C   UNL     1       0.875   9.387  -3.557  1.00  0.00     0.031 C 
ATOM     51  C   UNL     1      -1.180   4.016  -7.339  1.00  0.00     0.029 A 
ATOM     52  C   UNL     1      -0.805   5.214  -8.092  1.00  0.00     0.049 A 
ATOM     53  H   UNL     1       0.016   6.968  -7.320  1.00  0.00     0.167 HD
ATOM     54  C   UNL     1       1.361  10.746  -5.569  1.00  0.00     0.031 A 
ATOM     55  C   UNL     1      -0.920   5.372  -9.428  1.00  0.00     0.031 A 
ATOM     56  C   UNL     1       1.359  10.976  -6.988  1.00  0.00     0.049 A 
ATOM     57  C   UNL     1      -0.538   6.691 -10.056  1.00  0.00     0.074 A 
ATOM     58  C   UNL     1       1.759  12.107  -7.676  1.00  0.00     0.029 A 
ATOM     59  N   UNL     1       0.910  10.067  -7.936  1.00  0.00    -0.354 N 
ATOM     60  N   UNL     1      -0.077   7.776  -9.479  1.00  0.00    -0.248 NA
ATOM     61  C   UNL     1      -0.693   6.810 -11.514  1.00  0.00     0.031 C 
ATOM     62  C   UNL     1       1.482  11.911  -9.033  1.00  0.00     0.029 A 
ATOM     63  C   UNL     1       0.990  10.625  -9.200  1.00  0.00     0.049 A 
ATOM     64  H   UNL     1       0.584   9.160  -7.739  1.00  0.00     0.167 HD
ATOM     65  C   UNL     1       0.140   8.693 -10.504  1.00  0.00     0.074 A 
ATOM     66  C   UNL     1      -0.238   8.037 -11.738  1.00  0.00     0.031 C 
ATOM     67  C   UNL     1       0.617   9.961 -10.427  1.00  0.00     0.031 A 
BRANCH  54  68
ATOM     68  C   UNL     1       1.768  11.866  -4.649  1.00  0.00    -0.014 A 
ATOM     69  C   UNL     1       2.919  11.783  -3.845  1.00  0.00     0.010 A 
ATOM     70  C   UNL     1       0.956  13.012  -4.564  1.00  0.00     0.010 A 
ATOM     71  C   UNL     1       3.210  12.792  -2.922  1.00  0.00     0.020 A 
ATOM     72  C   UNL     1       1.262  14.039  -3.669  1.00  0.00     0.020 A 
ATOM     73  C   UNL     1       2.371  13.908  -2.833  1.00  0.00     0.054 A 
BRANCH  73  74
ATOM     74  S   UNL     1       2.747  15.183  -1.600  1.00  0.00     0.124 S 
ATOM     75  O   UNL     1       2.398  14.507  -0.353  1.00  0.00    -0.237 OA
ATOM     76  O   UNL     1       4.173  15.419  -1.808  1.00  0.00    -0.237 OA
ATOM     77  O   UNL     1       1.873  16.294  -1.971  1.00  0.00    -0.744 OA
ENDBRANCH  73  74
ENDBRANCH  54  68
BRANCH  55  78
ATOM     78  C   UNL     1      -1.482   4.265 -10.255  1.00  0.00    -0.014 A 
ATOM     79  C   UNL     1      -0.677   3.553 -11.160  1.00  0.00     0.010 A 
ATOM     80  C   UNL     1      -2.834   3.897 -10.113  1.00  0.00     0.010 A 
ATOM     81  C   UNL     1      -1.209   2.490 -11.899  1.00  0.00     0.020 A 
ATOM     82  C   UNL     1      -3.362   2.817 -10.827  1.00  0.00     0.020 A 
ATOM     83  C   UNL     1      -2.546   2.121 -11.718  1.00  0.00     0.054 A 
BRANCH  83  84
ATOM     84  S   UNL     1      -3.186   0.679 -12.616  1.00  0.00     0.124 S 
ATOM     85  O   UNL     1      -3.235   1.171 -13.989  1.00  0.00    -0.237 OA
ATOM     86  O   UNL     1      -2.171  -0.335 -12.344  1.00  0.00    -0.237 OA
ATOM     87  O   UNL     1      -4.485   0.435 -11.992  1.00  0.00    -0.744 OA
ENDBRANCH  83  84
ENDBRANCH  55  78
BRANCH  67  88
ATOM     88  C   UNL     1       0.822  10.728 -11.710  1.00  0.00    -0.014 A 
ATOM     89  C   UNL     1      -0.260  11.244 -12.445  1.00  0.00     0.010 A 
ATOM     90  C   UNL     1       2.134  11.038 -12.118  1.00  0.00     0.010 A 
ATOM     91  C   UNL     1      -0.032  12.050 -13.566  1.00  0.00     0.020 A 
ATOM     92  C   UNL     1       2.365  11.867 -13.219  1.00  0.00     0.020 A 
ATOM     93  C   UNL     1       1.279  12.365 -13.940  1.00  0.00     0.054 A 
BRANCH  93  94
ATOM     94  S   UNL     1       1.546  13.485 -15.342  1.00  0.00     0.124 S 
ATOM     95  O   UNL     1       1.155  12.653 -16.477  1.00  0.00    -0.237 OA
ATOM     96  O   UNL     1       0.648  14.597 -15.038  1.00  0.00    -0.237 OA
ATOM     97  O   UNL     1       2.970  13.805 -15.267  1.00  0.00    -0.744 OA
ENDBRANCH  93  94
ENDBRANCH  67  88
ENDBRANCH  41  42
ENDBRANCH  34  36
ENDBRANCH  33  34
ENDBRANCH  32  33
ENDBRANCH  31  32
ENDBRANCH  30  31
ENDBRANCH  29  30
ENDBRANCH   1  29
TORSDOF 24
