REMARK SMILES O=C(CCC(=O)OCCOCCOCCOC(=O)c1ccc(-c2c3nc(c(-c4ccc(S(=O)(=O)[O-])cc4)c4ccc([nH]4)c(-c4ccc(S(=O)(=O)[O-])cc4)c4nc(c(-c5ccc(S(=O)(=O)[O-])cc5)c5ccc2[nH]5)C=C4)C=C3)cc1)/[NH+]=C1\S[C@H]2CS(=O)(=O)C[C@@H]2N1c1ccc(Oc2ccccc2)cc1
REMARK SMILES IDX 11 1 10 2 9 3 8 4 7 5 5 6 6 7 4 8 3 9 2 10 1 11 79 12 80 13
REMARK SMILES IDX 81 15 89 16 82 17 88 18 83 19 87 20 84 21 85 22 86 23 90 24
REMARK SMILES IDX 91 25 102 26 92 27 101 28 93 29 94 30 95 31 96 32 100 33
REMARK SMILES IDX 97 34 99 35 98 36 12 37 13 38 14 39 15 40 16 41 17 42 18 43
REMARK SMILES IDX 19 44 20 45 78 46 21 47 77 48 22 49 23 50 24 51 71 52 25 53
REMARK SMILES IDX 76 54 70 55 72 56 26 57 75 58 69 59 68 60 27 62 57 63 38 64
REMARK SMILES IDX 56 65 39 66 42 67 55 68 73 69 40 70 41 71 54 73 74 74 43 75
REMARK SMILES IDX 28 76 29 77 37 78 30 79 36 80 31 81 32 82 33 83 34 84 35 85
REMARK SMILES IDX 58 86 59 87 67 88 60 89 66 90 61 91 62 92 63 93 64 94 65 95
REMARK SMILES IDX 44 96 45 97 53 98 46 99 52 100 47 101 48 102 49 103 50 104
REMARK SMILES IDX 51 105
REMARK H PARENT 79 14 72 61 42 72
REMARK Flexibility Score: inf
ROOT
ATOM      1  C   UNL     1       5.984  -1.552  -0.471  1.00  0.00     0.188 C 
ENDROOT
BRANCH   1   2
ATOM      2  O   UNL     1       6.840  -0.709  -1.276  1.00  0.00    -0.376 OA
BRANCH   2   3
ATOM      3  C   UNL     1       6.656  -0.552  -2.703  1.00  0.00     0.202 C 
BRANCH   3   4
ATOM      4  C   UNL     1       5.510   0.297  -3.375  1.00  0.00     0.261 C 
BRANCH   4   5
ATOM      5  O   UNL     1       4.211   0.311  -2.771  1.00  0.00    -0.463 OA
BRANCH   5   6
ATOM      6  C   UNL     1       3.542  -0.850  -2.700  1.00  0.00     0.306 C 
ATOM      7  O   UNL     1       3.852  -1.857  -3.320  1.00  0.00    -0.252 OA
BRANCH   6   8
ATOM      8  C   UNL     1       2.373  -0.758  -1.738  1.00  0.00     0.135 C 
BRANCH   8   9
ATOM      9  C   UNL     1       2.520   0.215  -0.545  1.00  0.00     0.139 C 
BRANCH   9  10
ATOM     10  C   UNL     1       2.360   1.712  -0.874  1.00  0.00     0.308 C 
ATOM     11  O   UNL     1       1.318   2.006  -1.471  1.00  0.00    -0.247 OA
ATOM     12  N   UNL     1       3.199   2.749  -0.441  1.00  0.00    -0.204 N 
ATOM     13  C   UNL     1       4.485   2.754  -0.355  1.00  0.00     0.319 C 
ATOM     14  H   UNL     1       2.748   3.580  -0.168  1.00  0.00     0.316 HD
ATOM     15  S   UNL     1       5.443   1.369  -0.520  1.00  0.00    -0.029 SA
ATOM     16  N   UNL     1       5.430   3.756  -0.140  1.00  0.00    -0.217 N 
ATOM     17  C   UNL     1       6.900   1.973   0.258  1.00  0.00     0.120 C 
ATOM     18  C   UNL     1       6.854   3.364  -0.315  1.00  0.00     0.212 C 
ATOM     19  C   UNL     1       8.284   1.412   0.051  1.00  0.00     0.156 C 
ATOM     20  C   UNL     1       7.950   4.054   0.477  1.00  0.00     0.188 C 
ATOM     21  S   UNL     1       9.283   2.832   0.468  1.00  0.00     0.155 S 
ATOM     22  O   UNL     1       9.771   2.677   1.821  1.00  0.00    -0.229 OA
ATOM     23  O   UNL     1      10.155   3.112  -0.652  1.00  0.00    -0.229 OA
BRANCH  16  24
ATOM     24  C   UNL     1       5.122   5.097  -0.118  1.00  0.00     0.128 A 
ATOM     25  C   UNL     1       5.720   5.986  -1.019  1.00  0.00     0.056 A 
ATOM     26  C   UNL     1       4.256   5.564   0.863  1.00  0.00     0.056 A 
ATOM     27  C   UNL     1       5.535   7.349  -0.875  1.00  0.00     0.051 A 
ATOM     28  C   UNL     1       4.067   6.923   1.006  1.00  0.00     0.051 A 
ATOM     29  C   UNL     1       4.744   7.820   0.167  1.00  0.00     0.127 A 
BRANCH  29  30
ATOM     30  O   UNL     1       4.703   9.192   0.301  1.00  0.00    -0.457 OA
BRANCH  30  31
ATOM     31  C   UNL     1       4.110   9.648   1.449  1.00  0.00     0.127 A 
ATOM     32  C   UNL     1       2.808  10.131   1.356  1.00  0.00     0.047 A 
ATOM     33  C   UNL     1       4.759   9.525   2.681  1.00  0.00     0.047 A 
ATOM     34  C   UNL     1       2.121  10.447   2.521  1.00  0.00     0.004 A 
ATOM     35  C   UNL     1       4.061   9.832   3.845  1.00  0.00     0.004 A 
ATOM     36  C   UNL     1       2.743  10.288   3.763  1.00  0.00     0.000 A 
ENDBRANCH  30  31
ENDBRANCH  29  30
ENDBRANCH  16  24
ENDBRANCH   9  10
ENDBRANCH   8   9
ENDBRANCH   6   8
ENDBRANCH   5   6
ENDBRANCH   4   5
ENDBRANCH   3   4
ENDBRANCH   2   3
ENDBRANCH   1   2
BRANCH   1  37
ATOM     37  C   UNL     1       6.002  -1.165   1.100  1.00  0.00     0.188 C 
BRANCH  37  38
ATOM     38  O   UNL     1       4.816  -0.577   1.680  1.00  0.00    -0.376 OA
BRANCH  38  39
ATOM     39  C   UNL     1       4.715   0.557   2.574  1.00  0.00     0.202 C 
BRANCH  39  40
ATOM     40  C   UNL     1       5.770   1.088   3.577  1.00  0.00     0.261 C 
BRANCH  40  41
ATOM     41  O   UNL     1       6.760   0.149   3.907  1.00  0.00    -0.460 OA
BRANCH  41  42
ATOM     42  C   UNL     1       6.258  -0.880   4.630  1.00  0.00     0.338 C 
ATOM     43  O   UNL     1       5.205  -0.932   5.222  1.00  0.00    -0.246 OA
BRANCH  42  44
ATOM     44  C   UNL     1       7.077  -2.014   4.204  1.00  0.00     0.060 A 
ATOM     45  C   UNL     1       6.384  -3.113   3.689  1.00  0.00     0.016 A 
ATOM     46  C   UNL     1       8.471  -1.905   4.124  1.00  0.00     0.016 A 
ATOM     47  C   UNL     1       7.095  -4.122   3.068  1.00  0.00     0.010 A 
ATOM     48  C   UNL     1       9.189  -2.942   3.554  1.00  0.00     0.010 A 
ATOM     49  C   UNL     1       8.495  -4.061   3.067  1.00  0.00    -0.014 A 
BRANCH  49  50
ATOM     50  C   UNL     1       9.210  -5.334   2.950  1.00  0.00     0.031 A 
ATOM     51  C   UNL     1       9.351  -6.113   4.225  1.00  0.00     0.074 A 
ATOM     52  C   UNL     1       9.659  -5.777   1.769  1.00  0.00     0.049 A 
ATOM     53  N   UNL     1       9.928  -7.261   4.432  1.00  0.00    -0.248 NA
ATOM     54  C   UNL     1       8.750  -5.512   5.434  1.00  0.00     0.031 C 
ATOM     55  C   UNL     1       9.499  -5.099   0.483  1.00  0.00     0.029 A 
ATOM     56  N   UNL     1      10.347  -6.919   1.471  1.00  0.00    -0.354 N 
ATOM     57  C   UNL     1       9.758  -7.516   5.787  1.00  0.00     0.074 A 
ATOM     58  C   UNL     1       9.052  -6.400   6.363  1.00  0.00     0.031 C 
ATOM     59  C   UNL     1      10.091  -5.840  -0.472  1.00  0.00     0.029 A 
ATOM     60  C   UNL     1      10.693  -7.019   0.148  1.00  0.00     0.049 A 
ATOM     61  H   UNL     1      10.573  -7.604   2.142  1.00  0.00     0.167 HD
ATOM     62  C   UNL     1      10.161  -8.595   6.489  1.00  0.00     0.031 A 
ATOM     63  C   UNL     1      11.437  -7.956  -0.469  1.00  0.00     0.031 A 
ATOM     64  C   UNL     1      10.907  -9.666   5.899  1.00  0.00     0.049 A 
ATOM     65  C   UNL     1      11.963  -9.104   0.356  1.00  0.00     0.074 A 
ATOM     66  C   UNL     1      11.397 -10.807   6.502  1.00  0.00     0.029 A 
ATOM     67  N   UNL     1      11.284  -9.713   4.564  1.00  0.00    -0.354 N 
ATOM     68  N   UNL     1      11.787  -9.350   1.635  1.00  0.00    -0.248 NA
ATOM     69  C   UNL     1      12.778 -10.102  -0.345  1.00  0.00     0.031 C 
ATOM     70  C   UNL     1      12.127 -11.513   5.542  1.00  0.00     0.029 A 
ATOM     71  C   UNL     1      12.026 -10.852   4.326  1.00  0.00     0.049 A 
ATOM     72  H   UNL     1      11.055  -9.035   3.888  1.00  0.00     0.167 HD
ATOM     73  C   UNL     1      12.445 -10.550   1.886  1.00  0.00     0.074 A 
ATOM     74  C   UNL     1      13.010 -10.981   0.622  1.00  0.00     0.031 C 
ATOM     75  C   UNL     1      12.570 -11.239   3.048  1.00  0.00     0.031 A 
BRANCH  62  76
ATOM     76  C   UNL     1       9.857  -8.610   7.960  1.00  0.00    -0.014 A 
ATOM     77  C   UNL     1       8.539  -8.741   8.436  1.00  0.00     0.010 A 
ATOM     78  C   UNL     1      10.909  -8.472   8.883  1.00  0.00     0.010 A 
ATOM     79  C   UNL     1       8.276  -8.701   9.807  1.00  0.00     0.020 A 
ATOM     80  C   UNL     1      10.653  -8.464  10.256  1.00  0.00     0.020 A 
ATOM     81  C   UNL     1       9.336  -8.565  10.709  1.00  0.00     0.054 A 
BRANCH  81  82
ATOM     82  S   UNL     1       8.970  -8.549  12.484  1.00  0.00     0.124 S 
ATOM     83  O   UNL     1       8.320  -7.251  12.647  1.00  0.00    -0.237 OA
ATOM     84  O   UNL     1       8.099  -9.711  12.639  1.00  0.00    -0.237 OA
ATOM     85  O   UNL     1      10.284  -8.671  13.111  1.00  0.00    -0.744 OA
ENDBRANCH  81  82
ENDBRANCH  62  76
BRANCH  63  86
ATOM     86  C   UNL     1      11.739  -7.832  -1.920  1.00  0.00    -0.014 A 
ATOM     87  C   UNL     1      11.207  -8.743  -2.849  1.00  0.00     0.010 A 
ATOM     88  C   UNL     1      12.557  -6.785  -2.385  1.00  0.00     0.010 A 
ATOM     89  C   UNL     1      11.500  -8.619  -4.211  1.00  0.00     0.020 A 
ATOM     90  C   UNL     1      12.829  -6.640  -3.748  1.00  0.00     0.020 A 
ATOM     91  C   UNL     1      12.306  -7.565  -4.652  1.00  0.00     0.054 A 
BRANCH  91  92
ATOM     92  S   UNL     1      12.630  -7.396  -6.429  1.00  0.00     0.124 S 
ATOM     93  O   UNL     1      13.518  -8.525  -6.686  1.00  0.00    -0.237 OA
ATOM     94  O   UNL     1      11.291  -7.498  -7.003  1.00  0.00    -0.237 OA
ATOM     95  O   UNL     1      13.248  -6.076  -6.540  1.00  0.00    -0.744 OA
ENDBRANCH  91  92
ENDBRANCH  63  86
BRANCH  75  96
ATOM     96  C   UNL     1      13.308 -12.549   2.997  1.00  0.00    -0.014 A 
ATOM     97  C   UNL     1      14.702 -12.597   2.829  1.00  0.00     0.010 A 
ATOM     98  C   UNL     1      12.595 -13.745   3.201  1.00  0.00     0.010 A 
ATOM     99  C   UNL     1      15.367 -13.825   2.833  1.00  0.00     0.020 A 
ATOM    100  C   UNL     1      13.260 -14.970   3.241  1.00  0.00     0.020 A 
ATOM    101  C   UNL     1      14.641 -15.003   3.041  1.00  0.00     0.054 A 
BRANCH 101 102
ATOM    102  S   UNL     1      15.536 -16.579   3.090  1.00  0.00     0.124 S 
ATOM    103  O   UNL     1      15.895 -16.767   1.687  1.00  0.00    -0.237 OA
ATOM    104  O   UNL     1      16.648 -16.286   3.991  1.00  0.00    -0.237 OA
ATOM    105  O   UNL     1      14.549 -17.522   3.613  1.00  0.00    -0.744 OA
ENDBRANCH 101 102
ENDBRANCH  75  96
ENDBRANCH  49  50
ENDBRANCH  42  44
ENDBRANCH  41  42
ENDBRANCH  40  41
ENDBRANCH  39  40
ENDBRANCH  38  39
ENDBRANCH  37  38
ENDBRANCH   1  37
TORSDOF 25
