REMARK SMILES CCN(CCOC)C(=O)c1cccn1CC(=O)OCCOCCOCCOC(=O)c1ccc(-c2c3nc(c(-c4ccc(S(=O)(=O)[O-])cc4)c4ccc([nH]4)c(-c4ccc(S(=O)(=O)[O-])cc4)c4nc(c(-c5ccc(S(=O)(=O)[O-])cc5)c5ccc2[nH]5)C=C4)C=C3)cc1
REMARK SMILES IDX 21 1 20 2 19 3 18 4 16 5 17 6 15 7 14 8 10 9 11 10 12 11
REMARK SMILES IDX 13 12 8 13 9 14 3 15 2 16 1 17 4 18 5 19 6 20 7 21 22 22
REMARK SMILES IDX 23 23 24 24 25 25 26 26 27 27 28 28 29 29 30 30 31 31 89 32
REMARK SMILES IDX 32 33 88 34 33 35 34 36 35 37 82 38 36 39 87 40 81 41 83 42
REMARK SMILES IDX 37 43 86 44 80 45 79 46 38 48 68 49 49 50 67 51 50 52 53 53
REMARK SMILES IDX 66 54 84 55 51 56 52 57 65 59 85 60 54 61 39 62 40 63 48 64
REMARK SMILES IDX 41 65 47 66 42 67 43 68 44 69 45 70 46 71 69 72 70 73 78 74
REMARK SMILES IDX 71 75 77 76 72 77 73 78 74 79 75 80 76 81 55 82 56 83 64 84
REMARK SMILES IDX 57 85 63 86 58 87 59 88 60 89 61 90 62 91
REMARK H PARENT 83 47 53 58
REMARK Flexibility Score: inf
ROOT
ATOM      1  O   UNL     1       4.762  -6.468   1.281  1.00  0.00    -0.376 OA
ENDROOT
BRANCH   1   2
ATOM      2  C   UNL     1       3.530  -6.236   1.943  1.00  0.00     0.202 C 
BRANCH   2   3
ATOM      3  C   UNL     1       3.080  -4.768   1.869  1.00  0.00     0.261 C 
BRANCH   3   4
ATOM      4  O   UNL     1       3.463  -4.106   0.642  1.00  0.00    -0.462 OA
BRANCH   4   5
ATOM      5  C   UNL     1       4.525  -3.263   0.685  1.00  0.00     0.326 C 
ATOM      6  O   UNL     1       5.052  -2.889   1.731  1.00  0.00    -0.250 OA
BRANCH   5   7
ATOM      7  C   UNL     1       5.090  -2.865  -0.666  1.00  0.00     0.244 C 
BRANCH   7   8
ATOM      8  N   UNL     1       4.390  -3.301  -1.881  1.00  0.00    -0.332 N 
ATOM      9  C   UNL     1       3.148  -2.868  -2.356  1.00  0.00     0.107 A 
ATOM     10  C   UNL     1       2.884  -3.691  -3.447  1.00  0.00     0.033 A 
ATOM     11  C   UNL     1       4.040  -4.440  -3.762  1.00  0.00     0.020 A 
ATOM     12  C   UNL     1       4.978  -4.132  -2.813  1.00  0.00     0.087 A 
BRANCH   9  13
ATOM     13  C   UNL     1       2.446  -1.720  -1.782  1.00  0.00     0.270 C 
ATOM     14  O   UNL     1       3.101  -0.898  -1.134  1.00  0.00    -0.267 OA
BRANCH  13  15
ATOM     15  N   UNL     1       1.072  -1.476  -1.955  1.00  0.00    -0.335 N 
BRANCH  15  16
ATOM     16  C   UNL     1       0.543  -0.213  -1.421  1.00  0.00     0.116 C 
ATOM     17  C   UNL     1       0.629  -0.079   0.096  1.00  0.00     0.027 C 
ENDBRANCH  15  16
BRANCH  15  18
ATOM     18  C   UNL     1       0.125  -2.277  -2.741  1.00  0.00     0.148 C 
BRANCH  18  19
ATOM     19  C   UNL     1      -0.149  -1.710  -4.153  1.00  0.00     0.181 C 
BRANCH  19  20
ATOM     20  O   UNL     1       0.940  -1.890  -5.054  1.00  0.00    -0.383 OA
ATOM     21  C   UNL     1       1.841  -0.793  -5.115  1.00  0.00     0.194 C 
ENDBRANCH  19  20
ENDBRANCH  18  19
ENDBRANCH  15  18
ENDBRANCH  13  15
ENDBRANCH   9  13
ENDBRANCH   7   8
ENDBRANCH   5   7
ENDBRANCH   4   5
ENDBRANCH   3   4
ENDBRANCH   2   3
ENDBRANCH   1   2
BRANCH   1  22
ATOM     22  C   UNL     1       4.726  -6.745  -0.121  1.00  0.00     0.188 C 
BRANCH  22  23
ATOM     23  C   UNL     1       3.450  -6.507  -0.949  1.00  0.00     0.188 C 
BRANCH  23  24
ATOM     24  O   UNL     1       2.310  -7.182  -0.424  1.00  0.00    -0.376 OA
BRANCH  24  25
ATOM     25  C   UNL     1       1.507  -7.833  -1.398  1.00  0.00     0.202 C 
BRANCH  25  26
ATOM     26  C   UNL     1       1.993  -9.268  -1.554  1.00  0.00     0.261 C 
BRANCH  26  27
ATOM     27  O   UNL     1       3.370  -9.344  -1.919  1.00  0.00    -0.460 OA
BRANCH  27  28
ATOM     28  C   UNL     1       3.655  -8.846  -3.129  1.00  0.00     0.338 C 
ATOM     29  O   UNL     1       2.932  -8.159  -3.860  1.00  0.00    -0.246 OA
BRANCH  28  30
ATOM     30  C   UNL     1       4.947  -9.332  -3.556  1.00  0.00     0.060 A 
ATOM     31  C   UNL     1       5.631  -8.584  -4.521  1.00  0.00     0.016 A 
ATOM     32  C   UNL     1       5.208 -10.682  -3.301  1.00  0.00     0.016 A 
ATOM     33  C   UNL     1       6.465  -9.256  -5.380  1.00  0.00     0.010 A 
ATOM     34  C   UNL     1       5.981 -11.362  -4.201  1.00  0.00     0.010 A 
ATOM     35  C   UNL     1       6.562 -10.647  -5.255  1.00  0.00    -0.014 A 
BRANCH  35  36
ATOM     36  C   UNL     1       7.383 -11.383  -6.206  1.00  0.00     0.031 A 
ATOM     37  C   UNL     1       8.799 -11.549  -5.665  1.00  0.00     0.074 A 
ATOM     38  C   UNL     1       6.746 -11.758  -7.357  1.00  0.00     0.049 A 
ATOM     39  N   UNL     1       9.877 -11.853  -6.306  1.00  0.00    -0.248 NA
ATOM     40  C   UNL     1       9.093 -11.290  -4.221  1.00  0.00     0.031 C 
ATOM     41  C   UNL     1       5.320 -11.478  -7.672  1.00  0.00     0.029 A 
ATOM     42  N   UNL     1       7.139 -12.437  -8.488  1.00  0.00    -0.354 N 
ATOM     43  C   UNL     1      10.905 -12.008  -5.358  1.00  0.00     0.074 A 
ATOM     44  C   UNL     1      10.391 -11.566  -4.102  1.00  0.00     0.031 C 
ATOM     45  C   UNL     1       5.008 -11.895  -8.919  1.00  0.00     0.029 A 
ATOM     46  C   UNL     1       6.167 -12.524  -9.518  1.00  0.00     0.049 A 
ATOM     47  H   UNL     1       8.035 -12.836  -8.576  1.00  0.00     0.167 HD
ATOM     48  C   UNL     1      12.085 -12.613  -5.659  1.00  0.00     0.031 A 
ATOM     49  C   UNL     1       6.300 -13.040 -10.777  1.00  0.00     0.031 A 
ATOM     50  C   UNL     1      12.123 -12.940  -7.045  1.00  0.00     0.049 A 
ATOM     51  C   UNL     1       7.609 -13.708 -10.798  1.00  0.00     0.074 A 
ATOM     52  C   UNL     1      12.218 -12.146  -8.159  1.00  0.00     0.029 A 
ATOM     53  N   UNL     1      11.618 -14.170  -7.398  1.00  0.00    -0.354 N 
ATOM     54  N   UNL     1       7.885 -14.819 -10.186  1.00  0.00    -0.248 NA
ATOM     55  C   UNL     1       8.728 -13.063 -11.496  1.00  0.00     0.031 C 
ATOM     56  C   UNL     1      11.315 -12.747  -9.057  1.00  0.00     0.029 A 
ATOM     57  C   UNL     1      10.898 -13.985  -8.553  1.00  0.00     0.049 A 
ATOM     58  H   UNL     1      11.747 -15.019  -6.916  1.00  0.00     0.167 HD
ATOM     59  C   UNL     1       9.251 -14.761 -10.082  1.00  0.00     0.074 A 
ATOM     60  C   UNL     1       9.706 -13.899 -11.153  1.00  0.00     0.031 C 
ATOM     61  C   UNL     1       9.829 -14.909  -8.860  1.00  0.00     0.031 A 
BRANCH  48  62
ATOM     62  C   UNL     1      13.165 -13.156  -4.780  1.00  0.00    -0.014 A 
ATOM     63  C   UNL     1      14.406 -13.426  -5.403  1.00  0.00     0.010 A 
ATOM     64  C   UNL     1      12.919 -13.720  -3.521  1.00  0.00     0.010 A 
ATOM     65  C   UNL     1      15.302 -14.346  -4.867  1.00  0.00     0.020 A 
ATOM     66  C   UNL     1      13.837 -14.619  -2.956  1.00  0.00     0.020 A 
ATOM     67  C   UNL     1      14.991 -14.968  -3.662  1.00  0.00     0.054 A 
BRANCH  67  68
ATOM     68  S   UNL     1      16.075 -16.303  -3.093  1.00  0.00     0.124 S 
ATOM     69  O   UNL     1      15.779 -17.365  -4.051  1.00  0.00    -0.237 OA
ATOM     70  O   UNL     1      17.403 -15.704  -3.212  1.00  0.00    -0.237 OA
ATOM     71  O   UNL     1      15.629 -16.546  -1.724  1.00  0.00    -0.744 OA
ENDBRANCH  67  68
ENDBRANCH  48  62
BRANCH  49  72
ATOM     72  C   UNL     1       5.556 -13.017 -12.091  1.00  0.00    -0.014 A 
ATOM     73  C   UNL     1       4.329 -12.392 -12.341  1.00  0.00     0.010 A 
ATOM     74  C   UNL     1       6.230 -13.534 -13.236  1.00  0.00     0.010 A 
ATOM     75  C   UNL     1       3.894 -12.151 -13.667  1.00  0.00     0.020 A 
ATOM     76  C   UNL     1       5.844 -13.253 -14.546  1.00  0.00     0.020 A 
ATOM     77  C   UNL     1       4.687 -12.527 -14.758  1.00  0.00     0.054 A 
BRANCH  77  78
ATOM     78  S   UNL     1       4.314 -11.942 -16.436  1.00  0.00     0.124 S 
ATOM     79  O   UNL     1       3.364 -12.942 -16.913  1.00  0.00    -0.237 OA
ATOM     80  O   UNL     1       3.764 -10.609 -16.199  1.00  0.00    -0.237 OA
ATOM     81  O   UNL     1       5.619 -11.953 -17.097  1.00  0.00    -0.744 OA
ENDBRANCH  77  78
ENDBRANCH  49  72
BRANCH  61  82
ATOM     82  C   UNL     1       9.015 -15.710  -7.846  1.00  0.00    -0.014 A 
ATOM     83  C   UNL     1       8.587 -17.012  -8.173  1.00  0.00     0.010 A 
ATOM     84  C   UNL     1       8.563 -15.181  -6.620  1.00  0.00     0.010 A 
ATOM     85  C   UNL     1       7.731 -17.744  -7.335  1.00  0.00     0.020 A 
ATOM     86  C   UNL     1       7.706 -15.906  -5.768  1.00  0.00     0.020 A 
ATOM     87  C   UNL     1       7.291 -17.186  -6.135  1.00  0.00     0.054 A 
BRANCH  87  88
ATOM     88  S   UNL     1       6.167 -18.156  -5.083  1.00  0.00     0.124 S 
ATOM     89  O   UNL     1       5.019 -18.385  -5.958  1.00  0.00    -0.237 OA
ATOM     90  O   UNL     1       6.964 -19.341  -4.777  1.00  0.00    -0.237 OA
ATOM     91  O   UNL     1       5.904 -17.277  -3.945  1.00  0.00    -0.744 OA
ENDBRANCH  87  88
ENDBRANCH  61  82
ENDBRANCH  35  36
ENDBRANCH  28  30
ENDBRANCH  27  28
ENDBRANCH  26  27
ENDBRANCH  25  26
ENDBRANCH  24  25
ENDBRANCH  23  24
ENDBRANCH  22  23
ENDBRANCH   1  22
TORSDOF 27
