REMARK SMILES O=C(N[C@@H](Cc1ccc(O)cc1)C(=O)N[C@@H](CO)C(=O)OCCOCCOCCOC(=O)c1ccc(-c2c3nc(c(-c4ccc(S(=O)(=O)[O-])cc4)c4ccc([nH]4)c(-c4ccc(S(=O)(=O)[O-])cc4)c4nc(c(-c5ccc(S(=O)(=O)[O-])cc5)c5ccc2[nH]5)C=C4)C=C3)cc1)c1ccc(F)cc1
REMARK SMILES IDX 25 1 24 2 23 3 22 4 21 5 19 6 20 7 16 8 15 9 13 10 14 11
REMARK SMILES IDX 4 13 3 14 1 15 2 16 93 18 94 19 99 20 95 21 98 22 96 23
REMARK SMILES IDX 97 24 5 25 6 26 7 27 12 28 8 29 11 30 9 31 10 32 17 34 18 35
REMARK SMILES IDX 26 37 27 38 28 39 29 40 30 41 31 42 32 43 33 44 34 45 92 46
REMARK SMILES IDX 35 47 91 48 36 49 37 50 38 51 85 52 39 53 90 54 84 55 86 56
REMARK SMILES IDX 40 57 89 58 83 59 82 60 41 62 71 63 52 64 70 65 53 66 56 67
REMARK SMILES IDX 69 68 87 69 54 70 55 71 68 73 88 74 57 75 42 76 43 77 51 78
REMARK SMILES IDX 44 79 50 80 45 81 46 82 47 83 48 84 49 85 72 86 73 87 81 88
REMARK SMILES IDX 74 89 80 90 75 91 76 92 77 93 78 94 79 95 58 96 59 97 67 98
REMARK SMILES IDX 60 99 66 100 61 101 62 102 63 103 64 104 65 105
REMARK H PARENT 15 12 3 17 10 33 18 36 86 61 56 72
REMARK Flexibility Score: inf
ROOT
ATOM      1  C   UNL     1       7.234   4.485  -3.731  1.00  0.00     0.188 C 
ENDROOT
BRANCH   1   2
ATOM      2  O   UNL     1       7.226   5.870  -4.072  1.00  0.00    -0.376 OA
BRANCH   2   3
ATOM      3  C   UNL     1       5.952   6.418  -4.388  1.00  0.00     0.202 C 
BRANCH   3   4
ATOM      4  C   UNL     1       5.161   6.843  -3.151  1.00  0.00     0.261 C 
BRANCH   4   5
ATOM      5  O   UNL     1       4.597   5.724  -2.430  1.00  0.00    -0.462 OA
BRANCH   5   6
ATOM      6  C   UNL     1       3.243   5.544  -2.481  1.00  0.00     0.331 C 
ATOM      7  O   UNL     1       2.500   6.160  -3.235  1.00  0.00    -0.250 OA
BRANCH   6   8
ATOM      8  C   UNL     1       2.763   4.466  -1.462  1.00  0.00     0.218 C 
BRANCH   8   9
ATOM      9  N   UNL     1       3.887   3.884  -0.704  1.00  0.00    -0.339 N 
ATOM     10  C   UNL     1       4.354   2.629  -0.508  1.00  0.00     0.243 C 
ATOM     11  O   UNL     1       5.490   2.568  -0.016  1.00  0.00    -0.273 OA
ATOM     12  H   UNL     1       4.418   4.565  -0.232  1.00  0.00     0.164 HD
BRANCH  10  13
ATOM     13  C   UNL     1       3.642   1.310  -0.886  1.00  0.00     0.176 C 
BRANCH  13  14
ATOM     14  N   UNL     1       2.288   1.153  -0.363  1.00  0.00    -0.340 N 
ATOM     15  O   UNL     1       0.617   0.071   0.703  1.00  0.00    -0.269 OA
ATOM     16  C   UNL     1       1.814   0.130   0.438  1.00  0.00     0.251 C 
ATOM     17  H   UNL     1       1.641   1.853  -0.607  1.00  0.00     0.164 HD
BRANCH  16  18
ATOM     18  C   UNL     1       2.725  -0.927   0.955  1.00  0.00     0.040 A 
ATOM     19  C   UNL     1       3.824  -0.613   1.769  1.00  0.00     0.017 A 
ATOM     20  C   UNL     1       2.451  -2.266   0.640  1.00  0.00     0.017 A 
ATOM     21  C   UNL     1       4.680  -1.628   2.208  1.00  0.00     0.040 A 
ATOM     22  C   UNL     1       3.303  -3.279   1.095  1.00  0.00     0.040 A 
ATOM     23  C   UNL     1       4.413  -2.950   1.866  1.00  0.00     0.123 A 
ATOM     24  F   UNL     1       5.232  -3.919   2.294  1.00  0.00    -0.207 F 
ENDBRANCH  16  18
ENDBRANCH  13  14
BRANCH  13  25
ATOM     25  C   UNL     1       3.845   0.740  -2.302  1.00  0.00     0.070 C 
BRANCH  25  26
ATOM     26  C   UNL     1       3.332   1.462  -3.516  1.00  0.00    -0.045 A 
ATOM     27  C   UNL     1       3.886   2.688  -3.879  1.00  0.00     0.007 A 
ATOM     28  C   UNL     1       2.407   0.872  -4.387  1.00  0.00     0.007 A 
ATOM     29  C   UNL     1       3.465   3.364  -5.023  1.00  0.00     0.046 A 
ATOM     30  C   UNL     1       2.010   1.530  -5.558  1.00  0.00     0.046 A 
ATOM     31  C   UNL     1       2.523   2.784  -5.853  1.00  0.00     0.115 A 
BRANCH  31  32
ATOM     32  O   UNL     1       2.088   3.422  -6.973  1.00  0.00    -0.508 OA
ATOM     33  H   UNL     1       2.423   4.270  -7.189  1.00  0.00     0.293 HD
ENDBRANCH  31  32
ENDBRANCH  25  26
ENDBRANCH  13  25
ENDBRANCH  10  13
ENDBRANCH   8   9
BRANCH   8  34
ATOM     34  C   UNL     1       1.767   5.141  -0.514  1.00  0.00     0.193 C 
BRANCH  34  35
ATOM     35  O   UNL     1       2.408   6.132   0.293  1.00  0.00    -0.394 OA
ATOM     36  H   UNL     1       3.096   5.713   0.834  1.00  0.00     0.210 HD
ENDBRANCH  34  35
ENDBRANCH   8  34
ENDBRANCH   6   8
ENDBRANCH   5   6
ENDBRANCH   4   5
ENDBRANCH   3   4
ENDBRANCH   2   3
ENDBRANCH   1   2
BRANCH   1  37
ATOM     37  C   UNL     1       7.443   4.257  -2.227  1.00  0.00     0.188 C 
BRANCH  37  38
ATOM     38  O   UNL     1       8.494   4.991  -1.600  1.00  0.00    -0.376 OA
BRANCH  38  39
ATOM     39  C   UNL     1       9.690   5.179  -2.347  1.00  0.00     0.202 C 
BRANCH  39  40
ATOM     40  C   UNL     1      10.562   3.936  -2.537  1.00  0.00     0.261 C 
BRANCH  40  41
ATOM     41  O   UNL     1       9.886   2.863  -3.222  1.00  0.00    -0.460 OA
BRANCH  41  42
ATOM     42  C   UNL     1       9.830   1.696  -2.545  1.00  0.00     0.338 C 
ATOM     43  O   UNL     1      10.290   1.461  -1.430  1.00  0.00    -0.246 OA
BRANCH  42  44
ATOM     44  C   UNL     1       9.066   0.686  -3.292  1.00  0.00     0.060 A 
ATOM     45  C   UNL     1       7.793   0.331  -2.833  1.00  0.00     0.016 A 
ATOM     46  C   UNL     1       9.688  -0.062  -4.294  1.00  0.00     0.016 A 
ATOM     47  C   UNL     1       7.158  -0.806  -3.341  1.00  0.00     0.010 A 
ATOM     48  C   UNL     1       9.048  -1.202  -4.800  1.00  0.00     0.010 A 
ATOM     49  C   UNL     1       7.797  -1.603  -4.297  1.00  0.00    -0.014 A 
BRANCH  49  50
ATOM     50  C   UNL     1       7.281  -2.966  -4.592  1.00  0.00     0.031 A 
ATOM     51  C   UNL     1       7.962  -4.141  -3.939  1.00  0.00     0.074 A 
ATOM     52  C   UNL     1       6.212  -3.181  -5.380  1.00  0.00     0.049 A 
ATOM     53  N   UNL     1       7.843  -5.418  -4.193  1.00  0.00    -0.248 NA
ATOM     54  C   UNL     1       8.898  -3.825  -2.847  1.00  0.00     0.031 C 
ATOM     55  C   UNL     1       5.359  -2.148  -5.964  1.00  0.00     0.029 A 
ATOM     56  N   UNL     1       5.667  -4.362  -5.827  1.00  0.00    -0.354 N 
ATOM     57  C   UNL     1       8.723  -6.056  -3.326  1.00  0.00     0.074 A 
ATOM     58  C   UNL     1       9.358  -5.026  -2.532  1.00  0.00     0.031 C 
ATOM     59  C   UNL     1       4.407  -2.741  -6.708  1.00  0.00     0.029 A 
ATOM     60  C   UNL     1       4.624  -4.188  -6.706  1.00  0.00     0.049 A 
ATOM     61  H   UNL     1       5.992  -5.247  -5.546  1.00  0.00     0.167 HD
ATOM     62  C   UNL     1       8.994  -7.378  -3.212  1.00  0.00     0.031 A 
ATOM     63  C   UNL     1       3.958  -5.086  -7.462  1.00  0.00     0.031 A 
ATOM     64  C   UNL     1       8.363  -8.402  -4.000  1.00  0.00     0.049 A 
ATOM     65  C   UNL     1       4.352  -6.542  -7.413  1.00  0.00     0.074 A 
ATOM     66  C   UNL     1       8.606  -9.764  -3.997  1.00  0.00     0.029 A 
ATOM     67  N   UNL     1       7.356  -8.176  -4.925  1.00  0.00    -0.354 N 
ATOM     68  N   UNL     1       5.255  -7.129  -6.664  1.00  0.00    -0.248 NA
ATOM     69  C   UNL     1       3.647  -7.455  -8.327  1.00  0.00     0.031 C 
ATOM     70  C   UNL     1       7.774 -10.357  -4.953  1.00  0.00     0.029 A 
ATOM     71  C   UNL     1       6.975  -9.371  -5.509  1.00  0.00     0.049 A 
ATOM     72  H   UNL     1       6.970  -7.295  -5.136  1.00  0.00     0.167 HD
ATOM     73  C   UNL     1       5.206  -8.481  -6.997  1.00  0.00     0.074 A 
ATOM     74  C   UNL     1       4.182  -8.627  -8.010  1.00  0.00     0.031 C 
ATOM     75  C   UNL     1       5.942  -9.508  -6.504  1.00  0.00     0.031 A 
BRANCH  62  76
ATOM     76  C   UNL     1      10.081  -7.775  -2.253  1.00  0.00    -0.014 A 
ATOM     77  C   UNL     1       9.886  -7.743  -0.861  1.00  0.00     0.010 A 
ATOM     78  C   UNL     1      11.327  -8.185  -2.763  1.00  0.00     0.010 A 
ATOM     79  C   UNL     1      10.935  -8.066   0.005  1.00  0.00     0.020 A 
ATOM     80  C   UNL     1      12.369  -8.534  -1.901  1.00  0.00     0.020 A 
ATOM     81  C   UNL     1      12.173  -8.450  -0.522  1.00  0.00     0.054 A 
BRANCH  81  82
ATOM     82  S   UNL     1      13.523  -8.853   0.620  1.00  0.00     0.124 S 
ATOM     83  O   UNL     1      13.934  -7.529   1.078  1.00  0.00    -0.237 OA
ATOM     84  O   UNL     1      12.863  -9.687   1.620  1.00  0.00    -0.237 OA
ATOM     85  O   UNL     1      14.493  -9.548  -0.224  1.00  0.00    -0.744 OA
ENDBRANCH  81  82
ENDBRANCH  62  76
BRANCH  63  86
ATOM     86  C   UNL     1       2.886  -4.630  -8.391  1.00  0.00    -0.014 A 
ATOM     87  C   UNL     1       1.543  -4.976  -8.162  1.00  0.00     0.010 A 
ATOM     88  C   UNL     1       3.208  -3.857  -9.522  1.00  0.00     0.010 A 
ATOM     89  C   UNL     1       0.544  -4.566  -9.051  1.00  0.00     0.020 A 
ATOM     90  C   UNL     1       2.210  -3.422 -10.398  1.00  0.00     0.020 A 
ATOM     91  C   UNL     1       0.884  -3.788 -10.162  1.00  0.00     0.054 A 
BRANCH  91  92
ATOM     92  S   UNL     1      -0.434  -3.219 -11.272  1.00  0.00     0.124 S 
ATOM     93  O   UNL     1      -0.759  -4.437 -12.006  1.00  0.00    -0.237 OA
ATOM     94  O   UNL     1      -1.453  -2.751 -10.336  1.00  0.00    -0.237 OA
ATOM     95  O   UNL     1       0.211  -2.168 -12.055  1.00  0.00    -0.744 OA
ENDBRANCH  91  92
ENDBRANCH  63  86
BRANCH  75  96
ATOM     96  C   UNL     1       5.639 -10.897  -7.000  1.00  0.00    -0.014 A 
ATOM     97  C   UNL     1       6.053 -11.329  -8.272  1.00  0.00     0.010 A 
ATOM     98  C   UNL     1       5.007 -11.813  -6.138  1.00  0.00     0.010 A 
ATOM     99  C   UNL     1       5.828 -12.648  -8.678  1.00  0.00     0.020 A 
ATOM    100  C   UNL     1       4.800 -13.138  -6.531  1.00  0.00     0.020 A 
ATOM    101  C   UNL     1       5.205 -13.546  -7.803  1.00  0.00     0.054 A 
BRANCH 101 102
ATOM    102  S   UNL     1       4.987 -15.270  -8.325  1.00  0.00     0.124 S 
ATOM    103  O   UNL     1       3.880 -15.165  -9.270  1.00  0.00    -0.237 OA
ATOM    104  O   UNL     1       6.285 -15.596  -8.911  1.00  0.00    -0.237 OA
ATOM    105  O   UNL     1       4.680 -15.972  -7.080  1.00  0.00    -0.744 OA
ENDBRANCH 101 102
ENDBRANCH  75  96
ENDBRANCH  49  50
ENDBRANCH  42  44
ENDBRANCH  41  42
ENDBRANCH  40  41
ENDBRANCH  39  40
ENDBRANCH  38  39
ENDBRANCH  37  38
ENDBRANCH   1  37
TORSDOF 29
