REMARK SMILES Cc1ccc([C@H]2CC(c3cccs3)=NN2C(=O)CCC(=O)OCCOCCOCCOC(=O)c2ccc(-c3c4nc(c(-c5ccc(S(=O)(=O)[O-])cc5)c5ccc([nH]5)c(-c5ccc(S(=O)(=O)[O-])cc5)c5nc(c(-c6ccc(S(=O)(=O)[O-])cc6)c6ccc3[nH]6)C=C5)C=C4)cc2)o1
REMARK SMILES IDX 26 1 25 2 24 3 23 4 22 5 20 6 21 7 19 8 18 9 16 10 17 11
REMARK SMILES IDX 15 12 6 13 7 14 8 15 14 16 5 17 1 18 2 19 3 20 94 21 4 22
REMARK SMILES IDX 9 23 10 24 13 25 11 26 12 27 27 28 28 29 29 30 30 31 31 32
REMARK SMILES IDX 32 33 33 34 34 35 35 36 93 37 36 38 92 39 37 40 38 41 39 42
REMARK SMILES IDX 86 43 40 44 91 45 85 46 87 47 41 48 90 49 84 50 83 51 42 53
REMARK SMILES IDX 72 54 53 55 71 56 54 57 57 58 70 59 88 60 55 61 56 62 69 64
REMARK SMILES IDX 89 65 58 66 43 67 44 68 52 69 45 70 51 71 46 72 47 73 48 74
REMARK SMILES IDX 49 75 50 76 73 77 74 78 82 79 75 80 81 81 76 82 77 83 78 84
REMARK SMILES IDX 79 85 80 86 59 87 60 88 68 89 61 90 67 91 62 92 63 93 64 94
REMARK SMILES IDX 65 95 66 96
REMARK H PARENT 87 52 57 63
REMARK Flexibility Score: inf
ROOT
ATOM      1  C   UNL     1      -0.494   2.156  -1.553  1.00  0.00     0.188 C 
ENDROOT
BRANCH   1   2
ATOM      2  O   UNL     1      -1.623   1.293  -1.797  1.00  0.00    -0.376 OA
BRANCH   2   3
ATOM      3  C   UNL     1      -1.556  -0.164  -1.920  1.00  0.00     0.202 C 
BRANCH   3   4
ATOM      4  C   UNL     1      -2.797  -1.198  -1.182  1.00  0.00     0.261 C 
BRANCH   4   5
ATOM      5  O   UNL     1      -3.275  -0.969   0.320  1.00  0.00    -0.463 OA
BRANCH   5   6
ATOM      6  C   UNL     1      -3.363  -1.736   1.494  1.00  0.00     0.306 C 
ATOM      7  O   UNL     1      -3.643  -2.934   1.444  1.00  0.00    -0.252 OA
BRANCH   6   8
ATOM      8  C   UNL     1      -2.683  -1.122   2.918  1.00  0.00     0.132 C 
BRANCH   8   9
ATOM      9  C   UNL     1      -2.533   0.340   3.443  1.00  0.00     0.114 C 
BRANCH   9  10
ATOM     10  C   UNL     1      -3.743   1.087   3.064  1.00  0.00     0.243 C 
ATOM     11  O   UNL     1      -4.562   1.510   3.869  1.00  0.00    -0.273 OA
BRANCH  10  12
ATOM     12  N   UNL     1      -3.852   1.078   1.707  1.00  0.00    -0.222 N 
ATOM     13  C   UNL     1      -2.716   1.305   0.754  1.00  0.00     0.183 C 
ATOM     14  C   UNL     1      -3.598   1.610  -0.513  1.00  0.00     0.095 C 
ATOM     15  C   UNL     1      -4.998   1.315  -0.097  1.00  0.00     0.081 C 
ATOM     16  N   UNL     1      -5.135   1.100   1.165  1.00  0.00    -0.173 NA
BRANCH  13  17
ATOM     17  C   UNL     1      -1.222   0.277   0.808  1.00  0.00     0.129 A 
ATOM     18  C   UNL     1       2.426   0.368   0.396  1.00  0.00     0.087 C 
ATOM     19  C   UNL     1       1.036  -0.028   0.669  1.00  0.00     0.101 A 
ATOM     20  C   UNL     1       0.543  -1.288   0.639  1.00  0.00     0.045 A 
ATOM     21  O   UNL     1       0.039   0.912   0.881  1.00  0.00    -0.464 OA
ATOM     22  C   UNL     1      -0.834  -1.103   0.740  1.00  0.00     0.048 A 
ENDBRANCH  13  17
BRANCH  15  23
ATOM     23  C   UNL     1      -6.065   1.277  -1.080  1.00  0.00     0.050 A 
ATOM     24  C   UNL     1      -6.400   0.273  -1.976  1.00  0.00     0.022 A 
ATOM     25  S   UNL     1      -7.036   2.664  -1.319  1.00  0.00    -0.142 S 
ATOM     26  C   UNL     1      -7.451   0.655  -2.868  1.00  0.00     0.012 A 
ATOM     27  C   UNL     1      -7.886   1.937  -2.618  1.00  0.00     0.065 A 
ENDBRANCH  15  23
ENDBRANCH  10  12
ENDBRANCH   9  10
ENDBRANCH   8   9
ENDBRANCH   6   8
ENDBRANCH   5   6
ENDBRANCH   4   5
ENDBRANCH   3   4
ENDBRANCH   2   3
ENDBRANCH   1   2
BRANCH   1  28
ATOM     28  C   UNL     1      -0.748   3.307  -0.508  1.00  0.00     0.188 C 
BRANCH  28  29
ATOM     29  O   UNL     1      -1.869   4.172  -0.689  1.00  0.00    -0.376 OA
BRANCH  29  30
ATOM     30  C   UNL     1      -1.970   4.783  -1.966  1.00  0.00     0.202 C 
BRANCH  30  31
ATOM     31  C   UNL     1      -0.984   5.931  -2.229  1.00  0.00     0.261 C 
BRANCH  31  32
ATOM     32  O   UNL     1       0.365   5.656  -1.804  1.00  0.00    -0.460 OA
BRANCH  32  33
ATOM     33  C   UNL     1       0.714   6.198  -0.606  1.00  0.00     0.338 C 
ATOM     34  O   UNL     1       0.048   6.985   0.065  1.00  0.00    -0.246 OA
BRANCH  33  35
ATOM     35  C   UNL     1       1.948   5.560  -0.094  1.00  0.00     0.060 A 
ATOM     36  C   UNL     1       1.945   5.030   1.209  1.00  0.00     0.016 A 
ATOM     37  C   UNL     1       3.104   5.498  -0.873  1.00  0.00     0.016 A 
ATOM     38  C   UNL     1       3.116   4.507   1.763  1.00  0.00     0.010 A 
ATOM     39  C   UNL     1       4.282   5.001  -0.308  1.00  0.00     0.010 A 
ATOM     40  C   UNL     1       4.306   4.556   1.028  1.00  0.00    -0.014 A 
BRANCH  40  41
ATOM     41  C   UNL     1       5.618   4.428   1.713  1.00  0.00     0.031 A 
ATOM     42  C   UNL     1       6.300   5.699   2.138  1.00  0.00     0.074 A 
ATOM     43  C   UNL     1       6.210   3.241   1.927  1.00  0.00     0.049 A 
ATOM     44  N   UNL     1       7.508   5.877   2.599  1.00  0.00    -0.248 NA
ATOM     45  C   UNL     1       5.514   6.939   2.005  1.00  0.00     0.031 C 
ATOM     46  C   UNL     1       5.622   1.946   1.616  1.00  0.00     0.029 A 
ATOM     47  N   UNL     1       7.445   2.930   2.438  1.00  0.00    -0.354 N 
ATOM     48  C   UNL     1       7.637   7.247   2.788  1.00  0.00     0.074 A 
ATOM     49  C   UNL     1       6.394   7.857   2.371  1.00  0.00     0.031 C 
ATOM     50  C   UNL     1       6.493   0.973   1.928  1.00  0.00     0.029 A 
ATOM     51  C   UNL     1       7.730   1.584   2.405  1.00  0.00     0.049 A 
ATOM     52  H   UNL     1       8.067   3.605   2.794  1.00  0.00     0.167 HD
ATOM     53  C   UNL     1       8.700   7.936   3.263  1.00  0.00     0.031 A 
ATOM     54  C   UNL     1       8.874   0.928   2.687  1.00  0.00     0.031 A 
ATOM     55  C   UNL     1       9.937   7.319   3.657  1.00  0.00     0.049 A 
ATOM     56  C   UNL     1      10.073   1.722   3.134  1.00  0.00     0.074 A 
ATOM     57  C   UNL     1      11.078   7.921   4.155  1.00  0.00     0.029 A 
ATOM     58  N   UNL     1      10.197   5.958   3.589  1.00  0.00    -0.354 N 
ATOM     59  N   UNL     1      10.184   3.018   3.309  1.00  0.00    -0.248 NA
ATOM     60  C   UNL     1      11.300   0.968   3.425  1.00  0.00     0.031 C 
ATOM     61  C   UNL     1      12.050   6.931   4.329  1.00  0.00     0.029 A 
ATOM     62  C   UNL     1      11.490   5.702   4.010  1.00  0.00     0.049 A 
ATOM     63  H   UNL     1       9.556   5.274   3.286  1.00  0.00     0.167 HD
ATOM     64  C   UNL     1      11.482   3.231   3.763  1.00  0.00     0.074 A 
ATOM     65  C   UNL     1      12.111   1.929   3.845  1.00  0.00     0.031 C 
ATOM     66  C   UNL     1      12.096   4.396   4.086  1.00  0.00     0.031 A 
BRANCH  53  67
ATOM     67  C   UNL     1       8.581   9.435   3.333  1.00  0.00    -0.014 A 
ATOM     68  C   UNL     1       7.720  10.062   4.252  1.00  0.00     0.010 A 
ATOM     69  C   UNL     1       9.362  10.232   2.476  1.00  0.00     0.010 A 
ATOM     70  C   UNL     1       7.615  11.455   4.288  1.00  0.00     0.020 A 
ATOM     71  C   UNL     1       9.284  11.626   2.530  1.00  0.00     0.020 A 
ATOM     72  C   UNL     1       8.400  12.228   3.426  1.00  0.00     0.054 A 
BRANCH  72  73
ATOM     73  S   UNL     1       8.266  14.034   3.516  1.00  0.00     0.124 S 
ATOM     74  O   UNL     1       6.939  14.267   2.951  1.00  0.00    -0.237 OA
ATOM     75  O   UNL     1       8.393  14.293   4.948  1.00  0.00    -0.237 OA
ATOM     76  O   UNL     1       9.381  14.506   2.699  1.00  0.00    -0.744 OA
ENDBRANCH  72  73
ENDBRANCH  53  67
BRANCH  54  77
ATOM     77  C   UNL     1       8.951  -0.552   2.521  1.00  0.00    -0.014 A 
ATOM     78  C   UNL     1       9.098  -1.394   3.637  1.00  0.00     0.010 A 
ATOM     79  C   UNL     1       8.876  -1.129   1.239  1.00  0.00     0.010 A 
ATOM     80  C   UNL     1       9.182  -2.781   3.475  1.00  0.00     0.020 A 
ATOM     81  C   UNL     1       8.929  -2.517   1.075  1.00  0.00     0.020 A 
ATOM     82  C   UNL     1       9.091  -3.334   2.195  1.00  0.00     0.054 A 
BRANCH  82  83
ATOM     83  S   UNL     1       9.142  -5.139   2.014  1.00  0.00     0.124 S 
ATOM     84  O   UNL     1      10.539  -5.436   2.313  1.00  0.00    -0.237 OA
ATOM     85  O   UNL     1       8.171  -5.580   3.013  1.00  0.00    -0.237 OA
ATOM     86  O   UNL     1       8.737  -5.354   0.627  1.00  0.00    -0.744 OA
ENDBRANCH  82  83
ENDBRANCH  54  77
BRANCH  66  87
ATOM     87  C   UNL     1      13.508   4.317   4.605  1.00  0.00    -0.014 A 
ATOM     88  C   UNL     1      14.583   3.985   3.762  1.00  0.00     0.010 A 
ATOM     89  C   UNL     1      13.766   4.643   5.949  1.00  0.00     0.010 A 
ATOM     90  C   UNL     1      15.886   3.949   4.264  1.00  0.00     0.020 A 
ATOM     91  C   UNL     1      15.071   4.641   6.446  1.00  0.00     0.020 A 
ATOM     92  C   UNL     1      16.122   4.280   5.602  1.00  0.00     0.054 A 
BRANCH  92  93
ATOM     93  S   UNL     1      17.828   4.269   6.215  1.00  0.00     0.124 S 
ATOM     94  O   UNL     1      18.125   2.840   6.261  1.00  0.00    -0.237 OA
ATOM     95  O   UNL     1      18.541   5.027   5.189  1.00  0.00    -0.237 OA
ATOM     96  O   UNL     1      17.734   4.927   7.516  1.00  0.00    -0.744 OA
ENDBRANCH  92  93
ENDBRANCH  66  87
ENDBRANCH  40  41
ENDBRANCH  33  35
ENDBRANCH  32  33
ENDBRANCH  31  32
ENDBRANCH  30  31
ENDBRANCH  29  30
ENDBRANCH  28  29
ENDBRANCH   1  28
TORSDOF 25
