REMARK SMILES C[NH2+][C@]1(C(=O)OCCOCCOCCOC(=O)c2ccc(-c3c4nc(c(-c5ccc(S(=O)(=O)[O-])cc5)c5ccc([nH]5)c(-c5ccc(S(=O)(=O)[O-])cc5)c5nc(c(-c6ccc(S(=O)(=O)[O-])cc6)c6ccc3[nH]6)C=C5)C=C4)cc2)CCC[C@@H](Sc2nccs2)C1
REMARK SMILES IDX 11 1 10 2 9 3 8 4 7 5 6 6 4 7 5 8 3 9 78 10 88 11 79 12
REMARK SMILES IDX 81 13 80 14 2 15 1 16 82 19 83 20 84 21 87 22 85 23 86 24
REMARK SMILES IDX 12 25 13 26 14 27 15 28 16 29 17 30 18 31 19 32 77 33 20 34
REMARK SMILES IDX 76 35 21 36 22 37 23 38 70 39 24 40 75 41 69 42 71 43 25 44
REMARK SMILES IDX 74 45 68 46 67 47 26 49 56 50 37 51 55 52 38 53 41 54 54 55
REMARK SMILES IDX 72 56 39 57 40 58 53 60 73 61 42 62 27 63 28 64 36 65 29 66
REMARK SMILES IDX 35 67 30 68 31 69 32 70 33 71 34 72 57 73 58 74 66 75 59 76
REMARK SMILES IDX 65 77 60 78 61 79 62 80 63 81 64 82 43 83 44 84 52 85 45 86
REMARK SMILES IDX 51 87 46 88 47 89 48 90 49 91 50 92
REMARK H PARENT 2 17 2 18 71 48 41 59
REMARK Flexibility Score: inf
ROOT
ATOM      1  C   UNL     1       1.291  -3.401  -1.428  1.00  0.00     0.188 C 
ENDROOT
BRANCH   1   2
ATOM      2  C   UNL     1       2.105  -2.289  -2.104  1.00  0.00     0.188 C 
BRANCH   2   3
ATOM      3  O   UNL     1       3.372  -1.931  -1.578  1.00  0.00    -0.376 OA
BRANCH   3   4
ATOM      4  C   UNL     1       3.551  -1.793  -0.177  1.00  0.00     0.202 C 
BRANCH   4   5
ATOM      5  C   UNL     1       2.591  -0.934   0.660  1.00  0.00     0.261 C 
BRANCH   5   6
ATOM      6  O   UNL     1       1.200  -1.308   0.620  1.00  0.00    -0.459 OA
BRANCH   6   7
ATOM      7  C   UNL     1       0.386  -0.448  -0.052  1.00  0.00     0.368 C 
ATOM      8  O   UNL     1       0.800   0.549  -0.641  1.00  0.00    -0.245 OA
BRANCH   7   9
ATOM      9  C   UNL     1      -1.136  -0.857  -0.080  1.00  0.00     0.195 C 
ATOM     10  C   UNL     1      -1.469  -2.139   0.730  1.00  0.00     0.081 C 
ATOM     11  C   UNL     1      -1.812   0.341   0.622  1.00  0.00     0.096 C 
ATOM     12  C   UNL     1      -2.956  -2.365   1.008  1.00  0.00     0.008 C 
ATOM     13  C   UNL     1      -3.303   0.148   0.898  1.00  0.00     0.061 C 
ATOM     14  C   UNL     1      -3.609  -1.151   1.650  1.00  0.00     0.015 C 
BRANCH   9  15
ATOM     15  N   UNL     1      -1.564  -0.801  -1.502  1.00  0.00    -0.335 N 
ATOM     16  C   UNL     1      -2.251  -1.902  -2.127  1.00  0.00     0.331 C 
ATOM     17  H   UNL     1      -2.181   0.007  -1.585  1.00  0.00     0.347 HD
ATOM     18  H   UNL     1      -0.673  -0.790  -1.998  1.00  0.00     0.347 HD
ENDBRANCH   9  15
BRANCH  13  19
ATOM     19  S   UNL     1      -4.015   1.596   1.785  1.00  0.00    -0.092 SA
BRANCH  19  20
ATOM     20  C   UNL     1      -3.224   1.489   3.344  1.00  0.00     0.150 A 
ATOM     21  N   UNL     1      -1.916   1.499   3.462  1.00  0.00    -0.238 NA
ATOM     22  S   UNL     1      -4.093   1.308   4.812  1.00  0.00    -0.116 S 
ATOM     23  C   UNL     1      -1.557   1.290   4.774  1.00  0.00     0.124 A 
ATOM     24  C   UNL     1      -2.606   1.155   5.656  1.00  0.00     0.087 A 
ENDBRANCH  19  20
ENDBRANCH  13  19
ENDBRANCH   7   9
ENDBRANCH   6   7
ENDBRANCH   5   6
ENDBRANCH   4   5
ENDBRANCH   3   4
ENDBRANCH   2   3
ENDBRANCH   1   2
BRANCH   1  25
ATOM     25  O   UNL     1       1.895  -4.097  -0.370  1.00  0.00    -0.376 OA
BRANCH  25  26
ATOM     26  C   UNL     1       2.711  -5.223  -0.625  1.00  0.00     0.202 C 
BRANCH  26  27
ATOM     27  C   UNL     1       3.178  -5.707  -2.014  1.00  0.00     0.261 C 
BRANCH  27  28
ATOM     28  O   UNL     1       2.688  -5.044  -3.182  1.00  0.00    -0.460 OA
BRANCH  28  29
ATOM     29  C   UNL     1       1.596  -5.583  -3.771  1.00  0.00     0.338 C 
ATOM     30  O   UNL     1       0.963  -6.560  -3.387  1.00  0.00    -0.246 OA
BRANCH  29  31
ATOM     31  C   UNL     1       1.141  -4.672  -4.840  1.00  0.00     0.060 A 
ATOM     32  C   UNL     1      -0.089  -4.015  -4.694  1.00  0.00     0.016 A 
ATOM     33  C   UNL     1       1.913  -4.473  -5.986  1.00  0.00     0.016 A 
ATOM     34  C   UNL     1      -0.561  -3.171  -5.699  1.00  0.00     0.010 A 
ATOM     35  C   UNL     1       1.424  -3.650  -7.007  1.00  0.00     0.010 A 
ATOM     36  C   UNL     1       0.173  -3.015  -6.880  1.00  0.00    -0.014 A 
BRANCH  36  37
ATOM     37  C   UNL     1      -0.447  -2.354  -8.056  1.00  0.00     0.031 A 
ATOM     38  C   UNL     1      -1.038  -3.222  -9.134  1.00  0.00     0.074 A 
ATOM     39  C   UNL     1      -0.506  -1.014  -8.165  1.00  0.00     0.049 A 
ATOM     40  N   UNL     1      -1.540  -2.883 -10.293  1.00  0.00    -0.248 NA
ATOM     41  C   UNL     1      -1.064  -4.670  -8.866  1.00  0.00     0.031 C 
ATOM     42  C   UNL     1      -0.041  -0.059  -7.161  1.00  0.00     0.029 A 
ATOM     43  N   UNL     1      -0.980  -0.226  -9.186  1.00  0.00    -0.354 N 
ATOM     44  C   UNL     1      -1.925  -4.073 -10.899  1.00  0.00     0.074 A 
ATOM     45  C   UNL     1      -1.578  -5.144  -9.991  1.00  0.00     0.031 C 
ATOM     46  C   UNL     1      -0.237   1.189  -7.624  1.00  0.00     0.029 A 
ATOM     47  C   UNL     1      -0.798   1.121  -8.973  1.00  0.00     0.049 A 
ATOM     48  H   UNL     1      -1.409  -0.590  -9.994  1.00  0.00     0.167 HD
ATOM     49  C   UNL     1      -2.513  -4.260 -12.105  1.00  0.00     0.031 A 
ATOM     50  C   UNL     1      -1.024   2.173  -9.787  1.00  0.00     0.031 A 
ATOM     51  C   UNL     1      -2.841  -3.195 -13.015  1.00  0.00     0.049 A 
ATOM     52  C   UNL     1      -1.589   1.936 -11.165  1.00  0.00     0.074 A 
ATOM     53  C   UNL     1      -3.434  -3.282 -14.262  1.00  0.00     0.029 A 
ATOM     54  N   UNL     1      -2.601  -1.849 -12.780  1.00  0.00    -0.354 N 
ATOM     55  N   UNL     1      -1.942   0.805 -11.731  1.00  0.00    -0.248 NA
ATOM     56  C   UNL     1      -1.789   3.119 -12.015  1.00  0.00     0.031 C 
ATOM     57  C   UNL     1      -3.496  -1.996 -14.807  1.00  0.00     0.029 A 
ATOM     58  C   UNL     1      -3.009  -1.099 -13.870  1.00  0.00     0.049 A 
ATOM     59  H   UNL     1      -2.200  -1.482 -11.959  1.00  0.00     0.167 HD
ATOM     60  C   UNL     1      -2.433   1.145 -12.989  1.00  0.00     0.074 A 
ATOM     61  C   UNL     1      -2.344   2.587 -13.096  1.00  0.00     0.031 C 
ATOM     62  C   UNL     1      -2.917   0.337 -13.965  1.00  0.00     0.031 A 
BRANCH  49  63
ATOM     63  C   UNL     1      -2.791  -5.678 -12.528  1.00  0.00    -0.014 A 
ATOM     64  C   UNL     1      -3.791  -6.447 -11.904  1.00  0.00     0.010 A 
ATOM     65  C   UNL     1      -2.056  -6.242 -13.587  1.00  0.00     0.010 A 
ATOM     66  C   UNL     1      -4.020  -7.766 -12.303  1.00  0.00     0.020 A 
ATOM     67  C   UNL     1      -2.303  -7.551 -14.009  1.00  0.00     0.020 A 
ATOM     68  C   UNL     1      -3.272  -8.311 -13.352  1.00  0.00     0.054 A 
BRANCH  68  69
ATOM     69  S   UNL     1      -3.602 -10.021 -13.859  1.00  0.00     0.124 S 
ATOM     70  O   UNL     1      -3.055 -10.778 -12.735  1.00  0.00    -0.237 OA
ATOM     71  O   UNL     1      -5.057 -10.043 -13.982  1.00  0.00    -0.237 OA
ATOM     72  O   UNL     1      -2.870 -10.159 -15.116  1.00  0.00    -0.744 OA
ENDBRANCH  68  69
ENDBRANCH  49  63
BRANCH  50  73
ATOM     73  C   UNL     1      -0.676   3.552  -9.337  1.00  0.00    -0.014 A 
ATOM     74  C   UNL     1      -1.679   4.510  -9.105  1.00  0.00     0.010 A 
ATOM     75  C   UNL     1       0.670   3.917  -9.150  1.00  0.00     0.010 A 
ATOM     76  C   UNL     1      -1.341   5.809  -8.712  1.00  0.00     0.020 A 
ATOM     77  C   UNL     1       1.010   5.205  -8.726  1.00  0.00     0.020 A 
ATOM     78  C   UNL     1       0.002   6.147  -8.521  1.00  0.00     0.054 A 
BRANCH  78  79
ATOM     79  S   UNL     1       0.412   7.825  -7.965  1.00  0.00     0.124 S 
ATOM     80  O   UNL     1       0.134   8.618  -9.158  1.00  0.00    -0.237 OA
ATOM     81  O   UNL     1      -0.507   8.020  -6.847  1.00  0.00    -0.237 OA
ATOM     82  O   UNL     1       1.823   7.728  -7.594  1.00  0.00    -0.744 OA
ENDBRANCH  78  79
ENDBRANCH  50  73
BRANCH  62  83
ATOM     83  C   UNL     1      -3.434   0.988 -15.224  1.00  0.00    -0.014 A 
ATOM     84  C   UNL     1      -2.564   1.580 -16.157  1.00  0.00     0.010 A 
ATOM     85  C   UNL     1      -4.813   0.948 -15.506  1.00  0.00     0.010 A 
ATOM     86  C   UNL     1      -3.067   2.146 -17.332  1.00  0.00     0.020 A 
ATOM     87  C   UNL     1      -5.316   1.485 -16.694  1.00  0.00     0.020 A 
ATOM     88  C   UNL     1      -4.440   2.094 -17.594  1.00  0.00     0.054 A 
BRANCH  88  89
ATOM     89  S   UNL     1      -5.061   2.795 -19.148  1.00  0.00     0.124 S 
ATOM     90  O   UNL     1      -4.924   4.229 -18.912  1.00  0.00    -0.237 OA
ATOM     91  O   UNL     1      -4.150   2.231 -20.140  1.00  0.00    -0.237 OA
ATOM     92  O   UNL     1      -6.436   2.305 -19.225  1.00  0.00    -0.744 OA
ENDBRANCH  88  89
ENDBRANCH  62  83
ENDBRANCH  36  37
ENDBRANCH  29  31
ENDBRANCH  28  29
ENDBRANCH  27  28
ENDBRANCH  26  27
ENDBRANCH  25  26
ENDBRANCH   1  25
TORSDOF 23
