REMARK SMILES CCCCCCNC(=O)Oc1cccc(-c2ccc([C@@H](C)C(=O)OCCOCCOCCOC(=O)c3ccc(-c4c5nc(c(-c6ccc(S(=O)(=O)[O-])cc6)c6ccc([nH]6)c(-c6ccc(S(=O)(=O)[O-])cc6)c6nc(c(-c7ccc(S(=O)(=O)[O-])cc7)c7ccc4[nH]7)C=C6)C=C5)cc3)cc2C)c1
REMARK SMILES IDX 25 1 24 2 22 3 23 4 20 5 21 6 19 7 16 8 17 9 97 10 18 11
REMARK SMILES IDX 96 12 98 13 15 14 11 15 12 16 99 17 13 18 14 19 10 20 8 21
REMARK SMILES IDX 7 22 9 24 6 25 5 26 4 27 3 28 2 29 1 30 26 31 27 32 28 33
REMARK SMILES IDX 29 34 30 35 31 36 32 37 33 38 34 39 35 40 36 41 37 42 95 43
REMARK SMILES IDX 38 44 94 45 39 46 40 47 41 48 88 49 42 50 93 51 87 52 89 53
REMARK SMILES IDX 43 54 92 55 86 56 85 57 44 59 74 60 55 61 73 62 56 63 59 64
REMARK SMILES IDX 72 65 90 66 57 67 58 68 71 70 91 71 60 72 45 73 46 74 54 75
REMARK SMILES IDX 47 76 53 77 48 78 49 79 50 80 51 81 52 82 75 83 76 84 84 85
REMARK SMILES IDX 77 86 83 87 78 88 79 89 80 90 81 91 82 92 61 93 62 94 70 95
REMARK SMILES IDX 63 96 69 97 64 98 65 99 66 100 67 101 68 102
REMARK H PARENT 7 23 89 58 59 69
REMARK Flexibility Score: inf
ROOT
ATOM      1  C   UNL     1      -2.087 -14.534  -6.562  1.00  0.00     0.261 C 
ENDROOT
BRANCH   1   2
ATOM      2  O   UNL     1      -3.090 -13.660  -5.999  1.00  0.00    -0.463 OA
BRANCH   2   3
ATOM      3  C   UNL     1      -3.911 -14.209  -5.067  1.00  0.00     0.313 C 
ATOM      4  O   UNL     1      -3.874 -15.400  -4.762  1.00  0.00    -0.252 OA
BRANCH   3   5
ATOM      5  C   UNL     1      -4.907 -13.264  -4.391  1.00  0.00     0.126 C 
ATOM      6  C   UNL     1      -6.317 -13.810  -4.622  1.00  0.00     0.025 C 
BRANCH   5   7
ATOM      7  C   UNL     1      -4.882 -11.756  -4.641  1.00  0.00    -0.034 A 
ATOM      8  C   UNL     1      -4.882  -8.901  -4.974  1.00  0.00    -0.015 A 
ATOM      9  C   UNL     1      -4.936  -9.786  -6.072  1.00  0.00     0.009 A 
ATOM     10  C   UNL     1      -4.846  -9.468  -3.683  1.00  0.00    -0.043 A 
ATOM     11  C   UNL     1      -4.953 -11.184  -5.913  1.00  0.00     0.005 A 
ATOM     12  C   UNL     1      -4.834 -10.876  -3.538  1.00  0.00     0.008 A 
ATOM     13  C   UNL     1      -4.803  -8.638  -2.423  1.00  0.00     0.045 C 
BRANCH   8  14
ATOM     14  C   UNL     1      -4.946  -7.439  -5.213  1.00  0.00    -0.014 A 
ATOM     15  C   UNL     1      -4.095  -5.175  -4.942  1.00  0.00     0.133 A 
ATOM     16  C   UNL     1      -5.226  -4.643  -5.558  1.00  0.00     0.047 A 
ATOM     17  C   UNL     1      -3.940  -6.557  -4.774  1.00  0.00     0.056 A 
ATOM     18  C   UNL     1      -6.213  -5.503  -6.027  1.00  0.00     0.004 A 
ATOM     19  C   UNL     1      -6.075  -6.884  -5.849  1.00  0.00     0.009 A 
BRANCH  15  20
ATOM     20  O   UNL     1      -3.212  -4.252  -4.351  1.00  0.00    -0.410 OA
BRANCH  20  21
ATOM     21  C   UNL     1      -1.869  -4.306  -4.680  1.00  0.00     0.412 C 
ATOM     22  N   UNL     1      -1.103  -3.408  -3.992  1.00  0.00    -0.321 N 
ATOM     23  H   UNL     1      -0.131  -3.455  -4.143  1.00  0.00     0.167 HD
ATOM     24  O   UNL     1      -1.368  -5.049  -5.527  1.00  0.00    -0.224 OA
BRANCH  22  25
ATOM     25  C   UNL     1      -1.564  -2.390  -3.063  1.00  0.00     0.119 C 
BRANCH  25  26
ATOM     26  C   UNL     1      -0.941  -2.528  -1.673  1.00  0.00     0.021 C 
BRANCH  26  27
ATOM     27  C   UNL     1       0.586  -2.394  -1.624  1.00  0.00     0.002 C 
BRANCH  27  28
ATOM     28  C   UNL     1       1.157  -1.069  -2.143  1.00  0.00    -0.000 C 
BRANCH  28  29
ATOM     29  C   UNL     1       0.685   0.188  -1.407  1.00  0.00    -0.003 C 
ATOM     30  C   UNL     1       1.093   0.221   0.059  1.00  0.00     0.004 C 
ENDBRANCH  28  29
ENDBRANCH  27  28
ENDBRANCH  26  27
ENDBRANCH  25  26
ENDBRANCH  22  25
ENDBRANCH  20  21
ENDBRANCH  15  20
ENDBRANCH   8  14
ENDBRANCH   5   7
ENDBRANCH   3   5
ENDBRANCH   2   3
ENDBRANCH   1   2
BRANCH   1  31
ATOM     31  C   UNL     1      -0.637 -14.057  -6.397  1.00  0.00     0.202 C 
BRANCH  31  32
ATOM     32  O   UNL     1      -0.169 -13.802  -5.080  1.00  0.00    -0.376 OA
BRANCH  32  33
ATOM     33  C   UNL     1      -0.834 -12.831  -4.278  1.00  0.00     0.188 C 
BRANCH  33  34
ATOM     34  C   UNL     1      -1.428 -11.581  -4.941  1.00  0.00     0.188 C 
BRANCH  34  35
ATOM     35  O   UNL     1      -0.938 -11.322  -6.243  1.00  0.00    -0.376 OA
BRANCH  35  36
ATOM     36  C   UNL     1      -0.446 -10.013  -6.461  1.00  0.00     0.202 C 
BRANCH  36  37
ATOM     37  C   UNL     1       0.937  -9.799  -5.835  1.00  0.00     0.261 C 
BRANCH  37  38
ATOM     38  O   UNL     1       1.016 -10.063  -4.420  1.00  0.00    -0.460 OA
BRANCH  38  39
ATOM     39  C   UNL     1       0.362  -9.210  -3.604  1.00  0.00     0.338 C 
ATOM     40  O   UNL     1      -0.270  -8.213  -3.935  1.00  0.00    -0.246 OA
BRANCH  39  41
ATOM     41  C   UNL     1       0.340  -9.784  -2.244  1.00  0.00     0.060 A 
ATOM     42  C   UNL     1      -0.896 -10.002  -1.619  1.00  0.00     0.016 A 
ATOM     43  C   UNL     1       1.528 -10.090  -1.578  1.00  0.00     0.016 A 
ATOM     44  C   UNL     1      -0.947 -10.481  -0.309  1.00  0.00     0.010 A 
ATOM     45  C   UNL     1       1.476 -10.557  -0.261  1.00  0.00     0.010 A 
ATOM     46  C   UNL     1       0.241 -10.719   0.394  1.00  0.00    -0.014 A 
BRANCH  46  47
ATOM     47  C   UNL     1       0.208 -10.951   1.860  1.00  0.00     0.031 A 
ATOM     48  C   UNL     1       0.508  -9.792   2.775  1.00  0.00     0.074 A 
ATOM     49  C   UNL     1      -0.085 -12.158   2.378  1.00  0.00     0.049 A 
ATOM     50  N   UNL     1       0.605  -9.767   4.079  1.00  0.00    -0.248 NA
ATOM     51  C   UNL     1       0.733  -8.488   2.129  1.00  0.00     0.031 C 
ATOM     52  C   UNL     1      -0.441 -13.348   1.608  1.00  0.00     0.029 A 
ATOM     53  N   UNL     1      -0.120 -12.579   3.685  1.00  0.00    -0.354 N 
ATOM     54  C   UNL     1       0.915  -8.452   4.409  1.00  0.00     0.074 A 
ATOM     55  C   UNL     1       1.018  -7.717   3.167  1.00  0.00     0.031 C 
ATOM     56  C   UNL     1      -0.647 -14.370   2.457  1.00  0.00     0.029 A 
ATOM     57  C   UNL     1      -0.402 -13.917   3.826  1.00  0.00     0.049 A 
ATOM     58  H   UNL     1       0.043 -11.979   4.449  1.00  0.00     0.167 HD
ATOM     59  C   UNL     1       1.095  -7.902   5.633  1.00  0.00     0.031 A 
ATOM     60  C   UNL     1      -0.434 -14.693   4.929  1.00  0.00     0.031 A 
ATOM     61  C   UNL     1       1.009  -8.637   6.868  1.00  0.00     0.049 A 
ATOM     62  C   UNL     1      -0.152 -14.076   6.277  1.00  0.00     0.074 A 
ATOM     63  C   UNL     1       1.165  -8.167   8.160  1.00  0.00     0.029 A 
ATOM     64  N   UNL     1       0.754  -9.996   6.965  1.00  0.00    -0.354 N 
ATOM     65  N   UNL     1       0.121 -12.828   6.575  1.00  0.00    -0.248 NA
ATOM     66  C   UNL     1      -0.191 -14.976   7.440  1.00  0.00     0.031 C 
ATOM     67  C   UNL     1       1.064  -9.253   9.035  1.00  0.00     0.029 A 
ATOM     68  C   UNL     1       0.774 -10.387   8.293  1.00  0.00     0.049 A 
ATOM     69  H   UNL     1       0.583 -10.595   6.202  1.00  0.00     0.167 HD
ATOM     70  C   UNL     1       0.252 -12.787   7.961  1.00  0.00     0.074 A 
ATOM     71  C   UNL     1       0.017 -14.132   8.442  1.00  0.00     0.031 C 
ATOM     72  C   UNL     1       0.537 -11.730   8.763  1.00  0.00     0.031 A 
BRANCH  59  73
ATOM     73  C   UNL     1       1.442  -6.438   5.693  1.00  0.00    -0.014 A 
ATOM     74  C   UNL     1       0.496  -5.449   5.367  1.00  0.00     0.010 A 
ATOM     75  C   UNL     1       2.726  -6.044   6.113  1.00  0.00     0.010 A 
ATOM     76  C   UNL     1       0.841  -4.095   5.421  1.00  0.00     0.020 A 
ATOM     77  C   UNL     1       3.065  -4.691   6.197  1.00  0.00     0.020 A 
ATOM     78  C   UNL     1       2.125  -3.725   5.833  1.00  0.00     0.054 A 
BRANCH  78  79
ATOM     79  S   UNL     1       2.538  -1.961   5.909  1.00  0.00     0.124 S 
ATOM     80  O   UNL     1       2.610  -1.608   4.493  1.00  0.00    -0.237 OA
ATOM     81  O   UNL     1       1.404  -1.399   6.638  1.00  0.00    -0.237 OA
ATOM     82  O   UNL     1       3.811  -1.932   6.624  1.00  0.00    -0.744 OA
ENDBRANCH  78  79
ENDBRANCH  59  73
BRANCH  60  83
ATOM     83  C   UNL     1      -0.728 -16.149   4.811  1.00  0.00    -0.014 A 
ATOM     84  C   UNL     1      -1.922 -16.685   5.325  1.00  0.00     0.010 A 
ATOM     85  C   UNL     1       0.195 -17.012   4.191  1.00  0.00     0.010 A 
ATOM     86  C   UNL     1      -2.180 -18.057   5.237  1.00  0.00     0.020 A 
ATOM     87  C   UNL     1      -0.073 -18.379   4.074  1.00  0.00     0.020 A 
ATOM     88  C   UNL     1      -1.254 -18.895   4.609  1.00  0.00     0.054 A 
BRANCH  88  89
ATOM     89  S   UNL     1      -1.633 -20.664   4.464  1.00  0.00     0.124 S 
ATOM     90  O   UNL     1      -1.470 -21.123   5.839  1.00  0.00    -0.237 OA
ATOM     91  O   UNL     1      -3.004 -20.651   3.959  1.00  0.00    -0.237 OA
ATOM     92  O   UNL     1      -0.633 -21.152   3.517  1.00  0.00    -0.744 OA
ENDBRANCH  88  89
ENDBRANCH  60  83
BRANCH  72  93
ATOM     93  C   UNL     1       0.564 -11.967  10.252  1.00  0.00    -0.014 A 
ATOM     94  C   UNL     1       1.593 -12.707  10.861  1.00  0.00     0.010 A 
ATOM     95  C   UNL     1      -0.434 -11.392  11.061  1.00  0.00     0.010 A 
ATOM     96  C   UNL     1       1.601 -12.900  12.246  1.00  0.00     0.020 A 
ATOM     97  C   UNL     1      -0.413 -11.555  12.448  1.00  0.00     0.020 A 
ATOM     98  C   UNL     1       0.597 -12.323  13.031  1.00  0.00     0.054 A 
BRANCH  98  99
ATOM     99  S   UNL     1       0.648 -12.558  14.829  1.00  0.00     0.124 S 
ATOM    100  O   UNL     1       0.257 -13.959  14.964  1.00  0.00    -0.237 OA
ATOM    101  O   UNL     1       2.042 -12.261  15.152  1.00  0.00    -0.237 OA
ATOM    102  O   UNL     1      -0.321 -11.589  15.335  1.00  0.00    -0.744 OA
ENDBRANCH  98  99
ENDBRANCH  72  93
ENDBRANCH  46  47
ENDBRANCH  39  41
ENDBRANCH  38  39
ENDBRANCH  37  38
ENDBRANCH  36  37
ENDBRANCH  35  36
ENDBRANCH  34  35
ENDBRANCH  33  34
ENDBRANCH  32  33
ENDBRANCH  31  32
ENDBRANCH   1  31
TORSDOF 29
