REMARK SMILES Cc1cc2c(c(C)c1Cl)C=C(C(=O)OCCOCCOCCOC(=O)c1ccc(-c3c4nc(c(-c5ccc(S(=O)(=O)[O-])cc5)c5ccc([nH]5)c(-c5ccc(S(=O)(=O)[O-])cc5)c5nc(c(-c6ccc(S(=O)(=O)[O-])cc6)c6ccc3[nH]6)C=C5)C=C4)cc1)[C@@H](C(F)(F)F)O2
REMARK SMILES IDX 19 1 18 2 17 3 16 4 15 5 14 6 12 7 13 8 11 9 1 10 2 11 3 12
REMARK SMILES IDX 8 13 4 14 6 15 9 16 5 17 91 18 7 19 10 20 86 21 87 22 88 23
REMARK SMILES IDX 89 24 90 25 20 26 21 27 22 28 23 29 24 30 25 31 26 32 27 33
REMARK SMILES IDX 85 34 28 35 84 36 29 37 30 38 31 39 78 40 32 41 83 42 77 43
REMARK SMILES IDX 79 44 33 45 82 46 76 47 75 48 34 50 64 51 45 52 63 53 46 54
REMARK SMILES IDX 49 55 62 56 80 57 47 58 48 59 61 61 81 62 50 63 35 64 36 65
REMARK SMILES IDX 44 66 37 67 43 68 38 69 39 70 40 71 41 72 42 73 65 74 66 75
REMARK SMILES IDX 74 76 67 77 73 78 68 79 69 80 70 81 71 82 72 83 51 84 52 85
REMARK SMILES IDX 60 86 53 87 59 88 54 89 55 90 56 91 57 92 58 93
REMARK H PARENT 79 49 49 60
REMARK Flexibility Score: inf
ROOT
ATOM      1  C   UNL     1      -1.354  -8.215   1.530  1.00  0.00     0.188 C 
ENDROOT
BRANCH   1   2
ATOM      2  C   UNL     1      -2.287  -8.642   0.377  1.00  0.00     0.188 C 
BRANCH   2   3
ATOM      3  O   UNL     1      -2.368  -9.995  -0.015  1.00  0.00    -0.376 OA
BRANCH   3   4
ATOM      4  C   UNL     1      -1.262 -10.683  -0.573  1.00  0.00     0.202 C 
BRANCH   4   5
ATOM      5  C   UNL     1      -0.149 -10.006  -1.380  1.00  0.00     0.261 C 
BRANCH   5   6
ATOM      6  O   UNL     1       0.235  -8.704  -0.933  1.00  0.00    -0.460 OA
BRANCH   6   7
ATOM      7  C   UNL     1       0.042  -7.715  -1.839  1.00  0.00     0.338 C 
ATOM      8  O   UNL     1      -0.389  -7.834  -2.974  1.00  0.00    -0.246 OA
BRANCH   7   9
ATOM      9  C   UNL     1       0.330  -6.414  -1.213  1.00  0.00     0.087 C 
ATOM     10  C   UNL     1       0.973  -0.153   0.269  1.00  0.00     0.046 C 
ATOM     11  C   UNL     1       0.471  -1.527  -0.083  1.00  0.00    -0.028 A 
ATOM     12  C   UNL     1       1.304  -2.626   0.153  1.00  0.00     0.052 A 
ATOM     13  C   UNL     1      -0.810  -1.746  -0.629  1.00  0.00     0.047 A 
ATOM     14  C   UNL     1       0.918  -3.908  -0.231  1.00  0.00     0.128 A 
ATOM     15  C   UNL     1      -1.229  -3.045  -1.004  1.00  0.00    -0.021 A 
ATOM     16  Cl  UNL     1      -1.858  -0.378  -0.847  1.00  0.00    -0.084 Cl
ATOM     17  C   UNL     1      -0.320  -4.122  -0.849  1.00  0.00     0.022 A 
ATOM     18  O   UNL     1       1.834  -4.885   0.038  1.00  0.00    -0.475 OA
ATOM     19  C   UNL     1      -2.606  -3.302  -1.575  1.00  0.00     0.047 C 
ATOM     20  C   UNL     1      -0.594  -5.458  -1.372  1.00  0.00     0.027 C 
ATOM     21  C   UNL     1       1.614  -6.227  -0.462  1.00  0.00     0.316 C 
BRANCH  21  22
ATOM     22  C   UNL     1       2.848  -6.639  -1.278  1.00  0.00     0.430 C 
ATOM     23  F   UNL     1       3.990  -6.438  -0.574  1.00  0.00    -0.167 F 
ATOM     24  F   UNL     1       2.826  -7.954  -1.601  1.00  0.00    -0.167 F 
ATOM     25  F   UNL     1       2.956  -5.941  -2.430  1.00  0.00    -0.167 F 
ENDBRANCH  21  22
ENDBRANCH   7   9
ENDBRANCH   6   7
ENDBRANCH   5   6
ENDBRANCH   4   5
ENDBRANCH   3   4
ENDBRANCH   2   3
ENDBRANCH   1   2
BRANCH   1  26
ATOM     26  O   UNL     1      -0.610  -9.171   2.261  1.00  0.00    -0.376 OA
BRANCH  26  27
ATOM     27  C   UNL     1      -1.285 -10.275   2.845  1.00  0.00     0.202 C 
BRANCH  27  28
ATOM     28  C   UNL     1      -2.526 -10.069   3.720  1.00  0.00     0.261 C 
BRANCH  28  29
ATOM     29  O   UNL     1      -3.551  -9.267   3.120  1.00  0.00    -0.460 OA
BRANCH  29  30
ATOM     30  C   UNL     1      -3.814  -8.099   3.760  1.00  0.00     0.338 C 
ATOM     31  O   UNL     1      -3.292  -7.683   4.780  1.00  0.00    -0.246 OA
BRANCH  30  32
ATOM     32  C   UNL     1      -4.714  -7.279   2.929  1.00  0.00     0.060 A 
ATOM     33  C   UNL     1      -4.250  -6.035   2.482  1.00  0.00     0.016 A 
ATOM     34  C   UNL     1      -6.010  -7.705   2.634  1.00  0.00     0.016 A 
ATOM     35  C   UNL     1      -5.091  -5.200   1.750  1.00  0.00     0.010 A 
ATOM     36  C   UNL     1      -6.861  -6.853   1.924  1.00  0.00     0.010 A 
ATOM     37  C   UNL     1      -6.413  -5.589   1.502  1.00  0.00    -0.014 A 
BRANCH  37  38
ATOM     38  C   UNL     1      -7.374  -4.602   0.956  1.00  0.00     0.031 A 
ATOM     39  C   UNL     1      -8.180  -3.776   1.921  1.00  0.00     0.074 A 
ATOM     40  C   UNL     1      -7.508  -4.422  -0.370  1.00  0.00     0.049 A 
ATOM     41  N   UNL     1      -9.099  -2.880   1.674  1.00  0.00    -0.248 NA
ATOM     42  C   UNL     1      -7.907  -3.982   3.354  1.00  0.00     0.031 C 
ATOM     43  C   UNL     1      -6.741  -5.117  -1.403  1.00  0.00     0.029 A 
ATOM     44  N   UNL     1      -8.346  -3.592  -1.073  1.00  0.00    -0.354 N 
ATOM     45  C   UNL     1      -9.508  -2.410   2.916  1.00  0.00     0.074 A 
ATOM     46  C   UNL     1      -8.758  -3.136   3.916  1.00  0.00     0.031 C 
ATOM     47  C   UNL     1      -7.151  -4.689  -2.611  1.00  0.00     0.029 A 
ATOM     48  C   UNL     1      -8.229  -3.716  -2.437  1.00  0.00     0.049 A 
ATOM     49  H   UNL     1      -8.972  -2.967  -0.641  1.00  0.00     0.167 HD
ATOM     50  C   UNL     1     -10.423  -1.454   3.198  1.00  0.00     0.031 A 
ATOM     51  C   UNL     1      -8.928  -3.127  -3.429  1.00  0.00     0.031 A 
ATOM     52  C   UNL     1     -11.190  -0.752   2.206  1.00  0.00     0.049 A 
ATOM     53  C   UNL     1     -10.020  -2.145  -3.083  1.00  0.00     0.074 A 
ATOM     54  C   UNL     1     -12.156   0.221   2.398  1.00  0.00     0.029 A 
ATOM     55  N   UNL     1     -11.084  -0.948   0.839  1.00  0.00    -0.354 N 
ATOM     56  N   UNL     1     -10.397  -1.712  -1.904  1.00  0.00    -0.248 NA
ATOM     57  C   UNL     1     -10.779  -1.571  -4.205  1.00  0.00     0.031 C 
ATOM     58  C   UNL     1     -12.670   0.576   1.147  1.00  0.00     0.029 A 
ATOM     59  C   UNL     1     -11.982  -0.131   0.175  1.00  0.00     0.049 A 
ATOM     60  H   UNL     1     -10.462  -1.575   0.404  1.00  0.00     0.167 HD
ATOM     61  C   UNL     1     -11.416  -0.795  -2.144  1.00  0.00     0.074 A 
ATOM     62  C   UNL     1     -11.591  -0.728  -3.580  1.00  0.00     0.031 C 
ATOM     63  C   UNL     1     -12.140  -0.071  -1.256  1.00  0.00     0.031 A 
BRANCH  50  64
ATOM     64  C   UNL     1     -10.665  -1.124   4.644  1.00  0.00    -0.014 A 
ATOM     65  C   UNL     1      -9.733  -0.366   5.375  1.00  0.00     0.010 A 
ATOM     66  C   UNL     1     -11.868  -1.514   5.259  1.00  0.00     0.010 A 
ATOM     67  C   UNL     1      -9.996  -0.013   6.701  1.00  0.00     0.020 A 
ATOM     68  C   UNL     1     -12.144  -1.145   6.578  1.00  0.00     0.020 A 
ATOM     69  C   UNL     1     -11.202  -0.402   7.293  1.00  0.00     0.054 A 
BRANCH  69  70
ATOM     70  S   UNL     1     -11.539   0.118   8.997  1.00  0.00     0.124 S 
ATOM     71  O   UNL     1     -10.588  -0.694   9.754  1.00  0.00    -0.237 OA
ATOM     72  O   UNL     1     -11.249   1.549   8.957  1.00  0.00    -0.237 OA
ATOM     73  O   UNL     1     -12.945  -0.226   9.195  1.00  0.00    -0.744 OA
ENDBRANCH  69  70
ENDBRANCH  50  64
BRANCH  51  74
ATOM     74  C   UNL     1      -8.639  -3.462  -4.850  1.00  0.00    -0.014 A 
ATOM     75  C   UNL     1      -8.062  -2.508  -5.708  1.00  0.00     0.010 A 
ATOM     76  C   UNL     1      -8.961  -4.733  -5.360  1.00  0.00     0.010 A 
ATOM     77  C   UNL     1      -7.833  -2.812  -7.054  1.00  0.00     0.020 A 
ATOM     78  C   UNL     1      -8.709  -5.049  -6.698  1.00  0.00     0.020 A 
ATOM     79  C   UNL     1      -8.158  -4.082  -7.540  1.00  0.00     0.054 A 
BRANCH  79  80
ATOM     80  S   UNL     1      -7.820  -4.464  -9.281  1.00  0.00     0.124 S 
ATOM     81  O   UNL     1      -8.844  -3.683  -9.968  1.00  0.00    -0.237 OA
ATOM     82  O   UNL     1      -6.447  -3.994  -9.445  1.00  0.00    -0.237 OA
ATOM     83  O   UNL     1      -7.986  -5.914  -9.351  1.00  0.00    -0.744 OA
ENDBRANCH  79  80
ENDBRANCH  51  74
BRANCH  63  84
ATOM     84  C   UNL     1     -13.167   0.888  -1.799  1.00  0.00    -0.014 A 
ATOM     85  C   UNL     1     -14.383   0.428  -2.332  1.00  0.00     0.010 A 
ATOM     86  C   UNL     1     -12.944   2.274  -1.692  1.00  0.00     0.010 A 
ATOM     87  C   UNL     1     -15.352   1.337  -2.766  1.00  0.00     0.020 A 
ATOM     88  C   UNL     1     -13.921   3.186  -2.102  1.00  0.00     0.020 A 
ATOM     89  C   UNL     1     -15.115   2.711  -2.646  1.00  0.00     0.054 A 
BRANCH  89  90
ATOM     90  S   UNL     1     -16.414   3.868  -3.162  1.00  0.00     0.124 S 
ATOM     91  O   UNL     1     -16.364   3.753  -4.617  1.00  0.00    -0.237 OA
ATOM     92  O   UNL     1     -17.608   3.312  -2.529  1.00  0.00    -0.237 OA
ATOM     93  O   UNL     1     -15.971   5.151  -2.623  1.00  0.00    -0.744 OA
ENDBRANCH  89  90
ENDBRANCH  63  84
ENDBRANCH  37  38
ENDBRANCH  30  32
ENDBRANCH  29  30
ENDBRANCH  28  29
ENDBRANCH  27  28
ENDBRANCH  26  27
ENDBRANCH   1  26
TORSDOF 21
