REMARK SMILES O=C(Cn1c2ccccc2c(=O)c2ccccc21)N[C@@H](Cc1ccccc1)C(=O)OCCOCCOCCOC(=O)c1ccc(-c2c3nc(c(-c4ccc(S(=O)(=O)[O-])cc4)c4ccc([nH]4)c(-c4ccc(S(=O)(=O)[O-])cc4)c4nc(c(-c5ccc(S(=O)(=O)[O-])cc5)c5ccc2[nH]5)C=C4)C=C3)cc1
REMARK SMILES IDX 34 1 33 2 32 3 31 4 30 5 28 6 29 7 20 8 19 9 1 10 2 11 3 13
REMARK SMILES IDX 4 14 5 15 18 16 6 17 10 18 13 19 17 20 7 21 9 22 11 23 14 24
REMARK SMILES IDX 16 25 8 26 12 27 15 28 21 29 22 30 23 31 27 32 24 33 26 34
REMARK SMILES IDX 25 35 35 36 36 37 37 38 38 39 39 40 40 41 41 42 42 43 43 44
REMARK SMILES IDX 101 45 44 46 100 47 45 48 46 49 47 50 94 51 48 52 99 53
REMARK SMILES IDX 93 54 95 55 49 56 98 57 92 58 91 59 50 61 80 62 61 63 79 64
REMARK SMILES IDX 62 65 65 66 78 67 96 68 63 69 64 70 77 72 97 73 66 74 51 75
REMARK SMILES IDX 52 76 60 77 53 78 59 79 54 80 55 81 56 82 57 83 58 84 81 85
REMARK SMILES IDX 82 86 90 87 83 88 89 89 84 90 85 91 86 92 87 93 88 94 67 95
REMARK SMILES IDX 68 96 76 97 69 98 75 99 70 100 71 101 72 102 73 103 74 104
REMARK H PARENT 19 12 95 60 65 71
REMARK Flexibility Score: inf
ROOT
ATOM      1  C   UNL     1       1.908   2.668   3.647  1.00  0.00     0.188 C 
ENDROOT
BRANCH   1   2
ATOM      2  O   UNL     1       2.331   3.072   4.945  1.00  0.00    -0.376 OA
BRANCH   2   3
ATOM      3  C   UNL     1       3.417   2.372   5.543  1.00  0.00     0.202 C 
BRANCH   3   4
ATOM      4  C   UNL     1       3.371   0.839   5.506  1.00  0.00     0.261 C 
BRANCH   4   5
ATOM      5  O   UNL     1       3.319   0.300   4.165  1.00  0.00    -0.462 OA
BRANCH   5   6
ATOM      6  C   UNL     1       2.382  -0.654   3.924  1.00  0.00     0.329 C 
ATOM      7  O   UNL     1       1.650  -1.119   4.793  1.00  0.00    -0.250 OA
BRANCH   6   8
ATOM      8  C   UNL     1       2.426  -1.252   2.489  1.00  0.00     0.196 C 
BRANCH   8   9
ATOM      9  N   UNL     1       2.954  -0.587   1.270  1.00  0.00    -0.341 N 
ATOM     10  O   UNL     1       0.959   0.005   0.320  1.00  0.00    -0.273 OA
ATOM     11  C   UNL     1       2.175  -0.139   0.220  1.00  0.00     0.240 C 
ATOM     12  H   UNL     1       3.928  -0.457   1.206  1.00  0.00     0.164 HD
BRANCH  11  13
ATOM     13  C   UNL     1       2.912   0.057  -1.125  1.00  0.00     0.222 C 
BRANCH  13  14
ATOM     14  N   UNL     1       3.802   1.244  -1.165  1.00  0.00    -0.331 N 
ATOM     15  C   UNL     1       3.263   2.477  -1.629  1.00  0.00     0.053 A 
ATOM     16  C   UNL     1       5.175   1.100  -0.840  1.00  0.00     0.053 A 
ATOM     17  C   UNL     1       1.931   2.652  -2.048  1.00  0.00     0.027 A 
ATOM     18  C   UNL     1       4.087   3.619  -1.707  1.00  0.00     0.046 A 
ATOM     19  C   UNL     1       6.014   2.231  -0.819  1.00  0.00     0.046 A 
ATOM     20  C   UNL     1       5.796  -0.126  -0.540  1.00  0.00     0.027 A 
ATOM     21  C   UNL     1       1.460   3.883  -2.534  1.00  0.00     0.002 A 
ATOM     22  C   UNL     1       3.628   4.846  -2.210  1.00  0.00     0.014 A 
ATOM     23  C   UNL     1       5.477   3.544  -1.221  1.00  0.00     0.197 A 
ATOM     24  C   UNL     1       7.366   2.159  -0.444  1.00  0.00     0.014 A 
ATOM     25  C   UNL     1       7.151  -0.208  -0.187  1.00  0.00     0.002 A 
ATOM     26  C   UNL     1       2.310   4.978  -2.624  1.00  0.00     0.001 A 
ATOM     27  O   UNL     1       6.182   4.546  -1.145  1.00  0.00    -0.288 OA
ATOM     28  C   UNL     1       7.933   0.936  -0.120  1.00  0.00     0.001 A 
ENDBRANCH  13  14
ENDBRANCH  11  13
ENDBRANCH   8   9
BRANCH   8  29
ATOM     29  C   UNL     1       3.136  -2.613   2.646  1.00  0.00     0.072 C 
BRANCH  29  30
ATOM     30  C   UNL     1       4.631  -2.630   2.944  1.00  0.00    -0.045 A 
ATOM     31  C   UNL     1       5.469  -1.504   2.965  1.00  0.00     0.004 A 
ATOM     32  C   UNL     1       5.211  -3.877   3.218  1.00  0.00     0.004 A 
ATOM     33  C   UNL     1       6.835  -1.618   3.230  1.00  0.00     0.000 A 
ATOM     34  C   UNL     1       6.576  -3.992   3.494  1.00  0.00     0.000 A 
ATOM     35  C   UNL     1       7.389  -2.863   3.493  1.00  0.00     0.000 A 
ENDBRANCH  29  30
ENDBRANCH   8  29
ENDBRANCH   6   8
ENDBRANCH   5   6
ENDBRANCH   4   5
ENDBRANCH   3   4
ENDBRANCH   2   3
ENDBRANCH   1   2
BRANCH   1  36
ATOM     36  C   UNL     1       2.979   2.531   2.540  1.00  0.00     0.188 C 
BRANCH  36  37
ATOM     37  O   UNL     1       4.304   2.796   2.962  1.00  0.00    -0.376 OA
BRANCH  37  38
ATOM     38  C   UNL     1       4.883   3.995   2.474  1.00  0.00     0.202 C 
BRANCH  38  39
ATOM     39  C   UNL     1       4.093   5.310   2.592  1.00  0.00     0.261 C 
BRANCH  39  40
ATOM     40  O   UNL     1       2.672   5.171   2.411  1.00  0.00    -0.460 OA
BRANCH  40  41
ATOM     41  C   UNL     1       2.127   5.540   1.234  1.00  0.00     0.338 C 
ATOM     42  O   UNL     1       2.690   6.114   0.317  1.00  0.00    -0.246 OA
BRANCH  41  43
ATOM     43  C   UNL     1       0.698   5.153   1.235  1.00  0.00     0.060 A 
ATOM     44  C   UNL     1      -0.231   6.081   1.694  1.00  0.00     0.016 A 
ATOM     45  C   UNL     1       0.264   3.894   0.787  1.00  0.00     0.016 A 
ATOM     46  C   UNL     1      -1.589   5.753   1.695  1.00  0.00     0.010 A 
ATOM     47  C   UNL     1      -1.097   3.567   0.782  1.00  0.00     0.010 A 
ATOM     48  C   UNL     1      -2.035   4.502   1.228  1.00  0.00    -0.014 A 
BRANCH  48  49
ATOM     49  C   UNL     1      -3.495   4.266   1.105  1.00  0.00     0.031 A 
ATOM     50  C   UNL     1      -4.251   3.470   2.123  1.00  0.00     0.074 A 
ATOM     51  C   UNL     1      -4.148   4.863   0.088  1.00  0.00     0.049 A 
ATOM     52  N   UNL     1      -5.544   3.409   2.311  1.00  0.00    -0.248 NA
ATOM     53  C   UNL     1      -3.467   2.638   3.047  1.00  0.00     0.031 C 
ATOM     54  C   UNL     1      -3.500   5.627  -0.980  1.00  0.00     0.029 A 
ATOM     55  N   UNL     1      -5.488   4.966  -0.190  1.00  0.00    -0.354 N 
ATOM     56  C   UNL     1      -5.731   2.569   3.401  1.00  0.00     0.074 A 
ATOM     57  C   UNL     1      -4.422   2.091   3.792  1.00  0.00     0.031 C 
ATOM     58  C   UNL     1      -4.444   6.173  -1.760  1.00  0.00     0.029 A 
ATOM     59  C   UNL     1      -5.762   5.786  -1.260  1.00  0.00     0.049 A 
ATOM     60  H   UNL     1      -6.184   4.498   0.325  1.00  0.00     0.167 HD
ATOM     61  C   UNL     1      -6.890   2.255   4.027  1.00  0.00     0.031 A 
ATOM     62  C   UNL     1      -6.938   6.216  -1.763  1.00  0.00     0.031 A 
ATOM     63  C   UNL     1      -8.187   2.724   3.602  1.00  0.00     0.049 A 
ATOM     64  C   UNL     1      -8.214   5.832  -1.066  1.00  0.00     0.074 A 
ATOM     65  C   UNL     1      -9.415   2.498   4.198  1.00  0.00     0.029 A 
ATOM     66  N   UNL     1      -8.428   3.497   2.475  1.00  0.00    -0.354 N 
ATOM     67  N   UNL     1      -8.369   5.130   0.032  1.00  0.00    -0.248 NA
ATOM     68  C   UNL     1      -9.470   6.312  -1.657  1.00  0.00     0.031 C 
ATOM     69  C   UNL     1     -10.404   3.062   3.389  1.00  0.00     0.029 A 
ATOM     70  C   UNL     1      -9.789   3.718   2.334  1.00  0.00     0.049 A 
ATOM     71  H   UNL     1      -7.734   3.838   1.865  1.00  0.00     0.167 HD
ATOM     72  C   UNL     1      -9.738   5.098   0.273  1.00  0.00     0.074 A 
ATOM     73  C   UNL     1     -10.365   5.870  -0.780  1.00  0.00     0.031 C 
ATOM     74  C   UNL     1     -10.409   4.482   1.277  1.00  0.00     0.031 A 
BRANCH  61  75
ATOM     75  C   UNL     1      -6.834   1.386   5.260  1.00  0.00    -0.014 A 
ATOM     76  C   UNL     1      -7.462   0.126   5.266  1.00  0.00     0.010 A 
ATOM     77  C   UNL     1      -6.297   1.882   6.462  1.00  0.00     0.010 A 
ATOM     78  C   UNL     1      -7.590  -0.602   6.453  1.00  0.00     0.020 A 
ATOM     79  C   UNL     1      -6.397   1.144   7.647  1.00  0.00     0.020 A 
ATOM     80  C   UNL     1      -7.067  -0.081   7.639  1.00  0.00     0.054 A 
BRANCH  80  81
ATOM     81  S   UNL     1      -7.290  -1.016   9.179  1.00  0.00     0.124 S 
ATOM     82  O   UNL     1      -8.712  -0.830   9.451  1.00  0.00    -0.237 OA
ATOM     83  O   UNL     1      -6.892  -2.367   8.792  1.00  0.00    -0.237 OA
ATOM     84  O   UNL     1      -6.384  -0.354  10.117  1.00  0.00    -0.744 OA
ENDBRANCH  80  81
ENDBRANCH  61  75
BRANCH  62  85
ATOM     85  C   UNL     1      -6.928   7.123  -2.945  1.00  0.00    -0.014 A 
ATOM     86  C   UNL     1      -6.461   6.659  -4.190  1.00  0.00     0.010 A 
ATOM     87  C   UNL     1      -7.284   8.477  -2.815  1.00  0.00     0.010 A 
ATOM     88  C   UNL     1      -6.287   7.540  -5.259  1.00  0.00     0.020 A 
ATOM     89  C   UNL     1      -7.144   9.357  -3.894  1.00  0.00     0.020 A 
ATOM     90  C   UNL     1      -6.615   8.888  -5.098  1.00  0.00     0.054 A 
BRANCH  90  91
ATOM     91  S   UNL     1      -6.313  10.025  -6.479  1.00  0.00     0.124 S 
ATOM     92  O   UNL     1      -4.857  10.146  -6.454  1.00  0.00    -0.237 OA
ATOM     93  O   UNL     1      -6.863   9.295  -7.619  1.00  0.00    -0.237 OA
ATOM     94  O   UNL     1      -7.047  11.229  -6.101  1.00  0.00    -0.744 OA
ENDBRANCH  90  91
ENDBRANCH  62  85
BRANCH  74  95
ATOM     95  C   UNL     1     -11.915   4.584   1.300  1.00  0.00    -0.014 A 
ATOM     96  C   UNL     1     -12.556   5.246   2.365  1.00  0.00     0.010 A 
ATOM     97  C   UNL     1     -12.697   3.896   0.355  1.00  0.00     0.010 A 
ATOM     98  C   UNL     1     -13.944   5.177   2.513  1.00  0.00     0.020 A 
ATOM     99  C   UNL     1     -14.089   3.854   0.480  1.00  0.00     0.020 A 
ATOM    100  C   UNL     1     -14.700   4.469   1.576  1.00  0.00     0.054 A 
BRANCH 100 101
ATOM    101  S   UNL     1     -16.494   4.341   1.817  1.00  0.00     0.124 S 
ATOM    102  O   UNL     1     -16.589   3.390   2.921  1.00  0.00    -0.237 OA
ATOM    103  O   UNL     1     -16.873   5.716   2.136  1.00  0.00    -0.237 OA
ATOM    104  O   UNL     1     -16.980   3.852   0.529  1.00  0.00    -0.744 OA
ENDBRANCH 100 101
ENDBRANCH  74  95
ENDBRANCH  48  49
ENDBRANCH  41  43
ENDBRANCH  40  41
ENDBRANCH  39  40
ENDBRANCH  38  39
ENDBRANCH  37  38
ENDBRANCH  36  37
ENDBRANCH   1  36
TORSDOF 25
