REMARK SMILES CCc1ncc(C[N@H+]2CCC[C@@H](c3cccc(C(=O)OCCOCCOCCOC(=O)c4ccc(-c5c6nc(c(-c7ccc(S(=O)(=O)[O-])cc7)c7ccc([nH]7)c(-c7ccc(S(=O)(=O)[O-])cc7)c7nc(c(-c8ccc(S(=O)(=O)[O-])cc8)c8ccc5[nH]8)C=C7)C=C6)cc4)c3)C2)cn1
REMARK SMILES IDX 24 1 23 2 22 3 21 4 20 5 18 6 19 7 17 8 13 9 14 10 92 11
REMARK SMILES IDX 15 12 16 13 12 14 8 15 9 16 93 17 10 19 11 20 7 21 6 22 3 23
REMARK SMILES IDX 4 24 95 25 5 26 94 27 2 28 1 29 25 30 26 31 27 32 28 33
REMARK SMILES IDX 29 34 30 35 31 36 32 37 33 38 91 39 34 40 90 41 35 42 36 43
REMARK SMILES IDX 37 44 84 45 38 46 89 47 83 48 85 49 39 50 88 51 82 52 81 53
REMARK SMILES IDX 40 55 70 56 51 57 69 58 52 59 55 60 68 61 86 62 53 63 54 64
REMARK SMILES IDX 67 66 87 67 56 68 41 69 42 70 50 71 43 72 49 73 44 74 45 75
REMARK SMILES IDX 46 76 47 77 48 78 71 79 72 80 80 81 73 82 79 83 74 84 75 85
REMARK SMILES IDX 76 86 77 87 78 88 57 89 58 90 66 91 59 92 65 93 60 94 61 95
REMARK SMILES IDX 62 96 63 97 64 98
REMARK H PARENT 8 18 85 54 55 65
REMARK Flexibility Score: inf
ROOT
ATOM      1  C   UNL     1       3.834   0.909  13.128  1.00  0.00     0.188 C 
ENDROOT
BRANCH   1   2
ATOM      2  O   UNL     1       4.770   1.315  14.103  1.00  0.00    -0.376 OA
BRANCH   2   3
ATOM      3  C   UNL     1       5.646   2.404  13.861  1.00  0.00     0.202 C 
BRANCH   3   4
ATOM      4  C   UNL     1       6.065   2.909  12.467  1.00  0.00     0.261 C 
BRANCH   4   5
ATOM      5  O   UNL     1       5.088   2.803  11.430  1.00  0.00    -0.460 OA
BRANCH   5   6
ATOM      6  C   UNL     1       5.397   1.950  10.420  1.00  0.00     0.338 C 
ATOM      7  O   UNL     1       6.441   1.335  10.269  1.00  0.00    -0.246 OA
BRANCH   6   8
ATOM      8  C   UNL     1       4.179   1.695   9.623  1.00  0.00     0.060 A 
ATOM      9  C   UNL     1       2.172   2.468   8.490  1.00  0.00    -0.038 A 
ATOM     10  C   UNL     1       1.821   1.125   8.262  1.00  0.00     0.004 A 
ATOM     11  C   UNL     1       3.356   2.743   9.195  1.00  0.00     0.020 A 
ATOM     12  C   UNL     1       2.639   0.082   8.699  1.00  0.00     0.001 A 
ATOM     13  C   UNL     1       3.828   0.366   9.364  1.00  0.00     0.016 A 
BRANCH   9  14
ATOM     14  C   UNL     1       1.421   3.618   7.833  1.00  0.00     0.074 C 
ATOM     15  N   UNL     1       1.270   4.724   5.561  1.00  0.00    -0.331 N 
ATOM     16  C   UNL     1      -0.193   4.600   5.589  1.00  0.00     0.262 C 
ATOM     17  C   UNL     1       1.910   3.683   6.373  1.00  0.00     0.270 C 
ATOM     18  H   UNL     1       1.484   5.629   5.979  1.00  0.00     0.348 HD
ATOM     19  C   UNL     1      -0.734   4.626   7.023  1.00  0.00     0.062 C 
ATOM     20  C   UNL     1      -0.111   3.519   7.876  1.00  0.00     0.020 C 
BRANCH  15  21
ATOM     21  C   UNL     1       1.829   4.765   4.192  1.00  0.00     0.302 C 
BRANCH  21  22
ATOM     22  C   UNL     1       1.569   3.563   3.329  1.00  0.00     0.043 A 
ATOM     23  C   UNL     1       0.898   1.304   1.977  1.00  0.00     0.127 A 
ATOM     24  N   UNL     1       0.179   2.417   1.732  1.00  0.00    -0.241 NA
ATOM     25  N   UNL     1       1.974   1.254   2.780  1.00  0.00    -0.241 NA
ATOM     26  C   UNL     1       0.536   3.521   2.417  1.00  0.00     0.124 A 
ATOM     27  C   UNL     1       2.288   2.389   3.432  1.00  0.00     0.124 A 
BRANCH  23  28
ATOM     28  C   UNL     1       0.451   0.024   1.331  1.00  0.00     0.074 C 
ATOM     29  C   UNL     1       0.978  -0.096  -0.086  1.00  0.00     0.012 C 
ENDBRANCH  23  28
ENDBRANCH  21  22
ENDBRANCH  15  21
ENDBRANCH   9  14
ENDBRANCH   6   8
ENDBRANCH   5   6
ENDBRANCH   4   5
ENDBRANCH   3   4
ENDBRANCH   2   3
ENDBRANCH   1   2
BRANCH   1  30
ATOM     30  C   UNL     1       2.649   1.837  12.794  1.00  0.00     0.188 C 
BRANCH  30  31
ATOM     31  O   UNL     1       2.655   3.161  13.277  1.00  0.00    -0.376 OA
BRANCH  31  32
ATOM     32  C   UNL     1       2.477   3.413  14.660  1.00  0.00     0.202 C 
BRANCH  32  33
ATOM     33  C   UNL     1       1.865   2.435  15.684  1.00  0.00     0.261 C 
BRANCH  33  34
ATOM     34  O   UNL     1       1.915   1.034  15.399  1.00  0.00    -0.460 OA
BRANCH  34  35
ATOM     35  C   UNL     1       0.736   0.475  15.027  1.00  0.00     0.338 C 
ATOM     36  O   UNL     1      -0.334   1.040  14.881  1.00  0.00    -0.246 OA
BRANCH  35  37
ATOM     37  C   UNL     1       0.972  -0.929  14.643  1.00  0.00     0.060 A 
ATOM     38  C   UNL     1       0.823  -1.300  13.300  1.00  0.00     0.016 A 
ATOM     39  C   UNL     1       1.291  -1.880  15.612  1.00  0.00     0.016 A 
ATOM     40  C   UNL     1       0.974  -2.634  12.922  1.00  0.00     0.010 A 
ATOM     41  C   UNL     1       1.419  -3.219  15.235  1.00  0.00     0.010 A 
ATOM     42  C   UNL     1       1.232  -3.607  13.895  1.00  0.00    -0.014 A 
BRANCH  42  43
ATOM     43  C   UNL     1       1.131  -5.048  13.554  1.00  0.00     0.031 A 
ATOM     44  C   UNL     1      -0.134  -5.781  13.911  1.00  0.00     0.074 A 
ATOM     45  C   UNL     1       2.140  -5.696  12.944  1.00  0.00     0.049 A 
ATOM     46  N   UNL     1      -0.417  -7.052  13.791  1.00  0.00    -0.248 NA
ATOM     47  C   UNL     1      -1.222  -4.972  14.485  1.00  0.00     0.031 C 
ATOM     48  C   UNL     1       3.394  -5.088  12.503  1.00  0.00     0.029 A 
ATOM     49  N   UNL     1       2.269  -7.020  12.605  1.00  0.00    -0.354 N 
ATOM     50  C   UNL     1      -1.707  -7.198  14.290  1.00  0.00     0.074 A 
ATOM     51  C   UNL     1      -2.139  -5.893  14.737  1.00  0.00     0.031 C 
ATOM     52  C   UNL     1       4.173  -6.042  11.963  1.00  0.00     0.029 A 
ATOM     53  C   UNL     1       3.491  -7.332  12.059  1.00  0.00     0.049 A 
ATOM     54  H   UNL     1       1.554  -7.683  12.739  1.00  0.00     0.167 HD
ATOM     55  C   UNL     1      -2.463  -8.319  14.369  1.00  0.00     0.031 A 
ATOM     56  C   UNL     1       4.011  -8.526  11.705  1.00  0.00     0.031 A 
ATOM     57  C   UNL     1      -2.021  -9.619  13.938  1.00  0.00     0.049 A 
ATOM     58  C   UNL     1       3.181  -9.774  11.877  1.00  0.00     0.074 A 
ATOM     59  C   UNL     1      -2.719 -10.814  13.962  1.00  0.00     0.029 A 
ATOM     60  N   UNL     1      -0.767  -9.899  13.417  1.00  0.00    -0.354 N 
ATOM     61  N   UNL     1       1.955  -9.895  12.329  1.00  0.00    -0.248 NA
ATOM     62  C   UNL     1       3.804 -11.046  11.483  1.00  0.00     0.031 C 
ATOM     63  C   UNL     1      -1.863 -11.827  13.518  1.00  0.00     0.029 A 
ATOM     64  C   UNL     1      -0.659 -11.252  13.144  1.00  0.00     0.049 A 
ATOM     65  H   UNL     1      -0.057  -9.233  13.264  1.00  0.00     0.167 HD
ATOM     66  C   UNL     1       1.649 -11.251  12.239  1.00  0.00     0.074 A 
ATOM     67  C   UNL     1       2.813 -11.905  11.681  1.00  0.00     0.031 C 
ATOM     68  C   UNL     1       0.504 -11.893  12.582  1.00  0.00     0.031 A 
BRANCH  55  69
ATOM     69  C   UNL     1      -3.833  -8.195  14.983  1.00  0.00    -0.014 A 
ATOM     70  C   UNL     1      -4.871  -7.508  14.328  1.00  0.00     0.010 A 
ATOM     71  C   UNL     1      -4.096  -8.809  16.221  1.00  0.00     0.010 A 
ATOM     72  C   UNL     1      -6.134  -7.405  14.917  1.00  0.00     0.020 A 
ATOM     73  C   UNL     1      -5.366  -8.737  16.799  1.00  0.00     0.020 A 
ATOM     74  C   UNL     1      -6.373  -8.021  16.150  1.00  0.00     0.054 A 
BRANCH  74  75
ATOM     75  S   UNL     1      -8.029  -7.893  16.878  1.00  0.00     0.124 S 
ATOM     76  O   UNL     1      -8.081  -6.484  17.264  1.00  0.00    -0.237 OA
ATOM     77  O   UNL     1      -8.897  -8.270  15.765  1.00  0.00    -0.237 OA
ATOM     78  O   UNL     1      -7.996  -8.841  17.988  1.00  0.00    -0.744 OA
ENDBRANCH  74  75
ENDBRANCH  55  69
BRANCH  56  79
ATOM     79  C   UNL     1       5.400  -8.606  11.172  1.00  0.00    -0.014 A 
ATOM     80  C   UNL     1       5.638  -8.973   9.835  1.00  0.00     0.010 A 
ATOM     81  C   UNL     1       6.499  -8.322  12.005  1.00  0.00     0.010 A 
ATOM     82  C   UNL     1       6.945  -9.072   9.348  1.00  0.00     0.020 A 
ATOM     83  C   UNL     1       7.806  -8.388  11.513  1.00  0.00     0.020 A 
ATOM     84  C   UNL     1       8.021  -8.774  10.189  1.00  0.00     0.054 A 
BRANCH  84  85
ATOM     85  S   UNL     1       9.704  -8.862   9.518  1.00  0.00     0.124 S 
ATOM     86  O   UNL     1       9.893 -10.300   9.358  1.00  0.00    -0.237 OA
ATOM     87  O   UNL     1       9.589  -8.096   8.280  1.00  0.00    -0.237 OA
ATOM     88  O   UNL     1      10.520  -8.236  10.557  1.00  0.00    -0.744 OA
ENDBRANCH  84  85
ENDBRANCH  56  79
BRANCH  68  89
ATOM     89  C   UNL     1       0.423 -13.376  12.317  1.00  0.00    -0.014 A 
ATOM     90  C   UNL     1       1.165 -14.302  13.071  1.00  0.00     0.010 A 
ATOM     91  C   UNL     1      -0.468 -13.852  11.336  1.00  0.00     0.010 A 
ATOM     92  C   UNL     1       1.039 -15.674  12.828  1.00  0.00     0.020 A 
ATOM     93  C   UNL     1      -0.621 -15.223  11.113  1.00  0.00     0.020 A 
ATOM     94  C   UNL     1       0.144 -16.125  11.852  1.00  0.00     0.054 A 
BRANCH  94  95
ATOM     95  S   UNL     1      -0.036 -17.911  11.591  1.00  0.00     0.124 S 
ATOM     96  O   UNL     1       1.229 -18.254  10.946  1.00  0.00    -0.237 OA
ATOM     97  O   UNL     1      -0.205 -18.418  12.951  1.00  0.00    -0.237 OA
ATOM     98  O   UNL     1      -1.218 -18.021  10.740  1.00  0.00    -0.744 OA
ENDBRANCH  94  95
ENDBRANCH  68  89
ENDBRANCH  42  43
ENDBRANCH  35  37
ENDBRANCH  34  35
ENDBRANCH  33  34
ENDBRANCH  32  33
ENDBRANCH  31  32
ENDBRANCH  30  31
ENDBRANCH   1  30
TORSDOF 24
