REMARK SMILES CC(C)C[C@H](NC(N)=O)C(=O)N[C@@H](C(=O)OCCOCCOCCOC(=O)c1ccc(-c2c3nc(c(-c4ccc(S(=O)(=O)[O-])cc4)c4ccc([nH]4)c(-c4ccc(S(=O)(=O)[O-])cc4)c4nc(c(-c5ccc(S(=O)(=O)[O-])cc5)c5ccc2[nH]5)C=C4)C=C3)cc1)C(C)C
REMARK SMILES IDX 20 1 19 2 18 3 17 4 16 5 14 6 15 7 13 8 12 9 10 10 11 11
REMARK SMILES IDX 5 13 4 14 2 15 1 16 3 17 6 18 7 19 8 21 9 22 88 25 89 26
REMARK SMILES IDX 90 27 21 28 22 29 23 30 24 31 25 32 26 33 27 34 28 35 29 36
REMARK SMILES IDX 87 37 30 38 86 39 31 40 32 41 33 42 80 43 34 44 85 45 79 46
REMARK SMILES IDX 81 47 35 48 84 49 78 50 77 51 36 53 66 54 47 55 65 56 48 57
REMARK SMILES IDX 51 58 64 59 82 60 49 61 50 62 63 64 83 65 52 66 37 67 38 68
REMARK SMILES IDX 46 69 39 70 45 71 40 72 41 73 42 74 43 75 44 76 67 77 68 78
REMARK SMILES IDX 76 79 69 80 75 81 70 82 71 83 72 84 73 85 74 86 53 87 54 88
REMARK SMILES IDX 62 89 55 90 61 91 56 92 57 93 58 94 59 95 60 96
REMARK H PARENT 12 12 6 20 8 23 8 24 81 52 51 63
REMARK Flexibility Score: inf
ROOT
ATOM      1  C   UNL     1      -5.519   3.885   3.579  1.00  0.00     0.188 C 
ENDROOT
BRANCH   1   2
ATOM      2  O   UNL     1      -5.285   5.253   3.271  1.00  0.00    -0.376 OA
BRANCH   2   3
ATOM      3  C   UNL     1      -4.402   5.576   2.202  1.00  0.00     0.202 C 
BRANCH   3   4
ATOM      4  C   UNL     1      -3.012   4.911   2.137  1.00  0.00     0.261 C 
BRANCH   4   5
ATOM      5  O   UNL     1      -3.002   3.471   2.262  1.00  0.00    -0.462 OA
BRANCH   5   6
ATOM      6  C   UNL     1      -2.171   2.947   3.198  1.00  0.00     0.328 C 
ATOM      7  O   UNL     1      -1.370   3.613   3.846  1.00  0.00    -0.250 OA
BRANCH   6   8
ATOM      8  C   UNL     1      -2.358   1.423   3.451  1.00  0.00     0.194 C 
BRANCH   8   9
ATOM      9  N   UNL     1      -2.991   0.643   2.368  1.00  0.00    -0.341 N 
ATOM     10  C   UNL     1      -2.515  -0.238   1.448  1.00  0.00     0.243 C 
ATOM     11  O   UNL     1      -3.361  -0.880   0.817  1.00  0.00    -0.273 OA
ATOM     12  H   UNL     1      -3.962   0.792   2.298  1.00  0.00     0.164 HD
BRANCH  10  13
ATOM     13  C   UNL     1      -1.019  -0.530   1.289  1.00  0.00     0.173 C 
BRANCH  13  14
ATOM     14  C   UNL     1      -0.424  -1.222   2.523  1.00  0.00     0.038 C 
BRANCH  14  15
ATOM     15  C   UNL     1      -0.743  -2.724   2.623  1.00  0.00    -0.015 C 
ATOM     16  C   UNL     1       0.102  -3.526   1.636  1.00  0.00     0.007 C 
ATOM     17  C   UNL     1      -0.478  -3.206   4.053  1.00  0.00     0.007 C 
ENDBRANCH  14  15
ENDBRANCH  13  14
BRANCH  13  18
ATOM     18  N   UNL     1      -0.302   0.704   0.980  1.00  0.00    -0.327 N 
ATOM     19  C   UNL     1       0.086   0.998  -0.290  1.00  0.00     0.312 C 
ATOM     20  H   UNL     1      -0.096   1.337   1.706  1.00  0.00     0.166 HD
ATOM     21  N   UNL     1       0.785   2.153  -0.370  1.00  0.00    -0.352 N 
ATOM     22  O   UNL     1      -0.116   0.312  -1.280  1.00  0.00    -0.249 OA
ATOM     23  H   UNL     1       0.938   2.693   0.439  1.00  0.00     0.161 HD
ATOM     24  H   UNL     1       1.142   2.453  -1.237  1.00  0.00     0.161 HD
ENDBRANCH  13  18
ENDBRANCH  10  13
ENDBRANCH   8   9
BRANCH   8  25
ATOM     25  C   UNL     1      -3.126   1.137   4.782  1.00  0.00     0.017 C 
ATOM     26  C   UNL     1      -3.143  -0.359   5.131  1.00  0.00     0.010 C 
ATOM     27  C   UNL     1      -2.558   1.900   5.983  1.00  0.00     0.010 C 
ENDBRANCH   8  25
ENDBRANCH   6   8
ENDBRANCH   5   6
ENDBRANCH   4   5
ENDBRANCH   3   4
ENDBRANCH   2   3
ENDBRANCH   1   2
BRANCH   1  28
ATOM     28  C   UNL     1      -5.721   2.888   2.427  1.00  0.00     0.188 C 
BRANCH  28  29
ATOM     29  O   UNL     1      -5.654   3.450   1.139  1.00  0.00    -0.376 OA
BRANCH  29  30
ATOM     30  C   UNL     1      -6.825   3.424   0.346  1.00  0.00     0.202 C 
BRANCH  30  31
ATOM     31  C   UNL     1      -8.140   3.957   0.946  1.00  0.00     0.261 C 
BRANCH  31  32
ATOM     32  O   UNL     1      -8.452   3.557   2.294  1.00  0.00    -0.460 OA
BRANCH  32  33
ATOM     33  C   UNL     1      -8.888   2.289   2.476  1.00  0.00     0.338 C 
ATOM     34  O   UNL     1      -9.072   1.453   1.602  1.00  0.00    -0.246 OA
BRANCH  33  35
ATOM     35  C   UNL     1      -8.859   1.989   3.929  1.00  0.00     0.060 A 
ATOM     36  C   UNL     1      -8.056   0.932   4.387  1.00  0.00     0.016 A 
ATOM     37  C   UNL     1      -9.613   2.736   4.836  1.00  0.00     0.016 A 
ATOM     38  C   UNL     1      -8.041   0.592   5.742  1.00  0.00     0.010 A 
ATOM     39  C   UNL     1      -9.617   2.378   6.191  1.00  0.00     0.010 A 
ATOM     40  C   UNL     1      -8.864   1.278   6.645  1.00  0.00    -0.014 A 
BRANCH  40  41
ATOM     41  C   UNL     1      -9.111   0.705   7.995  1.00  0.00     0.031 A 
ATOM     42  C   UNL     1     -10.363  -0.112   8.203  1.00  0.00     0.074 A 
ATOM     43  C   UNL     1      -8.242   0.864   9.010  1.00  0.00     0.049 A 
ATOM     44  N   UNL     1     -10.806  -0.694   9.287  1.00  0.00    -0.248 NA
ATOM     45  C   UNL     1     -11.230  -0.292   7.026  1.00  0.00     0.031 C 
ATOM     46  C   UNL     1      -6.973   1.587   8.937  1.00  0.00     0.029 A 
ATOM     47  N   UNL     1      -8.303   0.424  10.311  1.00  0.00    -0.354 N 
ATOM     48  C   UNL     1     -12.007  -1.298   8.928  1.00  0.00     0.074 A 
ATOM     49  C   UNL     1     -12.237  -0.985   7.534  1.00  0.00     0.031 C 
ATOM     50  C   UNL     1      -6.380   1.548  10.145  1.00  0.00     0.029 A 
ATOM     51  C   UNL     1      -7.240   0.827  11.084  1.00  0.00     0.049 A 
ATOM     52  H   UNL     1      -9.041  -0.129  10.657  1.00  0.00     0.167 HD
ATOM     53  C   UNL     1     -12.843  -2.049   9.684  1.00  0.00     0.031 A 
ATOM     54  C   UNL     1      -6.997   0.652  12.399  1.00  0.00     0.031 A 
ATOM     55  C   UNL     1     -12.624  -2.351  11.073  1.00  0.00     0.049 A 
ATOM     56  C   UNL     1      -7.976  -0.132  13.239  1.00  0.00     0.074 A 
ATOM     57  C   UNL     1     -13.408  -3.117  11.919  1.00  0.00     0.029 A 
ATOM     58  N   UNL     1     -11.552  -1.897  11.825  1.00  0.00    -0.354 N 
ATOM     59  N   UNL     1      -9.095  -0.716  12.878  1.00  0.00    -0.248 NA
ATOM     60  C   UNL     1      -7.649  -0.294  14.663  1.00  0.00     0.031 C 
ATOM     61  C   UNL     1     -12.844  -3.071  13.198  1.00  0.00     0.029 A 
ATOM     62  C   UNL     1     -11.666  -2.344  13.131  1.00  0.00     0.049 A 
ATOM     63  H   UNL     1     -10.816  -1.340  11.481  1.00  0.00     0.167 HD
ATOM     64  C   UNL     1      -9.583  -1.345  14.021  1.00  0.00     0.074 A 
ATOM     65  C   UNL     1      -8.629  -1.084  15.079  1.00  0.00     0.031 C 
ATOM     66  C   UNL     1     -10.714  -2.078  14.180  1.00  0.00     0.031 A 
BRANCH  53  67
ATOM     67  C   UNL     1     -14.099  -2.565   9.030  1.00  0.00    -0.014 A 
ATOM     68  C   UNL     1     -14.057  -3.567   8.044  1.00  0.00     0.010 A 
ATOM     69  C   UNL     1     -15.349  -2.066   9.443  1.00  0.00     0.010 A 
ATOM     70  C   UNL     1     -15.237  -4.035   7.459  1.00  0.00     0.020 A 
ATOM     71  C   UNL     1     -16.533  -2.553   8.884  1.00  0.00     0.020 A 
ATOM     72  C   UNL     1     -16.468  -3.525   7.884  1.00  0.00     0.054 A 
BRANCH  72  73
ATOM     73  S   UNL     1     -17.985  -4.175   7.132  1.00  0.00     0.124 S 
ATOM     74  O   UNL     1     -17.915  -3.619   5.784  1.00  0.00    -0.237 OA
ATOM     75  O   UNL     1     -17.793  -5.620   7.226  1.00  0.00    -0.237 OA
ATOM     76  O   UNL     1     -19.050  -3.635   7.974  1.00  0.00    -0.744 OA
ENDBRANCH  72  73
ENDBRANCH  53  67
BRANCH  54  77
ATOM     77  C   UNL     1      -5.777   1.243  13.022  1.00  0.00    -0.014 A 
ATOM     78  C   UNL     1      -4.750   0.424  13.523  1.00  0.00     0.010 A 
ATOM     79  C   UNL     1      -5.650   2.640  13.139  1.00  0.00     0.010 A 
ATOM     80  C   UNL     1      -3.631   0.987  14.146  1.00  0.00     0.020 A 
ATOM     81  C   UNL     1      -4.519   3.208  13.731  1.00  0.00     0.020 A 
ATOM     82  C   UNL     1      -3.521   2.377  14.243  1.00  0.00     0.054 A 
BRANCH  82  83
ATOM     83  S   UNL     1      -2.038   3.087  15.010  1.00  0.00     0.124 S 
ATOM     84  O   UNL     1      -2.235   2.756  16.417  1.00  0.00    -0.237 OA
ATOM     85  O   UNL     1      -0.962   2.366  14.334  1.00  0.00    -0.237 OA
ATOM     86  O   UNL     1      -2.129   4.507  14.681  1.00  0.00    -0.744 OA
ENDBRANCH  82  83
ENDBRANCH  54  77
BRANCH  66  87
ATOM     87  C   UNL     1     -10.959  -2.700  15.534  1.00  0.00    -0.014 A 
ATOM     88  C   UNL     1     -11.255  -1.921  16.667  1.00  0.00     0.010 A 
ATOM     89  C   UNL     1     -10.914  -4.102  15.665  1.00  0.00     0.010 A 
ATOM     90  C   UNL     1     -11.440  -2.526  17.914  1.00  0.00     0.020 A 
ATOM     91  C   UNL     1     -11.135  -4.713  16.902  1.00  0.00     0.020 A 
ATOM     92  C   UNL     1     -11.373  -3.919  18.024  1.00  0.00     0.054 A 
BRANCH  92  93
ATOM     93  S   UNL     1     -11.616  -4.681  19.652  1.00  0.00     0.124 S 
ATOM     94  O   UNL     1     -10.373  -4.335  20.338  1.00  0.00    -0.237 OA
ATOM     95  O   UNL     1     -12.815  -4.007  20.146  1.00  0.00    -0.237 OA
ATOM     96  O   UNL     1     -11.785  -6.100  19.350  1.00  0.00    -0.744 OA
ENDBRANCH  92  93
ENDBRANCH  66  87
ENDBRANCH  40  41
ENDBRANCH  33  35
ENDBRANCH  32  33
ENDBRANCH  31  32
ENDBRANCH  30  31
ENDBRANCH  29  30
ENDBRANCH  28  29
ENDBRANCH   1  28
TORSDOF 26
