REMARK SMILES O=C(OCCOCCOCCOC(=O)[C@H]1[C@H]2CC[C@H](CC2)[C@@H]1C(=O)Nc1ccc(Cc2ccncc2)cc1)c1ccc(-c2c3nc(c(-c4ccc(S(=O)(=O)[O-])cc4)c4ccc([nH]4)c(-c4ccc(S(=O)(=O)[O-])cc4)c4nc(c(-c5ccc(S(=O)(=O)[O-])cc5)c5ccc2[nH]5)C=C4)C=C3)cc1
REMARK SMILES IDX 8 1 7 2 6 3 5 4 4 5 3 6 2 7 1 8 39 9 40 10 98 11 41 12 97 13
REMARK SMILES IDX 42 14 43 15 44 16 91 17 45 18 96 19 90 20 92 21 46 22 95 23
REMARK SMILES IDX 89 24 88 25 47 27 77 28 58 29 76 30 59 31 62 32 75 33 93 34
REMARK SMILES IDX 60 35 61 36 74 38 94 39 63 40 48 41 49 42 57 43 50 44 56 45
REMARK SMILES IDX 51 46 52 47 53 48 54 49 55 50 78 51 79 52 87 53 80 54 86 55
REMARK SMILES IDX 81 56 82 57 83 58 84 59 85 60 64 61 65 62 73 63 66 64 72 65
REMARK SMILES IDX 67 66 68 67 69 68 70 69 71 70 9 71 10 72 11 73 12 74 13 75
REMARK SMILES IDX 14 76 15 77 16 78 22 79 21 80 17 81 19 82 20 83 18 84 23 85
REMARK SMILES IDX 24 86 25 87 26 89 27 90 38 91 28 92 37 93 29 94 30 95 31 96
REMARK SMILES IDX 32 97 36 98 33 99 35 100 34 101
REMARK H PARENT 92 26 62 37 25 88
REMARK Flexibility Score: inf
ROOT
ATOM      1  C   UNL     1       2.346   2.220   2.098  1.00  0.00     0.188 C 
ENDROOT
BRANCH   1   2
ATOM      2  C   UNL     1       2.860   1.565   0.816  1.00  0.00     0.188 C 
BRANCH   2   3
ATOM      3  O   UNL     1       4.215   1.110   0.867  1.00  0.00    -0.376 OA
BRANCH   3   4
ATOM      4  C   UNL     1       5.000   1.585  -0.232  1.00  0.00     0.202 C 
BRANCH   4   5
ATOM      5  C   UNL     1       4.703   0.943  -1.600  1.00  0.00     0.261 C 
BRANCH   5   6
ATOM      6  O   UNL     1       3.411   0.325  -1.716  1.00  0.00    -0.460 OA
BRANCH   6   7
ATOM      7  C   UNL     1       2.975  -0.878  -1.266  1.00  0.00     0.338 C 
ATOM      8  O   UNL     1       1.795  -1.166  -1.470  1.00  0.00    -0.246 OA
BRANCH   7   9
ATOM      9  C   UNL     1       3.814  -1.859  -0.498  1.00  0.00     0.060 A 
ATOM     10  C   UNL     1       5.151  -1.683  -0.138  1.00  0.00     0.016 A 
ATOM     11  C   UNL     1       3.194  -3.056  -0.096  1.00  0.00     0.016 A 
ATOM     12  C   UNL     1       5.864  -2.645   0.568  1.00  0.00     0.010 A 
ATOM     13  C   UNL     1       3.897  -4.021   0.640  1.00  0.00     0.010 A 
ATOM     14  C   UNL     1       5.247  -3.817   0.969  1.00  0.00    -0.014 A 
BRANCH  14  15
ATOM     15  C   UNL     1       6.056  -4.873   1.609  1.00  0.00     0.031 A 
ATOM     16  C   UNL     1       6.398  -6.070   0.789  1.00  0.00     0.074 A 
ATOM     17  C   UNL     1       6.643  -4.730   2.815  1.00  0.00     0.049 A 
ATOM     18  N   UNL     1       7.122  -7.093   1.139  1.00  0.00    -0.248 NA
ATOM     19  C   UNL     1       6.012  -6.049  -0.634  1.00  0.00     0.031 C 
ATOM     20  C   UNL     1       6.780  -3.496   3.580  1.00  0.00     0.029 A 
ATOM     21  N   UNL     1       7.168  -5.674   3.663  1.00  0.00    -0.354 N 
ATOM     22  C   UNL     1       7.421  -7.740  -0.044  1.00  0.00     0.074 A 
ATOM     23  C   UNL     1       6.671  -7.099  -1.099  1.00  0.00     0.031 C 
ATOM     24  C   UNL     1       7.099  -3.789   4.853  1.00  0.00     0.029 A 
ATOM     25  C   UNL     1       7.230  -5.223   4.967  1.00  0.00     0.049 A 
ATOM     26  H   UNL     1       7.464  -6.568   3.375  1.00  0.00     0.167 HD
ATOM     27  C   UNL     1       8.338  -8.713  -0.225  1.00  0.00     0.031 A 
ATOM     28  C   UNL     1       7.326  -5.917   6.114  1.00  0.00     0.031 A 
ATOM     29  C   UNL     1       9.023  -9.356   0.860  1.00  0.00     0.049 A 
ATOM     30  C   UNL     1       7.888  -7.295   5.971  1.00  0.00     0.074 A 
ATOM     31  C   UNL     1       9.922 -10.403   0.813  1.00  0.00     0.029 A 
ATOM     32  N   UNL     1       8.855  -9.027   2.200  1.00  0.00    -0.354 N 
ATOM     33  N   UNL     1       8.171  -7.929   4.859  1.00  0.00    -0.248 NA
ATOM     34  C   UNL     1       8.312  -7.976   7.195  1.00  0.00     0.031 C 
ATOM     35  C   UNL     1      10.229 -10.764   2.130  1.00  0.00     0.029 A 
ATOM     36  C   UNL     1       9.576  -9.898   2.996  1.00  0.00     0.049 A 
ATOM     37  H   UNL     1       8.303  -8.283   2.533  1.00  0.00     0.167 HD
ATOM     38  C   UNL     1       8.947  -9.007   5.236  1.00  0.00     0.074 A 
ATOM     39  C   UNL     1       9.014  -8.981   6.688  1.00  0.00     0.031 C 
ATOM     40  C   UNL     1       9.608  -9.881   4.439  1.00  0.00     0.031 A 
BRANCH  27  41
ATOM     41  C   UNL     1       8.613  -9.113  -1.640  1.00  0.00    -0.014 A 
ATOM     42  C   UNL     1       9.349  -8.270  -2.495  1.00  0.00     0.010 A 
ATOM     43  C   UNL     1       8.111 -10.327  -2.128  1.00  0.00     0.010 A 
ATOM     44  C   UNL     1       9.560  -8.630  -3.827  1.00  0.00     0.020 A 
ATOM     45  C   UNL     1       8.336 -10.699  -3.455  1.00  0.00     0.020 A 
ATOM     46  C   UNL     1       9.052  -9.844  -4.298  1.00  0.00     0.054 A 
BRANCH  46  47
ATOM     47  S   UNL     1       9.363 -10.306  -6.022  1.00  0.00     0.124 S 
ATOM     48  O   UNL     1       8.529  -9.348  -6.746  1.00  0.00    -0.237 OA
ATOM     49  O   UNL     1      10.806 -10.102  -6.149  1.00  0.00    -0.237 OA
ATOM     50  O   UNL     1       8.923 -11.695  -6.095  1.00  0.00    -0.744 OA
ENDBRANCH  46  47
ENDBRANCH  27  41
BRANCH  28  51
ATOM     51  C   UNL     1       6.985  -5.342   7.444  1.00  0.00    -0.014 A 
ATOM     52  C   UNL     1       7.974  -4.938   8.352  1.00  0.00     0.010 A 
ATOM     53  C   UNL     1       5.634  -5.298   7.851  1.00  0.00     0.010 A 
ATOM     54  C   UNL     1       7.629  -4.564   9.658  1.00  0.00     0.020 A 
ATOM     55  C   UNL     1       5.282  -4.907   9.151  1.00  0.00     0.020 A 
ATOM     56  C   UNL     1       6.288  -4.567  10.056  1.00  0.00     0.054 A 
BRANCH  56  57
ATOM     57  S   UNL     1       5.893  -4.167  11.785  1.00  0.00     0.124 S 
ATOM     58  O   UNL     1       6.548  -5.257  12.506  1.00  0.00    -0.237 OA
ATOM     59  O   UNL     1       6.506  -2.850  11.946  1.00  0.00    -0.237 OA
ATOM     60  O   UNL     1       4.436  -4.186  11.825  1.00  0.00    -0.744 OA
ENDBRANCH  56  57
ENDBRANCH  28  51
BRANCH  40  61
ATOM     61  C   UNL     1      10.499 -10.864   5.131  1.00  0.00    -0.014 A 
ATOM     62  C   UNL     1       9.966 -11.894   5.922  1.00  0.00     0.010 A 
ATOM     63  C   UNL     1      11.893 -10.762   4.966  1.00  0.00     0.010 A 
ATOM     64  C   UNL     1      10.817 -12.787   6.570  1.00  0.00     0.020 A 
ATOM     65  C   UNL     1      12.744 -11.679   5.578  1.00  0.00     0.020 A 
ATOM     66  C   UNL     1      12.200 -12.676   6.389  1.00  0.00     0.054 A 
BRANCH  66  67
ATOM     67  S   UNL     1      13.277 -13.885   7.197  1.00  0.00     0.124 S 
ATOM     68  O   UNL     1      13.231 -13.448   8.589  1.00  0.00    -0.237 OA
ATOM     69  O   UNL     1      12.603 -15.151   6.912  1.00  0.00    -0.237 OA
ATOM     70  O   UNL     1      14.562 -13.706   6.527  1.00  0.00    -0.744 OA
ENDBRANCH  66  67
ENDBRANCH  40  61
ENDBRANCH  14  15
ENDBRANCH   7   9
ENDBRANCH   6   7
ENDBRANCH   5   6
ENDBRANCH   4   5
ENDBRANCH   3   4
ENDBRANCH   2   3
ENDBRANCH   1   2
BRANCH   1  71
ATOM     71  O   UNL     1       3.032   3.357   2.602  1.00  0.00    -0.376 OA
BRANCH  71  72
ATOM     72  C   UNL     1       4.416   3.213   2.891  1.00  0.00     0.202 C 
BRANCH  72  73
ATOM     73  C   UNL     1       4.850   2.213   3.974  1.00  0.00     0.261 C 
BRANCH  73  74
ATOM     74  O   UNL     1       4.142   0.962   3.967  1.00  0.00    -0.463 OA
BRANCH  74  75
ATOM     75  C   UNL     1       3.299   0.770   5.015  1.00  0.00     0.310 C 
ATOM     76  O   UNL     1       3.131   1.587   5.917  1.00  0.00    -0.252 OA
BRANCH  75  77
ATOM     77  C   UNL     1       2.465  -0.511   4.939  1.00  0.00     0.115 C 
ATOM     78  C   UNL     1       2.736  -1.540   3.819  1.00  0.00     0.004 C 
ATOM     79  C   UNL     1       2.523  -1.192   6.324  1.00  0.00     0.096 C 
ATOM     80  C   UNL     1       4.126  -2.104   4.005  1.00  0.00     0.005 C 
ATOM     81  C   UNL     1       1.797  -2.772   3.925  1.00  0.00     0.005 C 
ATOM     82  C   UNL     1       2.926  -2.672   6.160  1.00  0.00     0.002 C 
ATOM     83  C   UNL     1       4.257  -2.719   5.402  1.00  0.00     0.005 C 
ATOM     84  C   UNL     1       1.890  -3.416   5.316  1.00  0.00     0.005 C 
BRANCH  79  85
ATOM     85  C   UNL     1       1.393  -1.030   7.360  1.00  0.00     0.228 C 
ATOM     86  O   UNL     1       1.590  -1.425   8.517  1.00  0.00    -0.274 OA
ATOM     87  N   UNL     1       0.203  -0.402   7.150  1.00  0.00    -0.326 N 
ATOM     88  H   UNL     1      -0.310  -0.197   7.965  1.00  0.00     0.169 HD
BRANCH  87  89
ATOM     89  C   UNL     1      -0.399  -0.006   5.962  1.00  0.00     0.041 A 
ATOM     90  C   UNL     1      -0.452   1.352   5.660  1.00  0.00     0.026 A 
ATOM     91  C   UNL     1      -0.814  -0.954   5.029  1.00  0.00     0.026 A 
ATOM     92  C   UNL     1      -0.742   1.746   4.352  1.00  0.00     0.006 A 
ATOM     93  C   UNL     1      -1.123  -0.557   3.726  1.00  0.00     0.006 A 
ATOM     94  C   UNL     1      -1.028   0.791   3.363  1.00  0.00    -0.043 A 
BRANCH  94  95
ATOM     95  C   UNL     1      -1.214   1.203   1.922  1.00  0.00     0.071 C 
BRANCH  95  96
ATOM     96  C   UNL     1      -2.652   1.332   1.512  1.00  0.00    -0.041 A 
ATOM     97  C   UNL     1      -3.487   2.252   2.152  1.00  0.00     0.024 A 
ATOM     98  C   UNL     1      -3.178   0.557   0.477  1.00  0.00     0.024 A 
ATOM     99  C   UNL     1      -4.806   2.342   1.749  1.00  0.00     0.111 A 
ATOM    100  C   UNL     1      -4.511   0.726   0.143  1.00  0.00     0.111 A 
ATOM    101  N   UNL     1      -5.339   1.602   0.755  1.00  0.00    -0.265 NA
ENDBRANCH  95  96
ENDBRANCH  94  95
ENDBRANCH  87  89
ENDBRANCH  79  85
ENDBRANCH  75  77
ENDBRANCH  74  75
ENDBRANCH  73  74
ENDBRANCH  72  73
ENDBRANCH  71  72
ENDBRANCH   1  71
TORSDOF 24
