REMARK SMILES Cc1nsc(N(C)C(=O)[C@@H](C)CCC[C@H](C)[NH3+])c1C(=O)OCCOCCOCCOC(=O)c1ccc(-c2c3nc(c(-c4ccc(S(=O)(=O)[O-])cc4)c4ccc([nH]4)c(-c4ccc(S(=O)(=O)[O-])cc4)c4nc(c(-c5ccc(S(=O)(=O)[O-])cc5)c5ccc2[nH]5)C=C4)C=C3)cc1
REMARK SMILES IDX 23 1 22 2 21 3 19 4 20 5 18 6 1 7 2 8 3 9 4 10 5 11 6 12
REMARK SMILES IDX 7 13 8 14 9 15 10 16 11 17 12 18 13 19 14 20 15 21 16 22
REMARK SMILES IDX 17 23 24 27 25 28 26 29 27 30 28 31 29 32 30 33 31 34 32 35
REMARK SMILES IDX 33 36 34 37 92 38 35 39 91 40 36 41 37 42 38 43 85 44 39 45
REMARK SMILES IDX 90 46 84 47 86 48 40 49 89 50 83 51 82 52 41 54 71 55 52 56
REMARK SMILES IDX 70 57 53 58 56 59 69 60 87 61 54 62 55 63 68 65 88 66 57 67
REMARK SMILES IDX 42 68 43 69 51 70 44 71 50 72 45 73 46 74 47 75 48 76 49 77
REMARK SMILES IDX 72 78 73 79 81 80 74 81 80 82 75 83 76 84 77 85 78 86 79 87
REMARK SMILES IDX 58 88 59 89 67 90 60 91 66 92 61 93 62 94 63 95 64 96 65 97
REMARK H PARENT 17 24 17 25 17 26 86 53 56 64
REMARK Flexibility Score: inf
ROOT
ATOM      1  C   UNL     1       7.710   5.727   6.998  1.00  0.00     0.202 C 
ENDROOT
BRANCH   1   2
ATOM      2  C   UNL     1       8.113   6.341   8.345  1.00  0.00     0.261 C 
BRANCH   2   3
ATOM      3  O   UNL     1       7.565   5.587   9.434  1.00  0.00    -0.460 OA
BRANCH   3   4
ATOM      4  C   UNL     1       6.466   6.048  10.092  1.00  0.00     0.343 C 
ATOM      5  O   UNL     1       6.076   7.197  10.096  1.00  0.00    -0.246 OA
BRANCH   4   6
ATOM      6  C   UNL     1       5.889   4.970  10.890  1.00  0.00     0.117 A 
ATOM      7  C   UNL     1       8.029   4.736  12.393  1.00  0.00     0.069 C 
ATOM      8  C   UNL     1       6.625   4.402  12.008  1.00  0.00     0.068 A 
ATOM      9  N   UNL     1       5.997   3.471  12.715  1.00  0.00    -0.195 NA
ATOM     10  S   UNL     1       4.554   3.159  12.012  1.00  0.00    -0.017 S 
ATOM     11  C   UNL     1       4.701   4.257  10.677  1.00  0.00     0.133 A 
BRANCH  11  12
ATOM     12  N   UNL     1       3.685   4.162   9.665  1.00  0.00    -0.305 N 
ATOM     13  C   UNL     1       2.509   3.304   9.856  1.00  0.00     0.154 C 
BRANCH  12  14
ATOM     14  C   UNL     1       3.888   4.815   8.450  1.00  0.00     0.230 C 
ATOM     15  O   UNL     1       4.771   5.662   8.285  1.00  0.00    -0.274 OA
BRANCH  14  16
ATOM     16  C   UNL     1       3.011   4.561   7.205  1.00  0.00     0.076 C 
ATOM     17  C   UNL     1       2.717   3.108   6.834  1.00  0.00     0.018 C 
BRANCH  16  18
ATOM     18  C   UNL     1       1.768   5.463   7.178  1.00  0.00     0.013 C 
BRANCH  18  19
ATOM     19  C   UNL     1       2.071   6.963   7.307  1.00  0.00     0.007 C 
BRANCH  19  20
ATOM     20  C   UNL     1       3.018   7.591   6.272  1.00  0.00     0.064 C 
BRANCH  20  21
ATOM     21  C   UNL     1       2.450   7.679   4.844  1.00  0.00     0.177 C 
ATOM     22  C   UNL     1       2.736   6.438   4.000  1.00  0.00     0.075 C 
BRANCH  21  23
ATOM     23  N   UNL     1       3.059   8.820   4.147  1.00  0.00    -0.355 N 
ATOM     24  H   UNL     1       4.066   8.674   4.070  1.00  0.00     0.344 HD
ATOM     25  H   UNL     1       2.879   9.675   4.673  1.00  0.00     0.344 HD
ATOM     26  H   UNL     1       2.656   8.903   3.214  1.00  0.00     0.344 HD
ENDBRANCH  21  23
ENDBRANCH  20  21
ENDBRANCH  19  20
ENDBRANCH  18  19
ENDBRANCH  16  18
ENDBRANCH  14  16
ENDBRANCH  12  14
ENDBRANCH  11  12
ENDBRANCH   4   6
ENDBRANCH   3   4
ENDBRANCH   2   3
ENDBRANCH   1   2
BRANCH   1  27
ATOM     27  O   UNL     1       8.020   4.340   6.869  1.00  0.00    -0.376 OA
BRANCH  27  28
ATOM     28  C   UNL     1       7.246   3.469   7.680  1.00  0.00     0.188 C 
BRANCH  28  29
ATOM     29  C   UNL     1       7.997   2.753   8.824  1.00  0.00     0.188 C 
BRANCH  29  30
ATOM     30  O   UNL     1       9.399   2.891   9.022  1.00  0.00    -0.376 OA
BRANCH  30  31
ATOM     31  C   UNL     1      10.287   3.045   7.925  1.00  0.00     0.202 C 
BRANCH  31  32
ATOM     32  C   UNL     1      10.388   1.926   6.894  1.00  0.00     0.261 C 
BRANCH  32  33
ATOM     33  O   UNL     1       9.129   1.575   6.344  1.00  0.00    -0.460 OA
BRANCH  33  34
ATOM     34  C   UNL     1       8.545   0.511   6.934  1.00  0.00     0.338 C 
ATOM     35  O   UNL     1       8.969  -0.137   7.876  1.00  0.00    -0.246 OA
BRANCH  34  36
ATOM     36  C   UNL     1       7.288   0.205   6.236  1.00  0.00     0.060 A 
ATOM     37  C   UNL     1       6.564  -0.880   6.734  1.00  0.00     0.016 A 
ATOM     38  C   UNL     1       7.053   0.747   4.964  1.00  0.00     0.016 A 
ATOM     39  C   UNL     1       5.873  -1.648   5.832  1.00  0.00     0.010 A 
ATOM     40  C   UNL     1       6.374  -0.026   4.059  1.00  0.00     0.010 A 
ATOM     41  C   UNL     1       5.931  -1.276   4.488  1.00  0.00    -0.014 A 
BRANCH  41  42
ATOM     42  C   UNL     1       5.766  -2.332   3.515  1.00  0.00     0.031 A 
ATOM     43  C   UNL     1       4.391  -2.567   3.064  1.00  0.00     0.074 A 
ATOM     44  C   UNL     1       6.845  -2.964   3.016  1.00  0.00     0.049 A 
ATOM     45  N   UNL     1       3.663  -3.611   3.267  1.00  0.00    -0.248 NA
ATOM     46  C   UNL     1       3.695  -1.444   2.425  1.00  0.00     0.031 C 
ATOM     47  C   UNL     1       8.257  -2.592   3.174  1.00  0.00     0.029 A 
ATOM     48  N   UNL     1       6.893  -3.994   2.131  1.00  0.00    -0.354 N 
ATOM     49  C   UNL     1       2.466  -3.354   2.617  1.00  0.00     0.074 A 
ATOM     50  C   UNL     1       2.470  -1.948   2.295  1.00  0.00     0.031 C 
ATOM     51  C   UNL     1       8.981  -3.211   2.216  1.00  0.00     0.029 A 
ATOM     52  C   UNL     1       8.104  -4.094   1.463  1.00  0.00     0.049 A 
ATOM     53  H   UNL     1       6.141  -4.609   1.979  1.00  0.00     0.167 HD
ATOM     54  C   UNL     1       1.657  -4.352   2.172  1.00  0.00     0.031 A 
ATOM     55  C   UNL     1       8.320  -4.751   0.297  1.00  0.00     0.031 A 
ATOM     56  C   UNL     1       2.031  -5.634   2.708  1.00  0.00     0.049 A 
ATOM     57  C   UNL     1       7.203  -5.717   0.118  1.00  0.00     0.074 A 
ATOM     58  C   UNL     1       2.105  -6.170   3.978  1.00  0.00     0.029 A 
ATOM     59  N   UNL     1       2.759  -6.471   1.892  1.00  0.00    -0.354 N 
ATOM     60  N   UNL     1       7.013  -6.753   0.888  1.00  0.00    -0.248 NA
ATOM     61  C   UNL     1       6.033  -5.297  -0.643  1.00  0.00     0.031 C 
ATOM     62  C   UNL     1       3.220  -7.054   3.946  1.00  0.00     0.029 A 
ATOM     63  C   UNL     1       3.750  -7.037   2.653  1.00  0.00     0.049 A 
ATOM     64  H   UNL     1       2.597  -6.633   0.934  1.00  0.00     0.167 HD
ATOM     65  C   UNL     1       5.634  -6.851   1.032  1.00  0.00     0.074 A 
ATOM     66  C   UNL     1       5.084  -6.005  -0.022  1.00  0.00     0.031 C 
ATOM     67  C   UNL     1       5.073  -7.375   2.163  1.00  0.00     0.031 A 
BRANCH  54  68
ATOM     68  C   UNL     1       0.772  -4.217   0.964  1.00  0.00    -0.014 A 
ATOM     69  C   UNL     1      -0.124  -5.258   0.658  1.00  0.00     0.010 A 
ATOM     70  C   UNL     1       0.977  -3.231  -0.025  1.00  0.00     0.010 A 
ATOM     71  C   UNL     1      -0.723  -5.346  -0.604  1.00  0.00     0.020 A 
ATOM     72  C   UNL     1       0.344  -3.280  -1.264  1.00  0.00     0.020 A 
ATOM     73  C   UNL     1      -0.466  -4.365  -1.562  1.00  0.00     0.054 A 
BRANCH  73  74
ATOM     74  S   UNL     1      -1.116  -4.562  -3.237  1.00  0.00     0.124 S 
ATOM     75  O   UNL     1      -0.322  -5.683  -3.731  1.00  0.00    -0.237 OA
ATOM     76  O   UNL     1      -2.528  -4.840  -2.993  1.00  0.00    -0.237 OA
ATOM     77  O   UNL     1      -0.839  -3.272  -3.864  1.00  0.00    -0.744 OA
ENDBRANCH  73  74
ENDBRANCH  54  68
BRANCH  55  78
ATOM     78  C   UNL     1       9.221  -4.312  -0.801  1.00  0.00    -0.014 A 
ATOM     79  C   UNL     1       9.518  -5.155  -1.886  1.00  0.00     0.010 A 
ATOM     80  C   UNL     1       9.614  -2.959  -0.906  1.00  0.00     0.010 A 
ATOM     81  C   UNL     1      10.141  -4.653  -3.044  1.00  0.00     0.020 A 
ATOM     82  C   UNL     1      10.249  -2.455  -2.043  1.00  0.00     0.020 A 
ATOM     83  C   UNL     1      10.490  -3.301  -3.119  1.00  0.00     0.054 A 
BRANCH  83  84
ATOM     84  S   UNL     1      11.144  -2.621  -4.671  1.00  0.00     0.124 S 
ATOM     85  O   UNL     1      12.483  -3.201  -4.724  1.00  0.00    -0.237 OA
ATOM     86  O   UNL     1      10.196  -3.123  -5.661  1.00  0.00    -0.237 OA
ATOM     87  O   UNL     1      11.103  -1.175  -4.458  1.00  0.00    -0.744 OA
ENDBRANCH  83  84
ENDBRANCH  55  78
BRANCH  67  88
ATOM     88  C   UNL     1       5.964  -8.116   3.135  1.00  0.00    -0.014 A 
ATOM     89  C   UNL     1       7.038  -7.502   3.809  1.00  0.00     0.010 A 
ATOM     90  C   UNL     1       5.581  -9.412   3.525  1.00  0.00     0.010 A 
ATOM     91  C   UNL     1       7.716  -8.171   4.838  1.00  0.00     0.020 A 
ATOM     92  C   UNL     1       6.242 -10.077   4.562  1.00  0.00     0.020 A 
ATOM     93  C   UNL     1       7.308  -9.454   5.213  1.00  0.00     0.054 A 
BRANCH  93  94
ATOM     94  S   UNL     1       8.126 -10.273   6.611  1.00  0.00     0.124 S 
ATOM     95  O   UNL     1       9.430 -10.622   6.054  1.00  0.00    -0.237 OA
ATOM     96  O   UNL     1       8.137  -9.233   7.637  1.00  0.00    -0.237 OA
ATOM     97  O   UNL     1       7.255 -11.410   6.906  1.00  0.00    -0.744 OA
ENDBRANCH  93  94
ENDBRANCH  67  88
ENDBRANCH  41  42
ENDBRANCH  34  36
ENDBRANCH  33  34
ENDBRANCH  32  33
ENDBRANCH  31  32
ENDBRANCH  30  31
ENDBRANCH  29  30
ENDBRANCH  28  29
ENDBRANCH  27  28
ENDBRANCH   1  27
TORSDOF 28
