REMARK SMILES O=C(OCCOCCOCCOC(=O)c1ccc(F)c(NS(=O)(=O)c2cc(Cl)sc2Cl)c1)c1ccc(-c2c3nc(c(-c4ccc(S(=O)(=O)[O-])cc4)c4ccc([nH]4)c(-c4ccc(S(=O)(=O)[O-])cc4)c4nc(c(-c5ccc(S(=O)(=O)[O-])cc5)c5ccc2[nH]5)C=C4)C=C3)cc1
REMARK SMILES IDX 7 1 6 2 5 3 4 4 3 5 2 6 1 7 33 8 34 9 92 10 35 11 91 12
REMARK SMILES IDX 36 13 37 14 38 15 85 16 39 17 90 18 84 19 86 20 40 21 89 22
REMARK SMILES IDX 83 23 82 24 41 26 71 27 52 28 70 29 53 30 56 31 69 32 87 33
REMARK SMILES IDX 54 34 55 35 68 37 88 38 57 39 42 40 43 41 51 42 44 43 50 44
REMARK SMILES IDX 45 45 46 46 47 47 48 48 49 49 72 50 73 51 81 52 74 53 80 54
REMARK SMILES IDX 75 55 76 56 77 57 78 58 79 59 58 60 59 61 67 62 60 63 66 64
REMARK SMILES IDX 61 65 62 66 63 67 64 68 65 69 8 70 9 71 10 72 11 73 12 74
REMARK SMILES IDX 13 75 14 76 15 77 16 78 32 79 17 80 20 81 18 82 19 83 21 84
REMARK SMILES IDX 22 86 23 87 24 88 25 89 26 90 30 91 27 92 29 93 31 94 28 95
REMARK H PARENT 86 25 56 36 21 85
REMARK Flexibility Score: inf
ROOT
ATOM      1  C   UNL     1       2.934  -2.066  -0.163  1.00  0.00     0.188 C 
ENDROOT
BRANCH   1   2
ATOM      2  O   UNL     1       4.227  -1.571  -0.535  1.00  0.00    -0.376 OA
BRANCH   2   3
ATOM      3  C   UNL     1       5.175  -1.631   0.538  1.00  0.00     0.202 C 
BRANCH   3   4
ATOM      4  C   UNL     1       5.081  -0.468   1.530  1.00  0.00     0.261 C 
BRANCH   4   5
ATOM      5  O   UNL     1       3.735  -0.007   1.684  1.00  0.00    -0.460 OA
BRANCH   5   6
ATOM      6  C   UNL     1       3.255   1.172   1.222  1.00  0.00     0.338 C 
ATOM      7  O   UNL     1       2.388   1.737   1.885  1.00  0.00    -0.246 OA
BRANCH   6   8
ATOM      8  C   UNL     1       3.627   1.756  -0.116  1.00  0.00     0.060 A 
ATOM      9  C   UNL     1       4.736   1.419  -0.899  1.00  0.00     0.016 A 
ATOM     10  C   UNL     1       2.790   2.782  -0.593  1.00  0.00     0.016 A 
ATOM     11  C   UNL     1       5.066   2.140  -2.049  1.00  0.00     0.010 A 
ATOM     12  C   UNL     1       3.094   3.492  -1.758  1.00  0.00     0.010 A 
ATOM     13  C   UNL     1       4.275   3.212  -2.451  1.00  0.00    -0.014 A 
BRANCH  13  14
ATOM     14  C   UNL     1       4.824   4.194  -3.407  1.00  0.00     0.031 A 
ATOM     15  C   UNL     1       5.410   5.456  -2.844  1.00  0.00     0.074 A 
ATOM     16  C   UNL     1       4.862   3.948  -4.726  1.00  0.00     0.049 A 
ATOM     17  N   UNL     1       5.918   6.482  -3.470  1.00  0.00    -0.248 NA
ATOM     18  C   UNL     1       5.451   5.560  -1.374  1.00  0.00     0.031 C 
ATOM     19  C   UNL     1       4.445   2.702  -5.362  1.00  0.00     0.029 A 
ATOM     20  N   UNL     1       5.258   4.742  -5.770  1.00  0.00    -0.354 N 
ATOM     21  C   UNL     1       6.345   7.348  -2.471  1.00  0.00     0.074 A 
ATOM     22  C   UNL     1       6.003   6.749  -1.202  1.00  0.00     0.031 C 
ATOM     23  C   UNL     1       4.539   2.839  -6.695  1.00  0.00     0.029 A 
ATOM     24  C   UNL     1       5.011   4.185  -7.001  1.00  0.00     0.049 A 
ATOM     25  H   UNL     1       5.679   5.624  -5.649  1.00  0.00     0.167 HD
ATOM     26  C   UNL     1       6.976   8.538  -2.602  1.00  0.00     0.031 A 
ATOM     27  C   UNL     1       5.124   4.716  -8.234  1.00  0.00     0.031 A 
ATOM     28  C   UNL     1       7.263   9.142  -3.870  1.00  0.00     0.049 A 
ATOM     29  C   UNL     1       5.691   6.100  -8.368  1.00  0.00     0.074 A 
ATOM     30  C   UNL     1       7.860  10.360  -4.133  1.00  0.00     0.029 A 
ATOM     31  N   UNL     1       6.951   8.569  -5.096  1.00  0.00    -0.354 N 
ATOM     32  N   UNL     1       6.095   6.912  -7.418  1.00  0.00    -0.248 NA
ATOM     33  C   UNL     1       5.846   6.634  -9.726  1.00  0.00     0.031 C 
ATOM     34  C   UNL     1       7.865  10.544  -5.520  1.00  0.00     0.029 A 
ATOM     35  C   UNL     1       7.320   9.418  -6.121  1.00  0.00     0.049 A 
ATOM     36  H   UNL     1       6.529   7.688  -5.216  1.00  0.00     0.167 HD
ATOM     37  C   UNL     1       6.590   8.037  -8.063  1.00  0.00     0.074 A 
ATOM     38  C   UNL     1       6.423   7.806  -9.486  1.00  0.00     0.031 C 
ATOM     39  C   UNL     1       7.149   9.150  -7.529  1.00  0.00     0.031 A 
BRANCH  26  40
ATOM     40  C   UNL     1       7.314   9.259  -1.327  1.00  0.00    -0.014 A 
ATOM     41  C   UNL     1       8.332   8.790  -0.475  1.00  0.00     0.010 A 
ATOM     42  C   UNL     1       6.546  10.368  -0.935  1.00  0.00     0.010 A 
ATOM     43  C   UNL     1       8.527   9.375   0.780  1.00  0.00     0.020 A 
ATOM     44  C   UNL     1       6.754  10.971   0.309  1.00  0.00     0.020 A 
ATOM     45  C   UNL     1       7.723  10.450   1.170  1.00  0.00     0.054 A 
BRANCH  45  46
ATOM     46  S   UNL     1       7.950  11.155   2.826  1.00  0.00     0.124 S 
ATOM     47  O   UNL     1       7.297  10.155   3.668  1.00  0.00    -0.237 OA
ATOM     48  O   UNL     1       9.404  11.226   2.950  1.00  0.00    -0.237 OA
ATOM     49  O   UNL     1       7.271  12.445   2.749  1.00  0.00    -0.744 OA
ENDBRANCH  45  46
ENDBRANCH  26  40
BRANCH  27  50
ATOM     50  C   UNL     1       4.660   3.929  -9.407  1.00  0.00    -0.014 A 
ATOM     51  C   UNL     1       5.572   3.328 -10.290  1.00  0.00     0.010 A 
ATOM     52  C   UNL     1       3.280   3.709  -9.594  1.00  0.00     0.010 A 
ATOM     53  C   UNL     1       5.114   2.510 -11.329  1.00  0.00     0.020 A 
ATOM     54  C   UNL     1       2.820   2.878 -10.619  1.00  0.00     0.020 A 
ATOM     55  C   UNL     1       3.742   2.281 -11.480  1.00  0.00     0.054 A 
BRANCH  55  56
ATOM     56  S   UNL     1       3.181   1.125 -12.762  1.00  0.00     0.124 S 
ATOM     57  O   UNL     1       3.403   1.891 -13.983  1.00  0.00    -0.237 OA
ATOM     58  O   UNL     1       4.068  -0.018 -12.558  1.00  0.00    -0.237 OA
ATOM     59  O   UNL     1       1.783   0.884 -12.414  1.00  0.00    -0.744 OA
ENDBRANCH  55  56
ENDBRANCH  27  50
BRANCH  39  60
ATOM     60  C   UNL     1       7.672  10.189  -8.478  1.00  0.00    -0.014 A 
ATOM     61  C   UNL     1       6.807  11.092  -9.116  1.00  0.00     0.010 A 
ATOM     62  C   UNL     1       9.063  10.335  -8.629  1.00  0.00     0.010 A 
ATOM     63  C   UNL     1       7.328  12.131  -9.891  1.00  0.00     0.020 A 
ATOM     64  C   UNL     1       9.587  11.383  -9.386  1.00  0.00     0.020 A 
ATOM     65  C   UNL     1       8.714  12.274 -10.015  1.00  0.00     0.054 A 
BRANCH  65  66
ATOM     66  S   UNL     1       9.369  13.689 -10.941  1.00  0.00     0.124 S 
ATOM     67  O   UNL     1       9.152  13.272 -12.323  1.00  0.00    -0.237 OA
ATOM     68  O   UNL     1       8.532  14.792 -10.477  1.00  0.00    -0.237 OA
ATOM     69  O   UNL     1      10.767  13.758 -10.522  1.00  0.00    -0.744 OA
ENDBRANCH  65  66
ENDBRANCH  39  60
ENDBRANCH  13  14
ENDBRANCH   6   8
ENDBRANCH   5   6
ENDBRANCH   4   5
ENDBRANCH   3   4
ENDBRANCH   2   3
ENDBRANCH   1   2
BRANCH   1  70
ATOM     70  C   UNL     1       2.359  -3.047  -1.189  1.00  0.00     0.188 C 
BRANCH  70  71
ATOM     71  O   UNL     1       3.070  -4.270  -1.364  1.00  0.00    -0.376 OA
BRANCH  71  72
ATOM     72  C   UNL     1       4.399  -4.180  -1.866  1.00  0.00     0.202 C 
BRANCH  72  73
ATOM     73  C   UNL     1       4.576  -3.745  -3.325  1.00  0.00     0.261 C 
BRANCH  73  74
ATOM     74  O   UNL     1       3.930  -2.505  -3.666  1.00  0.00    -0.460 OA
BRANCH  74  75
ATOM     75  C   UNL     1       3.059  -2.594  -4.704  1.00  0.00     0.338 C 
ATOM     76  O   UNL     1       2.749  -3.606  -5.312  1.00  0.00    -0.246 OA
BRANCH  75  77
ATOM     77  C   UNL     1       2.533  -1.268  -5.096  1.00  0.00     0.062 A 
ATOM     78  C   UNL     1       2.470  -0.991  -6.471  1.00  0.00     0.019 A 
ATOM     79  C   UNL     1       2.038  -0.345  -4.163  1.00  0.00     0.045 A 
ATOM     80  C   UNL     1       1.897   0.198  -6.923  1.00  0.00     0.042 A 
ATOM     81  C   UNL     1       1.465   0.844  -4.621  1.00  0.00     0.085 A 
ATOM     82  C   UNL     1       1.382   1.098  -5.997  1.00  0.00     0.147 A 
ATOM     83  F   UNL     1       0.859   2.255  -6.426  1.00  0.00    -0.205 F 
BRANCH  81  84
ATOM     84  N   UNL     1       0.993   1.825  -3.684  1.00  0.00    -0.277 N 
ATOM     85  H   UNL     1       1.591   2.531  -3.345  1.00  0.00     0.180 HD
BRANCH  84  86
ATOM     86  S   UNL     1      -0.620   1.733  -3.180  1.00  0.00     0.264 S 
ATOM     87  O   UNL     1      -0.903   2.944  -2.456  1.00  0.00    -0.201 OA
ATOM     88  O   UNL     1      -1.448   1.313  -4.294  1.00  0.00    -0.201 OA
BRANCH  86  89
ATOM     89  C   UNL     1      -0.803   0.445  -2.038  1.00  0.00     0.118 A 
ATOM     90  C   UNL     1      -1.022  -0.911  -2.459  1.00  0.00     0.056 A 
ATOM     91  C   UNL     1      -0.832   0.544  -0.666  1.00  0.00     0.115 A 
ATOM     92  C   UNL     1      -1.212  -1.742  -1.388  1.00  0.00     0.096 A 
ATOM     93  S   UNL     1      -1.079  -0.960   0.102  1.00  0.00    -0.110 S 
ATOM     94  Cl  UNL     1      -0.703   1.913   0.364  1.00  0.00    -0.071 Cl
ATOM     95  Cl  UNL     1      -1.567  -3.420  -1.444  1.00  0.00    -0.072 Cl
ENDBRANCH  86  89
ENDBRANCH  84  86
ENDBRANCH  81  84
ENDBRANCH  75  77
ENDBRANCH  74  75
ENDBRANCH  73  74
ENDBRANCH  72  73
ENDBRANCH  71  72
ENDBRANCH  70  71
ENDBRANCH   1  70
TORSDOF 23
