REMARK SMILES O=C(OCCOCCOCCOC(=O)c1cc(NC(=O)c2ccccc2Cl)ccc1N1CCC[C@H](C[NH+]2CCCC2)C1)c1ccc(-c2c3nc(c(-c4ccc(S(=O)(=O)[O-])cc4)c4ccc([nH]4)c(-c4ccc(S(=O)(=O)[O-])cc4)c4nc(c(-c5ccc(S(=O)(=O)[O-])cc5)c5ccc2[nH]5)C=C4)C=C3)cc1
REMARK SMILES IDX 7 1 6 2 5 3 4 4 3 5 2 6 1 7 43 8 44 9 102 10 45 11 101 12
REMARK SMILES IDX 46 13 47 14 48 15 95 16 49 17 100 18 94 19 96 20 50 21 99 22
REMARK SMILES IDX 93 23 92 24 51 26 81 27 62 28 80 29 63 30 66 31 79 32 97 33
REMARK SMILES IDX 64 34 65 35 78 37 98 38 67 39 52 40 53 41 61 42 54 43 60 44
REMARK SMILES IDX 55 45 56 46 57 47 58 48 59 49 82 50 83 51 91 52 84 53 90 54
REMARK SMILES IDX 85 55 86 56 87 57 88 58 89 59 68 60 69 61 77 62 70 63 76 64
REMARK SMILES IDX 71 65 72 66 73 67 74 68 75 69 8 70 9 71 10 72 11 73 12 74
REMARK SMILES IDX 13 75 14 76 15 77 16 78 30 79 17 80 29 81 28 82 31 83 32 84
REMARK SMILES IDX 42 85 33 86 35 87 34 88 36 89 37 90 38 91 41 92 39 94 40 95
REMARK SMILES IDX 18 96 19 97 20 99 21 100 22 101 26 102 23 103 25 104 27 105
REMARK SMILES IDX 24 106
REMARK H PARENT 96 25 66 36 37 93 18 98
REMARK Flexibility Score: inf
ROOT
ATOM      1  C   UNL     1       2.860   1.577   0.295  1.00  0.00     0.188 C 
ENDROOT
BRANCH   1   2
ATOM      2  O   UNL     1       4.274   1.462   0.432  1.00  0.00    -0.376 OA
BRANCH   2   3
ATOM      3  C   UNL     1       4.989   1.505  -0.806  1.00  0.00     0.202 C 
BRANCH   3   4
ATOM      4  C   UNL     1       5.026   0.184  -1.594  1.00  0.00     0.261 C 
BRANCH   4   5
ATOM      5  O   UNL     1       3.733  -0.427  -1.732  1.00  0.00    -0.460 OA
BRANCH   5   6
ATOM      6  C   UNL     1       3.190  -1.455  -1.037  1.00  0.00     0.338 C 
ATOM      7  O   UNL     1       2.141  -1.936  -1.467  1.00  0.00    -0.246 OA
BRANCH   6   8
ATOM      8  C   UNL     1       3.747  -2.023   0.237  1.00  0.00     0.060 A 
ATOM      9  C   UNL     1       4.805  -1.495   0.975  1.00  0.00     0.016 A 
ATOM     10  C   UNL     1       3.120  -3.179   0.748  1.00  0.00     0.016 A 
ATOM     11  C   UNL     1       5.303  -2.146   2.100  1.00  0.00     0.010 A 
ATOM     12  C   UNL     1       3.581  -3.813   1.910  1.00  0.00     0.010 A 
ATOM     13  C   UNL     1       4.723  -3.331   2.551  1.00  0.00    -0.014 A 
BRANCH  13  14
ATOM     14  C   UNL     1       5.492  -4.127   3.534  1.00  0.00     0.031 A 
ATOM     15  C   UNL     1       6.288  -5.294   3.023  1.00  0.00     0.074 A 
ATOM     16  C   UNL     1       5.633  -3.688   4.798  1.00  0.00     0.049 A 
ATOM     17  N   UNL     1       7.185  -6.011   3.644  1.00  0.00    -0.248 NA
ATOM     18  C   UNL     1       6.043  -5.710   1.631  1.00  0.00     0.031 C 
ATOM     19  C   UNL     1       4.907  -2.560   5.378  1.00  0.00     0.029 A 
ATOM     20  N   UNL     1       6.482  -4.090   5.800  1.00  0.00    -0.354 N 
ATOM     21  C   UNL     1       7.583  -6.981   2.731  1.00  0.00     0.074 A 
ATOM     22  C   UNL     1       6.831  -6.767   1.518  1.00  0.00     0.031 C 
ATOM     23  C   UNL     1       5.400  -2.313   6.603  1.00  0.00     0.029 A 
ATOM     24  C   UNL     1       6.473  -3.252   6.892  1.00  0.00     0.049 A 
ATOM     25  H   UNL     1       7.041  -4.898   5.742  1.00  0.00     0.167 HD
ATOM     26  C   UNL     1       8.491  -7.970   2.896  1.00  0.00     0.031 A 
ATOM     27  C   UNL     1       7.267  -3.223   7.982  1.00  0.00     0.031 A 
ATOM     28  C   UNL     1       9.220  -8.178   4.114  1.00  0.00     0.049 A 
ATOM     29  C   UNL     1       8.314  -4.297   8.114  1.00  0.00     0.074 A 
ATOM     30  C   UNL     1      10.089  -9.201   4.441  1.00  0.00     0.029 A 
ATOM     31  N   UNL     1       9.170  -7.324   5.207  1.00  0.00    -0.354 N 
ATOM     32  N   UNL     1       8.641  -5.236   7.257  1.00  0.00    -0.248 NA
ATOM     33  C   UNL     1       9.080  -4.327   9.367  1.00  0.00     0.031 C 
ATOM     34  C   UNL     1      10.543  -8.982   5.747  1.00  0.00     0.029 A 
ATOM     35  C   UNL     1       9.995  -7.795   6.211  1.00  0.00     0.049 A 
ATOM     36  H   UNL     1       8.627  -6.505   5.260  1.00  0.00     0.167 HD
ATOM     37  C   UNL     1       9.623  -5.992   7.884  1.00  0.00     0.074 A 
ATOM     38  C   UNL     1       9.893  -5.353   9.157  1.00  0.00     0.031 C 
ATOM     39  C   UNL     1      10.221  -7.137   7.471  1.00  0.00     0.031 A 
BRANCH  26  40
ATOM     40  C   UNL     1       8.669  -8.924   1.749  1.00  0.00    -0.014 A 
ATOM     41  C   UNL     1       9.347  -8.540   0.578  1.00  0.00     0.010 A 
ATOM     42  C   UNL     1       8.113 -10.213   1.829  1.00  0.00     0.010 A 
ATOM     43  C   UNL     1       9.428  -9.415  -0.509  1.00  0.00     0.020 A 
ATOM     44  C   UNL     1       8.214 -11.100   0.754  1.00  0.00     0.020 A 
ATOM     45  C   UNL     1       8.855 -10.687  -0.416  1.00  0.00     0.054 A 
BRANCH  45  46
ATOM     46  S   UNL     1       8.975 -11.803  -1.840  1.00  0.00     0.124 S 
ATOM     47  O   UNL     1       8.018 -11.208  -2.769  1.00  0.00    -0.237 OA
ATOM     48  O   UNL     1      10.379 -11.683  -2.224  1.00  0.00    -0.237 OA
ATOM     49  O   UNL     1       8.590 -13.103  -1.296  1.00  0.00    -0.744 OA
ENDBRANCH  45  46
ENDBRANCH  26  40
BRANCH  27  50
ATOM     50  C   UNL     1       7.121  -2.163   9.026  1.00  0.00    -0.014 A 
ATOM     51  C   UNL     1       8.175  -1.269   9.296  1.00  0.00     0.010 A 
ATOM     52  C   UNL     1       5.942  -2.060   9.787  1.00  0.00     0.010 A 
ATOM     53  C   UNL     1       8.072  -0.328  10.329  1.00  0.00     0.020 A 
ATOM     54  C   UNL     1       5.819  -1.097  10.794  1.00  0.00     0.020 A 
ATOM     55  C   UNL     1       6.897  -0.257  11.079  1.00  0.00     0.054 A 
BRANCH  55  56
ATOM     56  S   UNL     1       6.756   0.957  12.421  1.00  0.00     0.124 S 
ATOM     57  O   UNL     1       7.214   0.187  13.573  1.00  0.00    -0.237 OA
ATOM     58  O   UNL     1       7.646   2.032  11.989  1.00  0.00    -0.237 OA
ATOM     59  O   UNL     1       5.335   1.292  12.409  1.00  0.00    -0.744 OA
ENDBRANCH  55  56
ENDBRANCH  27  50
BRANCH  39  60
ATOM     60  C   UNL     1      11.192  -7.772   8.424  1.00  0.00    -0.014 A 
ATOM     61  C   UNL     1      10.732  -8.416   9.587  1.00  0.00     0.010 A 
ATOM     62  C   UNL     1      12.567  -7.756   8.139  1.00  0.00     0.010 A 
ATOM     63  C   UNL     1      11.639  -8.997  10.474  1.00  0.00     0.020 A 
ATOM     64  C   UNL     1      13.475  -8.360   9.011  1.00  0.00     0.020 A 
ATOM     65  C   UNL     1      13.005  -8.960  10.182  1.00  0.00     0.054 A 
BRANCH  65  66
ATOM     66  S   UNL     1      14.163  -9.741  11.337  1.00  0.00     0.124 S 
ATOM     67  O   UNL     1      14.216  -8.762  12.419  1.00  0.00    -0.237 OA
ATOM     68  O   UNL     1      13.498 -11.001  11.659  1.00  0.00    -0.237 OA
ATOM     69  O   UNL     1      15.391  -9.874  10.556  1.00  0.00    -0.744 OA
ENDBRANCH  65  66
ENDBRANCH  39  60
ENDBRANCH  13  14
ENDBRANCH   6   8
ENDBRANCH   5   6
ENDBRANCH   4   5
ENDBRANCH   3   4
ENDBRANCH   2   3
ENDBRANCH   1   2
BRANCH   1  70
ATOM     70  C   UNL     1       2.228   2.947   0.575  1.00  0.00     0.188 C 
BRANCH  70  71
ATOM     71  O   UNL     1       2.974   4.119   0.288  1.00  0.00    -0.376 OA
BRANCH  71  72
ATOM     72  C   UNL     1       4.188   4.319   1.002  1.00  0.00     0.202 C 
BRANCH  72  73
ATOM     73  C   UNL     1       4.185   4.271   2.530  1.00  0.00     0.261 C 
BRANCH  73  74
ATOM     74  O   UNL     1       3.700   3.054   3.119  1.00  0.00    -0.460 OA
BRANCH  74  75
ATOM     75  C   UNL     1       2.578   3.197   3.873  1.00  0.00     0.340 C 
ATOM     76  O   UNL     1       1.813   4.150   3.857  1.00  0.00    -0.246 OA
BRANCH  75  77
ATOM     77  C   UNL     1       2.341   2.027   4.737  1.00  0.00     0.085 A 
ATOM     78  C   UNL     1       1.067   1.429   4.622  1.00  0.00     0.044 A 
ATOM     79  C   UNL     1       3.272   1.607   5.704  1.00  0.00     0.051 A 
ATOM     80  C   UNL     1       0.680   0.405   5.482  1.00  0.00     0.042 A 
ATOM     81  C   UNL     1       2.837   0.593   6.577  1.00  0.00     0.029 A 
ATOM     82  C   UNL     1       1.565   0.013   6.483  1.00  0.00     0.028 A 
BRANCH  79  83
ATOM     83  N   UNL     1       4.531   2.143   5.887  1.00  0.00    -0.370 N 
ATOM     84  C   UNL     1       5.701   1.270   5.951  1.00  0.00     0.116 C 
ATOM     85  C   UNL     1       4.815   3.571   5.853  1.00  0.00     0.126 C 
ATOM     86  C   UNL     1       6.508   1.598   7.200  1.00  0.00     0.022 C 
ATOM     87  C   UNL     1       5.623   3.995   7.085  1.00  0.00     0.064 C 
ATOM     88  C   UNL     1       6.859   3.086   7.231  1.00  0.00     0.013 C 
BRANCH  87  89
ATOM     89  C   UNL     1       4.679   4.059   8.311  1.00  0.00     0.267 C 
BRANCH  89  90
ATOM     90  N   UNL     1       5.072   4.866   9.467  1.00  0.00    -0.335 N 
ATOM     91  C   UNL     1       5.489   6.233   9.191  1.00  0.00     0.262 C 
ATOM     92  C   UNL     1       6.090   4.248  10.323  1.00  0.00     0.262 C 
ATOM     93  H   UNL     1       4.181   4.908   9.962  1.00  0.00     0.348 HD
ATOM     94  C   UNL     1       7.004   6.210   9.223  1.00  0.00     0.067 C 
ATOM     95  C   UNL     1       7.330   5.133  10.242  1.00  0.00     0.067 C 
ENDBRANCH  89  90
ENDBRANCH  87  89
ENDBRANCH  79  83
BRANCH  80  96
ATOM     96  N   UNL     1      -0.588  -0.205   5.465  1.00  0.00    -0.322 N 
ATOM     97  C   UNL     1      -1.525  -0.315   4.464  1.00  0.00     0.257 C 
ATOM     98  H   UNL     1      -0.849  -0.626   6.316  1.00  0.00     0.170 HD
ATOM     99  O   UNL     1      -2.686  -0.636   4.713  1.00  0.00    -0.269 OA
BRANCH  97 100
ATOM    100  C   UNL     1      -1.140  -0.143   3.055  1.00  0.00     0.058 A 
ATOM    101  C   UNL     1      -1.743   0.893   2.328  1.00  0.00     0.015 A 
ATOM    102  C   UNL     1      -0.259  -1.026   2.424  1.00  0.00     0.053 A 
ATOM    103  C   UNL     1      -1.412   1.088   0.986  1.00  0.00     0.001 A 
ATOM    104  C   UNL     1       0.047  -0.835   1.076  1.00  0.00     0.021 A 
ATOM    105  Cl  UNL     1       0.442  -2.384   3.226  1.00  0.00    -0.083 Cl
ATOM    106  C   UNL     1      -0.513   0.226   0.362  1.00  0.00     0.002 A 
ENDBRANCH  97 100
ENDBRANCH  80  96
ENDBRANCH  75  77
ENDBRANCH  74  75
ENDBRANCH  73  74
ENDBRANCH  72  73
ENDBRANCH  71  72
ENDBRANCH  70  71
ENDBRANCH   1  70
TORSDOF 25
