REMARK SMILES Cc1ccc2c(c1)C=C(C(=O)OCCOCCOCCOC(=O)c1ccc(-c3c4nc(c(-c5ccc(S(=O)(=O)[O-])cc5)c5ccc([nH]5)c(-c5ccc(S(=O)(=O)[O-])cc5)c5nc(c(-c6ccc(S(=O)(=O)[O-])cc6)c6ccc3[nH]6)C=C5)C=C4)cc1)[C@@H](C(F)(F)F)O2
REMARK SMILES IDX 17 1 16 2 15 3 14 4 13 5 12 6 10 7 11 8 9 9 1 10 2 11 3 12
REMARK SMILES IDX 7 13 4 14 6 15 5 16 8 17 89 18 84 19 85 20 86 21 87 22 88 23
REMARK SMILES IDX 18 24 19 25 20 26 21 27 22 28 23 29 24 30 25 31 83 32 26 33
REMARK SMILES IDX 82 34 27 35 28 36 29 37 76 38 30 39 81 40 75 41 77 42 31 43
REMARK SMILES IDX 80 44 74 45 73 46 32 48 62 49 43 50 61 51 44 52 47 53 60 54
REMARK SMILES IDX 78 55 45 56 46 57 59 59 79 60 48 61 33 62 34 63 42 64 35 65
REMARK SMILES IDX 41 66 36 67 37 68 38 69 39 70 40 71 63 72 64 73 72 74 65 75
REMARK SMILES IDX 71 76 66 77 67 78 68 79 69 80 70 81 49 82 50 83 58 84 51 85
REMARK SMILES IDX 57 86 52 87 53 88 54 89 55 90 56 91
REMARK H PARENT 77 47 47 58
REMARK Flexibility Score: inf
ROOT
ATOM      1  C   UNL     1      -1.267   7.368  -2.539  1.00  0.00     0.188 C 
ENDROOT
BRANCH   1   2
ATOM      2  C   UNL     1      -0.044   7.992  -1.833  1.00  0.00     0.188 C 
BRANCH   2   3
ATOM      3  O   UNL     1       0.383   9.292  -2.173  1.00  0.00    -0.376 OA
BRANCH   3   4
ATOM      4  C   UNL     1       0.948   9.593  -3.436  1.00  0.00     0.202 C 
BRANCH   4   5
ATOM      5  C   UNL     1       1.636   8.572  -4.351  1.00  0.00     0.261 C 
BRANCH   5   6
ATOM      6  O   UNL     1       1.120   7.240  -4.309  1.00  0.00    -0.460 OA
BRANCH   6   7
ATOM      7  C   UNL     1       1.996   6.307  -3.862  1.00  0.00     0.338 C 
ATOM      8  O   UNL     1       3.154   6.495  -3.524  1.00  0.00    -0.246 OA
BRANCH   7   9
ATOM      9  C   UNL     1       1.308   5.012  -3.724  1.00  0.00     0.087 C 
ATOM     10  C   UNL     1       0.907   0.153   0.029  1.00  0.00     0.044 C 
ATOM     11  C   UNL     1       0.604   0.980  -1.185  1.00  0.00    -0.050 A 
ATOM     12  C   UNL     1      -0.182   0.477  -2.227  1.00  0.00     0.007 A 
ATOM     13  C   UNL     1       1.132   2.273  -1.293  1.00  0.00     0.015 A 
ATOM     14  C   UNL     1      -0.441   1.258  -3.356  1.00  0.00     0.047 A 
ATOM     15  C   UNL     1       0.897   3.046  -2.437  1.00  0.00     0.017 A 
ATOM     16  C   UNL     1       0.100   2.539  -3.463  1.00  0.00     0.128 A 
ATOM     17  C   UNL     1       1.515   4.351  -2.579  1.00  0.00     0.027 C 
ATOM     18  O   UNL     1      -0.200   3.225  -4.606  1.00  0.00    -0.475 OA
ATOM     19  C   UNL     1       0.441   4.508  -4.844  1.00  0.00     0.316 C 
BRANCH  19  20
ATOM     20  C   UNL     1       1.200   4.437  -6.177  1.00  0.00     0.430 C 
ATOM     21  F   UNL     1       0.410   3.956  -7.168  1.00  0.00    -0.167 F 
ATOM     22  F   UNL     1       1.617   5.661  -6.583  1.00  0.00    -0.167 F 
ATOM     23  F   UNL     1       2.290   3.642  -6.107  1.00  0.00    -0.167 F 
ENDBRANCH  19  20
ENDBRANCH   7   9
ENDBRANCH   6   7
ENDBRANCH   5   6
ENDBRANCH   4   5
ENDBRANCH   3   4
ENDBRANCH   2   3
ENDBRANCH   1   2
BRANCH   1  24
ATOM     24  O   UNL     1      -2.002   8.094  -3.508  1.00  0.00    -0.376 OA
BRANCH  24  25
ATOM     25  C   UNL     1      -2.489   9.389  -3.186  1.00  0.00     0.202 C 
BRANCH  25  26
ATOM     26  C   UNL     1      -3.306   9.627  -1.911  1.00  0.00     0.261 C 
BRANCH  26  27
ATOM     27  O   UNL     1      -2.674   9.161  -0.712  1.00  0.00    -0.460 OA
BRANCH  27  28
ATOM     28  C   UNL     1      -3.312   8.141  -0.083  1.00  0.00     0.338 C 
ATOM     29  O   UNL     1      -4.360   7.614  -0.414  1.00  0.00    -0.246 OA
BRANCH  28  30
ATOM     30  C   UNL     1      -2.433   7.600   0.974  1.00  0.00     0.060 A 
ATOM     31  C   UNL     1      -1.891   8.425   1.960  1.00  0.00     0.016 A 
ATOM     32  C   UNL     1      -2.168   6.223   0.972  1.00  0.00     0.016 A 
ATOM     33  C   UNL     1      -1.115   7.856   2.974  1.00  0.00     0.010 A 
ATOM     34  C   UNL     1      -1.383   5.660   1.978  1.00  0.00     0.010 A 
ATOM     35  C   UNL     1      -0.878   6.468   3.005  1.00  0.00    -0.014 A 
BRANCH  35  36
ATOM     36  C   UNL     1      -0.300   5.851   4.223  1.00  0.00     0.031 A 
ATOM     37  C   UNL     1       1.132   5.425   4.307  1.00  0.00     0.074 A 
ATOM     38  C   UNL     1      -1.121   5.676   5.277  1.00  0.00     0.049 A 
ATOM     39  N   UNL     1       1.794   5.010   5.356  1.00  0.00    -0.248 NA
ATOM     40  C   UNL     1       1.921   5.459   3.068  1.00  0.00     0.031 C 
ATOM     41  C   UNL     1      -2.547   6.013   5.286  1.00  0.00     0.029 A 
ATOM     42  N   UNL     1      -0.881   5.199   6.540  1.00  0.00    -0.354 N 
ATOM     43  C   UNL     1       3.088   4.763   4.918  1.00  0.00     0.074 A 
ATOM     44  C   UNL     1       3.103   5.022   3.492  1.00  0.00     0.031 C 
ATOM     45  C   UNL     1      -3.044   5.774   6.508  1.00  0.00     0.029 A 
ATOM     46  C   UNL     1      -1.982   5.250   7.362  1.00  0.00     0.049 A 
ATOM     47  H   UNL     1      -0.005   4.854   6.829  1.00  0.00     0.167 HD
ATOM     48  C   UNL     1       4.162   4.378   5.649  1.00  0.00     0.031 A 
ATOM     49  C   UNL     1      -2.123   4.938   8.665  1.00  0.00     0.031 A 
ATOM     50  C   UNL     1       4.123   4.101   7.066  1.00  0.00     0.049 A 
ATOM     51  C   UNL     1      -0.922   4.494   9.447  1.00  0.00     0.074 A 
ATOM     52  C   UNL     1       5.175   3.757   7.899  1.00  0.00     0.029 A 
ATOM     53  N   UNL     1       2.983   4.121   7.856  1.00  0.00    -0.354 N 
ATOM     54  N   UNL     1       0.317   4.361   9.040  1.00  0.00    -0.248 NA
ATOM     55  C   UNL     1      -1.130   4.180  10.866  1.00  0.00     0.031 C 
ATOM     56  C   UNL     1       4.661   3.499   9.172  1.00  0.00     0.029 A 
ATOM     57  C   UNL     1       3.300   3.758   9.157  1.00  0.00     0.049 A 
ATOM     58  H   UNL     1       2.081   4.359   7.541  1.00  0.00     0.167 HD
ATOM     59  C   UNL     1       1.041   3.961  10.156  1.00  0.00     0.074 A 
ATOM     60  C   UNL     1       0.105   3.897  11.261  1.00  0.00     0.031 C 
ATOM     61  C   UNL     1       2.363   3.673  10.251  1.00  0.00     0.031 A 
BRANCH  48  62
ATOM     62  C   UNL     1       5.497   4.255   4.957  1.00  0.00    -0.014 A 
ATOM     63  C   UNL     1       6.133   3.003   4.867  1.00  0.00     0.010 A 
ATOM     64  C   UNL     1       6.192   5.404   4.537  1.00  0.00     0.010 A 
ATOM     65  C   UNL     1       7.450   2.905   4.406  1.00  0.00     0.020 A 
ATOM     66  C   UNL     1       7.499   5.308   4.050  1.00  0.00     0.020 A 
ATOM     67  C   UNL     1       8.129   4.062   4.012  1.00  0.00     0.054 A 
BRANCH  67  68
ATOM     68  S   UNL     1       9.851   3.922   3.460  1.00  0.00     0.124 S 
ATOM     69  O   UNL     1      10.561   3.696   4.715  1.00  0.00    -0.237 OA
ATOM     70  O   UNL     1       9.801   2.781   2.548  1.00  0.00    -0.237 OA
ATOM     71  O   UNL     1      10.110   5.209   2.817  1.00  0.00    -0.744 OA
ENDBRANCH  67  68
ENDBRANCH  48  62
BRANCH  49  72
ATOM     72  C   UNL     1      -3.454   5.122   9.304  1.00  0.00    -0.014 A 
ATOM     73  C   UNL     1      -4.539   4.303   8.938  1.00  0.00     0.010 A 
ATOM     74  C   UNL     1      -3.669   6.186  10.197  1.00  0.00     0.010 A 
ATOM     75  C   UNL     1      -5.825   4.581   9.406  1.00  0.00     0.020 A 
ATOM     76  C   UNL     1      -4.950   6.449  10.691  1.00  0.00     0.020 A 
ATOM     77  C   UNL     1      -6.024   5.663  10.267  1.00  0.00     0.054 A 
BRANCH  77  78
ATOM     78  S   UNL     1      -7.712   6.045  10.809  1.00  0.00     0.124 S 
ATOM     79  O   UNL     1      -8.275   6.670   9.615  1.00  0.00    -0.237 OA
ATOM     80  O   UNL     1      -8.247   4.727  11.141  1.00  0.00    -0.237 OA
ATOM     81  O   UNL     1      -7.512   6.938  11.947  1.00  0.00    -0.744 OA
ENDBRANCH  77  78
ENDBRANCH  49  72
BRANCH  61  82
ATOM     82  C   UNL     1       2.896   3.237  11.593  1.00  0.00    -0.014 A 
ATOM     83  C   UNL     1       3.816   4.050  12.282  1.00  0.00     0.010 A 
ATOM     84  C   UNL     1       2.572   1.975  12.123  1.00  0.00     0.010 A 
ATOM     85  C   UNL     1       4.423   3.599  13.457  1.00  0.00     0.020 A 
ATOM     86  C   UNL     1       3.154   1.532  13.315  1.00  0.00     0.020 A 
ATOM     87  C   UNL     1       4.095   2.338  13.961  1.00  0.00     0.054 A 
BRANCH  87  88
ATOM     88  S   UNL     1       4.906   1.760  15.478  1.00  0.00     0.124 S 
ATOM     89  O   UNL     1       6.227   1.373  14.991  1.00  0.00    -0.237 OA
ATOM     90  O   UNL     1       4.872   2.944  16.333  1.00  0.00    -0.237 OA
ATOM     91  O   UNL     1       4.057   0.657  15.922  1.00  0.00    -0.744 OA
ENDBRANCH  87  88
ENDBRANCH  61  82
ENDBRANCH  35  36
ENDBRANCH  28  30
ENDBRANCH  27  28
ENDBRANCH  26  27
ENDBRANCH  25  26
ENDBRANCH  24  25
ENDBRANCH   1  24
TORSDOF 21
