REMARK SMILES O=C(OCCOCCOCCOC(=O)c1ccc(Cl)nc1NC[C@@H]1C[N@@H+]2CCC[C@@H]2CO1)c1ccc(-c2c3nc(c(-c4ccc(S(=O)(=O)[O-])cc4)c4ccc([nH]4)c(-c4ccc(S(=O)(=O)[O-])cc4)c4nc(c(-c5ccc(S(=O)(=O)[O-])cc5)c5ccc2[nH]5)C=C4)C=C3)cc1
REMARK SMILES IDX 7 1 6 2 5 3 4 4 3 5 2 6 1 7 33 8 34 9 92 10 35 11 91 12
REMARK SMILES IDX 36 13 37 14 38 15 85 16 39 17 90 18 84 19 86 20 40 21 89 22
REMARK SMILES IDX 83 23 82 24 41 26 71 27 52 28 70 29 53 30 56 31 69 32 87 33
REMARK SMILES IDX 54 34 55 35 68 37 88 38 57 39 42 40 43 41 51 42 44 43 50 44
REMARK SMILES IDX 45 45 46 46 47 47 48 48 49 49 72 50 73 51 81 52 74 53 80 54
REMARK SMILES IDX 75 55 76 56 77 57 78 58 79 59 58 60 59 61 67 62 60 63 66 64
REMARK SMILES IDX 61 65 62 66 63 67 64 68 65 69 8 70 9 71 10 72 11 73 12 74
REMARK SMILES IDX 13 75 14 76 15 77 16 78 21 79 17 80 20 81 18 82 19 83 22 84
REMARK SMILES IDX 23 86 24 87 25 88 32 89 26 90 31 91 27 92 30 93 28 95 29 96
REMARK H PARENT 86 25 56 36 22 85 26 94
REMARK Flexibility Score: inf
ROOT
ATOM      1  C   UNL     1      -3.703  -2.836  -0.993  1.00  0.00     0.188 C 
ENDROOT
BRANCH   1   2
ATOM      2  O   UNL     1      -4.913  -3.339  -0.416  1.00  0.00    -0.376 OA
BRANCH   2   3
ATOM      3  C   UNL     1      -6.002  -3.413  -1.337  1.00  0.00     0.202 C 
BRANCH   3   4
ATOM      4  C   UNL     1      -6.832  -2.128  -1.417  1.00  0.00     0.261 C 
BRANCH   4   5
ATOM      5  O   UNL     1      -6.017  -0.952  -1.294  1.00  0.00    -0.460 OA
BRANCH   5   6
ATOM      6  C   UNL     1      -5.853  -0.162  -0.204  1.00  0.00     0.338 C 
ATOM      7  O   UNL     1      -5.334   0.941  -0.377  1.00  0.00    -0.246 OA
BRANCH   6   8
ATOM      8  C   UNL     1      -6.281  -0.521   1.190  1.00  0.00     0.060 A 
ATOM      9  C   UNL     1      -6.701  -1.780   1.617  1.00  0.00     0.016 A 
ATOM     10  C   UNL     1      -6.256   0.510   2.151  1.00  0.00     0.016 A 
ATOM     11  C   UNL     1      -7.242  -1.972   2.886  1.00  0.00     0.010 A 
ATOM     12  C   UNL     1      -6.729   0.307   3.454  1.00  0.00     0.010 A 
ATOM     13  C   UNL     1      -7.293  -0.923   3.803  1.00  0.00    -0.014 A 
BRANCH  13  14
ATOM     14  C   UNL     1      -8.075  -1.115   5.045  1.00  0.00     0.031 A 
ATOM     15  C   UNL     1      -9.428  -0.467   5.156  1.00  0.00     0.074 A 
ATOM     16  C   UNL     1      -7.660  -1.993   5.977  1.00  0.00     0.049 A 
ATOM     17  N   UNL     1     -10.324  -0.585   6.100  1.00  0.00    -0.248 NA
ATOM     18  C   UNL     1      -9.840   0.404   4.041  1.00  0.00     0.031 C 
ATOM     19  C   UNL     1      -6.415  -2.758   5.912  1.00  0.00     0.029 A 
ATOM     20  N   UNL     1      -8.256  -2.424   7.134  1.00  0.00    -0.354 N 
ATOM     21  C   UNL     1     -11.408   0.180   5.686  1.00  0.00     0.074 A 
ATOM     22  C   UNL     1     -11.045   0.791   4.428  1.00  0.00     0.031 C 
ATOM     23  C   UNL     1      -6.352  -3.581   6.971  1.00  0.00     0.029 A 
ATOM     24  C   UNL     1      -7.520  -3.365   7.813  1.00  0.00     0.049 A 
ATOM     25  H   UNL     1      -9.127  -2.091   7.449  1.00  0.00     0.167 HD
ATOM     26  C   UNL     1     -12.607   0.344   6.291  1.00  0.00     0.031 A 
ATOM     27  C   UNL     1      -7.753  -3.977   8.990  1.00  0.00     0.031 A 
ATOM     28  C   UNL     1     -12.948  -0.240   7.558  1.00  0.00     0.049 A 
ATOM     29  C   UNL     1      -9.041  -3.684   9.705  1.00  0.00     0.074 A 
ATOM     30  C   UNL     1     -14.098  -0.070   8.307  1.00  0.00     0.029 A 
ATOM     31  N   UNL     1     -12.133  -1.115   8.261  1.00  0.00    -0.354 N 
ATOM     32  N   UNL     1     -10.035  -2.919   9.320  1.00  0.00    -0.248 NA
ATOM     33  C   UNL     1      -9.247  -4.343  11.000  1.00  0.00     0.031 C 
ATOM     34  C   UNL     1     -13.962  -0.818   9.483  1.00  0.00     0.029 A 
ATOM     35  C   UNL     1     -12.749  -1.488   9.442  1.00  0.00     0.049 A 
ATOM     36  H   UNL     1     -11.248  -1.425   7.964  1.00  0.00     0.167 HD
ATOM     37  C   UNL     1     -10.993  -3.015  10.320  1.00  0.00     0.074 A 
ATOM     38  C   UNL     1     -10.468  -3.930  11.314  1.00  0.00     0.031 C 
ATOM     39  C   UNL     1     -12.197  -2.399  10.412  1.00  0.00     0.031 A 
BRANCH  26  40
ATOM     40  C   UNL     1     -13.604   1.226   5.592  1.00  0.00    -0.014 A 
ATOM     41  C   UNL     1     -14.290   0.773   4.450  1.00  0.00     0.010 A 
ATOM     42  C   UNL     1     -13.835   2.531   6.061  1.00  0.00     0.010 A 
ATOM     43  C   UNL     1     -15.157   1.627   3.762  1.00  0.00     0.020 A 
ATOM     44  C   UNL     1     -14.717   3.381   5.387  1.00  0.00     0.020 A 
ATOM     45  C   UNL     1     -15.356   2.929   4.230  1.00  0.00     0.054 A 
BRANCH  45  46
ATOM     46  S   UNL     1     -16.473   4.025   3.310  1.00  0.00     0.124 S 
ATOM     47  O   UNL     1     -15.664   4.366   2.143  1.00  0.00    -0.237 OA
ATOM     48  O   UNL     1     -17.623   3.164   3.046  1.00  0.00    -0.237 OA
ATOM     49  O   UNL     1     -16.722   5.124   4.239  1.00  0.00    -0.744 OA
ENDBRANCH  45  46
ENDBRANCH  26  40
BRANCH  27  50
ATOM     50  C   UNL     1      -6.728  -4.884   9.576  1.00  0.00    -0.014 A 
ATOM     51  C   UNL     1      -6.953  -6.266   9.694  1.00  0.00     0.010 A 
ATOM     52  C   UNL     1      -5.504  -4.352  10.029  1.00  0.00     0.010 A 
ATOM     53  C   UNL     1      -5.985  -7.095  10.272  1.00  0.00     0.020 A 
ATOM     54  C   UNL     1      -4.525  -5.179  10.584  1.00  0.00     0.020 A 
ATOM     55  C   UNL     1      -4.779  -6.545  10.716  1.00  0.00     0.054 A 
BRANCH  55  56
ATOM     56  S   UNL     1      -3.516  -7.639  11.425  1.00  0.00     0.124 S 
ATOM     57  O   UNL     1      -4.027  -7.857  12.773  1.00  0.00    -0.237 OA
ATOM     58  O   UNL     1      -3.561  -8.795  10.532  1.00  0.00    -0.237 OA
ATOM     59  O   UNL     1      -2.293  -6.843  11.334  1.00  0.00    -0.744 OA
ENDBRANCH  55  56
ENDBRANCH  27  50
BRANCH  39  60
ATOM     60  C   UNL     1     -13.030  -2.717  11.620  1.00  0.00    -0.014 A 
ATOM     61  C   UNL     1     -12.713  -2.174  12.876  1.00  0.00     0.010 A 
ATOM     62  C   UNL     1     -14.164  -3.536  11.484  1.00  0.00     0.010 A 
ATOM     63  C   UNL     1     -13.503  -2.471  13.988  1.00  0.00     0.020 A 
ATOM     64  C   UNL     1     -14.969  -3.817  12.589  1.00  0.00     0.020 A 
ATOM     65  C   UNL     1     -14.624  -3.294  13.838  1.00  0.00     0.054 A 
BRANCH  65  66
ATOM     66  S   UNL     1     -15.659  -3.636  15.286  1.00  0.00     0.124 S 
ATOM     67  O   UNL     1     -14.880  -4.658  15.980  1.00  0.00    -0.237 OA
ATOM     68  O   UNL     1     -15.727  -2.337  15.950  1.00  0.00    -0.237 OA
ATOM     69  O   UNL     1     -16.919  -4.098  14.707  1.00  0.00    -0.744 OA
ENDBRANCH  65  66
ENDBRANCH  39  60
ENDBRANCH  13  14
ENDBRANCH   6   8
ENDBRANCH   5   6
ENDBRANCH   4   5
ENDBRANCH   3   4
ENDBRANCH   2   3
ENDBRANCH   1   2
BRANCH   1  70
ATOM     70  C   UNL     1      -2.480  -3.534  -0.396  1.00  0.00     0.188 C 
BRANCH  70  71
ATOM     71  O   UNL     1      -2.368  -4.920  -0.727  1.00  0.00    -0.376 OA
BRANCH  71  72
ATOM     72  C   UNL     1      -3.283  -5.805  -0.080  1.00  0.00     0.202 C 
BRANCH  72  73
ATOM     73  C   UNL     1      -2.987  -6.137   1.388  1.00  0.00     0.261 C 
BRANCH  73  74
ATOM     74  O   UNL     1      -3.190  -5.055   2.315  1.00  0.00    -0.460 OA
BRANCH  74  75
ATOM     75  C   UNL     1      -2.057  -4.531   2.852  1.00  0.00     0.341 C 
ATOM     76  O   UNL     1      -0.907  -4.751   2.514  1.00  0.00    -0.246 OA
BRANCH  75  77
ATOM     77  C   UNL     1      -2.391  -3.685   4.002  1.00  0.00     0.102 A 
ATOM     78  C   UNL     1      -2.681  -4.325   5.214  1.00  0.00     0.023 A 
ATOM     79  C   UNL     1      -2.298  -2.290   3.951  1.00  0.00     0.142 A 
ATOM     80  C   UNL     1      -2.878  -3.558   6.355  1.00  0.00     0.042 A 
ATOM     81  N   UNL     1      -2.566  -1.551   5.053  1.00  0.00    -0.218 NA
ATOM     82  C   UNL     1      -2.825  -2.187   6.214  1.00  0.00     0.131 A 
ATOM     83  Cl  UNL     1      -3.087  -1.144   7.548  1.00  0.00    -0.062 Cl
BRANCH  79  84
ATOM     84  N   UNL     1      -1.970  -1.604   2.793  1.00  0.00    -0.366 N 
ATOM     85  H   UNL     1      -1.622  -2.088   2.009  1.00  0.00     0.162 HD
BRANCH  84  86
ATOM     86  C   UNL     1      -2.146  -0.156   2.748  1.00  0.00     0.152 C 
BRANCH  86  87
ATOM     87  C   UNL     1      -1.140   0.536   1.801  1.00  0.00     0.192 C 
ATOM     88  C   UNL     1      -1.341   2.077   1.936  1.00  0.00     0.296 C 
ATOM     89  O   UNL     1      -1.299   0.021   0.460  1.00  0.00    -0.364 OA
ATOM     90  N   UNL     1      -0.904   2.872   0.779  1.00  0.00    -0.328 N 
ATOM     91  C   UNL     1      -2.060   0.912  -0.357  1.00  0.00     0.225 C 
ATOM     92  C   UNL     1      -1.444   4.240   0.828  1.00  0.00     0.262 C 
ATOM     93  C   UNL     1      -1.336   2.257  -0.499  1.00  0.00     0.210 C 
ATOM     94  H   UNL     1       0.114   2.899   0.824  1.00  0.00     0.348 HD
ATOM     95  C   UNL     1      -1.688   4.612  -0.623  1.00  0.00     0.068 C 
ATOM     96  C   UNL     1      -2.179   3.307  -1.216  1.00  0.00     0.073 C 
ENDBRANCH  86  87
ENDBRANCH  84  86
ENDBRANCH  79  84
ENDBRANCH  75  77
ENDBRANCH  74  75
ENDBRANCH  73  74
ENDBRANCH  72  73
ENDBRANCH  71  72
ENDBRANCH  70  71
ENDBRANCH   1  70
TORSDOF 23
