REMARK SMILES CCCCCCNC(=O)Oc1cccc(-c2ccc([C@@H](C)C(=O)OCCOCCOCCOC(=O)c3ccc(-c4c5nc(c(-c6ccc(S(=O)(=O)[O-])cc6)c6ccc([nH]6)c(-c6ccc(S(=O)(=O)[O-])cc6)c6nc(c(-c7ccc(S(=O)(=O)[O-])cc7)c7ccc4[nH]7)C=C6)C=C5)cc3)cc2O)c1
REMARK SMILES IDX 25 1 24 2 22 3 23 4 20 5 21 6 19 7 16 8 17 9 97 10 18 11
REMARK SMILES IDX 96 12 15 13 11 14 12 15 99 16 13 17 14 18 10 19 8 20 7 21
REMARK SMILES IDX 9 23 6 24 5 25 4 26 3 27 2 28 1 29 98 30 26 32 27 33 28 34
REMARK SMILES IDX 29 35 30 36 31 37 32 38 33 39 34 40 35 41 36 42 37 43 95 44
REMARK SMILES IDX 38 45 94 46 39 47 40 48 41 49 88 50 42 51 93 52 87 53 89 54
REMARK SMILES IDX 43 55 92 56 86 57 85 58 44 60 74 61 55 62 73 63 56 64 59 65
REMARK SMILES IDX 72 66 90 67 57 68 58 69 71 71 91 72 60 73 45 74 46 75 54 76
REMARK SMILES IDX 47 77 53 78 48 79 49 80 50 81 51 82 52 83 75 84 76 85 84 86
REMARK SMILES IDX 77 87 83 88 78 89 79 90 80 91 81 92 82 93 61 94 62 95 70 96
REMARK SMILES IDX 63 97 69 98 64 99 65 100 66 101 67 102 68 103
REMARK H PARENT 7 22 98 31 89 59 59 70
REMARK Flexibility Score: inf
ROOT
ATOM      1  C   UNL     1      -2.930 -14.048   7.948  1.00  0.00     0.261 C 
ENDROOT
BRANCH   1   2
ATOM      2  O   UNL     1      -3.816 -12.980   7.544  1.00  0.00    -0.463 OA
BRANCH   2   3
ATOM      3  C   UNL     1      -4.625 -12.474   8.508  1.00  0.00     0.313 C 
ATOM      4  O   UNL     1      -4.681 -12.938   9.646  1.00  0.00    -0.252 OA
BRANCH   3   5
ATOM      5  C   UNL     1      -5.482 -11.267   8.116  1.00  0.00     0.126 C 
ATOM      6  C   UNL     1      -6.948 -11.611   8.382  1.00  0.00     0.025 C 
BRANCH   5   7
ATOM      7  C   UNL     1      -5.343 -10.593   6.751  1.00  0.00    -0.030 A 
ATOM      8  C   UNL     1      -5.152  -9.182   4.248  1.00  0.00     0.024 A 
ATOM      9  C   UNL     1      -5.346 -10.578   4.309  1.00  0.00     0.013 A 
ATOM     10  C   UNL     1      -5.042  -8.515   5.478  1.00  0.00     0.123 A 
ATOM     11  C   UNL     1      -5.454 -11.271   5.532  1.00  0.00     0.005 A 
ATOM     12  C   UNL     1      -5.138  -9.201   6.698  1.00  0.00     0.051 A 
BRANCH   8  13
ATOM     13  C   UNL     1      -5.166  -8.483   2.939  1.00  0.00    -0.011 A 
ATOM     14  C   UNL     1      -4.247  -6.921   1.313  1.00  0.00     0.133 A 
ATOM     15  C   UNL     1      -5.375  -7.050   0.505  1.00  0.00     0.047 A 
ATOM     16  C   UNL     1      -4.125  -7.633   2.514  1.00  0.00     0.056 A 
ATOM     17  C   UNL     1      -6.394  -7.911   0.892  1.00  0.00     0.004 A 
ATOM     18  C   UNL     1      -6.292  -8.611   2.099  1.00  0.00     0.009 A 
BRANCH  14  19
ATOM     19  O   UNL     1      -3.334  -5.915   0.945  1.00  0.00    -0.410 OA
BRANCH  19  20
ATOM     20  C   UNL     1      -1.999  -6.238   0.780  1.00  0.00     0.412 C 
ATOM     21  N   UNL     1      -1.217  -5.170   0.442  1.00  0.00    -0.321 N 
ATOM     22  H   UNL     1      -0.248  -5.337   0.384  1.00  0.00     0.167 HD
ATOM     23  O   UNL     1      -1.520  -7.370   0.887  1.00  0.00    -0.224 OA
BRANCH  21  24
ATOM     24  C   UNL     1      -1.657  -3.814   0.160  1.00  0.00     0.119 C 
BRANCH  24  25
ATOM     25  C   UNL     1      -1.037  -2.780   1.100  1.00  0.00     0.021 C 
BRANCH  25  26
ATOM     26  C   UNL     1       0.491  -2.662   1.024  1.00  0.00     0.002 C 
BRANCH  26  27
ATOM     27  C   UNL     1       1.063  -2.278  -0.346  1.00  0.00    -0.000 C 
BRANCH  27  28
ATOM     28  C   UNL     1       0.591  -0.935  -0.908  1.00  0.00    -0.003 C 
ATOM     29  C   UNL     1       0.996   0.256  -0.052  1.00  0.00     0.004 C 
ENDBRANCH  27  28
ENDBRANCH  26  27
ENDBRANCH  25  26
ENDBRANCH  24  25
ENDBRANCH  21  24
ENDBRANCH  19  20
ENDBRANCH  14  19
ENDBRANCH   8  13
BRANCH  10  30
ATOM     30  O   UNL     1      -4.873  -7.160   5.587  1.00  0.00    -0.507 OA
ATOM     31  H   UNL     1      -4.801  -6.632   4.816  1.00  0.00     0.293 HD
ENDBRANCH  10  30
ENDBRANCH   5   7
ENDBRANCH   3   5
ENDBRANCH   2   3
ENDBRANCH   1   2
BRANCH   1  32
ATOM     32  C   UNL     1      -1.436 -13.785   7.712  1.00  0.00     0.202 C 
BRANCH  32  33
ATOM     33  O   UNL     1      -0.866 -12.615   8.280  1.00  0.00    -0.376 OA
BRANCH  33  34
ATOM     34  C   UNL     1      -1.400 -11.340   7.937  1.00  0.00     0.188 C 
BRANCH  34  35
ATOM     35  C   UNL     1      -1.928 -11.098   6.515  1.00  0.00     0.188 C 
BRANCH  35  36
ATOM     36  O   UNL     1      -1.542 -12.075   5.568  1.00  0.00    -0.376 OA
BRANCH  36  37
ATOM     37  C   UNL     1      -0.898 -11.583   4.407  1.00  0.00     0.202 C 
BRANCH  37  38
ATOM     38  C   UNL     1       0.538 -11.115   4.671  1.00  0.00     0.261 C 
BRANCH  38  39
ATOM     39  O   UNL     1       0.676 -10.103   5.689  1.00  0.00    -0.460 OA
BRANCH  39  40
ATOM     40  C   UNL     1       0.174  -8.883   5.398  1.00  0.00     0.338 C 
ATOM     41  O   UNL     1      -0.344  -8.540   4.342  1.00  0.00    -0.246 OA
BRANCH  40  42
ATOM     42  C   UNL     1       0.147  -8.070   6.632  1.00  0.00     0.060 A 
ATOM     43  C   UNL     1      -1.071  -7.509   7.043  1.00  0.00     0.016 A 
ATOM     44  C   UNL     1       1.312  -7.837   7.366  1.00  0.00     0.016 A 
ATOM     45  C   UNL     1      -1.113  -6.666   8.155  1.00  0.00     0.010 A 
ATOM     46  C   UNL     1       1.270  -6.977   8.470  1.00  0.00     0.010 A 
ATOM     47  C   UNL     1       0.066  -6.351   8.843  1.00  0.00    -0.014 A 
BRANCH  47  48
ATOM     48  C   UNL     1       0.075  -5.211   9.798  1.00  0.00     0.031 A 
ATOM     49  C   UNL     1       0.574  -3.874   9.307  1.00  0.00     0.074 A 
ATOM     50  C   UNL     1      -0.380  -5.336  11.059  1.00  0.00     0.049 A 
ATOM     51  N   UNL     1       0.678  -2.740   9.951  1.00  0.00    -0.248 NA
ATOM     52  C   UNL     1       1.016  -3.808   7.903  1.00  0.00     0.031 C 
ATOM     53  C   UNL     1      -0.918  -6.560  11.651  1.00  0.00     0.029 A 
ATOM     54  N   UNL     1      -0.457  -4.412  12.074  1.00  0.00    -0.354 N 
ATOM     55  C   UNL     1       1.210  -1.835   9.039  1.00  0.00     0.074 A 
ATOM     56  C   UNL     1       1.429  -2.554   7.804  1.00  0.00     0.031 C 
ATOM     57  C   UNL     1      -1.259  -6.313  12.930  1.00  0.00     0.029 A 
ATOM     58  C   UNL     1      -0.941  -4.924  13.256  1.00  0.00     0.049 A 
ATOM     59  H   UNL     1      -0.190  -3.471  11.965  1.00  0.00     0.167 HD
ATOM     60  C   UNL     1       1.487  -0.521   9.211  1.00  0.00     0.031 A 
ATOM     61  C   UNL     1      -1.089  -4.344  14.465  1.00  0.00     0.031 A 
ATOM     62  C   UNL     1       1.260   0.200  10.434  1.00  0.00     0.049 A 
ATOM     63  C   UNL     1      -0.725  -2.888  14.640  1.00  0.00     0.074 A 
ATOM     64  C   UNL     1       1.467   1.546  10.684  1.00  0.00     0.029 A 
ATOM     65  N   UNL     1       0.788  -0.359  11.609  1.00  0.00    -0.354 N 
ATOM     66  N   UNL     1      -0.282  -2.033  13.749  1.00  0.00    -0.248 NA
ATOM     67  C   UNL     1      -0.893  -2.316  15.986  1.00  0.00     0.031 C 
ATOM     68  C   UNL     1       1.184   1.787  12.031  1.00  0.00     0.029 A 
ATOM     69  C   UNL     1       0.732   0.607  12.600  1.00  0.00     0.049 A 
ATOM     70  H   UNL     1       0.530  -1.302  11.724  1.00  0.00     0.167 HD
ATOM     71  C   UNL     1      -0.149  -0.819  14.420  1.00  0.00     0.074 A 
ATOM     72  C   UNL     1      -0.579  -1.044  15.783  1.00  0.00     0.031 C 
ATOM     73  C   UNL     1       0.293   0.374  13.952  1.00  0.00     0.031 A 
BRANCH  60  74
ATOM     74  C   UNL     1       2.094   0.231   8.057  1.00  0.00    -0.014 A 
ATOM     75  C   UNL     1       1.329   0.584   6.931  1.00  0.00     0.010 A 
ATOM     76  C   UNL     1       3.427   0.672   8.147  1.00  0.00     0.010 A 
ATOM     77  C   UNL     1       1.891   1.357   5.911  1.00  0.00     0.020 A 
ATOM     78  C   UNL     1       3.984   1.466   7.142  1.00  0.00     0.020 A 
ATOM     79  C   UNL     1       3.213   1.799   6.027  1.00  0.00     0.054 A 
BRANCH  79  80
ATOM     80  S   UNL     1       3.889   2.862   4.722  1.00  0.00     0.124 S 
ATOM     81  O   UNL     1       4.016   1.927   3.606  1.00  0.00    -0.237 OA
ATOM     82  O   UNL     1       2.853   3.880   4.572  1.00  0.00    -0.237 OA
ATOM     83  O   UNL     1       5.152   3.339   5.280  1.00  0.00    -0.744 OA
ENDBRANCH  79  80
ENDBRANCH  60  74
BRANCH  61  84
ATOM     84  C   UNL     1      -1.568  -5.139  15.634  1.00  0.00    -0.014 A 
ATOM     85  C   UNL     1      -2.792  -4.846  16.261  1.00  0.00     0.010 A 
ATOM     86  C   UNL     1      -0.760  -6.161  16.167  1.00  0.00     0.010 A 
ATOM     87  C   UNL     1      -3.177  -5.525  17.422  1.00  0.00     0.020 A 
ATOM     88  C   UNL     1      -1.157  -6.866  17.307  1.00  0.00     0.020 A 
ATOM     89  C   UNL     1      -2.353  -6.528  17.941  1.00  0.00     0.054 A 
BRANCH  89  90
ATOM     90  S   UNL     1      -2.869  -7.397  19.448  1.00  0.00     0.124 S 
ATOM     91  O   UNL     1      -2.644  -6.384  20.474  1.00  0.00    -0.237 OA
ATOM     92  O   UNL     1      -4.267  -7.715  19.167  1.00  0.00    -0.237 OA
ATOM     93  O   UNL     1      -1.974  -8.551  19.501  1.00  0.00    -0.744 OA
ENDBRANCH  89  90
ENDBRANCH  61  84
BRANCH  73  94
ATOM     94  C   UNL     1       0.297   1.544  14.902  1.00  0.00    -0.014 A 
ATOM     95  C   UNL     1       1.207   1.617  15.972  1.00  0.00     0.010 A 
ATOM     96  C   UNL     1      -0.589   2.616  14.686  1.00  0.00     0.010 A 
ATOM     97  C   UNL     1       1.203   2.720  16.831  1.00  0.00     0.020 A 
ATOM     98  C   UNL     1      -0.574   3.736  15.523  1.00  0.00     0.020 A 
ATOM     99  C   UNL     1       0.311   3.772  16.602  1.00  0.00     0.054 A 
BRANCH  99 100
ATOM    100  S   UNL     1       0.348   5.207  17.711  1.00  0.00     0.124 S 
ATOM    101  O   UNL     1      -0.254   4.667  18.927  1.00  0.00    -0.237 OA
ATOM    102  O   UNL     1       1.774   5.510  17.797  1.00  0.00    -0.237 OA
ATOM    103  O   UNL     1      -0.454   6.208  17.011  1.00  0.00    -0.744 OA
ENDBRANCH  99 100
ENDBRANCH  73  94
ENDBRANCH  47  48
ENDBRANCH  40  42
ENDBRANCH  39  40
ENDBRANCH  38  39
ENDBRANCH  37  38
ENDBRANCH  36  37
ENDBRANCH  35  36
ENDBRANCH  34  35
ENDBRANCH  33  34
ENDBRANCH  32  33
ENDBRANCH   1  32
TORSDOF 30
