REMARK SMILES Cc1cc(C)c(NC(=O)C2(C)CCCC2)c(C(=O)OCCOCCOCCOC(=O)c2ccc(-c3c4nc(c(-c5ccc(S(=O)(=O)[O-])cc5)c5ccc([nH]5)c(-c5ccc(S(=O)(=O)[O-])cc5)c5nc(c(-c6ccc(S(=O)(=O)[O-])cc6)c6ccc3[nH]6)C=C5)C=C4)cc2)c1
REMARK SMILES IDX 24 1 23 2 22 3 21 4 20 5 19 6 17 7 18 8 16 9 1 10 2 11 3 12
REMARK SMILES IDX 91 13 4 14 5 15 6 16 7 17 8 18 9 20 10 21 11 22 12 23 15 24
REMARK SMILES IDX 13 25 14 26 25 27 26 28 27 29 28 30 29 31 30 32 31 33 32 34
REMARK SMILES IDX 90 35 33 36 89 37 34 38 35 39 36 40 83 41 37 42 88 43 82 44
REMARK SMILES IDX 84 45 38 46 87 47 81 48 80 49 39 51 69 52 50 53 68 54 51 55
REMARK SMILES IDX 54 56 67 57 85 58 52 59 53 60 66 62 86 63 55 64 40 65 41 66
REMARK SMILES IDX 49 67 42 68 48 69 43 70 44 71 45 72 46 73 47 74 70 75 71 76
REMARK SMILES IDX 79 77 72 78 78 79 73 80 74 81 75 82 76 83 77 84 56 85 57 86
REMARK SMILES IDX 65 87 58 88 64 89 59 90 60 91 61 92 62 93 63 94
REMARK H PARENT 7 19 84 50 54 61
REMARK Flexibility Score: inf
ROOT
ATOM      1  C   UNL     1       0.220  -3.607   2.183  1.00  0.00     0.188 C 
ENDROOT
BRANCH   1   2
ATOM      2  C   UNL     1      -0.887  -4.381   1.433  1.00  0.00     0.188 C 
BRANCH   2   3
ATOM      3  O   UNL     1      -0.638  -5.694   0.954  1.00  0.00    -0.376 OA
BRANCH   3   4
ATOM      4  C   UNL     1       0.478  -5.922   0.106  1.00  0.00     0.202 C 
BRANCH   4   5
ATOM      5  C   UNL     1       0.557  -5.129  -1.200  1.00  0.00     0.261 C 
BRANCH   5   6
ATOM      6  O   UNL     1       0.824  -3.740  -0.952  1.00  0.00    -0.460 OA
BRANCH   6   7
ATOM      7  C   UNL     1       0.005  -2.837  -1.550  1.00  0.00     0.340 C 
ATOM      8  O   UNL     1      -0.895  -3.057  -2.343  1.00  0.00    -0.246 OA
BRANCH   7   9
ATOM      9  C   UNL     1       0.255  -1.518  -0.926  1.00  0.00     0.084 A 
ATOM     10  C   UNL     1       3.266   0.656  -0.134  1.00  0.00     0.044 C 
ATOM     11  C   UNL     1       1.884   0.081  -0.130  1.00  0.00    -0.050 A 
ATOM     12  C   UNL     1       0.858   0.711   0.576  1.00  0.00     0.009 A 
ATOM     13  C   UNL     1       1.583  -1.073  -0.844  1.00  0.00     0.021 A 
ATOM     14  C   UNL     1      -0.475   0.243   0.554  1.00  0.00    -0.026 A 
ATOM     15  C   UNL     1      -1.411   0.944   1.496  1.00  0.00     0.046 C 
ATOM     16  C   UNL     1      -0.811  -0.805  -0.324  1.00  0.00     0.058 A 
BRANCH  16  17
ATOM     17  N   UNL     1      -2.130  -1.126  -0.750  1.00  0.00    -0.325 N 
ATOM     18  C   UNL     1      -3.325  -0.608  -0.315  1.00  0.00     0.230 C 
ATOM     19  H   UNL     1      -2.194  -1.813  -1.453  1.00  0.00     0.169 HD
ATOM     20  O   UNL     1      -3.714  -0.778   0.838  1.00  0.00    -0.274 OA
BRANCH  18  21
ATOM     21  C   UNL     1      -4.115   0.240  -1.352  1.00  0.00     0.047 C 
ATOM     22  C   UNL     1      -3.857  -0.201  -2.797  1.00  0.00     0.022 C 
ATOM     23  C   UNL     1      -5.623   0.247  -1.055  1.00  0.00     0.016 C 
ATOM     24  C   UNL     1      -3.778   1.730  -1.173  1.00  0.00     0.016 C 
ATOM     25  C   UNL     1      -5.822   1.249   0.079  1.00  0.00     0.001 C 
ATOM     26  C   UNL     1      -4.634   2.204   0.004  1.00  0.00     0.001 C 
ENDBRANCH  18  21
ENDBRANCH  16  17
ENDBRANCH   7   9
ENDBRANCH   6   7
ENDBRANCH   5   6
ENDBRANCH   4   5
ENDBRANCH   3   4
ENDBRANCH   2   3
ENDBRANCH   1   2
BRANCH   1  27
ATOM     27  O   UNL     1       1.385  -4.259   2.663  1.00  0.00    -0.376 OA
BRANCH  27  28
ATOM     28  C   UNL     1       1.267  -5.456   3.416  1.00  0.00     0.202 C 
BRANCH  28  29
ATOM     29  C   UNL     1       0.427  -5.464   4.693  1.00  0.00     0.261 C 
BRANCH  29  30
ATOM     30  O   UNL     1      -0.937  -5.080   4.484  1.00  0.00    -0.460 OA
BRANCH  30  31
ATOM     31  C   UNL     1      -1.321  -3.962   5.147  1.00  0.00     0.338 C 
ATOM     32  O   UNL     1      -0.644  -3.274   5.892  1.00  0.00    -0.246 OA
BRANCH  31  33
ATOM     33  C   UNL     1      -2.680  -3.584   4.726  1.00  0.00     0.060 A 
ATOM     34  C   UNL     1      -2.865  -2.317   4.163  1.00  0.00     0.016 A 
ATOM     35  C   UNL     1      -3.765  -4.436   4.944  1.00  0.00     0.016 A 
ATOM     36  C   UNL     1      -4.149  -1.882   3.846  1.00  0.00     0.010 A 
ATOM     37  C   UNL     1      -5.054  -3.990   4.639  1.00  0.00     0.010 A 
ATOM     38  C   UNL     1      -5.253  -2.700   4.115  1.00  0.00    -0.014 A 
BRANCH  38  39
ATOM     39  C   UNL     1      -6.620  -2.143   3.995  1.00  0.00     0.031 A 
ATOM     40  C   UNL     1      -7.268  -1.554   5.216  1.00  0.00     0.074 A 
ATOM     41  C   UNL     1      -7.268  -2.147   2.818  1.00  0.00     0.049 A 
ATOM     42  N   UNL     1      -8.458  -1.028   5.350  1.00  0.00    -0.248 NA
ATOM     43  C   UNL     1      -6.467  -1.563   6.451  1.00  0.00     0.031 C 
ATOM     44  C   UNL     1      -6.728  -2.655   1.560  1.00  0.00     0.029 A 
ATOM     45  N   UNL     1      -8.526  -1.704   2.494  1.00  0.00    -0.354 N 
ATOM     46  C   UNL     1      -8.555  -0.655   6.685  1.00  0.00     0.074 A 
ATOM     47  C   UNL     1      -7.311  -1.030   7.322  1.00  0.00     0.031 C 
ATOM     48  C   UNL     1      -7.653  -2.499   0.597  1.00  0.00     0.029 A 
ATOM     49  C   UNL     1      -8.851  -1.891   1.172  1.00  0.00     0.049 A 
ATOM     50  H   UNL     1      -9.138  -1.293   3.146  1.00  0.00     0.167 HD
ATOM     51  C   UNL     1      -9.589  -0.059   7.324  1.00  0.00     0.031 A 
ATOM     52  C   UNL     1      -9.986  -1.605   0.503  1.00  0.00     0.031 A 
ATOM     53  C   UNL     1     -10.835   0.286   6.695  1.00  0.00     0.049 A 
ATOM     54  C   UNL     1     -11.140  -0.981   1.244  1.00  0.00     0.074 A 
ATOM     55  C   UNL     1     -11.950   0.879   7.261  1.00  0.00     0.029 A 
ATOM     56  N   UNL     1     -11.136   0.059   5.360  1.00  0.00    -0.354 N 
ATOM     57  N   UNL     1     -11.215  -0.623   2.505  1.00  0.00    -0.248 NA
ATOM     58  C   UNL     1     -12.365  -0.727   0.473  1.00  0.00     0.031 C 
ATOM     59  C   UNL     1     -12.943   0.966   6.279  1.00  0.00     0.029 A 
ATOM     60  C   UNL     1     -12.427   0.478   5.088  1.00  0.00     0.049 A 
ATOM     61  H   UNL     1     -10.522  -0.342   4.704  1.00  0.00     0.167 HD
ATOM     62  C   UNL     1     -12.489  -0.091   2.674  1.00  0.00     0.074 A 
ATOM     63  C   UNL     1     -13.143  -0.154   1.383  1.00  0.00     0.031 C 
ATOM     64  C   UNL     1     -13.067   0.401   3.798  1.00  0.00     0.031 A 
BRANCH  51  65
ATOM     65  C   UNL     1      -9.422   0.204   8.796  1.00  0.00    -0.014 A 
ATOM     66  C   UNL     1      -8.559   1.212   9.264  1.00  0.00     0.010 A 
ATOM     67  C   UNL     1     -10.137  -0.572   9.725  1.00  0.00     0.010 A 
ATOM     68  C   UNL     1      -8.379   1.405  10.636  1.00  0.00     0.020 A 
ATOM     69  C   UNL     1      -9.979  -0.365  11.097  1.00  0.00     0.020 A 
ATOM     70  C   UNL     1      -9.084   0.609  11.544  1.00  0.00     0.054 A 
BRANCH  70  71
ATOM     71  S   UNL     1      -8.830   0.876  13.320  1.00  0.00     0.124 S 
ATOM     72  O   UNL     1      -7.515   0.275  13.530  1.00  0.00    -0.237 OA
ATOM     73  O   UNL     1      -8.880   2.331  13.438  1.00  0.00    -0.237 OA
ATOM     74  O   UNL     1      -9.945   0.165  13.941  1.00  0.00    -0.744 OA
ENDBRANCH  70  71
ENDBRANCH  51  65
BRANCH  52  75
ATOM     75  C   UNL     1     -10.089  -1.915  -0.949  1.00  0.00    -0.014 A 
ATOM     76  C   UNL     1     -10.124  -0.882  -1.901  1.00  0.00     0.010 A 
ATOM     77  C   UNL     1     -10.140  -3.251  -1.388  1.00  0.00     0.010 A 
ATOM     78  C   UNL     1     -10.218  -1.178  -3.265  1.00  0.00     0.020 A 
ATOM     79  C   UNL     1     -10.207  -3.552  -2.751  1.00  0.00     0.020 A 
ATOM     80  C   UNL     1     -10.256  -2.512  -3.682  1.00  0.00     0.054 A 
BRANCH  80  81
ATOM     81  S   UNL     1     -10.310  -2.876  -5.459  1.00  0.00     0.124 S 
ATOM     82  O   UNL     1     -11.698  -2.572  -5.789  1.00  0.00    -0.237 OA
ATOM     83  O   UNL     1      -9.314  -1.955  -6.001  1.00  0.00    -0.237 OA
ATOM     84  O   UNL     1      -9.943  -4.288  -5.529  1.00  0.00    -0.744 OA
ENDBRANCH  80  81
ENDBRANCH  52  75
BRANCH  64  85
ATOM     85  C   UNL     1     -14.474   0.927   3.684  1.00  0.00    -0.014 A 
ATOM     86  C   UNL     1     -15.567   0.054   3.547  1.00  0.00     0.010 A 
ATOM     87  C   UNL     1     -14.709   2.310   3.783  1.00  0.00     0.010 A 
ATOM     88  C   UNL     1     -16.870   0.558   3.482  1.00  0.00     0.020 A 
ATOM     89  C   UNL     1     -16.011   2.816   3.743  1.00  0.00     0.020 A 
ATOM     90  C   UNL     1     -17.083   1.936   3.580  1.00  0.00     0.054 A 
BRANCH  90  91
ATOM     91  S   UNL     1     -18.785   2.563   3.542  1.00  0.00     0.124 S 
ATOM     92  O   UNL     1     -19.123   2.439   2.127  1.00  0.00    -0.237 OA
ATOM     93  O   UNL     1     -19.487   1.647   4.438  1.00  0.00    -0.237 OA
ATOM     94  O   UNL     1     -18.661   3.933   4.035  1.00  0.00    -0.744 OA
ENDBRANCH  90  91
ENDBRANCH  64  85
ENDBRANCH  38  39
ENDBRANCH  31  33
ENDBRANCH  30  31
ENDBRANCH  29  30
ENDBRANCH  28  29
ENDBRANCH  27  28
ENDBRANCH   1  27
TORSDOF 22
