REMARK SMILES Cc1ccc(-c2cc(OCC(=O)OCCOCCOCCOC(=O)c3ccc(-c4c5nc(c(-c6ccc(S(=O)(=O)[O-])cc6)c6ccc([nH]6)c(-c6ccc(S(=O)(=O)[O-])cc6)c6nc(c(-c7ccc(S(=O)(=O)[O-])cc7)c7ccc4[nH]7)C=C6)C=C5)cc3)nc(NCc3ccc4c(c3)OCO4)n2)cc1
REMARK SMILES IDX 17 1 16 2 15 3 14 4 13 5 11 6 12 7 10 8 9 9 8 10 6 11 7 12
REMARK SMILES IDX 98 13 86 14 85 15 5 16 1 17 2 18 3 19 100 20 4 21 99 22
REMARK SMILES IDX 87 23 88 25 89 26 90 27 94 28 91 29 93 30 92 31 95 32 97 33
REMARK SMILES IDX 96 34 18 35 19 36 20 37 21 38 22 39 23 40 24 41 25 42 26 43
REMARK SMILES IDX 84 44 27 45 83 46 28 47 29 48 30 49 77 50 31 51 82 52 76 53
REMARK SMILES IDX 78 54 32 55 81 56 75 57 74 58 33 60 63 61 44 62 62 63 45 64
REMARK SMILES IDX 48 65 61 66 79 67 46 68 47 69 60 71 80 72 49 73 34 74 35 75
REMARK SMILES IDX 43 76 36 77 42 78 37 79 38 80 39 81 40 82 41 83 64 84 65 85
REMARK SMILES IDX 73 86 66 87 72 88 67 89 68 90 69 91 70 92 71 93 50 94 51 95
REMARK SMILES IDX 59 96 52 97 58 98 53 99 54 100 55 101 56 102 57 103
REMARK H PARENT 87 24 78 59 48 70
REMARK Flexibility Score: inf
ROOT
ATOM      1  C   UNL     1      -1.078   3.710   0.537  1.00  0.00     0.188 C 
ENDROOT
BRANCH   1   2
ATOM      2  O   UNL     1      -1.139   4.842  -0.332  1.00  0.00    -0.376 OA
BRANCH   2   3
ATOM      3  C   UNL     1      -2.296   5.639  -0.247  1.00  0.00     0.202 C 
BRANCH   3   4
ATOM      4  C   UNL     1      -3.584   4.994  -0.752  1.00  0.00     0.261 C 
BRANCH   4   5
ATOM      5  O   UNL     1      -3.603   3.606  -1.377  1.00  0.00    -0.461 OA
BRANCH   5   6
ATOM      6  C   UNL     1      -2.738   2.696  -2.012  1.00  0.00     0.344 C 
ATOM      7  O   UNL     1      -1.539   2.763  -1.880  1.00  0.00    -0.248 OA
BRANCH   6   8
ATOM      8  C   UNL     1      -3.389   1.812  -3.077  1.00  0.00     0.353 C 
BRANCH   8   9
ATOM      9  O   UNL     1      -3.809   0.703  -2.385  1.00  0.00    -0.466 OA
BRANCH   9  10
ATOM     10  C   UNL     1      -4.418   1.306  -0.891  1.00  0.00     0.219 A 
ATOM     11  C   UNL     1      -3.100  -0.901   0.492  1.00  0.00     0.080 A 
ATOM     12  C   UNL     1      -2.984   0.414  -0.417  1.00  0.00     0.097 A 
ATOM     13  N   UNL     1      -4.571  -1.494   1.101  1.00  0.00    -0.213 NA
ATOM     14  C   UNL     1      -6.104  -0.734   0.863  1.00  0.00     0.226 A 
ATOM     15  N   UNL     1      -6.175   0.744  -0.187  1.00  0.00    -0.177 NA
BRANCH  11  16
ATOM     16  C   UNL     1      -1.719  -1.244   1.058  1.00  0.00     0.000 A 
ATOM     17  C   UNL     1       2.559  -0.654   0.589  1.00  0.00     0.044 C 
ATOM     18  C   UNL     1       1.165  -1.012   1.051  1.00  0.00    -0.051 A 
ATOM     19  C   UNL     1       0.510  -2.175   0.600  1.00  0.00     0.004 A 
ATOM     20  C   UNL     1       0.400  -0.056   1.700  1.00  0.00     0.004 A 
ATOM     21  C   UNL     1      -0.915  -2.279   0.578  1.00  0.00     0.010 A 
ATOM     22  C   UNL     1      -0.997  -0.200   1.712  1.00  0.00     0.010 A 
ENDBRANCH  11  16
BRANCH  14  23
ATOM     23  N   UNL     1      -6.919  -0.934   1.972  1.00  0.00    -0.350 N 
ATOM     24  H   UNL     1      -7.837  -0.581   2.012  1.00  0.00     0.164 HD
BRANCH  23  25
ATOM     25  C   UNL     1      -6.332  -1.708   3.091  1.00  0.00     0.152 C 
BRANCH  25  26
ATOM     26  C   UNL     1      -6.587  -3.198   2.970  1.00  0.00    -0.025 A 
ATOM     27  C   UNL     1      -5.757  -4.148   3.637  1.00  0.00     0.009 A 
ATOM     28  C   UNL     1      -7.532  -3.636   2.042  1.00  0.00     0.056 A 
ATOM     29  C   UNL     1      -5.779  -5.503   3.275  1.00  0.00     0.051 A 
ATOM     30  C   UNL     1      -7.475  -4.944   1.659  1.00  0.00     0.166 A 
ATOM     31  C   UNL     1      -6.600  -5.846   2.225  1.00  0.00     0.165 A 
ATOM     32  O   UNL     1      -8.097  -5.440   0.554  1.00  0.00    -0.454 OA
ATOM     33  O   UNL     1      -6.562  -7.003   1.500  1.00  0.00    -0.454 OA
ATOM     34  C   UNL     1      -7.181  -6.513   0.286  1.00  0.00     0.468 C 
ENDBRANCH  25  26
ENDBRANCH  23  25
ENDBRANCH  14  23
ENDBRANCH   9  10
ENDBRANCH   8   9
ENDBRANCH   6   8
ENDBRANCH   5   6
ENDBRANCH   4   5
ENDBRANCH   3   4
ENDBRANCH   2   3
ENDBRANCH   1   2
BRANCH   1  35
ATOM     35  C   UNL     1      -2.374   3.164   1.098  1.00  0.00     0.188 C 
BRANCH  35  36
ATOM     36  O   UNL     1      -3.316   4.116   1.529  1.00  0.00    -0.376 OA
BRANCH  36  37
ATOM     37  C   UNL     1      -3.788   4.187   2.842  1.00  0.00     0.202 C 
BRANCH  37  38
ATOM     38  C   UNL     1      -3.552   2.905   3.627  1.00  0.00     0.261 C 
BRANCH  38  39
ATOM     39  O   UNL     1      -4.492   1.906   3.099  1.00  0.00    -0.460 OA
BRANCH  39  40
ATOM     40  C   UNL     1      -4.133   0.735   2.457  1.00  0.00     0.338 C 
ATOM     41  O   UNL     1      -3.511  -0.089   3.099  1.00  0.00    -0.246 OA
BRANCH  40  42
ATOM     42  C   UNL     1      -4.731   0.725   0.881  1.00  0.00     0.060 A 
ATOM     43  C   UNL     1      -5.021  -0.415  -0.783  1.00  0.00     0.016 A 
ATOM     44  C   UNL     1      -5.451   2.349   0.818  1.00  0.00     0.016 A 
ATOM     45  C   UNL     1      -5.898   0.503  -2.169  1.00  0.00     0.010 A 
ATOM     46  C   UNL     1      -6.074   3.003  -0.552  1.00  0.00     0.010 A 
ATOM     47  C   UNL     1      -6.099   2.283  -2.046  1.00  0.00    -0.014 A 
BRANCH  47  48
ATOM     48  C   UNL     1      -5.642   3.694  -3.095  1.00  0.00     0.031 A 
ATOM     49  C   UNL     1      -6.915   4.193  -3.637  1.00  0.00     0.074 A 
ATOM     50  C   UNL     1      -4.462   4.534  -3.504  1.00  0.00     0.049 A 
ATOM     51  N   UNL     1      -7.061   4.682  -4.822  1.00  0.00    -0.248 NA
ATOM     52  C   UNL     1      -8.195   3.978  -2.940  1.00  0.00     0.031 C 
ATOM     53  C   UNL     1      -4.270   6.050  -3.600  1.00  0.00     0.029 A 
ATOM     54  N   UNL     1      -3.028   4.302  -3.529  1.00  0.00    -0.354 N 
ATOM     55  C   UNL     1      -8.265   5.332  -4.725  1.00  0.00     0.074 A 
ATOM     56  C   UNL     1      -9.038   4.538  -3.807  1.00  0.00     0.031 C 
ATOM     57  C   UNL     1      -2.958   6.447  -3.787  1.00  0.00     0.029 A 
ATOM     58  C   UNL     1      -2.103   5.274  -3.876  1.00  0.00     0.049 A 
ATOM     59  H   UNL     1      -2.696   3.408  -3.286  1.00  0.00     0.167 HD
ATOM     60  C   UNL     1      -8.286   6.683  -4.913  1.00  0.00     0.031 A 
ATOM     61  C   UNL     1      -0.951   4.973  -4.553  1.00  0.00     0.031 A 
ATOM     62  C   UNL     1      -6.969   7.221  -5.332  1.00  0.00     0.049 A 
ATOM     63  C   UNL     1      -1.429   5.272  -5.918  1.00  0.00     0.074 A 
ATOM     64  C   UNL     1      -6.146   8.227  -4.850  1.00  0.00     0.029 A 
ATOM     65  N   UNL     1      -6.182   6.522  -6.254  1.00  0.00    -0.354 N 
ATOM     66  N   UNL     1      -2.698   5.420  -6.133  1.00  0.00    -0.248 NA
ATOM     67  C   UNL     1      -0.606   5.459  -7.089  1.00  0.00     0.031 C 
ATOM     68  C   UNL     1      -4.916   8.191  -5.582  1.00  0.00     0.029 A 
ATOM     69  C   UNL     1      -4.943   7.104  -6.449  1.00  0.00     0.049 A 
ATOM     70  H   UNL     1      -6.479   5.704  -6.715  1.00  0.00     0.167 HD
ATOM     71  C   UNL     1      -2.853   6.082  -7.269  1.00  0.00     0.074 A 
ATOM     72  C   UNL     1      -1.542   5.964  -7.909  1.00  0.00     0.031 C 
ATOM     73  C   UNL     1      -4.064   6.627  -7.530  1.00  0.00     0.031 A 
BRANCH  60  74
ATOM     74  C   UNL     1      -9.446   7.570  -4.481  1.00  0.00    -0.014 A 
ATOM     75  C   UNL     1      -9.317   8.961  -4.637  1.00  0.00     0.010 A 
ATOM     76  C   UNL     1     -10.697   7.126  -3.994  1.00  0.00     0.010 A 
ATOM     77  C   UNL     1     -10.370   9.847  -4.384  1.00  0.00     0.020 A 
ATOM     78  C   UNL     1     -11.764   8.000  -3.733  1.00  0.00     0.020 A 
ATOM     79  C   UNL     1     -11.599   9.357  -3.963  1.00  0.00     0.054 A 
BRANCH  79  80
ATOM     80  S   UNL     1     -12.988  10.503  -3.820  1.00  0.00     0.124 S 
ATOM     81  O   UNL     1     -12.507  11.450  -2.818  1.00  0.00    -0.237 OA
ATOM     82  O   UNL     1     -13.098  11.023  -5.180  1.00  0.00    -0.237 OA
ATOM     83  O   UNL     1     -14.097   9.654  -3.388  1.00  0.00    -0.744 OA
ENDBRANCH  79  80
ENDBRANCH  60  74
BRANCH  61  84
ATOM     84  C   UNL     1      -0.189   3.693  -4.321  1.00  0.00    -0.014 A 
ATOM     85  C   UNL     1       0.689   3.541  -3.224  1.00  0.00     0.010 A 
ATOM     86  C   UNL     1      -0.564   2.539  -5.039  1.00  0.00     0.010 A 
ATOM     87  C   UNL     1       1.008   2.253  -2.756  1.00  0.00     0.020 A 
ATOM     88  C   UNL     1      -0.262   1.258  -4.571  1.00  0.00     0.020 A 
ATOM     89  C   UNL     1       0.466   1.125  -3.399  1.00  0.00     0.054 A 
BRANCH  89  90
ATOM     90  S   UNL     1       0.217  -0.371  -2.419  1.00  0.00     0.124 S 
ATOM     91  O   UNL     1       1.448  -1.125  -2.625  1.00  0.00    -0.237 OA
ATOM     92  O   UNL     1       0.055   0.249  -1.117  1.00  0.00    -0.237 OA
ATOM     93  O   UNL     1      -0.996  -0.983  -2.958  1.00  0.00    -0.744 OA
ENDBRANCH  89  90
ENDBRANCH  61  84
BRANCH  73  94
ATOM     94  C   UNL     1      -4.492   6.773  -8.924  1.00  0.00    -0.014 A 
ATOM     95  C   UNL     1      -3.740   6.264  -9.982  1.00  0.00     0.010 A 
ATOM     96  C   UNL     1      -5.756   7.321  -9.190  1.00  0.00     0.010 A 
ATOM     97  C   UNL     1      -4.126   6.479 -11.279  1.00  0.00     0.020 A 
ATOM     98  C   UNL     1      -6.215   7.427 -10.485  1.00  0.00     0.020 A 
ATOM     99  C   UNL     1      -5.363   7.058 -11.517  1.00  0.00     0.054 A 
BRANCH  99 100
ATOM    100  S   UNL     1      -5.819   7.278 -13.225  1.00  0.00     0.124 S 
ATOM    101  O   UNL     1      -4.848   8.281 -13.655  1.00  0.00    -0.237 OA
ATOM    102  O   UNL     1      -5.621   5.935 -13.765  1.00  0.00    -0.237 OA
ATOM    103  O   UNL     1      -7.205   7.729 -13.155  1.00  0.00    -0.744 OA
ENDBRANCH  99 100
ENDBRANCH  73  94
ENDBRANCH  47  48
ENDBRANCH  40  42
ENDBRANCH  39  40
ENDBRANCH  38  39
ENDBRANCH  37  38
ENDBRANCH  36  37
ENDBRANCH  35  36
ENDBRANCH   1  35
TORSDOF 26
