REMARK SMILES O=C(C[C@@H]1C[N@@H+]([C@@H]2CCOc3ccccc32)CCO1)OCCOCCOCCOC(=O)c1ccc(-c2c3nc(c(-c4ccc(S(=O)(=O)[O-])cc4)c4ccc([nH]4)c(-c4ccc(S(=O)(=O)[O-])cc4)c4nc(c(-c5ccc(S(=O)(=O)[O-])cc5)c5ccc2[nH]5)C=C4)C=C3)cc1
REMARK SMILES IDX 25 1 24 2 23 3 22 4 21 5 20 6 2 7 1 8 3 9 4 10 5 11 19 12
REMARK SMILES IDX 6 13 18 14 17 15 7 17 8 18 16 19 9 20 11 21 15 22 10 23
REMARK SMILES IDX 12 24 14 25 13 26 26 27 27 28 28 29 29 30 30 31 31 32 32 33
REMARK SMILES IDX 33 34 91 35 34 36 90 37 35 38 36 39 37 40 84 41 38 42 89 43
REMARK SMILES IDX 83 44 85 45 39 46 88 47 82 48 81 49 40 51 70 52 51 53 69 54
REMARK SMILES IDX 52 55 55 56 68 57 86 58 53 59 54 60 67 62 87 63 56 64 41 65
REMARK SMILES IDX 42 66 50 67 43 68 49 69 44 70 45 71 46 72 47 73 48 74 71 75
REMARK SMILES IDX 72 76 80 77 73 78 79 79 74 80 75 81 76 82 77 83 78 84 57 85
REMARK SMILES IDX 58 86 66 87 59 88 65 89 60 90 61 91 62 92 63 93 64 94
REMARK H PARENT 6 16 85 50 55 61
REMARK Flexibility Score: inf
ROOT
ATOM      1  C   UNL     1       2.220  -0.372   3.294  1.00  0.00     0.188 C 
ENDROOT
BRANCH   1   2
ATOM      2  C   UNL     1       2.918  -0.988   2.077  1.00  0.00     0.188 C 
BRANCH   2   3
ATOM      3  O   UNL     1       4.283  -0.656   1.950  1.00  0.00    -0.376 OA
BRANCH   3   4
ATOM      4  C   UNL     1       4.706   0.248   0.951  1.00  0.00     0.202 C 
BRANCH   4   5
ATOM      5  C   UNL     1       3.863   1.491   0.704  1.00  0.00     0.261 C 
BRANCH   5   6
ATOM      6  O   UNL     1       2.487   1.330   0.276  1.00  0.00    -0.463 OA
BRANCH   6   7
ATOM      7  C   UNL     1       1.998   0.705  -0.819  1.00  0.00     0.308 C 
ATOM      8  O   UNL     1       0.897   1.030  -1.264  1.00  0.00    -0.252 OA
BRANCH   7   9
ATOM      9  C   UNL     1       2.719  -0.486  -1.380  1.00  0.00     0.160 C 
BRANCH   9  10
ATOM     10  C   UNL     1       3.727  -0.151  -2.459  1.00  0.00     0.184 C 
ATOM     11  C   UNL     1       4.762  -1.289  -2.564  1.00  0.00     0.295 C 
ATOM     12  O   UNL     1       4.410   1.075  -2.167  1.00  0.00    -0.366 OA
ATOM     13  N   UNL     1       5.806  -1.060  -3.572  1.00  0.00    -0.324 N 
ATOM     14  C   UNL     1       5.335   1.411  -3.208  1.00  0.00     0.222 C 
ATOM     15  C   UNL     1       6.361   0.290  -3.455  1.00  0.00     0.291 C 
ATOM     16  H   UNL     1       6.587  -1.678  -3.352  1.00  0.00     0.348 HD
BRANCH  13  17
ATOM     17  C   UNL     1       5.498  -1.559  -4.926  1.00  0.00     0.222 C 
ATOM     18  C   UNL     1       4.473  -0.758  -5.749  1.00  0.00     0.112 C 
ATOM     19  C   UNL     1       5.153  -3.034  -4.860  1.00  0.00     0.051 A 
ATOM     20  C   UNL     1       3.355  -1.611  -6.330  1.00  0.00     0.236 C 
ATOM     21  C   UNL     1       3.830  -3.446  -5.050  1.00  0.00     0.128 A 
ATOM     22  C   UNL     1       6.114  -3.977  -4.465  1.00  0.00     0.014 A 
ATOM     23  O   UNL     1       2.850  -2.547  -5.379  1.00  0.00    -0.493 OA
ATOM     24  C   UNL     1       3.456  -4.765  -4.826  1.00  0.00     0.047 A 
ATOM     25  C   UNL     1       5.747  -5.304  -4.257  1.00  0.00     0.001 A 
ATOM     26  C   UNL     1       4.422  -5.692  -4.437  1.00  0.00     0.004 A 
ENDBRANCH  13  17
ENDBRANCH   9  10
ENDBRANCH   7   9
ENDBRANCH   6   7
ENDBRANCH   5   6
ENDBRANCH   4   5
ENDBRANCH   3   4
ENDBRANCH   2   3
ENDBRANCH   1   2
BRANCH   1  27
ATOM     27  O   UNL     1       2.990   0.301   4.279  1.00  0.00    -0.376 OA
BRANCH  27  28
ATOM     28  C   UNL     1       4.247  -0.230   4.681  1.00  0.00     0.202 C 
BRANCH  28  29
ATOM     29  C   UNL     1       4.307  -1.663   5.225  1.00  0.00     0.261 C 
BRANCH  29  30
ATOM     30  O   UNL     1       4.014  -2.702   4.269  1.00  0.00    -0.460 OA
BRANCH  30  31
ATOM     31  C   UNL     1       2.864  -3.389   4.485  1.00  0.00     0.338 C 
ATOM     32  O   UNL     1       2.040  -3.176   5.357  1.00  0.00    -0.246 OA
BRANCH  31  33
ATOM     33  C   UNL     1       2.641  -4.400   3.426  1.00  0.00     0.060 A 
ATOM     34  C   UNL     1       1.431  -4.369   2.716  1.00  0.00     0.016 A 
ATOM     35  C   UNL     1       3.549  -5.439   3.219  1.00  0.00     0.016 A 
ATOM     36  C   UNL     1       1.098  -5.407   1.840  1.00  0.00     0.010 A 
ATOM     37  C   UNL     1       3.203  -6.489   2.360  1.00  0.00     0.010 A 
ATOM     38  C   UNL     1       1.958  -6.503   1.702  1.00  0.00    -0.014 A 
BRANCH  38  39
ATOM     39  C   UNL     1       1.478  -7.769   1.089  1.00  0.00     0.031 A 
ATOM     40  C   UNL     1       0.953  -8.845   2.003  1.00  0.00     0.074 A 
ATOM     41  C   UNL     1       1.515  -7.991  -0.237  1.00  0.00     0.049 A 
ATOM     42  N   UNL     1       0.627 -10.082   1.729  1.00  0.00    -0.248 NA
ATOM     43  C   UNL     1       0.772  -8.470   3.414  1.00  0.00     0.031 C 
ATOM     44  C   UNL     1       1.903  -7.016  -1.252  1.00  0.00     0.029 A 
ATOM     45  N   UNL     1       1.233  -9.132  -0.952  1.00  0.00    -0.354 N 
ATOM     46  C   UNL     1       0.222 -10.639   2.937  1.00  0.00     0.074 A 
ATOM     47  C   UNL     1       0.358  -9.610   3.945  1.00  0.00     0.031 C 
ATOM     48  C   UNL     1       1.860  -7.612  -2.458  1.00  0.00     0.029 A 
ATOM     49  C   UNL     1       1.508  -9.020  -2.293  1.00  0.00     0.049 A 
ATOM     50  H   UNL     1       0.868  -9.949  -0.542  1.00  0.00     0.167 HD
ATOM     51  C   UNL     1      -0.220 -11.895   3.188  1.00  0.00     0.031 A 
ATOM     52  C   UNL     1       1.522  -9.949  -3.272  1.00  0.00     0.031 A 
ATOM     53  C   UNL     1      -0.335 -12.927   2.194  1.00  0.00     0.049 A 
ATOM     54  C   UNL     1       1.143 -11.370  -2.957  1.00  0.00     0.074 A 
ATOM     55  C   UNL     1      -0.775 -14.229   2.354  1.00  0.00     0.029 A 
ATOM     56  N   UNL     1       0.001 -12.779   0.858  1.00  0.00    -0.354 N 
ATOM     57  N   UNL     1       0.778 -11.889  -1.810  1.00  0.00    -0.248 NA
ATOM     58  C   UNL     1       1.165 -12.328  -4.073  1.00  0.00     0.031 C 
ATOM     59  C   UNL     1      -0.651 -14.885   1.125  1.00  0.00     0.029 A 
ATOM     60  C   UNL     1      -0.196 -13.973   0.186  1.00  0.00     0.049 A 
ATOM     61  H   UNL     1       0.332 -11.948   0.447  1.00  0.00     0.167 HD
ATOM     62  C   UNL     1       0.488 -13.224  -2.073  1.00  0.00     0.074 A 
ATOM     63  C   UNL     1       0.730 -13.435  -3.485  1.00  0.00     0.031 C 
ATOM     64  C   UNL     1       0.044 -14.179  -1.221  1.00  0.00     0.031 A 
BRANCH  51  65
ATOM     65  C   UNL     1      -0.552 -12.230   4.617  1.00  0.00    -0.014 A 
ATOM     66  C   UNL     1      -1.687 -11.693   5.252  1.00  0.00     0.010 A 
ATOM     67  C   UNL     1       0.290 -13.097   5.337  1.00  0.00     0.010 A 
ATOM     68  C   UNL     1      -1.942 -11.974   6.597  1.00  0.00     0.020 A 
ATOM     69  C   UNL     1       0.022 -13.403   6.673  1.00  0.00     0.020 A 
ATOM     70  C   UNL     1      -1.080 -12.820   7.301  1.00  0.00     0.054 A 
BRANCH  70  71
ATOM     71  S   UNL     1      -1.424 -13.160   9.049  1.00  0.00     0.124 S 
ATOM     72  O   UNL     1      -1.024 -11.906   9.683  1.00  0.00    -0.237 OA
ATOM     73  O   UNL     1      -2.859 -13.432   9.047  1.00  0.00    -0.237 OA
ATOM     74  O   UNL     1      -0.576 -14.309   9.352  1.00  0.00    -0.744 OA
ENDBRANCH  70  71
ENDBRANCH  51  65
BRANCH  52  75
ATOM     75  C   UNL     1       1.959  -9.572  -4.643  1.00  0.00    -0.014 A 
ATOM     76  C   UNL     1       1.024  -9.411  -5.679  1.00  0.00     0.010 A 
ATOM     77  C   UNL     1       3.323  -9.357  -4.913  1.00  0.00     0.010 A 
ATOM     78  C   UNL     1       1.443  -9.026  -6.957  1.00  0.00     0.020 A 
ATOM     79  C   UNL     1       3.743  -8.952  -6.184  1.00  0.00     0.020 A 
ATOM     80  C   UNL     1       2.799  -8.787  -7.198  1.00  0.00     0.054 A 
BRANCH  80  81
ATOM     81  S   UNL     1       3.309  -8.192  -8.836  1.00  0.00     0.124 S 
ATOM     82  O   UNL     1       3.219  -9.406  -9.641  1.00  0.00    -0.237 OA
ATOM     83  O   UNL     1       2.310  -7.166  -9.124  1.00  0.00    -0.237 OA
ATOM     84  O   UNL     1       4.662  -7.689  -8.612  1.00  0.00    -0.744 OA
ENDBRANCH  80  81
ENDBRANCH  52  75
BRANCH  64  85
ATOM     85  C   UNL     1      -0.271 -15.537  -1.788  1.00  0.00    -0.014 A 
ATOM     86  C   UNL     1       0.746 -16.437  -2.154  1.00  0.00     0.010 A 
ATOM     87  C   UNL     1      -1.615 -15.948  -1.877  1.00  0.00     0.010 A 
ATOM     88  C   UNL     1       0.422 -17.718  -2.612  1.00  0.00     0.020 A 
ATOM     89  C   UNL     1      -1.941 -17.235  -2.311  1.00  0.00     0.020 A 
ATOM     90  C   UNL     1      -0.919 -18.110  -2.684  1.00  0.00     0.054 A 
BRANCH  90  91
ATOM     91  S   UNL     1      -1.311 -19.800  -3.215  1.00  0.00     0.124 S 
ATOM     92  O   UNL     1      -1.055 -19.735  -4.651  1.00  0.00    -0.237 OA
ATOM     93  O   UNL     1      -0.367 -20.606  -2.444  1.00  0.00    -0.237 OA
ATOM     94  O   UNL     1      -2.713 -19.966  -2.838  1.00  0.00    -0.744 OA
ENDBRANCH  90  91
ENDBRANCH  64  85
ENDBRANCH  38  39
ENDBRANCH  31  33
ENDBRANCH  30  31
ENDBRANCH  29  30
ENDBRANCH  28  29
ENDBRANCH  27  28
ENDBRANCH   1  27
TORSDOF 22
