REMARK SMILES C[C@@H](CO)CS[C@@H](C)C[C@@](C)([NH3+])C(=O)OCCOCCOCCOC(=O)c1ccc(-c2c3nc(c(-c4ccc(S(=O)(=O)[O-])cc4)c4ccc([nH]4)c(-c4ccc(S(=O)(=O)[O-])cc4)c4nc(c(-c5ccc(S(=O)(=O)[O-])cc5)c5ccc2[nH]5)C=C4)C=C3)cc1
REMARK SMILES IDX 17 1 16 2 15 3 13 4 14 5 10 6 11 7 9 8 7 9 8 10 6 11 5 12
REMARK SMILES IDX 2 13 1 14 3 15 4 16 12 18 18 22 19 23 20 24 21 25 22 26
REMARK SMILES IDX 23 27 24 28 25 29 26 30 27 31 28 32 86 33 29 34 85 35 30 36
REMARK SMILES IDX 31 37 32 38 79 39 33 40 84 41 78 42 80 43 34 44 83 45 77 46
REMARK SMILES IDX 76 47 35 49 65 50 46 51 64 52 47 53 50 54 63 55 81 56 48 57
REMARK SMILES IDX 49 58 62 60 82 61 51 62 36 63 37 64 45 65 38 66 44 67 39 68
REMARK SMILES IDX 40 69 41 70 42 71 43 72 66 73 67 74 75 75 68 76 74 77 69 78
REMARK SMILES IDX 70 79 71 80 72 81 73 82 52 83 53 84 61 85 54 86 60 87 55 88
REMARK SMILES IDX 56 89 57 90 58 91 59 92
REMARK H PARENT 4 17 12 19 12 20 12 21 80 48 50 59
REMARK Flexibility Score: inf
ROOT
ATOM      1  C   UNL     1       0.020   3.998  -2.886  1.00  0.00     0.202 C 
ENDROOT
BRANCH   1   2
ATOM      2  C   UNL     1      -0.323   4.950  -1.711  1.00  0.00     0.261 C 
BRANCH   2   3
ATOM      3  O   UNL     1       0.192   4.506  -0.451  1.00  0.00    -0.459 OA
BRANCH   3   4
ATOM      4  C   UNL     1      -0.631   4.157   0.569  1.00  0.00     0.367 C 
ATOM      5  O   UNL     1      -1.803   4.501   0.648  1.00  0.00    -0.245 OA
BRANCH   4   6
ATOM      6  C   UNL     1       0.152   3.373   1.674  1.00  0.00     0.191 C 
ATOM      7  C   UNL     1       0.026   4.206   2.956  1.00  0.00     0.092 C 
BRANCH   6   8
ATOM      8  C   UNL     1      -0.240   1.885   1.906  1.00  0.00     0.094 C 
BRANCH   8   9
ATOM      9  C   UNL     1      -1.641   1.304   1.570  1.00  0.00     0.050 C 
ATOM     10  C   UNL     1      -1.755  -0.151   2.052  1.00  0.00     0.019 C 
BRANCH   9  11
ATOM     11  S   UNL     1      -2.296   1.540  -0.147  1.00  0.00    -0.158 SA
BRANCH  11  12
ATOM     12  C   UNL     1      -1.921   0.020  -1.114  1.00  0.00     0.075 C 
BRANCH  12  13
ATOM     13  C   UNL     1      -0.529   0.070  -1.752  1.00  0.00     0.021 C 
ATOM     14  C   UNL     1       0.520  -0.481  -0.808  1.00  0.00     0.011 C 
BRANCH  13  15
ATOM     15  C   UNL     1      -0.470  -0.654  -3.103  1.00  0.00     0.160 C 
BRANCH  15  16
ATOM     16  O   UNL     1      -1.025  -1.956  -3.042  1.00  0.00    -0.396 OA
ATOM     17  H   UNL     1      -0.520  -2.493  -2.412  1.00  0.00     0.210 HD
ENDBRANCH  15  16
ENDBRANCH  13  15
ENDBRANCH  12  13
ENDBRANCH  11  12
ENDBRANCH   9  11
ENDBRANCH   8   9
ENDBRANCH   6   8
BRANCH   6  18
ATOM     18  N   UNL     1       1.631   3.343   1.393  1.00  0.00    -0.344 N 
ATOM     19  H   UNL     1       2.107   2.826   2.132  1.00  0.00     0.345 HD
ATOM     20  H   UNL     1       1.990   4.297   1.361  1.00  0.00     0.345 HD
ATOM     21  H   UNL     1       1.797   2.886   0.496  1.00  0.00     0.345 HD
ENDBRANCH   6  18
ENDBRANCH   4   6
ENDBRANCH   3   4
ENDBRANCH   2   3
ENDBRANCH   1   2
BRANCH   1  22
ATOM     22  O   UNL     1       1.178   3.155  -2.883  1.00  0.00    -0.376 OA
BRANCH  22  23
ATOM     23  C   UNL     1       1.834   2.965  -1.634  1.00  0.00     0.188 C 
BRANCH  23  24
ATOM     24  C   UNL     1       2.987   1.981  -1.693  1.00  0.00     0.188 C 
BRANCH  24  25
ATOM     25  O   UNL     1       4.175   2.504  -2.281  1.00  0.00    -0.376 OA
BRANCH  25  26
ATOM     26  C   UNL     1       4.069   2.772  -3.672  1.00  0.00     0.202 C 
BRANCH  26  27
ATOM     27  C   UNL     1       4.179   1.558  -4.609  1.00  0.00     0.261 C 
BRANCH  27  28
ATOM     28  O   UNL     1       3.596   0.332  -4.136  1.00  0.00    -0.460 OA
BRANCH  28  29
ATOM     29  C   UNL     1       4.386  -0.424  -3.325  1.00  0.00     0.338 C 
ATOM     30  O   UNL     1       5.535  -0.182  -2.986  1.00  0.00    -0.246 OA
BRANCH  29  31
ATOM     31  C   UNL     1       3.588  -1.556  -2.790  1.00  0.00     0.060 A 
ATOM     32  C   UNL     1       3.604  -1.825  -1.413  1.00  0.00     0.016 A 
ATOM     33  C   UNL     1       2.817  -2.352  -3.640  1.00  0.00     0.016 A 
ATOM     34  C   UNL     1       2.826  -2.871  -0.885  1.00  0.00     0.010 A 
ATOM     35  C   UNL     1       2.052  -3.404  -3.113  1.00  0.00     0.010 A 
ATOM     36  C   UNL     1       2.042  -3.674  -1.730  1.00  0.00    -0.014 A 
BRANCH  36  37
ATOM     37  C   UNL     1       1.478  -4.971  -1.246  1.00  0.00     0.031 A 
ATOM     38  C   UNL     1       2.382  -6.168  -1.397  1.00  0.00     0.074 A 
ATOM     39  C   UNL     1       0.239  -5.142  -0.735  1.00  0.00     0.049 A 
ATOM     40  N   UNL     1       2.159  -7.420  -1.099  1.00  0.00    -0.248 NA
ATOM     41  C   UNL     1       3.715  -5.910  -1.972  1.00  0.00     0.031 C 
ATOM     42  C   UNL     1      -0.758  -4.106  -0.500  1.00  0.00     0.029 A 
ATOM     43  N   UNL     1      -0.410  -6.291  -0.329  1.00  0.00    -0.354 N 
ATOM     44  C   UNL     1       3.326  -8.093  -1.437  1.00  0.00     0.074 A 
ATOM     45  C   UNL     1       4.229  -7.126  -2.017  1.00  0.00     0.031 C 
ATOM     46  C   UNL     1      -1.886  -4.650  -0.016  1.00  0.00     0.029 A 
ATOM     47  C   UNL     1      -1.712  -6.090   0.081  1.00  0.00     0.049 A 
ATOM     48  H   UNL     1       0.019  -7.177  -0.332  1.00  0.00     0.167 HD
ATOM     49  C   UNL     1       3.637  -9.397  -1.264  1.00  0.00     0.031 A 
ATOM     50  C   UNL     1      -2.668  -6.954   0.481  1.00  0.00     0.031 A 
ATOM     51  C   UNL     1       2.733 -10.378  -0.740  1.00  0.00     0.049 A 
ATOM     52  C   UNL     1      -2.335  -8.420   0.570  1.00  0.00     0.074 A 
ATOM     53  C   UNL     1       2.958 -11.726  -0.530  1.00  0.00     0.029 A 
ATOM     54  N   UNL     1       1.424 -10.123  -0.361  1.00  0.00    -0.354 N 
ATOM     55  N   UNL     1      -1.200  -9.023   0.308  1.00  0.00    -0.248 NA
ATOM     56  C   UNL     1      -3.403  -9.319   1.033  1.00  0.00     0.031 C 
ATOM     57  C   UNL     1       1.765 -12.300  -0.083  1.00  0.00     0.029 A 
ATOM     58  C   UNL     1       0.821 -11.295   0.059  1.00  0.00     0.049 A 
ATOM     59  H   UNL     1       0.989  -9.240  -0.388  1.00  0.00     0.167 HD
ATOM     60  C   UNL     1      -1.403 -10.363   0.625  1.00  0.00     0.074 A 
ATOM     61  C   UNL     1      -2.766 -10.479   1.101  1.00  0.00     0.031 C 
ATOM     62  C   UNL     1      -0.533 -11.399   0.541  1.00  0.00     0.031 A 
BRANCH  49  63
ATOM     63  C   UNL     1       5.016  -9.820  -1.684  1.00  0.00    -0.014 A 
ATOM     64  C   UNL     1       6.151  -9.387  -0.973  1.00  0.00     0.010 A 
ATOM     65  C   UNL     1       5.182 -10.643  -2.811  1.00  0.00     0.010 A 
ATOM     66  C   UNL     1       7.431  -9.730  -1.411  1.00  0.00     0.020 A 
ATOM     67  C   UNL     1       6.459 -11.016  -3.232  1.00  0.00     0.020 A 
ATOM     68  C   UNL     1       7.576 -10.541  -2.540  1.00  0.00     0.054 A 
BRANCH  68  69
ATOM     69  S   UNL     1       9.249 -10.984  -3.076  1.00  0.00     0.124 S 
ATOM     70  O   UNL     1       9.739  -9.715  -3.610  1.00  0.00    -0.237 OA
ATOM     71  O   UNL     1       9.876 -11.426  -1.833  1.00  0.00    -0.237 OA
ATOM     72  O   UNL     1       9.030 -12.033  -4.069  1.00  0.00    -0.744 OA
ENDBRANCH  68  69
ENDBRANCH  49  63
BRANCH  50  73
ATOM     73  C   UNL     1      -4.036  -6.472   0.849  1.00  0.00    -0.014 A 
ATOM     74  C   UNL     1      -4.490  -6.545   2.179  1.00  0.00     0.010 A 
ATOM     75  C   UNL     1      -4.910  -5.974  -0.136  1.00  0.00     0.010 A 
ATOM     76  C   UNL     1      -5.796  -6.164   2.511  1.00  0.00     0.020 A 
ATOM     77  C   UNL     1      -6.207  -5.564   0.197  1.00  0.00     0.020 A 
ATOM     78  C   UNL     1      -6.647  -5.676   1.517  1.00  0.00     0.054 A 
BRANCH  78  79
ATOM     79  S   UNL     1      -8.328  -5.167   1.980  1.00  0.00     0.124 S 
ATOM     80  O   UNL     1      -8.962  -6.446   2.284  1.00  0.00    -0.237 OA
ATOM     81  O   UNL     1      -8.086  -4.293   3.125  1.00  0.00    -0.237 OA
ATOM     82  O   UNL     1      -8.825  -4.492   0.782  1.00  0.00    -0.744 OA
ENDBRANCH  78  79
ENDBRANCH  50  73
BRANCH  62  83
ATOM     83  C   UNL     1      -0.995 -12.744   1.036  1.00  0.00    -0.014 A 
ATOM     84  C   UNL     1      -1.967 -13.492   0.349  1.00  0.00     0.010 A 
ATOM     85  C   UNL     1      -0.394 -13.292   2.184  1.00  0.00     0.010 A 
ATOM     86  C   UNL     1      -2.353 -14.748   0.823  1.00  0.00     0.020 A 
ATOM     87  C   UNL     1      -0.751 -14.561   2.641  1.00  0.00     0.020 A 
ATOM     88  C   UNL     1      -1.742 -15.275   1.965  1.00  0.00     0.054 A 
BRANCH  88  89
ATOM     89  S   UNL     1      -2.230 -16.926   2.535  1.00  0.00     0.124 S 
ATOM     90  O   UNL     1      -3.561 -16.677   3.083  1.00  0.00    -0.237 OA
ATOM     91  O   UNL     1      -2.193 -17.713   1.305  1.00  0.00    -0.237 OA
ATOM     92  O   UNL     1      -1.206 -17.270   3.519  1.00  0.00    -0.744 OA
ENDBRANCH  88  89
ENDBRANCH  62  83
ENDBRANCH  36  37
ENDBRANCH  29  31
ENDBRANCH  28  29
ENDBRANCH  27  28
ENDBRANCH  26  27
ENDBRANCH  25  26
ENDBRANCH  24  25
ENDBRANCH  23  24
ENDBRANCH  22  23
ENDBRANCH   1  22
TORSDOF 28
