REMARK SMILES O=C(OCCOCCOCCOC(=O)c1cc([C@@H]2C=NN=C2c2ccc(F)cc2)c2c(ccc3ccccc32)n1)c1ccc(-c2c3nc(c(-c4ccc(S(=O)(=O)[O-])cc4)c4ccc([nH]4)c(-c4ccc(S(=O)(=O)[O-])cc4)c4nc(c(-c5ccc(S(=O)(=O)[O-])cc5)c5ccc2[nH]5)C=C4)C=C3)cc1
REMARK SMILES IDX 7 1 6 2 5 3 4 4 3 5 2 6 1 7 41 8 42 9 100 10 43 11 99 12
REMARK SMILES IDX 44 13 45 14 46 15 93 16 47 17 98 18 92 19 94 20 48 21 97 22
REMARK SMILES IDX 91 23 90 24 49 26 79 27 60 28 78 29 61 30 64 31 77 32 95 33
REMARK SMILES IDX 62 34 63 35 76 37 96 38 65 39 50 40 51 41 59 42 52 43 58 44
REMARK SMILES IDX 53 45 54 46 55 47 56 48 57 49 80 50 81 51 89 52 82 53 88 54
REMARK SMILES IDX 83 55 84 56 85 57 86 58 87 59 66 60 67 61 75 62 68 63 74 64
REMARK SMILES IDX 69 65 70 66 71 67 72 68 73 69 8 70 9 71 10 72 11 73 12 74
REMARK SMILES IDX 13 75 14 76 15 77 16 78 40 79 17 80 31 81 30 82 32 83 39 84
REMARK SMILES IDX 33 85 34 86 38 87 35 88 37 89 36 90 18 91 19 92 22 93 20 94
REMARK SMILES IDX 21 95 23 96 24 97 29 98 25 99 28 100 26 101 27 102
REMARK H PARENT 94 25 64 36
REMARK Flexibility Score: inf
ROOT
ATOM      1  C   UNL     1       3.320  -1.473   0.542  1.00  0.00     0.188 C 
ENDROOT
BRANCH   1   2
ATOM      2  O   UNL     1       4.612  -1.022   0.933  1.00  0.00    -0.376 OA
BRANCH   2   3
ATOM      3  C   UNL     1       5.112   0.078   0.191  1.00  0.00     0.202 C 
BRANCH   3   4
ATOM      4  C   UNL     1       4.652   1.413   0.776  1.00  0.00     0.261 C 
BRANCH   4   5
ATOM      5  O   UNL     1       3.232   1.532   1.007  1.00  0.00    -0.460 OA
BRANCH   5   6
ATOM      6  C   UNL     1       2.178   1.742   0.197  1.00  0.00     0.338 C 
ATOM      7  O   UNL     1       1.078   1.945   0.709  1.00  0.00    -0.246 OA
BRANCH   6   8
ATOM      8  C   UNL     1       2.238   1.629  -1.286  1.00  0.00     0.060 A 
ATOM      9  C   UNL     1       3.386   1.787  -2.062  1.00  0.00     0.016 A 
ATOM     10  C   UNL     1       1.010   1.403  -1.941  1.00  0.00     0.016 A 
ATOM     11  C   UNL     1       3.316   1.740  -3.450  1.00  0.00     0.010 A 
ATOM     12  C   UNL     1       0.927   1.387  -3.330  1.00  0.00     0.010 A 
ATOM     13  C   UNL     1       2.081   1.597  -4.082  1.00  0.00    -0.014 A 
BRANCH  13  14
ATOM     14  C   UNL     1       2.047   1.821  -5.524  1.00  0.00     0.031 A 
ATOM     15  C   UNL     1       2.609   0.782  -6.426  1.00  0.00     0.074 A 
ATOM     16  C   UNL     1       1.474   2.925  -6.044  1.00  0.00     0.049 A 
ATOM     17  N   UNL     1       3.562   0.904  -7.295  1.00  0.00    -0.248 NA
ATOM     18  C   UNL     1       2.039  -0.570  -6.343  1.00  0.00     0.031 C 
ATOM     19  C   UNL     1       0.625   3.895  -5.344  1.00  0.00     0.029 A 
ATOM     20  N   UNL     1       1.436   3.345  -7.341  1.00  0.00    -0.354 N 
ATOM     21  C   UNL     1       3.602  -0.299  -7.996  1.00  0.00     0.074 A 
ATOM     22  C   UNL     1       2.707  -1.200  -7.310  1.00  0.00     0.031 C 
ATOM     23  C   UNL     1      -0.026   4.644  -6.257  1.00  0.00     0.029 A 
ATOM     24  C   UNL     1       0.460   4.298  -7.583  1.00  0.00     0.049 A 
ATOM     25  H   UNL     1       2.044   3.006  -8.037  1.00  0.00     0.167 HD
ATOM     26  C   UNL     1       4.230  -0.443  -9.196  1.00  0.00     0.031 A 
ATOM     27  C   UNL     1       0.010   4.718  -8.787  1.00  0.00     0.031 A 
ATOM     28  C   UNL     1       5.147   0.622  -9.486  1.00  0.00     0.049 A 
ATOM     29  C   UNL     1       1.036   4.404  -9.806  1.00  0.00     0.074 A 
ATOM     30  C   UNL     1       6.302   1.107  -8.909  1.00  0.00     0.029 A 
ATOM     31  N   UNL     1       4.760   1.564 -10.408  1.00  0.00    -0.354 N 
ATOM     32  N   UNL     1       2.201   4.984  -9.873  1.00  0.00    -0.248 NA
ATOM     33  C   UNL     1       0.904   3.188 -10.594  1.00  0.00     0.031 C 
ATOM     34  C   UNL     1       6.316   2.502  -9.200  1.00  0.00     0.029 A 
ATOM     35  C   UNL     1       5.165   2.788  -9.938  1.00  0.00     0.049 A 
ATOM     36  H   UNL     1       4.279   1.393 -11.250  1.00  0.00     0.167 HD
ATOM     37  C   UNL     1       3.057   4.018 -10.377  1.00  0.00     0.074 A 
ATOM     38  C   UNL     1       2.181   2.995 -10.933  1.00  0.00     0.031 C 
ATOM     39  C   UNL     1       4.382   4.004 -10.047  1.00  0.00     0.031 A 
BRANCH  26  40
ATOM     40  C   UNL     1       3.781  -1.415 -10.258  1.00  0.00    -0.014 A 
ATOM     41  C   UNL     1       4.617  -1.686 -11.361  1.00  0.00     0.010 A 
ATOM     42  C   UNL     1       2.447  -1.870 -10.334  1.00  0.00     0.010 A 
ATOM     43  C   UNL     1       4.129  -2.350 -12.497  1.00  0.00     0.020 A 
ATOM     44  C   UNL     1       1.964  -2.568 -11.443  1.00  0.00     0.020 A 
ATOM     45  C   UNL     1       2.800  -2.774 -12.534  1.00  0.00     0.054 A 
BRANCH  45  46
ATOM     46  S   UNL     1       2.148  -3.538 -14.041  1.00  0.00     0.124 S 
ATOM     47  O   UNL     1       2.069  -2.394 -14.944  1.00  0.00    -0.237 OA
ATOM     48  O   UNL     1       3.172  -4.528 -14.362  1.00  0.00    -0.237 OA
ATOM     49  O   UNL     1       0.866  -4.092 -13.615  1.00  0.00    -0.744 OA
ENDBRANCH  45  46
ENDBRANCH  26  40
BRANCH  27  50
ATOM     50  C   UNL     1      -1.377   5.114  -9.121  1.00  0.00    -0.014 A 
ATOM     51  C   UNL     1      -1.673   5.796 -10.313  1.00  0.00     0.010 A 
ATOM     52  C   UNL     1      -2.457   4.595  -8.373  1.00  0.00     0.010 A 
ATOM     53  C   UNL     1      -2.999   5.914 -10.762  1.00  0.00     0.020 A 
ATOM     54  C   UNL     1      -3.779   4.723  -8.805  1.00  0.00     0.020 A 
ATOM     55  C   UNL     1      -4.041   5.362 -10.011  1.00  0.00     0.054 A 
BRANCH  55  56
ATOM     56  S   UNL     1      -5.729   5.368 -10.680  1.00  0.00     0.124 S 
ATOM     57  O   UNL     1      -6.101   6.775 -10.566  1.00  0.00    -0.237 OA
ATOM     58  O   UNL     1      -5.532   4.872 -12.039  1.00  0.00    -0.237 OA
ATOM     59  O   UNL     1      -6.453   4.460  -9.793  1.00  0.00    -0.744 OA
ENDBRANCH  55  56
ENDBRANCH  27  50
BRANCH  39  60
ATOM     60  C   UNL     1       4.987   5.253  -9.445  1.00  0.00    -0.014 A 
ATOM     61  C   UNL     1       4.535   5.815  -8.236  1.00  0.00     0.010 A 
ATOM     62  C   UNL     1       6.143   5.790 -10.041  1.00  0.00     0.010 A 
ATOM     63  C   UNL     1       5.204   6.898  -7.651  1.00  0.00     0.020 A 
ATOM     64  C   UNL     1       6.828   6.859  -9.452  1.00  0.00     0.020 A 
ATOM     65  C   UNL     1       6.351   7.412  -8.262  1.00  0.00     0.054 A 
BRANCH  65  66
ATOM     66  S   UNL     1       7.256   8.760  -7.451  1.00  0.00     0.124 S 
ATOM     67  O   UNL     1       6.378   9.906  -7.666  1.00  0.00    -0.237 OA
ATOM     68  O   UNL     1       7.358   8.296  -6.068  1.00  0.00    -0.237 OA
ATOM     69  O   UNL     1       8.527   8.808  -8.172  1.00  0.00    -0.744 OA
ENDBRANCH  65  66
ENDBRANCH  39  60
ENDBRANCH  13  14
ENDBRANCH   6   8
ENDBRANCH   5   6
ENDBRANCH   4   5
ENDBRANCH   3   4
ENDBRANCH   2   3
ENDBRANCH   1   2
BRANCH   1  70
ATOM     70  C   UNL     1       2.291  -1.510   1.691  1.00  0.00     0.188 C 
BRANCH  70  71
ATOM     71  O   UNL     1       2.602  -1.970   3.006  1.00  0.00    -0.376 OA
BRANCH  71  72
ATOM     72  C   UNL     1       3.935  -2.275   3.365  1.00  0.00     0.202 C 
BRANCH  72  73
ATOM     73  C   UNL     1       4.328  -3.721   3.053  1.00  0.00     0.261 C 
BRANCH  73  74
ATOM     74  O   UNL     1       4.012  -4.132   1.714  1.00  0.00    -0.459 OA
BRANCH  74  75
ATOM     75  C   UNL     1       2.787  -4.702   1.568  1.00  0.00     0.357 C 
ATOM     76  O   UNL     1       2.003  -5.013   2.447  1.00  0.00    -0.244 OA
BRANCH  75  77
ATOM     77  C   UNL     1       2.545  -4.992   0.134  1.00  0.00     0.149 A 
ATOM     78  C   UNL     1       3.179  -6.073  -0.416  1.00  0.00     0.041 A 
ATOM     79  N   UNL     1       1.530  -4.360  -0.471  1.00  0.00    -0.241 NA
ATOM     80  C   UNL     1       2.651  -6.670  -1.588  1.00  0.00    -0.021 A 
ATOM     81  C   UNL     1       1.056  -4.861  -1.617  1.00  0.00     0.072 A 
ATOM     82  C   UNL     1       1.494  -6.070  -2.245  1.00  0.00     0.012 A 
ATOM     83  C   UNL     1       0.000  -4.131  -2.116  1.00  0.00     0.029 A 
ATOM     84  C   UNL     1       0.657  -6.543  -3.377  1.00  0.00    -0.009 A 
ATOM     85  C   UNL     1      -0.737  -4.551  -3.210  1.00  0.00     0.011 A 
ATOM     86  C   UNL     1      -0.443  -5.755  -3.827  1.00  0.00    -0.018 A 
ATOM     87  C   UNL     1       0.786  -7.769  -4.072  1.00  0.00     0.009 A 
ATOM     88  C   UNL     1      -1.289  -6.166  -4.874  1.00  0.00     0.009 A 
ATOM     89  C   UNL     1      -0.056  -8.184  -5.114  1.00  0.00     0.001 A 
ATOM     90  C   UNL     1      -1.099  -7.378  -5.519  1.00  0.00     0.001 A 
BRANCH  80  91
ATOM     91  C   UNL     1       3.281  -8.029  -1.802  1.00  0.00     0.115 C 
ATOM     92  C   UNL     1       3.763  -8.495  -3.118  1.00  0.00     0.123 C 
ATOM     93  C   UNL     1       2.486  -9.237  -1.409  1.00  0.00     0.083 C 
ATOM     94  N   UNL     1       3.494  -9.748  -3.323  1.00  0.00    -0.162 NA
ATOM     95  N   UNL     1       2.680 -10.227  -2.229  1.00  0.00    -0.154 NA
BRANCH  93  96
ATOM     96  C   UNL     1       1.723  -9.319  -0.149  1.00  0.00    -0.001 A 
ATOM     97  C   UNL     1       2.099 -10.271   0.801  1.00  0.00     0.013 A 
ATOM     98  C   UNL     1       0.677  -8.430   0.133  1.00  0.00     0.013 A 
ATOM     99  C   UNL     1       1.464 -10.293   2.047  1.00  0.00     0.040 A 
ATOM    100  C   UNL     1       0.063  -8.437   1.385  1.00  0.00     0.040 A 
ATOM    101  C   UNL     1       0.464  -9.367   2.333  1.00  0.00     0.123 A 
ATOM    102  F   UNL     1      -0.127  -9.383   3.535  1.00  0.00    -0.207 F 
ENDBRANCH  93  96
ENDBRANCH  80  91
ENDBRANCH  75  77
ENDBRANCH  74  75
ENDBRANCH  73  74
ENDBRANCH  72  73
ENDBRANCH  71  72
ENDBRANCH  70  71
ENDBRANCH   1  70
TORSDOF 22
