REMARK SMILES COc1ccc(C(=O)OCCOCCOCCOC(=O)c2ccc(-c3c4nc(c(-c5ccc(S(=O)(=O)[O-])cc5)c5ccc([nH]5)c(-c5ccc(S(=O)(=O)[O-])cc5)c5nc(c(-c6ccc(S(=O)(=O)[O-])cc6)c6ccc3[nH]6)C=C5)C=C4)cc2)cc1CN1CC(=O)N(C)CC1=O
REMARK SMILES IDX 14 1 13 2 12 3 11 4 10 5 9 6 7 7 8 8 6 9 3 10 4 11 82 12
REMARK SMILES IDX 5 13 81 14 2 15 1 16 83 17 84 18 85 19 91 20 86 21 90 22
REMARK SMILES IDX 92 23 87 24 88 25 89 26 15 27 16 28 17 29 18 30 19 31 20 32
REMARK SMILES IDX 21 33 22 34 80 35 23 36 79 37 24 38 25 39 26 40 73 41 27 42
REMARK SMILES IDX 78 43 72 44 74 45 28 46 77 47 71 48 70 49 29 51 59 52 40 53
REMARK SMILES IDX 58 54 41 55 44 56 57 57 75 58 42 59 43 60 56 62 76 63 45 64
REMARK SMILES IDX 30 65 31 66 39 67 32 68 38 69 33 70 34 71 35 72 36 73 37 74
REMARK SMILES IDX 60 75 61 76 69 77 62 78 68 79 63 80 64 81 65 82 66 83 67 84
REMARK SMILES IDX 46 85 47 86 55 87 48 88 54 89 49 90 50 91 51 92 52 93 53 94
REMARK H PARENT 74 50 44 61
REMARK Flexibility Score: inf
ROOT
ATOM      1  C   UNL     1       2.740  -5.977   3.604  1.00  0.00     0.188 C 
ENDROOT
BRANCH   1   2
ATOM      2  C   UNL     1       1.824  -7.170   3.256  1.00  0.00     0.188 C 
BRANCH   2   3
ATOM      3  O   UNL     1       2.491  -8.403   3.136  1.00  0.00    -0.376 OA
BRANCH   3   4
ATOM      4  C   UNL     1       2.932  -8.859   1.871  1.00  0.00     0.202 C 
BRANCH   4   5
ATOM      5  C   UNL     1       3.181  -7.976   0.632  1.00  0.00     0.261 C 
BRANCH   5   6
ATOM      6  O   UNL     1       2.857  -6.588   0.706  1.00  0.00    -0.460 OA
BRANCH   6   7
ATOM      7  C   UNL     1       1.693  -6.206   0.123  1.00  0.00     0.338 C 
ATOM      8  O   UNL     1       0.863  -6.931  -0.393  1.00  0.00    -0.246 OA
BRANCH   7   9
ATOM      9  C   UNL     1       1.502  -4.754   0.347  1.00  0.00     0.060 A 
ATOM     10  C   UNL     1       1.132  -2.036   0.842  1.00  0.00     0.123 A 
ATOM     11  C   UNL     1       0.087  -2.937   1.075  1.00  0.00     0.047 A 
ATOM     12  C   UNL     1       2.385  -2.479   0.398  1.00  0.00     0.014 A 
ATOM     13  C   UNL     1       0.266  -4.297   0.813  1.00  0.00     0.019 A 
ATOM     14  C   UNL     1       2.554  -3.853   0.149  1.00  0.00     0.025 A 
BRANCH  10  15
ATOM     15  O   UNL     1       0.912  -0.715   1.125  1.00  0.00    -0.496 OA
ATOM     16  C   UNL     1       0.471  -0.015  -0.041  1.00  0.00     0.278 C 
ENDBRANCH  10  15
BRANCH  12  17
ATOM     17  C   UNL     1       3.571  -1.553   0.265  1.00  0.00     0.159 C 
BRANCH  17  18
ATOM     18  N   UNL     1       4.298  -1.454   1.520  1.00  0.00    -0.327 N 
ATOM     19  C   UNL     1       4.348  -0.159   2.185  1.00  0.00     0.220 C 
ATOM     20  C   UNL     1       5.203  -2.446   1.872  1.00  0.00     0.242 C 
ATOM     21  C   UNL     1       4.875  -0.123   3.622  1.00  0.00     0.242 C 
ATOM     22  C   UNL     1       5.491  -2.493   3.370  1.00  0.00     0.219 C 
ATOM     23  O   UNL     1       5.540  -3.352   1.114  1.00  0.00    -0.273 OA
ATOM     24  O   UNL     1       4.756   0.888   4.315  1.00  0.00    -0.273 OA
ATOM     25  N   UNL     1       5.699  -1.184   3.974  1.00  0.00    -0.335 N 
ATOM     26  C   UNL     1       6.407  -1.120   5.236  1.00  0.00     0.147 C 
ENDBRANCH  17  18
ENDBRANCH  12  17
ENDBRANCH   7   9
ENDBRANCH   6   7
ENDBRANCH   5   6
ENDBRANCH   4   5
ENDBRANCH   3   4
ENDBRANCH   2   3
ENDBRANCH   1   2
BRANCH   1  27
ATOM     27  O   UNL     1       4.148  -6.138   3.701  1.00  0.00    -0.376 OA
BRANCH  27  28
ATOM     28  C   UNL     1       4.689  -7.228   4.433  1.00  0.00     0.202 C 
BRANCH  28  29
ATOM     29  C   UNL     1       4.182  -7.604   5.838  1.00  0.00     0.261 C 
BRANCH  29  30
ATOM     30  O   UNL     1       2.766  -7.542   6.052  1.00  0.00    -0.460 OA
BRANCH  30  31
ATOM     31  C   UNL     1       2.335  -6.501   6.802  1.00  0.00     0.338 C 
ATOM     32  O   UNL     1       3.018  -5.615   7.299  1.00  0.00    -0.246 OA
BRANCH  31  33
ATOM     33  C   UNL     1       0.861  -6.476   6.798  1.00  0.00     0.060 A 
ATOM     34  C   UNL     1       0.210  -5.396   6.188  1.00  0.00     0.016 A 
ATOM     35  C   UNL     1       0.127  -7.484   7.426  1.00  0.00     0.016 A 
ATOM     36  C   UNL     1      -1.181  -5.312   6.212  1.00  0.00     0.010 A 
ATOM     37  C   UNL     1      -1.267  -7.384   7.473  1.00  0.00     0.010 A 
ATOM     38  C   UNL     1      -1.925  -6.285   6.889  1.00  0.00    -0.014 A 
BRANCH  38  39
ATOM     39  C   UNL     1      -3.370  -6.065   7.134  1.00  0.00     0.031 A 
ATOM     40  C   UNL     1      -3.803  -5.533   8.472  1.00  0.00     0.074 A 
ATOM     41  C   UNL     1      -4.284  -6.323   6.181  1.00  0.00     0.049 A 
ATOM     42  N   UNL     1      -5.009  -5.307   8.923  1.00  0.00    -0.248 NA
ATOM     43  C   UNL     1      -2.729  -5.220   9.428  1.00  0.00     0.031 C 
ATOM     44  C   UNL     1      -3.987  -6.799   4.832  1.00  0.00     0.029 A 
ATOM     45  N   UNL     1      -5.652  -6.228   6.215  1.00  0.00    -0.354 N 
ATOM     46  C   UNL     1      -4.842  -4.840  10.222  1.00  0.00     0.074 A 
ATOM     47  C   UNL     1      -3.421  -4.844  10.493  1.00  0.00     0.031 C 
ATOM     48  C   UNL     1      -5.144  -6.970   4.168  1.00  0.00     0.029 A 
ATOM     49  C   UNL     1      -6.261  -6.652   5.058  1.00  0.00     0.049 A 
ATOM     50  H   UNL     1      -6.151  -5.889   6.993  1.00  0.00     0.167 HD
ATOM     51  C   UNL     1      -5.786  -4.443  11.109  1.00  0.00     0.031 A 
ATOM     52  C   UNL     1      -7.568  -6.793   4.759  1.00  0.00     0.031 A 
ATOM     53  C   UNL     1      -7.200  -4.468  10.844  1.00  0.00     0.049 A 
ATOM     54  C   UNL     1      -8.606  -6.419   5.785  1.00  0.00     0.074 A 
ATOM     55  C   UNL     1      -8.238  -4.070  11.668  1.00  0.00     0.029 A 
ATOM     56  N   UNL     1      -7.779  -4.934   9.671  1.00  0.00    -0.354 N 
ATOM     57  N   UNL     1      -8.436  -5.947   6.997  1.00  0.00    -0.248 NA
ATOM     58  C   UNL     1     -10.014  -6.587   5.397  1.00  0.00     0.031 C 
ATOM     59  C   UNL     1      -9.444  -4.360  11.023  1.00  0.00     0.029 A 
ATOM     60  C   UNL     1      -9.159  -4.867   9.764  1.00  0.00     0.049 A 
ATOM     61  H   UNL     1      -7.281  -5.263   8.888  1.00  0.00     0.167 HD
ATOM     62  C   UNL     1      -9.714  -5.738   7.508  1.00  0.00     0.074 A 
ATOM     63  C   UNL     1     -10.645  -6.122   6.467  1.00  0.00     0.031 C 
ATOM     64  C   UNL     1     -10.080  -5.263   8.726  1.00  0.00     0.031 A 
BRANCH  51  65
ATOM     65  C   UNL     1      -5.310  -4.005  12.471  1.00  0.00    -0.014 A 
ATOM     66  C   UNL     1      -4.564  -2.825  12.647  1.00  0.00     0.010 A 
ATOM     67  C   UNL     1      -5.614  -4.794  13.596  1.00  0.00     0.010 A 
ATOM     68  C   UNL     1      -4.077  -2.477  13.911  1.00  0.00     0.020 A 
ATOM     69  C   UNL     1      -5.159  -4.431  14.867  1.00  0.00     0.020 A 
ATOM     70  C   UNL     1      -4.372  -3.287  15.011  1.00  0.00     0.054 A 
BRANCH  70  71
ATOM     71  S   UNL     1      -3.715  -2.821  16.636  1.00  0.00     0.124 S 
ATOM     72  O   UNL     1      -2.292  -3.117  16.482  1.00  0.00    -0.237 OA
ATOM     73  O   UNL     1      -4.055  -1.403  16.724  1.00  0.00    -0.237 OA
ATOM     74  O   UNL     1      -4.434  -3.690  17.564  1.00  0.00    -0.744 OA
ENDBRANCH  70  71
ENDBRANCH  51  65
BRANCH  52  75
ATOM     75  C   UNL     1      -7.960  -7.331   3.427  1.00  0.00    -0.014 A 
ATOM     76  C   UNL     1      -8.560  -6.501   2.465  1.00  0.00     0.010 A 
ATOM     77  C   UNL     1      -7.696  -8.675   3.102  1.00  0.00     0.010 A 
ATOM     78  C   UNL     1      -8.884  -7.003   1.200  1.00  0.00     0.020 A 
ATOM     79  C   UNL     1      -7.991  -9.172   1.830  1.00  0.00     0.020 A 
ATOM     80  C   UNL     1      -8.586  -8.333   0.887  1.00  0.00     0.054 A 
BRANCH  80  81
ATOM     81  S   UNL     1      -8.930  -8.933  -0.791  1.00  0.00     0.124 S 
ATOM     82  O   UNL     1     -10.388  -8.988  -0.802  1.00  0.00    -0.237 OA
ATOM     83  O   UNL     1      -8.329  -7.893  -1.623  1.00  0.00    -0.237 OA
ATOM     84  O   UNL     1      -8.253 -10.227  -0.838  1.00  0.00    -0.744 OA
ENDBRANCH  80  81
ENDBRANCH  52  75
BRANCH  64  85
ATOM     85  C   UNL     1     -11.555  -5.098   8.998  1.00  0.00    -0.014 A 
ATOM     86  C   UNL     1     -12.400  -6.209   9.172  1.00  0.00     0.010 A 
ATOM     87  C   UNL     1     -12.091  -3.805   9.143  1.00  0.00     0.010 A 
ATOM     88  C   UNL     1     -13.758  -6.028   9.455  1.00  0.00     0.020 A 
ATOM     89  C   UNL     1     -13.440  -3.620   9.457  1.00  0.00     0.020 A 
ATOM     90  C   UNL     1     -14.269  -4.734   9.597  1.00  0.00     0.054 A 
BRANCH  90  91
ATOM     91  S   UNL     1     -16.024  -4.527  10.006  1.00  0.00     0.124 S 
ATOM     92  O   UNL     1     -16.675  -4.910   8.757  1.00  0.00    -0.237 OA
ATOM     93  O   UNL     1     -16.204  -5.456  11.120  1.00  0.00    -0.237 OA
ATOM     94  O   UNL     1     -16.135  -3.113  10.358  1.00  0.00    -0.744 OA
ENDBRANCH  90  91
ENDBRANCH  64  85
ENDBRANCH  38  39
ENDBRANCH  31  33
ENDBRANCH  30  31
ENDBRANCH  29  30
ENDBRANCH  28  29
ENDBRANCH  27  28
ENDBRANCH   1  27
TORSDOF 23
