REMARK SMILES Cc1ccc2oc(C(=O)N[C@@H]3C=C[C@H](C(=O)OCCOCCOCCOC(=O)c4ccc(-c5c6nc(c(-c7ccc(S(=O)(=O)[O-])cc7)c7ccc([nH]7)c(-c7ccc(S(=O)(=O)[O-])cc7)c7nc(c(-c8ccc(S(=O)(=O)[O-])cc8)c8ccc5[nH]8)C=C7)C=C6)cc4)C3)cc2c1
REMARK SMILES IDX 22 1 21 2 20 3 19 4 18 5 17 6 15 7 16 8 14 9 11 10 12 11
REMARK SMILES IDX 89 12 13 13 10 14 8 15 9 16 7 18 1 19 2 20 3 21 92 22 4 23
REMARK SMILES IDX 91 24 5 25 90 26 6 27 23 28 24 29 25 30 26 31 27 32 28 33
REMARK SMILES IDX 29 34 30 35 88 36 31 37 87 38 32 39 33 40 34 41 81 42 35 43
REMARK SMILES IDX 86 44 80 45 82 46 36 47 85 48 79 49 78 50 37 52 67 53 48 54
REMARK SMILES IDX 66 55 49 56 52 57 65 58 83 59 50 60 51 61 64 63 84 64 53 65
REMARK SMILES IDX 38 66 39 67 47 68 40 69 46 70 41 71 42 72 43 73 44 74 45 75
REMARK SMILES IDX 68 76 69 77 77 78 70 79 76 80 71 81 72 82 73 83 74 84 75 85
REMARK SMILES IDX 54 86 55 87 63 88 56 89 62 90 57 91 58 92 59 93 60 94 61 95
REMARK H PARENT 10 17 82 51 52 62
REMARK Flexibility Score: inf
ROOT
ATOM      1  C   UNL     1       0.631  -4.759   4.024  1.00  0.00     0.188 C 
ENDROOT
BRANCH   1   2
ATOM      2  C   UNL     1      -0.345  -4.009   3.092  1.00  0.00     0.188 C 
BRANCH   2   3
ATOM      3  O   UNL     1      -1.488  -4.776   2.762  1.00  0.00    -0.376 OA
BRANCH   3   4
ATOM      4  C   UNL     1      -1.504  -5.348   1.463  1.00  0.00     0.202 C 
BRANCH   4   5
ATOM      5  C   UNL     1      -0.415  -6.395   1.146  1.00  0.00     0.261 C 
BRANCH   5   6
ATOM      6  O   UNL     1       0.953  -6.000   1.398  1.00  0.00    -0.463 OA
BRANCH   6   7
ATOM      7  C   UNL     1       1.433  -5.005   0.608  1.00  0.00     0.312 C 
ATOM      8  O   UNL     1       0.790  -4.530  -0.319  1.00  0.00    -0.252 OA
BRANCH   7   9
ATOM      9  C   UNL     1       2.754  -4.414   1.148  1.00  0.00     0.124 C 
ATOM     10  C   UNL     1       3.795  -3.065  -0.580  1.00  0.00     0.106 C 
ATOM     11  C   UNL     1       4.671  -4.194  -0.190  1.00  0.00    -0.006 C 
ATOM     12  C   UNL     1       2.877  -2.971   0.643  1.00  0.00     0.048 C 
ATOM     13  C   UNL     1       4.082  -4.969   0.735  1.00  0.00    -0.014 C 
BRANCH  10  14
ATOM     14  N   UNL     1       3.137  -3.231  -1.880  1.00  0.00    -0.343 N 
ATOM     15  C   UNL     1       2.507  -4.204  -2.641  1.00  0.00     0.287 C 
ATOM     16  O   UNL     1       1.852  -3.763  -3.591  1.00  0.00    -0.266 OA
ATOM     17  H   UNL     1       3.146  -2.377  -2.370  1.00  0.00     0.164 HD
BRANCH  15  18
ATOM     18  C   UNL     1       2.589  -5.633  -2.375  1.00  0.00     0.192 A 
ATOM     19  C   UNL     1       2.506 -10.925   0.421  1.00  0.00     0.044 C 
ATOM     20  C   UNL     1       2.295  -9.838  -0.594  1.00  0.00    -0.050 A 
ATOM     21  C   UNL     1       1.251  -9.901  -1.531  1.00  0.00     0.007 A 
ATOM     22  C   UNL     1       3.128  -8.711  -0.558  1.00  0.00     0.015 A 
ATOM     23  C   UNL     1       0.940  -8.812  -2.368  1.00  0.00     0.048 A 
ATOM     24  C   UNL     1       2.869  -7.649  -1.436  1.00  0.00     0.021 A 
ATOM     25  C   UNL     1       1.742  -7.682  -2.235  1.00  0.00     0.135 A 
ATOM     26  C   UNL     1       3.524  -6.451  -1.778  1.00  0.00     0.065 A 
ATOM     27  O   UNL     1       1.555  -6.455  -2.810  1.00  0.00    -0.451 OA
ENDBRANCH  15  18
ENDBRANCH  10  14
ENDBRANCH   7   9
ENDBRANCH   6   7
ENDBRANCH   5   6
ENDBRANCH   4   5
ENDBRANCH   3   4
ENDBRANCH   2   3
ENDBRANCH   1   2
BRANCH   1  28
ATOM     28  O   UNL     1       0.230  -5.948   4.681  1.00  0.00    -0.376 OA
BRANCH  28  29
ATOM     29  C   UNL     1      -1.056  -5.986   5.267  1.00  0.00     0.202 C 
BRANCH  29  30
ATOM     30  C   UNL     1      -1.462  -4.880   6.258  1.00  0.00     0.261 C 
BRANCH  30  31
ATOM     31  O   UNL     1      -1.160  -3.523   5.874  1.00  0.00    -0.460 OA
BRANCH  31  32
ATOM     32  C   UNL     1      -0.116  -2.933   6.511  1.00  0.00     0.338 C 
ATOM     33  O   UNL     1       0.573  -3.427   7.395  1.00  0.00    -0.246 OA
BRANCH  32  34
ATOM     34  C   UNL     1       0.233  -1.652   5.849  1.00  0.00     0.060 A 
ATOM     35  C   UNL     1       1.499  -1.510   5.254  1.00  0.00     0.016 A 
ATOM     36  C   UNL     1      -0.652  -0.575   5.860  1.00  0.00     0.016 A 
ATOM     37  C   UNL     1       1.887  -0.294   4.684  1.00  0.00     0.010 A 
ATOM     38  C   UNL     1      -0.248   0.654   5.321  1.00  0.00     0.010 A 
ATOM     39  C   UNL     1       1.033   0.811   4.756  1.00  0.00    -0.014 A 
BRANCH  39  40
ATOM     40  C   UNL     1       1.543   2.172   4.438  1.00  0.00     0.031 A 
ATOM     41  C   UNL     1       1.988   3.053   5.577  1.00  0.00     0.074 A 
ATOM     42  C   UNL     1       1.617   2.628   3.173  1.00  0.00     0.049 A 
ATOM     43  N   UNL     1       2.382   4.299   5.559  1.00  0.00    -0.248 NA
ATOM     44  C   UNL     1       1.982   2.441   6.917  1.00  0.00     0.031 C 
ATOM     45  C   UNL     1       1.278   1.865   1.974  1.00  0.00     0.029 A 
ATOM     46  N   UNL     1       1.991   3.861   2.693  1.00  0.00    -0.354 N 
ATOM     47  C   UNL     1       2.652   4.629   6.884  1.00  0.00     0.074 A 
ATOM     48  C   UNL     1       2.354   3.458   7.679  1.00  0.00     0.031 C 
ATOM     49  C   UNL     1       1.444   2.653   0.895  1.00  0.00     0.029 A 
ATOM     50  C   UNL     1       1.860   3.987   1.330  1.00  0.00     0.049 A 
ATOM     51  H   UNL     1       2.322   4.585   3.272  1.00  0.00     0.167 HD
ATOM     52  C   UNL     1       3.105   5.799   7.394  1.00  0.00     0.031 A 
ATOM     53  C   UNL     1       2.026   5.060   0.530  1.00  0.00     0.031 A 
ATOM     54  C   UNL     1       3.383   6.971   6.607  1.00  0.00     0.049 A 
ATOM     55  C   UNL     1       2.443   6.381   1.131  1.00  0.00     0.074 A 
ATOM     56  C   UNL     1       3.858   8.199   7.033  1.00  0.00     0.029 A 
ATOM     57  N   UNL     1       3.202   7.066   5.236  1.00  0.00    -0.354 N 
ATOM     58  N   UNL     1       2.714   6.671   2.382  1.00  0.00    -0.248 NA
ATOM     59  C   UNL     1       2.582   7.518   0.208  1.00  0.00     0.031 C 
ATOM     60  C   UNL     1       3.900   9.058   5.930  1.00  0.00     0.029 A 
ATOM     61  C   UNL     1       3.525   8.342   4.804  1.00  0.00     0.049 A 
ATOM     62  H   UNL     1       2.889   6.336   4.655  1.00  0.00     0.167 HD
ATOM     63  C   UNL     1       3.089   8.013   2.388  1.00  0.00     0.074 A 
ATOM     64  C   UNL     1       3.022   8.473   1.017  1.00  0.00     0.031 C 
ATOM     65  C   UNL     1       3.460   8.792   3.436  1.00  0.00     0.031 A 
BRANCH  52  66
ATOM     66  C   UNL     1       3.287   5.882   8.888  1.00  0.00    -0.014 A 
ATOM     67  C   UNL     1       4.308   5.170   9.543  1.00  0.00     0.010 A 
ATOM     68  C   UNL     1       2.443   6.716   9.644  1.00  0.00     0.010 A 
ATOM     69  C   UNL     1       4.455   5.259  10.930  1.00  0.00     0.020 A 
ATOM     70  C   UNL     1       2.606   6.833  11.027  1.00  0.00     0.020 A 
ATOM     71  C   UNL     1       3.602   6.090  11.663  1.00  0.00     0.054 A 
BRANCH  71  72
ATOM     72  S   UNL     1       3.830   6.201  13.459  1.00  0.00     0.124 S 
ATOM     73  O   UNL     1       3.373   4.887  13.903  1.00  0.00    -0.237 OA
ATOM     74  O   UNL     1       5.266   6.442  13.583  1.00  0.00    -0.237 OA
ATOM     75  O   UNL     1       2.977   7.321  13.850  1.00  0.00    -0.744 OA
ENDBRANCH  71  72
ENDBRANCH  52  66
BRANCH  53  76
ATOM     76  C   UNL     1       1.778   4.947  -0.936  1.00  0.00    -0.014 A 
ATOM     77  C   UNL     1       2.837   5.070  -1.854  1.00  0.00     0.010 A 
ATOM     78  C   UNL     1       0.476   4.734  -1.425  1.00  0.00     0.010 A 
ATOM     79  C   UNL     1       2.596   5.000  -3.230  1.00  0.00     0.020 A 
ATOM     80  C   UNL     1       0.235   4.631  -2.798  1.00  0.00     0.020 A 
ATOM     81  C   UNL     1       1.296   4.777  -3.693  1.00  0.00     0.054 A 
BRANCH  81  82
ATOM     82  S   UNL     1       1.018   4.643  -5.481  1.00  0.00     0.124 S 
ATOM     83  O   UNL     1       1.217   6.020  -5.923  1.00  0.00    -0.237 OA
ATOM     84  O   UNL     1       2.051   3.693  -5.886  1.00  0.00    -0.237 OA
ATOM     85  O   UNL     1      -0.352   4.146  -5.578  1.00  0.00    -0.744 OA
ENDBRANCH  81  82
ENDBRANCH  53  76
BRANCH  65  86
ATOM     86  C   UNL     1       3.875  10.213   3.145  1.00  0.00    -0.014 A 
ATOM     87  C   UNL     1       2.942  11.188   2.750  1.00  0.00     0.010 A 
ATOM     88  C   UNL     1       5.218  10.593   3.334  1.00  0.00     0.010 A 
ATOM     89  C   UNL     1       3.349  12.506   2.518  1.00  0.00     0.020 A 
ATOM     90  C   UNL     1       5.623  11.915   3.135  1.00  0.00     0.020 A 
ATOM     91  C   UNL     1       4.688  12.861   2.714  1.00  0.00     0.054 A 
BRANCH  91  92
ATOM     92  S   UNL     1       5.182  14.587   2.450  1.00  0.00     0.124 S 
ATOM     93  O   UNL     1       5.106  14.707   0.996  1.00  0.00    -0.237 OA
ATOM     94  O   UNL     1       4.167  15.328   3.195  1.00  0.00    -0.237 OA
ATOM     95  O   UNL     1       6.530  14.653   3.010  1.00  0.00    -0.744 OA
ENDBRANCH  91  92
ENDBRANCH  65  86
ENDBRANCH  39  40
ENDBRANCH  32  34
ENDBRANCH  31  32
ENDBRANCH  30  31
ENDBRANCH  29  30
ENDBRANCH  28  29
ENDBRANCH   1  28
TORSDOF 22
