REMARK SMILES CC(C)(C)OC(=O)N1C[C@H](Oc2ccncc2)C[C@H]1C(=O)OCCOCCOCCOC(=O)c1ccc(-c2c3nc(c(-c4ccc(S(=O)(=O)[O-])cc4)c4ccc([nH]4)c(-c4ccc(S(=O)(=O)[O-])cc4)c4nc(c(-c5ccc(S(=O)(=O)[O-])cc5)c5ccc2[nH]5)C=C4)C=C3)cc1
REMARK SMILES IDX 26 1 25 2 24 3 23 4 22 5 20 6 21 7 19 8 8 9 9 10 10 11 18 12
REMARK SMILES IDX 6 13 7 14 5 15 2 16 1 17 3 18 4 19 11 20 12 21 13 22 17 23
REMARK SMILES IDX 14 24 16 25 15 26 27 27 28 28 29 29 30 30 31 31 32 32 33 33
REMARK SMILES IDX 34 34 35 35 93 36 36 37 92 38 37 39 38 40 39 41 86 42 40 43
REMARK SMILES IDX 91 44 85 45 87 46 41 47 90 48 84 49 83 50 42 52 72 53 53 54
REMARK SMILES IDX 71 55 54 56 57 57 70 58 88 59 55 60 56 61 69 63 89 64 58 65
REMARK SMILES IDX 43 66 44 67 52 68 45 69 51 70 46 71 47 72 48 73 49 74 50 75
REMARK SMILES IDX 73 76 74 77 82 78 75 79 81 80 76 81 77 82 78 83 79 84 80 85
REMARK SMILES IDX 59 86 60 87 68 88 61 89 67 90 62 91 63 92 64 93 65 94 66 95
REMARK H PARENT 87 51 57 62
REMARK Flexibility Score: inf
ROOT
ATOM      1  C   UNL     1      -0.897   7.213   5.462  1.00  0.00     0.188 C 
ENDROOT
BRANCH   1   2
ATOM      2  O   UNL     1      -0.947   8.508   4.886  1.00  0.00    -0.376 OA
BRANCH   2   3
ATOM      3  C   UNL     1      -0.868   8.648   3.471  1.00  0.00     0.202 C 
BRANCH   3   4
ATOM      4  C   UNL     1       0.185   7.855   2.694  1.00  0.00     0.261 C 
BRANCH   4   5
ATOM      5  O   UNL     1       0.050   6.450   2.930  1.00  0.00    -0.462 OA
BRANCH   5   6
ATOM      6  C   UNL     1       1.202   5.756   3.127  1.00  0.00     0.329 C 
ATOM      7  O   UNL     1       2.334   6.206   3.001  1.00  0.00    -0.250 OA
BRANCH   6   8
ATOM      8  C   UNL     1       0.886   4.328   3.579  1.00  0.00     0.202 C 
ATOM      9  N   UNL     1       1.555   3.397   2.704  1.00  0.00    -0.291 N 
ATOM     10  C   UNL     1       2.742   2.845   3.324  1.00  0.00     0.169 C 
ATOM     11  C   UNL     1       2.427   2.891   4.820  1.00  0.00     0.195 C 
ATOM     12  C   UNL     1       1.419   4.042   4.989  1.00  0.00     0.084 C 
BRANCH   9  13
ATOM     13  C   UNL     1       1.004   3.137   1.484  1.00  0.00     0.411 C 
ATOM     14  O   UNL     1       0.135   3.850   0.994  1.00  0.00    -0.224 OA
BRANCH  13  15
ATOM     15  O   UNL     1       1.455   1.986   0.940  1.00  0.00    -0.444 OA
BRANCH  15  16
ATOM     16  C   UNL     1       0.830   1.495  -0.273  1.00  0.00     0.106 C 
ATOM     17  C   UNL     1       1.386   0.075  -0.445  1.00  0.00     0.056 C 
ATOM     18  C   UNL     1       1.259   2.360  -1.461  1.00  0.00     0.056 C 
ATOM     19  C   UNL     1      -0.702   1.391  -0.170  1.00  0.00     0.056 C 
ENDBRANCH  15  16
ENDBRANCH  13  15
ENDBRANCH   9  13
BRANCH  11  20
ATOM     20  O   UNL     1       2.023   1.648   5.424  1.00  0.00    -0.488 OA
BRANCH  20  21
ATOM     21  C   UNL     1       0.871   1.053   5.001  1.00  0.00     0.122 A 
ATOM     22  C   UNL     1       0.800   0.359   3.802  1.00  0.00     0.066 A 
ATOM     23  C   UNL     1      -0.196   0.986   5.888  1.00  0.00     0.066 A 
ATOM     24  C   UNL     1      -0.379  -0.295   3.492  1.00  0.00     0.115 A 
ATOM     25  C   UNL     1      -1.329   0.291   5.496  1.00  0.00     0.115 A 
ATOM     26  N   UNL     1      -1.453  -0.335   4.306  1.00  0.00    -0.264 NA
ENDBRANCH  20  21
ENDBRANCH  11  20
ENDBRANCH   6   8
ENDBRANCH   5   6
ENDBRANCH   4   5
ENDBRANCH   3   4
ENDBRANCH   2   3
ENDBRANCH   1   2
BRANCH   1  27
ATOM     27  C   UNL     1      -1.953   6.157   5.076  1.00  0.00     0.188 C 
BRANCH  27  28
ATOM     28  O   UNL     1      -2.888   6.442   4.066  1.00  0.00    -0.376 OA
BRANCH  28  29
ATOM     29  C   UNL     1      -3.963   7.334   4.298  1.00  0.00     0.202 C 
BRANCH  29  30
ATOM     30  C   UNL     1      -4.467   7.800   5.677  1.00  0.00     0.261 C 
BRANCH  30  31
ATOM     31  O   UNL     1      -3.581   7.678   6.790  1.00  0.00    -0.460 OA
BRANCH  31  32
ATOM     32  C   UNL     1      -3.876   6.676   7.656  1.00  0.00     0.338 C 
ATOM     33  O   UNL     1      -4.782   5.867   7.568  1.00  0.00    -0.246 OA
BRANCH  32  34
ATOM     34  C   UNL     1      -2.787   6.577   8.645  1.00  0.00     0.060 A 
ATOM     35  C   UNL     1      -2.039   5.392   8.701  1.00  0.00     0.016 A 
ATOM     36  C   UNL     1      -2.512   7.635   9.512  1.00  0.00     0.016 A 
ATOM     37  C   UNL     1      -1.019   5.257   9.641  1.00  0.00     0.010 A 
ATOM     38  C   UNL     1      -1.506   7.488  10.469  1.00  0.00     0.010 A 
ATOM     39  C   UNL     1      -0.771   6.292  10.553  1.00  0.00    -0.014 A 
BRANCH  39  40
ATOM     40  C   UNL     1       0.150   6.075  11.693  1.00  0.00     0.031 A 
ATOM     41  C   UNL     1      -0.426   5.655  13.015  1.00  0.00     0.074 A 
ATOM     42  C   UNL     1       1.474   6.267  11.561  1.00  0.00     0.049 A 
ATOM     43  N   UNL     1       0.177   5.480  14.162  1.00  0.00    -0.248 NA
ATOM     44  C   UNL     1      -1.875   5.401  13.046  1.00  0.00     0.031 C 
ATOM     45  C   UNL     1       2.158   6.636  10.324  1.00  0.00     0.029 A 
ATOM     46  N   UNL     1       2.477   6.193  12.495  1.00  0.00    -0.354 N 
ATOM     47  C   UNL     1      -0.819   5.106  15.056  1.00  0.00     0.074 A 
ATOM     48  C   UNL     1      -2.067   5.099  14.321  1.00  0.00     0.031 C 
ATOM     49  C   UNL     1       3.470   6.777  10.579  1.00  0.00     0.029 A 
ATOM     50  C   UNL     1       3.711   6.544  12.003  1.00  0.00     0.049 A 
ATOM     51  H   UNL     1       2.327   5.914  13.427  1.00  0.00     0.167 HD
ATOM     52  C   UNL     1      -0.707   4.798  16.370  1.00  0.00     0.031 A 
ATOM     53  C   UNL     1       4.892   6.694  12.635  1.00  0.00     0.031 A 
ATOM     54  C   UNL     1       0.527   4.840  17.107  1.00  0.00     0.049 A 
ATOM     55  C   UNL     1       4.981   6.434  14.116  1.00  0.00     0.074 A 
ATOM     56  C   UNL     1       0.746   4.528  18.437  1.00  0.00     0.029 A 
ATOM     57  N   UNL     1       1.748   5.238  16.583  1.00  0.00    -0.354 N 
ATOM     58  N   UNL     1       4.038   6.046  14.943  1.00  0.00    -0.248 NA
ATOM     59  C   UNL     1       6.293   6.631  14.749  1.00  0.00     0.031 C 
ATOM     60  C   UNL     1       2.088   4.797  18.733  1.00  0.00     0.029 A 
ATOM     61  C   UNL     1       2.718   5.217  17.572  1.00  0.00     0.049 A 
ATOM     62  H   UNL     1       1.903   5.497  15.646  1.00  0.00     0.167 HD
ATOM     63  C   UNL     1       4.646   5.940  16.190  1.00  0.00     0.074 A 
ATOM     64  C   UNL     1       6.041   6.287  16.005  1.00  0.00     0.031 C 
ATOM     65  C   UNL     1       4.099   5.585  17.380  1.00  0.00     0.031 A 
BRANCH  52  66
ATOM     66  C   UNL     1      -1.975   4.443  17.099  1.00  0.00    -0.014 A 
ATOM     67  C   UNL     1      -2.644   3.230  16.855  1.00  0.00     0.010 A 
ATOM     68  C   UNL     1      -2.510   5.343  18.039  1.00  0.00     0.010 A 
ATOM     69  C   UNL     1      -3.853   2.948  17.496  1.00  0.00     0.020 A 
ATOM     70  C   UNL     1      -3.704   5.052  18.703  1.00  0.00     0.020 A 
ATOM     71  C   UNL     1      -4.380   3.866  18.409  1.00  0.00     0.054 A 
BRANCH  71  72
ATOM     72  S   UNL     1      -5.959   3.484  19.216  1.00  0.00     0.124 S 
ATOM     73  O   UNL     1      -6.912   3.710  18.132  1.00  0.00    -0.237 OA
ATOM     74  O   UNL     1      -5.785   2.091  19.619  1.00  0.00    -0.237 OA
ATOM     75  O   UNL     1      -6.027   4.444  20.316  1.00  0.00    -0.744 OA
ENDBRANCH  71  72
ENDBRANCH  52  66
BRANCH  53  76
ATOM     76  C   UNL     1       6.084   7.141  11.865  1.00  0.00    -0.014 A 
ATOM     77  C   UNL     1       7.131   6.249  11.581  1.00  0.00     0.010 A 
ATOM     78  C   UNL     1       6.157   8.461  11.380  1.00  0.00     0.010 A 
ATOM     79  C   UNL     1       8.228   6.665  10.821  1.00  0.00     0.020 A 
ATOM     80  C   UNL     1       7.240   8.874  10.600  1.00  0.00     0.020 A 
ATOM     81  C   UNL     1       8.271   7.973  10.327  1.00  0.00     0.054 A 
BRANCH  81  82
ATOM     82  S   UNL     1       9.659   8.460   9.264  1.00  0.00     0.124 S 
ATOM     83  O   UNL     1      10.752   8.573  10.223  1.00  0.00    -0.237 OA
ATOM     84  O   UNL     1       9.747   7.340   8.330  1.00  0.00    -0.237 OA
ATOM     85  O   UNL     1       9.210   9.720   8.673  1.00  0.00    -0.744 OA
ENDBRANCH  81  82
ENDBRANCH  53  76
BRANCH  65  86
ATOM     86  C   UNL     1       5.009   5.543  18.580  1.00  0.00    -0.014 A 
ATOM     87  C   UNL     1       5.477   6.726  19.179  1.00  0.00     0.010 A 
ATOM     88  C   UNL     1       5.352   4.304  19.152  1.00  0.00     0.010 A 
ATOM     89  C   UNL     1       6.293   6.669  20.313  1.00  0.00     0.020 A 
ATOM     90  C   UNL     1       6.146   4.244  20.301  1.00  0.00     0.020 A 
ATOM     91  C   UNL     1       6.622   5.428  20.867  1.00  0.00     0.054 A 
BRANCH  91  92
ATOM     92  S   UNL     1       7.645   5.383  22.365  1.00  0.00     0.124 S 
ATOM     93  O   UNL     1       8.967   5.716  21.841  1.00  0.00    -0.237 OA
ATOM     94  O   UNL     1       7.027   6.405  23.207  1.00  0.00    -0.237 OA
ATOM     95  O   UNL     1       7.493   4.012  22.848  1.00  0.00    -0.744 OA
ENDBRANCH  91  92
ENDBRANCH  65  86
ENDBRANCH  39  40
ENDBRANCH  32  34
ENDBRANCH  31  32
ENDBRANCH  30  31
ENDBRANCH  29  30
ENDBRANCH  28  29
ENDBRANCH  27  28
ENDBRANCH   1  27
TORSDOF 25
