REMARK SMILES O=C(OCCOCCOCCOC(=O)c1ccc(-c2c3nc(c(-c4ccc(S(=O)(=O)[O-])cc4)c4ccc([nH]4)c(-c4ccc(S(=O)(=O)[O-])cc4)c4nc(c(-c5ccc(S(=O)(=O)[O-])cc5)c5ccc2[nH]5)C=C4)C=C3)cc1)C1=Cc2cc(Cl)cc(Cl)c2O[C@@H]1C(F)(F)F
REMARK SMILES IDX 8 1 7 2 6 3 5 4 4 5 3 6 2 7 1 8 75 9 76 10 86 11 77 12 85 13
REMARK SMILES IDX 78 14 84 15 79 16 82 17 80 18 81 19 83 20 87 21 88 22 89 23
REMARK SMILES IDX 90 24 9 25 10 26 11 27 12 28 13 29 14 30 15 31 16 32 74 33
REMARK SMILES IDX 17 34 73 35 18 36 19 37 20 38 67 39 21 40 72 41 66 42 68 43
REMARK SMILES IDX 22 44 71 45 65 46 64 47 23 49 53 50 34 51 52 52 35 53 38 54
REMARK SMILES IDX 51 55 69 56 36 57 37 58 50 60 70 61 39 62 24 63 25 64 33 65
REMARK SMILES IDX 26 66 32 67 27 68 28 69 29 70 30 71 31 72 54 73 55 74 63 75
REMARK SMILES IDX 56 76 62 77 57 78 58 79 59 80 60 81 61 82 40 83 41 84 49 85
REMARK SMILES IDX 42 86 48 87 43 88 44 89 45 90 46 91 47 92
REMARK H PARENT 68 48 38 59
REMARK Flexibility Score: inf
ROOT
ATOM      1  C   UNL     1       2.379   3.022   1.658  1.00  0.00     0.188 C 
ENDROOT
BRANCH   1   2
ATOM      2  C   UNL     1       2.628   1.518   1.886  1.00  0.00     0.188 C 
BRANCH   2   3
ATOM      3  O   UNL     1       3.929   0.907   1.720  1.00  0.00    -0.376 OA
BRANCH   3   4
ATOM      4  C   UNL     1       4.462  -0.210   0.676  1.00  0.00     0.202 C 
BRANCH   4   5
ATOM      5  C   UNL     1       3.729  -0.695  -1.318  1.00  0.00     0.261 C 
BRANCH   5   6
ATOM      6  O   UNL     1       2.914  -1.946  -1.703  1.00  0.00    -0.460 OA
BRANCH   6   7
ATOM      7  C   UNL     1       3.167  -3.000  -0.918  1.00  0.00     0.338 C 
ATOM      8  O   UNL     1       2.678  -4.098  -0.907  1.00  0.00    -0.246 OA
BRANCH   7   9
ATOM      9  C   UNL     1       3.939  -2.266   0.052  1.00  0.00     0.087 C 
ATOM     10  C   UNL     1       5.319  -2.013  -0.436  1.00  0.00     0.027 C 
ATOM     11  C   UNL     1       2.616  -0.893   0.392  1.00  0.00     0.316 C 
ATOM     12  C   UNL     1       5.906  -0.383  -0.987  1.00  0.00     0.020 A 
ATOM     13  O   UNL     1       3.191   0.824  -0.288  1.00  0.00    -0.474 OA
ATOM     14  C   UNL     1       7.161  -0.263  -1.520  1.00  0.00     0.032 A 
ATOM     15  C   UNL     1       4.872   1.013  -0.971  1.00  0.00     0.146 A 
ATOM     16  C   UNL     1       7.482   1.023  -1.993  1.00  0.00     0.043 A 
ATOM     17  C   UNL     1       5.275   2.215  -1.486  1.00  0.00     0.085 A 
ATOM     18  Cl  UNL     1       9.058   1.221  -2.695  1.00  0.00    -0.084 Cl
ATOM     19  C   UNL     1       6.603   2.186  -1.978  1.00  0.00     0.045 A 
ATOM     20  Cl  UNL     1       4.312   3.601  -1.666  1.00  0.00    -0.080 Cl
BRANCH  11  21
ATOM     21  C   UNL     1       2.179  -1.345   1.878  1.00  0.00     0.430 C 
ATOM     22  F   UNL     1       1.372  -0.528   2.570  1.00  0.00    -0.167 F 
ATOM     23  F   UNL     1       1.462  -2.499   1.738  1.00  0.00    -0.167 F 
ATOM     24  F   UNL     1       3.219  -1.677   2.679  1.00  0.00    -0.167 F 
ENDBRANCH  11  21
ENDBRANCH   7   9
ENDBRANCH   6   7
ENDBRANCH   5   6
ENDBRANCH   4   5
ENDBRANCH   3   4
ENDBRANCH   2   3
ENDBRANCH   1   2
BRANCH   1  25
ATOM     25  O   UNL     1       3.423   3.885   1.281  1.00  0.00    -0.376 OA
BRANCH  25  26
ATOM     26  C   UNL     1       4.666   3.759   1.947  1.00  0.00     0.202 C 
BRANCH  26  27
ATOM     27  C   UNL     1       4.656   3.969   3.462  1.00  0.00     0.261 C 
BRANCH  27  28
ATOM     28  O   UNL     1       4.147   2.830   4.182  1.00  0.00    -0.460 OA
BRANCH  28  29
ATOM     29  C   UNL     1       3.021   3.033   4.909  1.00  0.00     0.338 C 
ATOM     30  O   UNL     1       2.389   4.071   5.008  1.00  0.00    -0.246 OA
BRANCH  29  31
ATOM     31  C   UNL     1       2.541   1.747   5.460  1.00  0.00     0.060 A 
ATOM     32  C   UNL     1       1.198   1.399   5.249  1.00  0.00     0.016 A 
ATOM     33  C   UNL     1       3.379   0.916   6.207  1.00  0.00     0.016 A 
ATOM     34  C   UNL     1       0.677   0.243   5.825  1.00  0.00     0.010 A 
ATOM     35  C   UNL     1       2.846  -0.224   6.817  1.00  0.00     0.010 A 
ATOM     36  C   UNL     1       1.482  -0.532   6.669  1.00  0.00    -0.014 A 
BRANCH  36  37
ATOM     37  C   UNL     1       0.810  -1.432   7.638  1.00  0.00     0.031 A 
ATOM     38  C   UNL     1       0.395  -0.826   8.955  1.00  0.00     0.074 A 
ATOM     39  C   UNL     1       0.521  -2.712   7.351  1.00  0.00     0.049 A 
ATOM     40  N   UNL     1      -0.271  -1.360   9.945  1.00  0.00    -0.248 NA
ATOM     41  C   UNL     1       0.781   0.579   9.181  1.00  0.00     0.031 C 
ATOM     42  C   UNL     1       0.831  -3.393   6.095  1.00  0.00     0.029 A 
ATOM     43  N   UNL     1      -0.114  -3.667   8.105  1.00  0.00    -0.354 N 
ATOM     44  C   UNL     1      -0.386  -0.357  10.902  1.00  0.00     0.074 A 
ATOM     45  C   UNL     1       0.309   0.803  10.395  1.00  0.00     0.031 C 
ATOM     46  C   UNL     1       0.383  -4.661   6.167  1.00  0.00     0.029 A 
ATOM     47  C   UNL     1      -0.227  -4.885   7.477  1.00  0.00     0.049 A 
ATOM     48  H   UNL     1      -0.456  -3.496   9.012  1.00  0.00     0.167 HD
ATOM     49  C   UNL     1      -1.020  -0.394  12.097  1.00  0.00     0.031 A 
ATOM     50  C   UNL     1      -0.762  -6.042   7.917  1.00  0.00     0.031 A 
ATOM     51  C   UNL     1      -1.677  -1.562  12.613  1.00  0.00     0.049 A 
ATOM     52  C   UNL     1      -1.396  -6.082   9.287  1.00  0.00     0.074 A 
ATOM     53  C   UNL     1      -2.353  -1.712  13.810  1.00  0.00     0.029 A 
ATOM     54  N   UNL     1      -1.724  -2.789  11.967  1.00  0.00    -0.354 N 
ATOM     55  N   UNL     1      -1.534  -5.115  10.166  1.00  0.00    -0.248 NA
ATOM     56  C   UNL     1      -1.967  -7.367   9.716  1.00  0.00     0.031 C 
ATOM     57  C   UNL     1      -2.748  -3.049  13.920  1.00  0.00     0.029 A 
ATOM     58  C   UNL     1      -2.393  -3.710  12.754  1.00  0.00     0.049 A 
ATOM     59  H   UNL     1      -1.339  -2.977  11.081  1.00  0.00     0.167 HD
ATOM     60  C   UNL     1      -2.247  -5.664  11.229  1.00  0.00     0.074 A 
ATOM     61  C   UNL     1      -2.518  -7.043  10.878  1.00  0.00     0.031 C 
ATOM     62  C   UNL     1      -2.653  -5.080  12.385  1.00  0.00     0.031 A 
BRANCH  49  63
ATOM     63  C   UNL     1      -0.980   0.853  12.941  1.00  0.00    -0.014 A 
ATOM     64  C   UNL     1      -1.669   2.020  12.563  1.00  0.00     0.010 A 
ATOM     65  C   UNL     1      -0.246   0.852  14.142  1.00  0.00     0.010 A 
ATOM     66  C   UNL     1      -1.592   3.174  13.349  1.00  0.00     0.020 A 
ATOM     67  C   UNL     1      -0.194   1.992  14.947  1.00  0.00     0.020 A 
ATOM     68  C   UNL     1      -0.855   3.151  14.537  1.00  0.00     0.054 A 
BRANCH  68  69
ATOM     69  S   UNL     1      -0.793   4.654  15.551  1.00  0.00     0.124 S 
ATOM     70  O   UNL     1       0.036   5.536  14.734  1.00  0.00    -0.237 OA
ATOM     71  O   UNL     1      -2.201   5.029  15.650  1.00  0.00    -0.237 OA
ATOM     72  O   UNL     1      -0.181   4.206  16.799  1.00  0.00    -0.744 OA
ENDBRANCH  68  69
ENDBRANCH  49  63
BRANCH  50  73
ATOM     73  C   UNL     1      -0.735  -7.260   7.056  1.00  0.00    -0.014 A 
ATOM     74  C   UNL     1      -1.924  -7.812   6.546  1.00  0.00     0.010 A 
ATOM     75  C   UNL     1       0.488  -7.890   6.758  1.00  0.00     0.010 A 
ATOM     76  C   UNL     1      -1.893  -8.982   5.777  1.00  0.00     0.020 A 
ATOM     77  C   UNL     1       0.526  -9.041   5.965  1.00  0.00     0.020 A 
ATOM     78  C   UNL     1      -0.667  -9.587   5.489  1.00  0.00     0.054 A 
BRANCH  78  79
ATOM     79  S   UNL     1      -0.649 -11.081   4.458  1.00  0.00     0.124 S 
ATOM     80  O   UNL     1      -1.236 -12.075   5.350  1.00  0.00    -0.237 OA
ATOM     81  O   UNL     1      -1.475 -10.686   3.319  1.00  0.00    -0.237 OA
ATOM     82  O   UNL     1       0.768 -11.271   4.155  1.00  0.00    -0.744 OA
ENDBRANCH  78  79
ENDBRANCH  50  73
BRANCH  62  83
ATOM     83  C   UNL     1      -3.488  -5.907  13.330  1.00  0.00    -0.014 A 
ATOM     84  C   UNL     1      -2.952  -7.000  14.034  1.00  0.00     0.010 A 
ATOM     85  C   UNL     1      -4.832  -5.549  13.546  1.00  0.00     0.010 A 
ATOM     86  C   UNL     1      -3.760  -7.751  14.893  1.00  0.00     0.020 A 
ATOM     87  C   UNL     1      -5.632  -6.273  14.433  1.00  0.00     0.020 A 
ATOM     88  C   UNL     1      -5.096  -7.385  15.084  1.00  0.00     0.054 A 
BRANCH  88  89
ATOM     89  S   UNL     1      -6.119  -8.367  16.213  1.00  0.00     0.124 S 
ATOM     90  O   UNL     1      -6.317  -9.597  15.451  1.00  0.00    -0.237 OA
ATOM     91  O   UNL     1      -5.267  -8.489  17.393  1.00  0.00    -0.237 OA
ATOM     92  O   UNL     1      -7.316  -7.550  16.397  1.00  0.00    -0.744 OA
ENDBRANCH  88  89
ENDBRANCH  62  83
ENDBRANCH  36  37
ENDBRANCH  29  31
ENDBRANCH  28  29
ENDBRANCH  27  28
ENDBRANCH  26  27
ENDBRANCH  25  26
ENDBRANCH   1  25
TORSDOF 21
