REMARK SMILES Cc1ccc(C(F)(F)F)cc1/C=C/C(=O)OCCOCCOCCOC(=O)c1ccc(-c2c3nc(c(-c4ccc(S(=O)(=O)[O-])cc4)c4ccc([nH]4)c(-c4ccc(S(=O)(=O)[O-])cc4)c4nc(c(-c5ccc(S(=O)(=O)[O-])cc5)c5ccc2[nH]5)C=C4)C=C3)cc1
REMARK SMILES IDX 21 1 20 2 19 3 18 4 17 5 16 6 14 7 15 8 13 9 12 10 11 11
REMARK SMILES IDX 1 12 2 13 3 14 4 15 10 16 5 17 6 18 7 19 8 20 9 21 22 22
REMARK SMILES IDX 23 23 24 24 25 25 26 26 27 27 28 28 29 29 87 30 30 31 86 32
REMARK SMILES IDX 31 33 32 34 33 35 80 36 34 37 85 38 79 39 81 40 35 41 84 42
REMARK SMILES IDX 78 43 77 44 36 46 66 47 47 48 65 49 48 50 51 51 64 52 82 53
REMARK SMILES IDX 49 54 50 55 63 57 83 58 52 59 37 60 38 61 46 62 39 63 45 64
REMARK SMILES IDX 40 65 41 66 42 67 43 68 44 69 67 70 68 71 76 72 69 73 75 74
REMARK SMILES IDX 70 75 71 76 72 77 73 78 74 79 53 80 54 81 62 82 55 83 61 84
REMARK SMILES IDX 56 85 57 86 58 87 59 88 60 89
REMARK H PARENT 81 45 51 56
REMARK Flexibility Score: inf
ROOT
ATOM      1  C   UNL     1       2.814   7.657  -3.740  1.00  0.00     0.188 C 
ENDROOT
BRANCH   1   2
ATOM      2  C   UNL     1       2.522   7.885  -2.276  1.00  0.00     0.188 C 
BRANCH   2   3
ATOM      3  O   UNL     1       3.206   7.188  -1.237  1.00  0.00    -0.376 OA
BRANCH   3   4
ATOM      4  C   UNL     1       4.420   6.455  -1.229  1.00  0.00     0.202 C 
BRANCH   4   5
ATOM      5  C   UNL     1       4.672   4.778  -1.277  1.00  0.00     0.261 C 
BRANCH   5   6
ATOM      6  O   UNL     1       4.069   3.373  -0.582  1.00  0.00    -0.460 OA
BRANCH   6   7
ATOM      7  C   UNL     1       2.929   2.818  -0.002  1.00  0.00     0.330 C 
ATOM      8  O   UNL     1       1.941   3.346   0.493  1.00  0.00    -0.247 OA
BRANCH   7   9
ATOM      9  C   UNL     1       2.673   1.384  -0.069  1.00  0.00     0.094 C 
ATOM     10  C   UNL     1       1.586   1.101  -0.833  1.00  0.00     0.016 C 
BRANCH  10  11
ATOM     11  C   UNL     1       0.624   0.007  -0.579  1.00  0.00    -0.022 A 
ATOM     12  C   UNL     1       2.501  -1.688  -0.413  1.00  0.00     0.045 C 
ATOM     13  C   UNL     1       1.044  -1.323  -0.439  1.00  0.00    -0.044 A 
ATOM     14  C   UNL     1       0.087  -2.330  -0.246  1.00  0.00     0.004 A 
ATOM     15  C   UNL     1      -1.275  -2.030  -0.194  1.00  0.00     0.013 A 
ATOM     16  C   UNL     1      -0.761   0.305  -0.514  1.00  0.00     0.021 A 
ATOM     17  C   UNL     1      -1.720  -0.707  -0.310  1.00  0.00     0.056 A 
BRANCH  17  18
ATOM     18  C   UNL     1      -3.204  -0.428  -0.216  1.00  0.00     0.416 C 
ATOM     19  F   UNL     1      -3.896  -0.965  -1.264  1.00  0.00    -0.166 F 
ATOM     20  F   UNL     1      -3.767  -0.984   0.898  1.00  0.00    -0.166 F 
ATOM     21  F   UNL     1      -3.538   0.888  -0.183  1.00  0.00    -0.166 F 
ENDBRANCH  17  18
ENDBRANCH  10  11
ENDBRANCH   7   9
ENDBRANCH   6   7
ENDBRANCH   5   6
ENDBRANCH   4   5
ENDBRANCH   3   4
ENDBRANCH   2   3
ENDBRANCH   1   2
BRANCH   1  22
ATOM     22  O   UNL     1       3.355   6.365  -3.929  1.00  0.00    -0.376 OA
BRANCH  22  23
ATOM     23  C   UNL     1       3.556   6.019  -5.286  1.00  0.00     0.202 C 
BRANCH  23  24
ATOM     24  C   UNL     1       2.265   5.854  -6.111  1.00  0.00     0.261 C 
BRANCH  24  25
ATOM     25  O   UNL     1       1.498   4.688  -5.732  1.00  0.00    -0.460 OA
BRANCH  25  26
ATOM     26  C   UNL     1       0.251   4.875  -5.141  1.00  0.00     0.338 C 
ATOM     27  O   UNL     1      -0.767   4.774  -5.752  1.00  0.00    -0.246 OA
BRANCH  26  28
ATOM     28  C   UNL     1       0.392   4.913  -3.639  1.00  0.00     0.060 A 
ATOM     29  C   UNL     1      -0.430   5.492  -2.672  1.00  0.00     0.016 A 
ATOM     30  C   UNL     1       1.490   4.314  -3.137  1.00  0.00     0.016 A 
ATOM     31  C   UNL     1      -0.002   5.696  -1.280  1.00  0.00     0.010 A 
ATOM     32  C   UNL     1       1.873   4.616  -1.826  1.00  0.00     0.010 A 
ATOM     33  C   UNL     1       1.259   5.356  -0.798  1.00  0.00    -0.014 A 
BRANCH  33  34
ATOM     34  C   UNL     1       1.952   5.859   0.640  1.00  0.00     0.031 A 
ATOM     35  C   UNL     1       2.862   5.110   1.736  1.00  0.00     0.074 A 
ATOM     36  C   UNL     1       1.734   7.122   1.062  1.00  0.00     0.049 A 
ATOM     37  N   UNL     1       2.476   4.587   2.886  1.00  0.00    -0.248 NA
ATOM     38  C   UNL     1       4.321   4.885   1.591  1.00  0.00     0.031 C 
ATOM     39  C   UNL     1       2.333   7.809   2.207  1.00  0.00     0.029 A 
ATOM     40  N   UNL     1       0.815   8.030   0.561  1.00  0.00    -0.354 N 
ATOM     41  C   UNL     1       3.589   3.927   3.449  1.00  0.00     0.074 A 
ATOM     42  C   UNL     1       4.588   3.879   2.424  1.00  0.00     0.031 C 
ATOM     43  C   UNL     1       1.584   8.889   2.484  1.00  0.00     0.029 A 
ATOM     44  C   UNL     1       0.421   8.855   1.609  1.00  0.00     0.049 A 
ATOM     45  H   UNL     1       0.498   8.081  -0.369  1.00  0.00     0.167 HD
ATOM     46  C   UNL     1       3.990   3.920   4.763  1.00  0.00     0.031 A 
ATOM     47  C   UNL     1      -0.884   8.818   2.001  1.00  0.00     0.031 A 
ATOM     48  C   UNL     1       3.401   5.047   5.437  1.00  0.00     0.049 A 
ATOM     49  C   UNL     1      -1.030   8.265   3.400  1.00  0.00     0.074 A 
ATOM     50  C   UNL     1       3.851   6.349   5.585  1.00  0.00     0.029 A 
ATOM     51  N   UNL     1       2.050   5.048   5.689  1.00  0.00    -0.354 N 
ATOM     52  N   UNL     1      -0.095   7.609   4.036  1.00  0.00    -0.248 NA
ATOM     53  C   UNL     1      -2.228   8.448   4.212  1.00  0.00     0.031 C 
ATOM     54  C   UNL     1       2.713   7.167   5.802  1.00  0.00     0.029 A 
ATOM     55  C   UNL     1       1.604   6.342   5.864  1.00  0.00     0.049 A 
ATOM     56  H   UNL     1       1.484   4.244   5.738  1.00  0.00     0.167 HD
ATOM     57  C   UNL     1      -0.538   7.274   5.286  1.00  0.00     0.074 A 
ATOM     58  C   UNL     1      -1.869   7.845   5.359  1.00  0.00     0.031 C 
ATOM     59  C   UNL     1       0.205   6.548   6.169  1.00  0.00     0.031 A 
BRANCH  46  60
ATOM     60  C   UNL     1       5.292   3.228   5.202  1.00  0.00    -0.014 A 
ATOM     61  C   UNL     1       6.184   3.807   6.128  1.00  0.00     0.010 A 
ATOM     62  C   UNL     1       5.684   1.976   4.665  1.00  0.00     0.010 A 
ATOM     63  C   UNL     1       7.447   3.239   6.405  1.00  0.00     0.020 A 
ATOM     64  C   UNL     1       6.955   1.417   4.908  1.00  0.00     0.020 A 
ATOM     65  C   UNL     1       7.840   2.062   5.768  1.00  0.00     0.054 A 
BRANCH  65  66
ATOM     66  S   UNL     1       9.530   1.425   6.017  1.00  0.00     0.124 S 
ATOM     67  O   UNL     1      10.355   2.618   5.841  1.00  0.00    -0.237 OA
ATOM     68  O   UNL     1       9.473   0.896   7.376  1.00  0.00    -0.237 OA
ATOM     69  O   UNL     1       9.681   0.421   4.964  1.00  0.00    -0.744 OA
ENDBRANCH  65  66
ENDBRANCH  46  60
BRANCH  47  70
ATOM     70  C   UNL     1      -1.851   8.720   0.851  1.00  0.00    -0.014 A 
ATOM     71  C   UNL     1      -1.789   9.765  -0.105  1.00  0.00     0.010 A 
ATOM     72  C   UNL     1      -2.509   7.535   0.476  1.00  0.00     0.010 A 
ATOM     73  C   UNL     1      -2.205   9.580  -1.428  1.00  0.00     0.020 A 
ATOM     74  C   UNL     1      -2.960   7.354  -0.857  1.00  0.00     0.020 A 
ATOM     75  C   UNL     1      -2.743   8.357  -1.811  1.00  0.00     0.054 A 
BRANCH  75  76
ATOM     76  S   UNL     1      -2.954   8.069  -3.603  1.00  0.00     0.124 S 
ATOM     77  O   UNL     1      -3.838   9.160  -3.999  1.00  0.00    -0.237 OA
ATOM     78  O   UNL     1      -1.576   8.178  -4.087  1.00  0.00    -0.237 OA
ATOM     79  O   UNL     1      -3.539   6.734  -3.667  1.00  0.00    -0.744 OA
ENDBRANCH  75  76
ENDBRANCH  47  70
BRANCH  59  80
ATOM     80  C   UNL     1      -0.310   5.938   7.444  1.00  0.00    -0.014 A 
ATOM     81  C   UNL     1      -1.640   5.535   7.612  1.00  0.00     0.010 A 
ATOM     82  C   UNL     1       0.616   5.577   8.455  1.00  0.00     0.010 A 
ATOM     83  C   UNL     1      -2.048   4.869   8.771  1.00  0.00     0.020 A 
ATOM     84  C   UNL     1       0.231   4.859   9.586  1.00  0.00     0.020 A 
ATOM     85  C   UNL     1      -1.111   4.541   9.753  1.00  0.00     0.054 A 
BRANCH  85  86
ATOM     86  S   UNL     1      -1.633   3.650  11.236  1.00  0.00     0.124 S 
ATOM     87  O   UNL     1      -1.870   4.747  12.171  1.00  0.00    -0.237 OA
ATOM     88  O   UNL     1      -2.829   2.936  10.795  1.00  0.00    -0.237 OA
ATOM     89  O   UNL     1      -0.485   2.800  11.541  1.00  0.00    -0.744 OA
ENDBRANCH  85  86
ENDBRANCH  59  80
ENDBRANCH  33  34
ENDBRANCH  26  28
ENDBRANCH  25  26
ENDBRANCH  24  25
ENDBRANCH  23  24
ENDBRANCH  22  23
ENDBRANCH   1  22
TORSDOF 22
