REMARK SMILES Cc1ccc(NC(=O)c2ccccc2NC(=O)[C@H]2CCCC[C@H]2C(=O)OCCOCCOCCOC(=O)c2ccc(-c3c4nc(c(-c5ccc(S(=O)(=O)[O-])cc5)c5ccc([nH]5)c(-c5ccc(S(=O)(=O)[O-])cc5)c5nc(c(-c6ccc(S(=O)(=O)[O-])cc6)c6ccc3[nH]6)C=C5)C=C4)cc2)cc1
REMARK SMILES IDX 30 1 29 2 28 3 27 4 26 5 24 6 25 7 23 8 18 9 19 10 20 11
REMARK SMILES IDX 22 12 21 13 16 14 15 15 17 17 14 18 9 19 10 20 11 21 13 22
REMARK SMILES IDX 12 23 7 24 6 25 8 27 5 28 1 29 2 30 3 31 99 32 4 33 98 34
REMARK SMILES IDX 31 35 32 36 33 37 34 38 35 39 36 40 37 41 38 42 39 43 97 44
REMARK SMILES IDX 40 45 96 46 41 47 42 48 43 49 90 50 44 51 95 52 89 53 91 54
REMARK SMILES IDX 45 55 94 56 88 57 87 58 46 60 76 61 57 62 75 63 58 64 61 65
REMARK SMILES IDX 74 66 92 67 59 68 60 69 73 71 93 72 62 73 47 74 48 75 56 76
REMARK SMILES IDX 49 77 55 78 50 79 51 80 52 81 53 82 54 83 77 84 78 85 86 86
REMARK SMILES IDX 79 87 85 88 80 89 81 90 82 91 83 92 84 93 63 94 64 95 72 96
REMARK SMILES IDX 65 97 71 98 66 99 67 100 68 101 69 102 70 103
REMARK H PARENT 15 16 6 26 91 59 61 70
REMARK Flexibility Score: inf
ROOT
ATOM      1  C   UNL     1      -0.500   4.562   5.186  1.00  0.00     0.188 C 
ENDROOT
BRANCH   1   2
ATOM      2  O   UNL     1      -1.322   4.240   6.268  1.00  0.00    -0.376 OA
BRANCH   2   3
ATOM      3  C   UNL     1      -2.088   3.028   6.210  1.00  0.00     0.202 C 
BRANCH   3   4
ATOM      4  C   UNL     1      -1.991   1.941   5.049  1.00  0.00     0.261 C 
BRANCH   4   5
ATOM      5  O   UNL     1      -2.768   0.420   4.962  1.00  0.00    -0.463 OA
BRANCH   5   6
ATOM      6  C   UNL     1      -2.977  -0.953   4.784  1.00  0.00     0.309 C 
ATOM      7  O   UNL     1      -4.091  -1.355   5.172  1.00  0.00    -0.252 OA
BRANCH   6   8
ATOM      8  C   UNL     1      -2.026  -2.252   4.304  1.00  0.00     0.111 C 
ATOM      9  C   UNL     1      -0.963  -2.556   3.095  1.00  0.00     0.093 C 
ATOM     10  C   UNL     1      -1.131  -4.060   2.666  1.00  0.00     0.014 C 
ATOM     11  C   UNL     1      -1.062  -5.077   3.821  1.00  0.00     0.001 C 
ATOM     12  C   UNL     1      -1.882  -3.311   5.440  1.00  0.00     0.016 C 
ATOM     13  C   UNL     1      -2.049  -4.750   4.933  1.00  0.00     0.001 C 
BRANCH   9  14
ATOM     14  C   UNL     1       0.593  -2.440   3.327  1.00  0.00     0.228 C 
ATOM     15  N   UNL     1       1.518  -1.683   2.637  1.00  0.00    -0.325 N 
ATOM     16  H   UNL     1       2.388  -1.700   3.097  1.00  0.00     0.169 HD
ATOM     17  O   UNL     1       1.101  -3.104   4.242  1.00  0.00    -0.274 OA
BRANCH  15  18
ATOM     18  C   UNL     1       1.591  -0.886   1.459  1.00  0.00     0.054 A 
ATOM     19  C   UNL     1       2.627   0.097   1.210  1.00  0.00     0.063 A 
ATOM     20  C   UNL     1       2.501   0.926   0.067  1.00  0.00     0.016 A 
ATOM     21  C   UNL     1       1.406   0.847  -0.786  1.00  0.00     0.001 A 
ATOM     22  C   UNL     1       0.560  -1.002   0.514  1.00  0.00     0.027 A 
ATOM     23  C   UNL     1       0.441  -0.117  -0.563  1.00  0.00     0.002 A 
BRANCH  19  24
ATOM     24  C   UNL     1       3.732   0.652   2.111  1.00  0.00     0.257 C 
ATOM     25  N   UNL     1       4.403  -0.040   3.085  1.00  0.00    -0.322 N 
ATOM     26  H   UNL     1       4.768   0.511   3.815  1.00  0.00     0.170 HD
ATOM     27  O   UNL     1       4.009   1.858   2.051  1.00  0.00    -0.269 OA
BRANCH  25  28
ATOM     28  C   UNL     1       4.644  -1.397   3.195  1.00  0.00     0.041 A 
ATOM     29  C   UNL     1       4.066  -5.558   3.695  1.00  0.00     0.044 C 
ATOM     30  C   UNL     1       4.470  -4.128   3.523  1.00  0.00    -0.051 A 
ATOM     31  C   UNL     1       4.516  -3.582   2.236  1.00  0.00     0.005 A 
ATOM     32  C   UNL     1       4.659  -3.303   4.639  1.00  0.00     0.005 A 
ATOM     33  C   UNL     1       4.625  -2.212   2.071  1.00  0.00     0.026 A 
ATOM     34  C   UNL     1       4.776  -1.928   4.476  1.00  0.00     0.026 A 
ENDBRANCH  25  28
ENDBRANCH  19  24
ENDBRANCH  15  18
ENDBRANCH   9  14
ENDBRANCH   6   8
ENDBRANCH   5   6
ENDBRANCH   4   5
ENDBRANCH   3   4
ENDBRANCH   2   3
ENDBRANCH   1   2
BRANCH   1  35
ATOM     35  C   UNL     1       0.940   4.210   5.527  1.00  0.00     0.188 C 
BRANCH  35  36
ATOM     36  O   UNL     1       1.876   5.263   5.588  1.00  0.00    -0.376 OA
BRANCH  36  37
ATOM     37  C   UNL     1       1.892   6.112   4.457  1.00  0.00     0.202 C 
BRANCH  37  38
ATOM     38  C   UNL     1       1.419   5.709   3.044  1.00  0.00     0.261 C 
BRANCH  38  39
ATOM     39  O   UNL     1       1.167   4.360   2.518  1.00  0.00    -0.460 OA
BRANCH  39  40
ATOM     40  C   UNL     1       0.949   3.103   2.197  1.00  0.00     0.338 C 
ATOM     41  O   UNL     1       0.522   2.884   1.059  1.00  0.00    -0.246 OA
BRANCH  40  42
ATOM     42  C   UNL     1       0.967   1.965   3.171  1.00  0.00     0.060 A 
ATOM     43  C   UNL     1      -0.064   1.079   3.039  1.00  0.00     0.016 A 
ATOM     44  C   UNL     1       1.876   1.669   4.204  1.00  0.00     0.016 A 
ATOM     45  C   UNL     1      -0.273   0.121   4.050  1.00  0.00     0.010 A 
ATOM     46  C   UNL     1       1.585   0.744   5.258  1.00  0.00     0.010 A 
ATOM     47  C   UNL     1       0.396   0.023   5.288  1.00  0.00    -0.014 A 
BRANCH  47  48
ATOM     48  C   UNL     1      -0.132  -0.506   6.649  1.00  0.00     0.031 A 
ATOM     49  C   UNL     1       0.526  -1.656   7.338  1.00  0.00     0.074 A 
ATOM     50  C   UNL     1      -1.079   0.053   7.484  1.00  0.00     0.049 A 
ATOM     51  N   UNL     1      -0.007  -2.324   8.320  1.00  0.00    -0.248 NA
ATOM     52  C   UNL     1       1.778  -2.234   6.880  1.00  0.00     0.031 C 
ATOM     53  C   UNL     1      -0.969   0.245   8.945  1.00  0.00     0.029 A 
ATOM     54  N   UNL     1      -2.334   0.585   7.265  1.00  0.00    -0.354 N 
ATOM     55  C   UNL     1       0.957  -3.175   8.801  1.00  0.00     0.074 A 
ATOM     56  C   UNL     1       1.941  -3.235   7.747  1.00  0.00     0.031 C 
ATOM     57  C   UNL     1      -2.070   0.864   9.428  1.00  0.00     0.029 A 
ATOM     58  C   UNL     1      -3.053   1.026   8.357  1.00  0.00     0.049 A 
ATOM     59  H   UNL     1      -2.705   0.647   6.356  1.00  0.00     0.167 HD
ATOM     60  C   UNL     1       0.964  -3.565  10.110  1.00  0.00     0.031 A 
ATOM     61  C   UNL     1      -4.421   1.132   8.394  1.00  0.00     0.031 A 
ATOM     62  C   UNL     1      -0.170  -3.013  10.865  1.00  0.00     0.049 A 
ATOM     63  C   UNL     1      -4.844   0.025   9.317  1.00  0.00     0.074 A 
ATOM     64  C   UNL     1      -0.259  -1.952  11.753  1.00  0.00     0.029 A 
ATOM     65  N   UNL     1      -1.486  -3.365  10.553  1.00  0.00    -0.354 N 
ATOM     66  N   UNL     1      -3.972  -0.818   9.791  1.00  0.00    -0.248 NA
ATOM     67  C   UNL     1      -6.197  -0.267   9.768  1.00  0.00     0.031 C 
ATOM     68  C   UNL     1      -1.630  -1.637  11.937  1.00  0.00     0.029 A 
ATOM     69  C   UNL     1      -2.388  -2.534  11.203  1.00  0.00     0.049 A 
ATOM     70  H   UNL     1      -1.739  -4.104   9.954  1.00  0.00     0.167 HD
ATOM     71  C   UNL     1      -4.577  -1.743  10.559  1.00  0.00     0.074 A 
ATOM     72  C   UNL     1      -5.980  -1.360  10.528  1.00  0.00     0.031 C 
ATOM     73  C   UNL     1      -3.838  -2.740  11.116  1.00  0.00     0.031 A 
BRANCH  60  74
ATOM     74  C   UNL     1       2.236  -4.113  10.752  1.00  0.00    -0.014 A 
ATOM     75  C   UNL     1       2.537  -3.849  12.104  1.00  0.00     0.010 A 
ATOM     76  C   UNL     1       3.212  -4.847  10.046  1.00  0.00     0.010 A 
ATOM     77  C   UNL     1       3.776  -4.198  12.679  1.00  0.00     0.020 A 
ATOM     78  C   UNL     1       4.473  -5.151  10.583  1.00  0.00     0.020 A 
ATOM     79  C   UNL     1       4.750  -4.822  11.903  1.00  0.00     0.054 A 
BRANCH  79  80
ATOM     80  S   UNL     1       6.358  -5.234  12.634  1.00  0.00     0.124 S 
ATOM     81  O   UNL     1       6.817  -3.946  13.147  1.00  0.00    -0.237 OA
ATOM     82  O   UNL     1       5.997  -6.224  13.644  1.00  0.00    -0.237 OA
ATOM     83  O   UNL     1       7.129  -5.754  11.505  1.00  0.00    -0.744 OA
ENDBRANCH  79  80
ENDBRANCH  60  74
BRANCH  61  84
ATOM     84  C   UNL     1      -5.195   1.606   7.164  1.00  0.00    -0.014 A 
ATOM     85  C   UNL     1      -5.170   2.976   6.817  1.00  0.00     0.010 A 
ATOM     86  C   UNL     1      -5.647   0.744   6.159  1.00  0.00     0.010 A 
ATOM     87  C   UNL     1      -5.222   3.405   5.458  1.00  0.00     0.020 A 
ATOM     88  C   UNL     1      -5.699   1.158   4.798  1.00  0.00     0.020 A 
ATOM     89  C   UNL     1      -5.375   2.466   4.445  1.00  0.00     0.054 A 
BRANCH  89  90
ATOM     90  S   UNL     1      -4.788   2.853   2.742  1.00  0.00     0.124 S 
ATOM     91  O   UNL     1      -5.989   3.373   2.102  1.00  0.00    -0.237 OA
ATOM     92  O   UNL     1      -3.727   3.835   2.973  1.00  0.00    -0.237 OA
ATOM     93  O   UNL     1      -4.305   1.565   2.241  1.00  0.00    -0.744 OA
ENDBRANCH  89  90
ENDBRANCH  61  84
BRANCH  73  94
ATOM     94  C   UNL     1      -4.450  -3.938  11.750  1.00  0.00    -0.014 A 
ATOM     95  C   UNL     1      -5.712  -4.431  11.387  1.00  0.00     0.010 A 
ATOM     96  C   UNL     1      -3.687  -4.678  12.676  1.00  0.00     0.010 A 
ATOM     97  C   UNL     1      -6.236  -5.568  11.999  1.00  0.00     0.020 A 
ATOM     98  C   UNL     1      -4.179  -5.843  13.252  1.00  0.00     0.020 A 
ATOM     99  C   UNL     1      -5.469  -6.259  12.937  1.00  0.00     0.054 A 
BRANCH  99 100
ATOM    100  S   UNL     1      -6.151  -7.736  13.714  1.00  0.00     0.124 S 
ATOM    101  O   UNL     1      -6.915  -7.163  14.819  1.00  0.00    -0.237 OA
ATOM    102  O   UNL     1      -6.948  -8.331  12.643  1.00  0.00    -0.237 OA
ATOM    103  O   UNL     1      -4.967  -8.499  14.096  1.00  0.00    -0.744 OA
ENDBRANCH  99 100
ENDBRANCH  73  94
ENDBRANCH  47  48
ENDBRANCH  40  42
ENDBRANCH  39  40
ENDBRANCH  38  39
ENDBRANCH  37  38
ENDBRANCH  36  37
ENDBRANCH  35  36
ENDBRANCH   1  35
TORSDOF 24
