REMARK SMILES O=C(OCCOCCOCCOC(=O)c1c(-c2ccc(Cl)cc2)noc1CO[C@@H]1CCCCO1)c1ccc(-c2c3nc(c(-c4ccc(S(=O)(=O)[O-])cc4)c4ccc([nH]4)c(-c4ccc(S(=O)(=O)[O-])cc4)c4nc(c(-c5ccc(S(=O)(=O)[O-])cc5)c5ccc2[nH]5)C=C4)C=C3)cc1
REMARK SMILES IDX 7 1 6 2 5 3 4 4 3 5 2 6 1 7 35 8 36 9 94 10 37 11 93 12
REMARK SMILES IDX 38 13 39 14 40 15 87 16 41 17 92 18 86 19 88 20 42 21 91 22
REMARK SMILES IDX 85 23 84 24 43 26 73 27 54 28 72 29 55 30 58 31 71 32 89 33
REMARK SMILES IDX 56 34 57 35 70 37 90 38 59 39 44 40 45 41 53 42 46 43 52 44
REMARK SMILES IDX 47 45 48 46 49 47 50 48 51 49 74 50 75 51 83 52 76 53 82 54
REMARK SMILES IDX 77 55 78 56 79 57 80 58 81 59 60 60 61 61 69 62 62 63 68 64
REMARK SMILES IDX 63 65 64 66 65 67 66 68 67 69 8 70 9 71 10 72 11 73 12 74
REMARK SMILES IDX 13 75 14 76 15 77 16 78 26 79 24 80 25 81 17 82 18 83 23 84
REMARK SMILES IDX 19 85 22 86 20 87 21 88 27 89 28 90 29 91 30 92 34 93 31 94
REMARK SMILES IDX 33 95 32 96
REMARK H PARENT 88 25 58 36
REMARK Flexibility Score: inf
ROOT
ATOM      1  C   UNL     1       2.919   1.870  -0.033  1.00  0.00     0.188 C 
ENDROOT
BRANCH   1   2
ATOM      2  O   UNL     1       4.286   1.633  -0.351  1.00  0.00    -0.376 OA
BRANCH   2   3
ATOM      3  C   UNL     1       4.564   1.284  -1.701  1.00  0.00     0.202 C 
BRANCH   3   4
ATOM      4  C   UNL     1       4.614  -0.232  -1.913  1.00  0.00     0.261 C 
BRANCH   4   5
ATOM      5  O   UNL     1       3.307  -0.810  -1.724  1.00  0.00    -0.460 OA
BRANCH   5   6
ATOM      6  C   UNL     1       2.796  -1.530  -0.699  1.00  0.00     0.338 C 
ATOM      7  O   UNL     1       1.667  -2.001  -0.845  1.00  0.00    -0.246 OA
BRANCH   6   8
ATOM      8  C   UNL     1       3.478  -1.777   0.615  1.00  0.00     0.060 A 
ATOM      9  C   UNL     1       4.596  -1.102   1.103  1.00  0.00     0.016 A 
ATOM     10  C   UNL     1       2.885  -2.740   1.459  1.00  0.00     0.016 A 
ATOM     11  C   UNL     1       5.170  -1.443   2.329  1.00  0.00     0.010 A 
ATOM     12  C   UNL     1       3.417  -3.040   2.720  1.00  0.00     0.010 A 
ATOM     13  C   UNL     1       4.602  -2.430   3.137  1.00  0.00    -0.014 A 
BRANCH  13  14
ATOM     14  C   UNL     1       5.367  -2.903   4.316  1.00  0.00     0.031 A 
ATOM     15  C   UNL     1       6.068  -4.229   4.233  1.00  0.00     0.074 A 
ATOM     16  C   UNL     1       5.563  -2.093   5.374  1.00  0.00     0.049 A 
ATOM     17  N   UNL     1       6.905  -4.771   5.077  1.00  0.00    -0.248 NA
ATOM     18  C   UNL     1       5.807  -5.044   3.034  1.00  0.00     0.031 C 
ATOM     19  C   UNL     1       4.964  -0.770   5.534  1.00  0.00     0.029 A 
ATOM     20  N   UNL     1       6.346  -2.240   6.490  1.00  0.00    -0.354 N 
ATOM     21  C   UNL     1       7.277  -5.982   4.508  1.00  0.00     0.074 A 
ATOM     22  C   UNL     1       6.546  -6.116   3.268  1.00  0.00     0.031 C 
ATOM     23  C   UNL     1       5.430  -0.208   6.661  1.00  0.00     0.029 A 
ATOM     24  C   UNL     1       6.344  -1.137   7.314  1.00  0.00     0.049 A 
ATOM     25  H   UNL     1       6.861  -3.056   6.684  1.00  0.00     0.167 HD
ATOM     26  C   UNL     1       8.163  -6.896   4.965  1.00  0.00     0.031 A 
ATOM     27  C   UNL     1       7.010  -0.899   8.461  1.00  0.00     0.031 A 
ATOM     28  C   UNL     1       8.867  -6.776   6.209  1.00  0.00     0.049 A 
ATOM     29  C   UNL     1       7.948  -1.957   8.976  1.00  0.00     0.074 A 
ATOM     30  C   UNL     1       9.718  -7.682   6.812  1.00  0.00     0.029 A 
ATOM     31  N   UNL     1       8.798  -5.668   7.041  1.00  0.00    -0.354 N 
ATOM     32  N   UNL     1       8.266  -3.109   8.432  1.00  0.00    -0.248 NA
ATOM     33  C   UNL     1       8.620  -1.685  10.254  1.00  0.00     0.031 C 
ATOM     34  C   UNL     1      10.148  -7.129   8.025  1.00  0.00     0.029 A 
ATOM     35  C   UNL     1       9.593  -5.865   8.155  1.00  0.00     0.049 A 
ATOM     36  H   UNL     1       8.263  -4.860   6.864  1.00  0.00     0.167 HD
ATOM     37  C   UNL     1       9.176  -3.698   9.301  1.00  0.00     0.074 A 
ATOM     38  C   UNL     1       9.384  -2.761  10.387  1.00  0.00     0.031 C 
ATOM     39  C   UNL     1       9.777  -4.911   9.217  1.00  0.00     0.031 A 
BRANCH  26  40
ATOM     40  C   UNL     1       8.371  -8.110   4.107  1.00  0.00    -0.014 A 
ATOM     41  C   UNL     1       9.132  -8.031   2.926  1.00  0.00     0.010 A 
ATOM     42  C   UNL     1       7.753  -9.325   4.448  1.00  0.00     0.010 A 
ATOM     43  C   UNL     1       9.229  -9.133   2.074  1.00  0.00     0.020 A 
ATOM     44  C   UNL     1       7.863 -10.435   3.607  1.00  0.00     0.020 A 
ATOM     45  C   UNL     1       8.581 -10.325   2.414  1.00  0.00     0.054 A 
BRANCH  45  46
ATOM     46  S   UNL     1       8.692 -11.734   1.277  1.00  0.00     0.124 S 
ATOM     47  O   UNL     1       7.753 -11.346   0.227  1.00  0.00    -0.237 OA
ATOM     48  O   UNL     1      10.101 -11.728   0.891  1.00  0.00    -0.237 OA
ATOM     49  O   UNL     1       8.279 -12.871   2.095  1.00  0.00    -0.744 OA
ENDBRANCH  45  46
ENDBRANCH  26  40
BRANCH  27  50
ATOM     50  C   UNL     1       6.814   0.381   9.200  1.00  0.00    -0.014 A 
ATOM     51  C   UNL     1       7.852   1.325   9.302  1.00  0.00     0.010 A 
ATOM     52  C   UNL     1       5.582   0.658   9.822  1.00  0.00     0.010 A 
ATOM     53  C   UNL     1       7.670   2.506  10.032  1.00  0.00     0.020 A 
ATOM     54  C   UNL     1       5.388   1.848  10.530  1.00  0.00     0.020 A 
ATOM     55  C   UNL     1       6.440   2.758  10.645  1.00  0.00     0.054 A 
BRANCH  55  56
ATOM     56  S   UNL     1       6.211   4.306  11.565  1.00  0.00     0.124 S 
ATOM     57  O   UNL     1       6.880   4.009  12.828  1.00  0.00    -0.237 OA
ATOM     58  O   UNL     1       6.878   5.287  10.712  1.00  0.00    -0.237 OA
ATOM     59  O   UNL     1       4.759   4.447  11.643  1.00  0.00    -0.744 OA
ENDBRANCH  55  56
ENDBRANCH  27  50
BRANCH  39  60
ATOM     60  C   UNL     1      10.719  -5.281  10.327  1.00  0.00    -0.014 A 
ATOM     61  C   UNL     1      10.228  -5.679  11.582  1.00  0.00     0.010 A 
ATOM     62  C   UNL     1      12.105  -5.278  10.094  1.00  0.00     0.010 A 
ATOM     63  C   UNL     1      11.112  -6.042  12.600  1.00  0.00     0.020 A 
ATOM     64  C   UNL     1      12.991  -5.660  11.103  1.00  0.00     0.020 A 
ATOM     65  C   UNL     1      12.489  -6.026  12.355  1.00  0.00     0.054 A 
BRANCH  65  66
ATOM     66  S   UNL     1      13.621  -6.542  13.674  1.00  0.00     0.124 S 
ATOM     67  O   UNL     1      13.689  -5.341  14.501  1.00  0.00    -0.237 OA
ATOM     68  O   UNL     1      12.925  -7.679  14.272  1.00  0.00    -0.237 OA
ATOM     69  O   UNL     1      14.850  -6.879  12.959  1.00  0.00    -0.744 OA
ENDBRANCH  65  66
ENDBRANCH  39  60
ENDBRANCH  13  14
ENDBRANCH   6   8
ENDBRANCH   5   6
ENDBRANCH   4   5
ENDBRANCH   3   4
ENDBRANCH   2   3
ENDBRANCH   1   2
BRANCH   1  70
ATOM     70  C   UNL     1       2.314   3.167  -0.582  1.00  0.00     0.188 C 
BRANCH  70  71
ATOM     71  O   UNL     1       3.144   4.304  -0.785  1.00  0.00    -0.376 OA
BRANCH  71  72
ATOM     72  C   UNL     1       4.221   4.582   0.099  1.00  0.00     0.202 C 
BRANCH  72  73
ATOM     73  C   UNL     1       3.857   5.072   1.500  1.00  0.00     0.261 C 
BRANCH  73  74
ATOM     74  O   UNL     1       3.674   4.001   2.439  1.00  0.00    -0.459 OA
BRANCH  74  75
ATOM     75  C   UNL     1       2.404   3.736   2.843  1.00  0.00     0.344 C 
ATOM     76  O   UNL     1       1.397   4.251   2.351  1.00  0.00    -0.246 OA
BRANCH  75  77
ATOM     77  C   UNL     1       2.362   2.744   3.878  1.00  0.00     0.133 A 
ATOM     78  C   UNL     1       1.484   1.643   4.048  1.00  0.00     0.128 A 
ATOM     79  C   UNL     1       3.158   2.715   5.005  1.00  0.00     0.177 A 
ATOM     80  N   UNL     1       1.771   0.967   5.169  1.00  0.00    -0.079 NA
ATOM     81  O   UNL     1       2.795   1.661   5.780  1.00  0.00    -0.357 OA
BRANCH  78  82
ATOM     82  C   UNL     1       0.428   1.184   3.164  1.00  0.00     0.005 A 
ATOM     83  C   UNL     1       0.589  -0.018   2.465  1.00  0.00     0.012 A 
ATOM     84  C   UNL     1      -0.751   1.919   3.012  1.00  0.00     0.012 A 
ATOM     85  C   UNL     1      -0.410  -0.475   1.603  1.00  0.00     0.021 A 
ATOM     86  C   UNL     1      -1.760   1.454   2.164  1.00  0.00     0.021 A 
ATOM     87  C   UNL     1      -1.584   0.261   1.461  1.00  0.00     0.041 A 
ATOM     88  Cl  UNL     1      -2.829  -0.306   0.418  1.00  0.00    -0.084 Cl
ENDBRANCH  78  82
BRANCH  79  89
ATOM     89  C   UNL     1       4.179   3.629   5.565  1.00  0.00     0.242 C 
BRANCH  89  90
ATOM     90  O   UNL     1       3.589   4.461   6.562  1.00  0.00    -0.345 OA
BRANCH  90  91
ATOM     91  C   UNL     1       2.639   5.406   6.079  1.00  0.00     0.250 C 
ATOM     92  C   UNL     1       2.488   6.551   7.078  1.00  0.00     0.062 C 
ATOM     93  O   UNL     1       1.358   4.817   5.838  1.00  0.00    -0.353 OA
ATOM     94  C   UNL     1       1.830   6.078   8.372  1.00  0.00     0.008 C 
ATOM     95  C   UNL     1       0.798   4.238   7.022  1.00  0.00     0.163 C 
ATOM     96  C   UNL     1       0.549   5.307   8.074  1.00  0.00     0.029 C 
ENDBRANCH  90  91
ENDBRANCH  89  90
ENDBRANCH  79  89
ENDBRANCH  75  77
ENDBRANCH  74  75
ENDBRANCH  73  74
ENDBRANCH  72  73
ENDBRANCH  71  72
ENDBRANCH  70  71
ENDBRANCH   1  70
TORSDOF 24
