REMARK SMILES Cc1cc2cc(-c3ccc([C@@H](C)C(=O)OCCOCCOCCOC(=O)c4ccc(-c5c6nc(c(-c7ccc(S(=O)(=O)[O-])cc7)c7ccc([nH]7)c(-c7ccc(S(=O)(=O)[O-])cc7)c7nc(c(-c8ccc(S(=O)(=O)[O-])cc8)c8ccc5[nH]8)C=C7)C=C6)cc4)cc3)ccc2[nH]1
REMARK SMILES IDX 20 1 19 2 18 3 17 4 16 5 15 6 13 7 14 8 11 9 12 10 10 11
REMARK SMILES IDX 7 12 8 13 88 14 9 15 87 16 6 17 1 18 2 19 3 20 92 21 4 22
REMARK SMILES IDX 91 23 5 25 90 26 89 27 21 28 22 29 23 30 24 31 25 32 26 33
REMARK SMILES IDX 27 34 28 35 86 36 29 37 85 38 30 39 31 40 32 41 79 42 33 43
REMARK SMILES IDX 84 44 78 45 80 46 34 47 83 48 77 49 76 50 35 52 65 53 46 54
REMARK SMILES IDX 64 55 47 56 50 57 63 58 81 59 48 60 49 61 62 63 82 64 51 65
REMARK SMILES IDX 36 66 37 67 45 68 38 69 44 70 39 71 40 72 41 73 42 74 43 75
REMARK SMILES IDX 66 76 67 77 75 78 68 79 74 80 69 81 70 82 71 83 72 84 73 85
REMARK SMILES IDX 52 86 53 87 61 88 54 89 60 90 55 91 56 92 57 93 58 94 59 95
REMARK H PARENT 92 24 80 51 50 62
REMARK Flexibility Score: inf
ROOT
ATOM      1  C   UNL     1       7.653  -1.139  -2.034  1.00  0.00     0.188 C 
ENDROOT
BRANCH   1   2
ATOM      2  C   UNL     1       9.173  -1.339  -1.951  1.00  0.00     0.188 C 
BRANCH   2   3
ATOM      3  O   UNL     1       9.889  -1.697  -3.128  1.00  0.00    -0.376 OA
BRANCH   3   4
ATOM      4  C   UNL     1       9.299  -2.604  -4.051  1.00  0.00     0.202 C 
BRANCH   4   5
ATOM      5  C   UNL     1       8.818  -3.971  -3.535  1.00  0.00     0.261 C 
BRANCH   5   6
ATOM      6  O   UNL     1       7.882  -3.933  -2.433  1.00  0.00    -0.463 OA
BRANCH   6   7
ATOM      7  C   UNL     1       8.252  -4.582  -1.300  1.00  0.00     0.313 C 
ATOM      8  O   UNL     1       9.288  -5.239  -1.215  1.00  0.00    -0.252 OA
BRANCH   7   9
ATOM      9  C   UNL     1       7.313  -4.449  -0.095  1.00  0.00     0.126 C 
ATOM     10  C   UNL     1       6.900  -5.852   0.350  1.00  0.00     0.025 C 
BRANCH   9  11
ATOM     11  C   UNL     1       6.088  -3.535  -0.131  1.00  0.00    -0.034 A 
ATOM     12  C   UNL     1       3.813  -1.799  -0.088  1.00  0.00    -0.018 A 
ATOM     13  C   UNL     1       4.007  -2.739  -1.116  1.00  0.00     0.009 A 
ATOM     14  C   UNL     1       4.785  -1.732   0.916  1.00  0.00     0.009 A 
ATOM     15  C   UNL     1       5.115  -3.602  -1.134  1.00  0.00     0.005 A 
ATOM     16  C   UNL     1       5.897  -2.591   0.900  1.00  0.00     0.005 A 
BRANCH  12  17
ATOM     17  C   UNL     1       2.588  -0.976  -0.042  1.00  0.00    -0.018 A 
ATOM     18  C   UNL     1      -3.442   0.161   0.013  1.00  0.00     0.064 C 
ATOM     19  C   UNL     1      -1.975  -0.050   0.013  1.00  0.00     0.013 A 
ATOM     20  C   UNL     1      -1.239  -1.217   0.015  1.00  0.00     0.031 A 
ATOM     21  N   UNL     1      -1.079   0.994   0.015  1.00  0.00    -0.359 N 
ATOM     22  C   UNL     1       0.138  -0.870   0.001  1.00  0.00     0.000 A 
ATOM     23  C   UNL     1       0.216   0.520   0.003  1.00  0.00     0.046 A 
ATOM     24  H   UNL     1      -1.327   1.947   0.025  1.00  0.00     0.166 HD
ATOM     25  C   UNL     1       1.332  -1.616  -0.015  1.00  0.00     0.019 A 
ATOM     26  C   UNL     1       1.441   1.198  -0.005  1.00  0.00     0.027 A 
ATOM     27  C   UNL     1       2.619   0.427  -0.029  1.00  0.00     0.011 A 
ENDBRANCH  12  17
ENDBRANCH   9  11
ENDBRANCH   7   9
ENDBRANCH   6   7
ENDBRANCH   5   6
ENDBRANCH   4   5
ENDBRANCH   3   4
ENDBRANCH   2   3
ENDBRANCH   1   2
BRANCH   1  28
ATOM     28  O   UNL     1       7.132  -1.151  -3.346  1.00  0.00    -0.376 OA
BRANCH  28  29
ATOM     29  C   UNL     1       6.397  -0.014  -3.748  1.00  0.00     0.202 C 
BRANCH  29  30
ATOM     30  C   UNL     1       7.199   1.293  -3.840  1.00  0.00     0.261 C 
BRANCH  30  31
ATOM     31  O   UNL     1       8.003   1.625  -2.692  1.00  0.00    -0.460 OA
BRANCH  31  32
ATOM     32  C   UNL     1       7.354   2.039  -1.581  1.00  0.00     0.338 C 
ATOM     33  O   UNL     1       6.145   2.185  -1.453  1.00  0.00    -0.246 OA
BRANCH  32  34
ATOM     34  C   UNL     1       8.328   2.080  -0.466  1.00  0.00     0.060 A 
ATOM     35  C   UNL     1       8.103   1.287   0.670  1.00  0.00     0.016 A 
ATOM     36  C   UNL     1       9.456   2.900  -0.536  1.00  0.00     0.016 A 
ATOM     37  C   UNL     1       8.981   1.350   1.756  1.00  0.00     0.010 A 
ATOM     38  C   UNL     1      10.322   2.976   0.560  1.00  0.00     0.010 A 
ATOM     39  C   UNL     1      10.068   2.233   1.728  1.00  0.00    -0.014 A 
BRANCH  39  40
ATOM     40  C   UNL     1      10.812   2.541   2.978  1.00  0.00     0.031 A 
ATOM     41  C   UNL     1      10.462   3.806   3.721  1.00  0.00     0.074 A 
ATOM     42  C   UNL     1      11.768   1.725   3.459  1.00  0.00     0.049 A 
ATOM     43  N   UNL     1      11.003   4.315   4.798  1.00  0.00    -0.248 NA
ATOM     44  C   UNL     1       9.354   4.604   3.169  1.00  0.00     0.031 C 
ATOM     45  C   UNL     1      12.174   0.452   2.867  1.00  0.00     0.029 A 
ATOM     46  N   UNL     1      12.578   1.857   4.561  1.00  0.00    -0.354 N 
ATOM     47  C   UNL     1      10.314   5.498   5.043  1.00  0.00     0.074 A 
ATOM     48  C   UNL     1       9.337   5.646   3.986  1.00  0.00     0.031 C 
ATOM     49  C   UNL     1      13.165  -0.076   3.608  1.00  0.00     0.029 A 
ATOM     50  C   UNL     1      13.488   0.836   4.705  1.00  0.00     0.049 A 
ATOM     51  H   UNL     1      12.512   2.612   5.190  1.00  0.00     0.167 HD
ATOM     52  C   UNL     1      10.474   6.382   6.057  1.00  0.00     0.031 A 
ATOM     53  C   UNL     1      14.481   0.668   5.603  1.00  0.00     0.031 A 
ATOM     54  C   UNL     1      11.455   6.244   7.100  1.00  0.00     0.049 A 
ATOM     55  C   UNL     1      14.688   1.702   6.683  1.00  0.00     0.074 A 
ATOM     56  C   UNL     1      11.684   7.079   8.180  1.00  0.00     0.029 A 
ATOM     57  N   UNL     1      12.375   5.211   7.192  1.00  0.00    -0.354 N 
ATOM     58  N   UNL     1      14.014   2.803   6.915  1.00  0.00    -0.248 NA
ATOM     59  C   UNL     1      15.786   1.460   7.632  1.00  0.00     0.031 C 
ATOM     60  C   UNL     1      12.785   6.586   8.888  1.00  0.00     0.029 A 
ATOM     61  C   UNL     1      13.191   5.402   8.295  1.00  0.00     0.049 A 
ATOM     62  H   UNL     1      12.439   4.454   6.566  1.00  0.00     0.167 HD
ATOM     63  C   UNL     1      14.581   3.364   8.057  1.00  0.00     0.074 A 
ATOM     64  C   UNL     1      15.644   2.474   8.474  1.00  0.00     0.031 C 
ATOM     65  C   UNL     1      14.248   4.509   8.704  1.00  0.00     0.031 A 
BRANCH  52  66
ATOM     66  C   UNL     1       9.589   7.602   6.062  1.00  0.00    -0.014 A 
ATOM     67  C   UNL     1       8.210   7.507   6.322  1.00  0.00     0.010 A 
ATOM     68  C   UNL     1      10.155   8.871   5.839  1.00  0.00     0.010 A 
ATOM     69  C   UNL     1       7.408   8.652   6.318  1.00  0.00     0.020 A 
ATOM     70  C   UNL     1       9.363  10.021   5.866  1.00  0.00     0.020 A 
ATOM     71  C   UNL     1       7.990   9.902   6.089  1.00  0.00     0.054 A 
BRANCH  71  72
ATOM     72  S   UNL     1       6.929  11.373   6.114  1.00  0.00     0.124 S 
ATOM     73  O   UNL     1       6.157  11.208   4.885  1.00  0.00    -0.237 OA
ATOM     74  O   UNL     1       6.177  11.202   7.355  1.00  0.00    -0.237 OA
ATOM     75  O   UNL     1       7.875  12.485   6.110  1.00  0.00    -0.744 OA
ENDBRANCH  71  72
ENDBRANCH  52  66
BRANCH  53  76
ATOM     76  C   UNL     1      15.374  -0.523   5.516  1.00  0.00    -0.014 A 
ATOM     77  C   UNL     1      15.349  -1.517   6.511  1.00  0.00     0.010 A 
ATOM     78  C   UNL     1      16.269  -0.662   4.439  1.00  0.00     0.010 A 
ATOM     79  C   UNL     1      16.212  -2.615   6.440  1.00  0.00     0.020 A 
ATOM     80  C   UNL     1      17.111  -1.775   4.347  1.00  0.00     0.020 A 
ATOM     81  C   UNL     1      17.085  -2.739   5.356  1.00  0.00     0.054 A 
BRANCH  81  82
ATOM     82  S   UNL     1      18.160  -4.199   5.260  1.00  0.00     0.124 S 
ATOM     83  O   UNL     1      19.120  -3.941   6.329  1.00  0.00    -0.237 OA
ATOM     84  O   UNL     1      17.223  -5.293   5.501  1.00  0.00    -0.237 OA
ATOM     85  O   UNL     1      18.701  -4.138   3.904  1.00  0.00    -0.744 OA
ENDBRANCH  81  82
ENDBRANCH  53  76
BRANCH  65  86
ATOM     86  C   UNL     1      15.001   4.845   9.968  1.00  0.00    -0.014 A 
ATOM     87  C   UNL     1      16.354   5.228   9.945  1.00  0.00     0.010 A 
ATOM     88  C   UNL     1      14.322   4.816  11.202  1.00  0.00     0.010 A 
ATOM     89  C   UNL     1      17.024   5.531  11.135  1.00  0.00     0.020 A 
ATOM     90  C   UNL     1      14.979   5.152  12.389  1.00  0.00     0.020 A 
ATOM     91  C   UNL     1      16.333   5.489  12.350  1.00  0.00     0.054 A 
BRANCH  91  92
ATOM     92  S   UNL     1      17.219   5.908  13.876  1.00  0.00     0.124 S 
ATOM     93  O   UNL     1      18.083   4.745  14.055  1.00  0.00    -0.237 OA
ATOM     94  O   UNL     1      17.901   7.149  13.520  1.00  0.00    -0.237 OA
ATOM     95  O   UNL     1      16.155   6.051  14.867  1.00  0.00    -0.744 OA
ENDBRANCH  91  92
ENDBRANCH  65  86
ENDBRANCH  39  40
ENDBRANCH  32  34
ENDBRANCH  31  32
ENDBRANCH  30  31
ENDBRANCH  29  30
ENDBRANCH  28  29
ENDBRANCH   1  28
TORSDOF 22
