REMARK SMILES CC(=O)Nc1cccc(-c2cc(F)ccc2C(=O)OCCOCCOCCOC(=O)c2ccc(-c3c4nc(c(-c5ccc(S(=O)(=O)[O-])cc5)c5ccc([nH]5)c(-c5ccc(S(=O)(=O)[O-])cc5)c5nc(c(-c6ccc(S(=O)(=O)[O-])cc6)c6ccc3[nH]6)C=C5)C=C4)cc2)c1
REMARK SMILES IDX 24 1 23 2 22 3 21 4 20 5 19 6 17 7 18 8 16 9 10 10 11 11
REMARK SMILES IDX 12 12 15 13 13 14 14 15 9 16 5 17 6 18 91 19 7 20 8 21 4 22
REMARK SMILES IDX 1 23 2 24 3 25 25 27 26 28 27 29 28 30 29 31 30 32 31 33
REMARK SMILES IDX 32 34 90 35 33 36 89 37 34 38 35 39 36 40 83 41 37 42 88 43
REMARK SMILES IDX 82 44 84 45 38 46 87 47 81 48 80 49 39 51 69 52 50 53 68 54
REMARK SMILES IDX 51 55 54 56 67 57 85 58 52 59 53 60 66 62 86 63 55 64 40 65
REMARK SMILES IDX 41 66 49 67 42 68 48 69 43 70 44 71 45 72 46 73 47 74 70 75
REMARK SMILES IDX 71 76 79 77 72 78 78 79 73 80 74 81 75 82 76 83 77 84 56 85
REMARK SMILES IDX 57 86 65 87 58 88 64 89 59 90 60 91 61 92 62 93 63 94
REMARK H PARENT 4 26 84 50 54 61
REMARK Flexibility Score: inf
ROOT
ATOM      1  C   UNL     1       6.052  -3.903   2.596  1.00  0.00     0.188 C 
ENDROOT
BRANCH   1   2
ATOM      2  C   UNL     1       6.646  -2.681   3.330  1.00  0.00     0.188 C 
BRANCH   2   3
ATOM      3  O   UNL     1       5.983  -2.142   4.464  1.00  0.00    -0.376 OA
BRANCH   3   4
ATOM      4  C   UNL     1       4.639  -1.690   4.325  1.00  0.00     0.202 C 
BRANCH   4   5
ATOM      5  C   UNL     1       4.338  -0.740   3.171  1.00  0.00     0.261 C 
BRANCH   5   6
ATOM      6  O   UNL     1       4.545  -1.416   1.923  1.00  0.00    -0.460 OA
BRANCH   6   7
ATOM      7  C   UNL     1       4.910  -0.631   0.889  1.00  0.00     0.338 C 
ATOM      8  O   UNL     1       4.978   0.587   0.893  1.00  0.00    -0.246 OA
BRANCH   7   9
ATOM      9  C   UNL     1       5.339  -1.460  -0.265  1.00  0.00     0.068 A 
ATOM     10  C   UNL     1       4.577  -2.521  -0.823  1.00  0.00    -0.001 A 
ATOM     11  C   UNL     1       5.118  -3.169  -1.953  1.00  0.00     0.048 A 
ATOM     12  C   UNL     1       6.365  -2.813  -2.465  1.00  0.00     0.123 A 
ATOM     13  C   UNL     1       6.602  -1.121  -0.790  1.00  0.00     0.019 A 
ATOM     14  F   UNL     1       6.843  -3.462  -3.534  1.00  0.00    -0.207 F 
ATOM     15  C   UNL     1       7.120  -1.807  -1.883  1.00  0.00     0.040 A 
BRANCH  10  16
ATOM     16  C   UNL     1       3.298  -3.012  -0.253  1.00  0.00    -0.015 A 
ATOM     17  C   UNL     1       1.180  -2.571   0.893  1.00  0.00     0.041 A 
ATOM     18  C   UNL     1       1.037  -3.941   1.136  1.00  0.00     0.026 A 
ATOM     19  C   UNL     1       2.285  -2.128   0.163  1.00  0.00     0.034 A 
ATOM     20  C   UNL     1       1.978  -4.848   0.658  1.00  0.00     0.003 A 
ATOM     21  C   UNL     1       3.105  -4.385  -0.019  1.00  0.00     0.009 A 
BRANCH  17  22
ATOM     22  N   UNL     1       0.244  -1.722   1.510  1.00  0.00    -0.326 N 
ATOM     23  C   UNL     1       0.480   0.410   0.228  1.00  0.00     0.114 C 
ATOM     24  C   UNL     1      -0.032  -0.393   1.389  1.00  0.00     0.221 C 
ATOM     25  O   UNL     1      -0.761   0.131   2.237  1.00  0.00    -0.275 OA
ATOM     26  H   UNL     1      -0.329  -2.182   2.164  1.00  0.00     0.169 HD
ENDBRANCH  17  22
ENDBRANCH  10  16
ENDBRANCH   7   9
ENDBRANCH   6   7
ENDBRANCH   5   6
ENDBRANCH   4   5
ENDBRANCH   3   4
ENDBRANCH   2   3
ENDBRANCH   1   2
BRANCH   1  27
ATOM     27  O   UNL     1       4.972  -4.645   3.137  1.00  0.00    -0.376 OA
BRANCH  27  28
ATOM     28  C   UNL     1       5.025  -5.081   4.486  1.00  0.00     0.202 C 
BRANCH  28  29
ATOM     29  C   UNL     1       6.193  -5.951   4.952  1.00  0.00     0.261 C 
BRANCH  29  30
ATOM     30  O   UNL     1       7.478  -5.365   4.713  1.00  0.00    -0.460 OA
BRANCH  30  31
ATOM     31  C   UNL     1       8.253  -6.034   3.824  1.00  0.00     0.338 C 
ATOM     32  O   UNL     1       7.984  -7.072   3.244  1.00  0.00    -0.246 OA
BRANCH  31  33
ATOM     33  C   UNL     1       9.434  -5.216   3.495  1.00  0.00     0.060 A 
ATOM     34  C   UNL     1       9.678  -4.926   2.146  1.00  0.00     0.016 A 
ATOM     35  C   UNL     1      10.310  -4.776   4.489  1.00  0.00     0.016 A 
ATOM     36  C   UNL     1      10.823  -4.223   1.781  1.00  0.00     0.010 A 
ATOM     37  C   UNL     1      11.469  -4.091   4.120  1.00  0.00     0.010 A 
ATOM     38  C   UNL     1      11.745  -3.841   2.764  1.00  0.00    -0.014 A 
BRANCH  38  39
ATOM     39  C   UNL     1      13.082  -3.348   2.361  1.00  0.00     0.031 A 
ATOM     40  C   UNL     1      14.206  -4.340   2.248  1.00  0.00     0.074 A 
ATOM     41  C   UNL     1      13.292  -2.047   2.096  1.00  0.00     0.049 A 
ATOM     42  N   UNL     1      15.463  -4.136   1.955  1.00  0.00    -0.248 NA
ATOM     43  C   UNL     1      13.864  -5.751   2.501  1.00  0.00     0.031 C 
ATOM     44  C   UNL     1      12.274  -0.998   2.132  1.00  0.00     0.029 A 
ATOM     45  N   UNL     1      14.446  -1.388   1.753  1.00  0.00    -0.354 N 
ATOM     46  C   UNL     1      16.064  -5.388   1.994  1.00  0.00     0.074 A 
ATOM     47  C   UNL     1      15.040  -6.343   2.358  1.00  0.00     0.031 C 
ATOM     48  C   UNL     1      12.854   0.180   1.838  1.00  0.00     0.029 A 
ATOM     49  C   UNL     1      14.285  -0.030   1.623  1.00  0.00     0.049 A 
ATOM     50  H   UNL     1      15.306  -1.845   1.613  1.00  0.00     0.167 HD
ATOM     51  C   UNL     1      17.355  -5.715   1.747  1.00  0.00     0.031 A 
ATOM     52  C   UNL     1      15.195   0.935   1.382  1.00  0.00     0.031 A 
ATOM     53  C   UNL     1      18.377  -4.763   1.410  1.00  0.00     0.049 A 
ATOM     54  C   UNL     1      16.641   0.556   1.185  1.00  0.00     0.074 A 
ATOM     55  C   UNL     1      19.713  -4.997   1.134  1.00  0.00     0.029 A 
ATOM     56  N   UNL     1      18.181  -3.394   1.315  1.00  0.00    -0.354 N 
ATOM     57  N   UNL     1      17.190  -0.635   1.196  1.00  0.00    -0.248 NA
ATOM     58  C   UNL     1      17.587   1.653   0.937  1.00  0.00     0.031 C 
ATOM     59  C   UNL     1      20.336  -3.762   0.921  1.00  0.00     0.029 A 
ATOM     60  C   UNL     1      19.376  -2.766   1.010  1.00  0.00     0.049 A 
ATOM     61  H   UNL     1      17.320  -2.936   1.446  1.00  0.00     0.167 HD
ATOM     62  C   UNL     1      18.541  -0.433   0.930  1.00  0.00     0.074 A 
ATOM     63  C   UNL     1      18.723   0.993   0.753  1.00  0.00     0.031 C 
ATOM     64  C   UNL     1      19.540  -1.345   0.836  1.00  0.00     0.031 A 
BRANCH  51  65
ATOM     65  C   UNL     1      17.735  -7.164   1.875  1.00  0.00    -0.014 A 
ATOM     66  C   UNL     1      17.337  -8.108   0.911  1.00  0.00     0.010 A 
ATOM     67  C   UNL     1      18.521  -7.583   2.963  1.00  0.00     0.010 A 
ATOM     68  C   UNL     1      17.688  -9.453   1.053  1.00  0.00     0.020 A 
ATOM     69  C   UNL     1      18.894  -8.923   3.096  1.00  0.00     0.020 A 
ATOM     70  C   UNL     1      18.461  -9.852   2.148  1.00  0.00     0.054 A 
BRANCH  70  71
ATOM     71  S   UNL     1      18.917 -11.601   2.300  1.00  0.00     0.124 S 
ATOM     72  O   UNL     1      17.656 -12.205   2.724  1.00  0.00    -0.237 OA
ATOM     73  O   UNL     1      19.351 -11.939   0.947  1.00  0.00    -0.237 OA
ATOM     74  O   UNL     1      19.974 -11.597   3.308  1.00  0.00    -0.744 OA
ENDBRANCH  70  71
ENDBRANCH  51  65
BRANCH  52  75
ATOM     75  C   UNL     1      14.772   2.361   1.336  1.00  0.00    -0.014 A 
ATOM     76  C   UNL     1      14.762   3.067   0.121  1.00  0.00     0.010 A 
ATOM     77  C   UNL     1      14.380   3.021   2.515  1.00  0.00     0.010 A 
ATOM     78  C   UNL     1      14.382   4.412   0.088  1.00  0.00     0.020 A 
ATOM     79  C   UNL     1      13.977   4.358   2.482  1.00  0.00     0.020 A 
ATOM     80  C   UNL     1      13.991   5.049   1.270  1.00  0.00     0.054 A 
BRANCH  80  81
ATOM     81  S   UNL     1      13.454   6.781   1.196  1.00  0.00     0.124 S 
ATOM     82  O   UNL     1      14.722   7.485   1.038  1.00  0.00    -0.237 OA
ATOM     83  O   UNL     1      12.575   6.789   0.029  1.00  0.00    -0.237 OA
ATOM     84  O   UNL     1      12.779   6.983   2.476  1.00  0.00    -0.744 OA
ENDBRANCH  80  81
ENDBRANCH  52  75
BRANCH  64  85
ATOM     85  C   UNL     1      20.916  -0.840   0.493  1.00  0.00    -0.014 A 
ATOM     86  C   UNL     1      21.699  -0.154   1.438  1.00  0.00     0.010 A 
ATOM     87  C   UNL     1      21.459  -1.118  -0.776  1.00  0.00     0.010 A 
ATOM     88  C   UNL     1      22.991   0.269   1.111  1.00  0.00     0.020 A 
ATOM     89  C   UNL     1      22.758  -0.720  -1.097  1.00  0.00     0.020 A 
ATOM     90  C   UNL     1      23.512  -0.017  -0.156  1.00  0.00     0.054 A 
BRANCH  90  91
ATOM     91  S   UNL     1      25.209   0.497  -0.540  1.00  0.00     0.124 S 
ATOM     92  O   UNL     1      25.050   1.933  -0.754  1.00  0.00    -0.237 OA
ATOM     93  O   UNL     1      25.942   0.119   0.665  1.00  0.00    -0.237 OA
ATOM     94  O   UNL     1      25.543  -0.277  -1.734  1.00  0.00    -0.744 OA
ENDBRANCH  90  91
ENDBRANCH  64  85
ENDBRANCH  38  39
ENDBRANCH  31  33
ENDBRANCH  30  31
ENDBRANCH  29  30
ENDBRANCH  28  29
ENDBRANCH  27  28
ENDBRANCH   1  27
TORSDOF 22
