REMARK SMILES O=C(OCCOCCOCCOC(=O)[C@@H]1CCCC[C@H]1C(=O)Nc1sc2c(c1C(=O)NC1CCCC1)CCC2)c1ccc(-c2c3nc(c(-c4ccc(S(=O)(=O)[O-])cc4)c4ccc([nH]4)c(-c4ccc(S(=O)(=O)[O-])cc4)c4nc(c(-c5ccc(S(=O)(=O)[O-])cc5)c5ccc2[nH]5)C=C4)C=C3)cc1
REMARK SMILES IDX 8 1 7 2 6 3 5 4 4 5 3 6 2 7 1 8 40 9 41 10 99 11 42 12 98 13
REMARK SMILES IDX 43 14 44 15 45 16 92 17 46 18 97 19 91 20 93 21 47 22 96 23
REMARK SMILES IDX 90 24 89 25 48 27 78 28 59 29 77 30 60 31 63 32 76 33 94 34
REMARK SMILES IDX 61 35 62 36 75 38 95 39 64 40 49 41 50 42 58 43 51 44 57 45
REMARK SMILES IDX 52 46 53 47 54 48 55 49 56 50 79 51 80 52 88 53 81 54 87 55
REMARK SMILES IDX 82 56 83 57 84 58 85 59 86 60 65 61 66 62 74 63 67 64 73 65
REMARK SMILES IDX 68 66 69 67 70 68 71 69 72 70 9 71 10 72 11 73 12 74 13 75
REMARK SMILES IDX 14 76 15 77 16 78 20 79 17 80 19 81 18 82 21 83 22 84 23 85
REMARK SMILES IDX 24 87 25 88 28 89 26 90 27 91 39 92 37 93 38 94 29 95 30 96
REMARK SMILES IDX 31 97 32 99 33 100 36 101 34 102 35 103
REMARK H PARENT 93 26 63 37 23 86 31 98
REMARK Flexibility Score: inf
ROOT
ATOM      1  C   UNL     1       2.329  -2.022   0.861  1.00  0.00     0.188 C 
ENDROOT
BRANCH   1   2
ATOM      2  C   UNL     1       3.251  -1.372  -0.201  1.00  0.00     0.188 C 
BRANCH   2   3
ATOM      3  O   UNL     1       4.641  -1.278  -0.009  1.00  0.00    -0.376 OA
BRANCH   3   4
ATOM      4  C   UNL     1       5.250  -0.271   0.767  1.00  0.00     0.202 C 
BRANCH   4   5
ATOM      5  C   UNL     1       4.543   0.948   1.364  1.00  0.00     0.261 C 
BRANCH   5   6
ATOM      6  O   UNL     1       3.133   0.859   1.542  1.00  0.00    -0.460 OA
BRANCH   6   7
ATOM      7  C   UNL     1       2.099   1.400   0.868  1.00  0.00     0.338 C 
ATOM      8  O   UNL     1       0.968   1.206   1.315  1.00  0.00    -0.246 OA
BRANCH   7   9
ATOM      9  C   UNL     1       2.183   2.114  -0.441  1.00  0.00     0.060 A 
ATOM     10  C   UNL     1       3.264   2.850  -0.921  1.00  0.00     0.016 A 
ATOM     11  C   UNL     1       0.975   2.139  -1.174  1.00  0.00     0.016 A 
ATOM     12  C   UNL     1       3.084   3.728  -1.986  1.00  0.00     0.010 A 
ATOM     13  C   UNL     1       0.789   3.017  -2.231  1.00  0.00     0.010 A 
ATOM     14  C   UNL     1       1.824   3.871  -2.571  1.00  0.00    -0.014 A 
BRANCH  14  15
ATOM     15  C   UNL     1       1.642   4.914  -3.563  1.00  0.00     0.031 A 
ATOM     16  C   UNL     1       2.296   4.656  -4.864  1.00  0.00     0.074 A 
ATOM     17  C   UNL     1       0.898   6.021  -3.382  1.00  0.00     0.049 A 
ATOM     18  N   UNL     1       3.496   4.983  -5.215  1.00  0.00    -0.248 NA
ATOM     19  C   UNL     1       1.606   3.775  -5.812  1.00  0.00     0.031 C 
ATOM     20  C   UNL     1      -0.068   6.343  -2.333  1.00  0.00     0.029 A 
ATOM     21  N   UNL     1       0.829   7.104  -4.199  1.00  0.00    -0.354 N 
ATOM     22  C   UNL     1       3.633   4.547  -6.527  1.00  0.00     0.074 A 
ATOM     23  C   UNL     1       2.554   3.614  -6.739  1.00  0.00     0.031 C 
ATOM     24  C   UNL     1      -0.786   7.432  -2.710  1.00  0.00     0.029 A 
ATOM     25  C   UNL     1      -0.224   7.967  -3.942  1.00  0.00     0.049 A 
ATOM     26  H   UNL     1       1.479   7.263  -4.921  1.00  0.00     0.167 HD
ATOM     27  C   UNL     1       4.457   5.169  -7.419  1.00  0.00     0.031 A 
ATOM     28  C   UNL     1      -0.615   9.002  -4.732  1.00  0.00     0.031 A 
ATOM     29  C   UNL     1       5.264   6.178  -6.779  1.00  0.00     0.049 A 
ATOM     30  C   UNL     1       0.547   9.360  -5.592  1.00  0.00     0.074 A 
ATOM     31  C   UNL     1       6.185   6.194  -5.748  1.00  0.00     0.029 A 
ATOM     32  N   UNL     1       4.845   7.483  -6.923  1.00  0.00    -0.354 N 
ATOM     33  N   UNL     1       1.649   9.871  -5.116  1.00  0.00    -0.248 NA
ATOM     34  C   UNL     1       0.680   8.693  -6.881  1.00  0.00     0.031 C 
ATOM     35  C   UNL     1       5.874   7.373  -5.004  1.00  0.00     0.029 A 
ATOM     36  C   UNL     1       4.849   8.044  -5.673  1.00  0.00     0.049 A 
ATOM     37  H   UNL     1       4.590   7.927  -7.764  1.00  0.00     0.167 HD
ATOM     38  C   UNL     1       2.670   9.229  -5.804  1.00  0.00     0.074 A 
ATOM     39  C   UNL     1       2.010   8.569  -6.931  1.00  0.00     0.031 C 
ATOM     40  C   UNL     1       3.906   9.054  -5.247  1.00  0.00     0.031 A 
BRANCH  27  41
ATOM     41  C   UNL     1       4.246   5.168  -8.916  1.00  0.00    -0.014 A 
ATOM     42  C   UNL     1       5.181   5.833  -9.738  1.00  0.00     0.010 A 
ATOM     43  C   UNL     1       3.047   4.756  -9.529  1.00  0.00     0.010 A 
ATOM     44  C   UNL     1       4.896   6.126 -11.079  1.00  0.00     0.020 A 
ATOM     45  C   UNL     1       2.773   4.997 -10.875  1.00  0.00     0.020 A 
ATOM     46  C   UNL     1       3.686   5.712 -11.634  1.00  0.00     0.054 A 
BRANCH  46  47
ATOM     47  S   UNL     1       3.285   6.155 -13.339  1.00  0.00     0.124 S 
ATOM     48  O   UNL     1       3.146   7.605 -13.247  1.00  0.00    -0.237 OA
ATOM     49  O   UNL     1       4.455   5.672 -14.065  1.00  0.00    -0.237 OA
ATOM     50  O   UNL     1       2.049   5.420 -13.599  1.00  0.00    -0.744 OA
ENDBRANCH  46  47
ENDBRANCH  27  41
BRANCH  28  51
ATOM     51  C   UNL     1      -2.003   9.432  -5.045  1.00  0.00    -0.014 A 
ATOM     52  C   UNL     1      -2.264  10.646  -5.709  1.00  0.00     0.010 A 
ATOM     53  C   UNL     1      -3.057   8.501  -4.950  1.00  0.00     0.010 A 
ATOM     54  C   UNL     1      -3.514  10.891  -6.309  1.00  0.00     0.020 A 
ATOM     55  C   UNL     1      -4.304   8.738  -5.542  1.00  0.00     0.020 A 
ATOM     56  C   UNL     1      -4.520   9.923  -6.241  1.00  0.00     0.054 A 
BRANCH  56  57
ATOM     57  S   UNL     1      -6.064  10.157  -7.174  1.00  0.00     0.124 S 
ATOM     58  O   UNL     1      -6.719  11.227  -6.429  1.00  0.00    -0.237 OA
ATOM     59  O   UNL     1      -5.580  10.517  -8.504  1.00  0.00    -0.237 OA
ATOM     60  O   UNL     1      -6.717   8.852  -7.090  1.00  0.00    -0.744 OA
ENDBRANCH  56  57
ENDBRANCH  28  51
BRANCH  40  61
ATOM     61  C   UNL     1       4.251   9.807  -3.986  1.00  0.00    -0.014 A 
ATOM     62  C   UNL     1       3.534   9.711  -2.776  1.00  0.00     0.010 A 
ATOM     63  C   UNL     1       5.443  10.552  -3.999  1.00  0.00     0.010 A 
ATOM     64  C   UNL     1       3.980  10.383  -1.627  1.00  0.00     0.020 A 
ATOM     65  C   UNL     1       5.902  11.206  -2.856  1.00  0.00     0.020 A 
ATOM     66  C   UNL     1       5.159  11.133  -1.679  1.00  0.00     0.054 A 
BRANCH  66  67
ATOM     67  S   UNL     1       5.735  12.005  -0.196  1.00  0.00     0.124 S 
ATOM     68  O   UNL     1       4.707  13.026  -0.011  1.00  0.00    -0.237 OA
ATOM     69  O   UNL     1       5.763  10.947   0.811  1.00  0.00    -0.237 OA
ATOM     70  O   UNL     1       7.050  12.516  -0.582  1.00  0.00    -0.744 OA
ENDBRANCH  66  67
ENDBRANCH  40  61
ENDBRANCH  14  15
ENDBRANCH   7   9
ENDBRANCH   6   7
ENDBRANCH   5   6
ENDBRANCH   4   5
ENDBRANCH   3   4
ENDBRANCH   2   3
ENDBRANCH   1   2
BRANCH   1  71
ATOM     71  O   UNL     1       2.788  -2.933   1.849  1.00  0.00    -0.376 OA
BRANCH  71  72
ATOM     72  C   UNL     1       4.039  -3.566   1.704  1.00  0.00     0.202 C 
BRANCH  72  73
ATOM     73  C   UNL     1       4.202  -4.579   0.570  1.00  0.00     0.261 C 
BRANCH  73  74
ATOM     74  O   UNL     1       3.614  -4.202  -0.679  1.00  0.00    -0.463 OA
BRANCH  74  75
ATOM     75  C   UNL     1       2.384  -4.695  -0.970  1.00  0.00     0.309 C 
ATOM     76  O   UNL     1       1.685  -5.354  -0.202  1.00  0.00    -0.252 OA
BRANCH  75  77
ATOM     77  C   UNL     1       1.991  -4.332  -2.399  1.00  0.00     0.111 C 
ATOM     78  C   UNL     1       1.016  -3.155  -2.482  1.00  0.00     0.016 C 
ATOM     79  C   UNL     1       1.497  -5.599  -3.107  1.00  0.00     0.093 C 
ATOM     80  C   UNL     1       0.498  -2.959  -3.900  1.00  0.00     0.001 C 
ATOM     81  C   UNL     1       0.729  -5.379  -4.417  1.00  0.00     0.014 C 
ATOM     82  C   UNL     1      -0.238  -4.200  -4.359  1.00  0.00     0.001 C 
BRANCH  79  83
ATOM     83  C   UNL     1       2.631  -6.622  -3.252  1.00  0.00     0.228 C 
ATOM     84  O   UNL     1       2.477  -7.755  -2.777  1.00  0.00    -0.274 OA
ATOM     85  N   UNL     1       3.823  -6.378  -3.884  1.00  0.00    -0.317 N 
ATOM     86  H   UNL     1       4.598  -6.910  -3.592  1.00  0.00     0.170 HD
BRANCH  85  87
ATOM     87  C   UNL     1       4.040  -5.459  -4.890  1.00  0.00     0.108 A 
ATOM     88  S   UNL     1       3.982  -6.201  -6.436  1.00  0.00    -0.122 S 
ATOM     89  C   UNL     1       4.490  -4.125  -4.914  1.00  0.00     0.078 A 
ATOM     90  C   UNL     1       4.146  -4.711  -7.149  1.00  0.00     0.011 A 
ATOM     91  C   UNL     1       4.338  -3.667  -6.275  1.00  0.00    -0.019 A 
ATOM     92  C   UNL     1       4.176  -4.348  -8.586  1.00  0.00     0.047 C 
ATOM     93  C   UNL     1       4.464  -2.413  -7.080  1.00  0.00     0.038 C 
ATOM     94  C   UNL     1       3.977  -2.822  -8.496  1.00  0.00     0.010 C 
BRANCH  89  95
ATOM     95  C   UNL     1       5.046  -3.506  -3.684  1.00  0.00     0.254 C 
ATOM     96  O   UNL     1       5.547  -4.221  -2.812  1.00  0.00    -0.269 OA
ATOM     97  N   UNL     1       5.014  -2.161  -3.391  1.00  0.00    -0.349 N 
ATOM     98  H   UNL     1       5.192  -1.945  -2.447  1.00  0.00     0.164 HD
BRANCH  97  99
ATOM     99  C   UNL     1       4.766  -1.024  -4.224  1.00  0.00     0.082 C 
ATOM    100  C   UNL     1       3.326  -0.544  -4.261  1.00  0.00     0.025 C 
ATOM    101  C   UNL     1       5.501   0.256  -3.846  1.00  0.00     0.025 C 
ATOM    102  C   UNL     1       3.424   0.772  -5.017  1.00  0.00     0.002 C 
ATOM    103  C   UNL     1       4.844   1.288  -4.766  1.00  0.00     0.002 C 
ENDBRANCH  97  99
ENDBRANCH  89  95
ENDBRANCH  85  87
ENDBRANCH  79  83
ENDBRANCH  75  77
ENDBRANCH  74  75
ENDBRANCH  73  74
ENDBRANCH  72  73
ENDBRANCH  71  72
ENDBRANCH   1  71
TORSDOF 24
