REMARK SMILES C[C@H](Cc1cccs1)N(C)C(=O)N1CC[C@@H](CC(=O)OCCOCCOCCOC(=O)c2ccc(-c3c4nc(c(-c5ccc(S(=O)(=O)[O-])cc5)c5ccc([nH]5)c(-c5ccc(S(=O)(=O)[O-])cc5)c5nc(c(-c6ccc(S(=O)(=O)[O-])cc6)c6ccc3[nH]6)C=C5)C=C4)cc2)C1
REMARK SMILES IDX 23 1 22 2 21 3 20 4 18 5 19 6 17 7 16 8 13 9 14 10 92 11
REMARK SMILES IDX 15 12 11 13 12 14 9 15 10 16 2 17 1 18 3 19 4 20 5 21 8 22
REMARK SMILES IDX 6 23 7 24 24 25 25 26 26 27 27 28 28 29 29 30 30 31 31 32
REMARK SMILES IDX 32 33 33 34 91 35 34 36 90 37 35 38 36 39 37 40 84 41 38 42
REMARK SMILES IDX 89 43 83 44 85 45 39 46 88 47 82 48 81 49 40 51 70 52 51 53
REMARK SMILES IDX 69 54 52 55 55 56 68 57 86 58 53 59 54 60 67 62 87 63 56 64
REMARK SMILES IDX 41 65 42 66 50 67 43 68 49 69 44 70 45 71 46 72 47 73 48 74
REMARK SMILES IDX 71 75 72 76 80 77 73 78 79 79 74 80 75 81 76 82 77 83 78 84
REMARK SMILES IDX 57 85 58 86 66 87 59 88 65 89 60 90 61 91 62 92 63 93 64 94
REMARK H PARENT 85 50 55 61
REMARK Flexibility Score: inf
ROOT
ATOM      1  O   UNL     1      -6.103  -6.369  -0.048  1.00  0.00    -0.376 OA
ENDROOT
BRANCH   1   2
ATOM      2  C   UNL     1      -5.303  -6.381  -1.234  1.00  0.00     0.202 C 
BRANCH   2   3
ATOM      3  C   UNL     1      -5.511  -5.241  -2.254  1.00  0.00     0.261 C 
BRANCH   3   4
ATOM      4  O   UNL     1      -5.431  -3.919  -1.677  1.00  0.00    -0.463 OA
BRANCH   4   5
ATOM      5  C   UNL     1      -6.350  -3.008  -2.092  1.00  0.00     0.306 C 
ATOM      6  O   UNL     1      -7.076  -3.147  -3.069  1.00  0.00    -0.252 OA
BRANCH   5   7
ATOM      7  C   UNL     1      -6.521  -1.872  -1.093  1.00  0.00     0.128 C 
BRANCH   7   8
ATOM      8  C   UNL     1      -5.420  -0.835  -0.869  1.00  0.00     0.021 C 
ATOM      9  N   UNL     1      -3.143  -0.488  -1.430  1.00  0.00    -0.324 N 
ATOM     10  C   UNL     1      -3.904  -0.021  -2.569  1.00  0.00     0.122 C 
ATOM     11  C   UNL     1      -3.996  -1.333  -0.613  1.00  0.00     0.125 C 
ATOM     12  C   UNL     1      -5.291   0.201  -1.998  1.00  0.00     0.027 C 
BRANCH   9  13
ATOM     13  C   UNL     1      -1.785  -0.733  -1.448  1.00  0.00     0.320 C 
ATOM     14  O   UNL     1      -1.373  -1.867  -1.217  1.00  0.00    -0.248 OA
BRANCH  13  15
ATOM     15  N   UNL     1      -0.941   0.346  -1.686  1.00  0.00    -0.325 N 
ATOM     16  C   UNL     1      -1.419   1.722  -1.751  1.00  0.00     0.149 C 
BRANCH  15  17
ATOM     17  C   UNL     1       0.533   0.173  -1.699  1.00  0.00     0.088 C 
ATOM     18  C   UNL     1       1.054  -0.910  -2.649  1.00  0.00     0.031 C 
BRANCH  17  19
ATOM     19  C   UNL     1       1.227   0.219  -0.312  1.00  0.00     0.071 C 
BRANCH  19  20
ATOM     20  C   UNL     1       1.002  -0.872   0.697  1.00  0.00     0.007 A 
ATOM     21  C   UNL     1       0.720  -0.704   2.043  1.00  0.00     0.015 A 
ATOM     22  S   UNL     1       1.254  -2.530   0.340  1.00  0.00    -0.149 S 
ATOM     23  C   UNL     1       0.539  -1.940   2.724  1.00  0.00     0.012 A 
ATOM     24  C   UNL     1       0.728  -3.014   1.888  1.00  0.00     0.065 A 
ENDBRANCH  19  20
ENDBRANCH  17  19
ENDBRANCH  15  17
ENDBRANCH  13  15
ENDBRANCH   9  13
ENDBRANCH   7   8
ENDBRANCH   5   7
ENDBRANCH   4   5
ENDBRANCH   3   4
ENDBRANCH   2   3
ENDBRANCH   1   2
BRANCH   1  25
ATOM     25  C   UNL     1      -6.148  -5.152   0.689  1.00  0.00     0.188 C 
BRANCH  25  26
ATOM     26  C   UNL     1      -4.809  -4.564   1.161  1.00  0.00     0.188 C 
BRANCH  26  27
ATOM     27  O   UNL     1      -3.699  -4.954   0.373  1.00  0.00    -0.376 OA
BRANCH  27  28
ATOM     28  C   UNL     1      -2.397  -4.834   0.938  1.00  0.00     0.202 C 
BRANCH  28  29
ATOM     29  C   UNL     1      -2.165  -5.684   2.203  1.00  0.00     0.261 C 
BRANCH  29  30
ATOM     30  O   UNL     1      -2.911  -5.303   3.380  1.00  0.00    -0.460 OA
BRANCH  30  31
ATOM     31  C   UNL     1      -2.962  -3.995   3.715  1.00  0.00     0.338 C 
ATOM     32  O   UNL     1      -2.252  -3.096   3.292  1.00  0.00    -0.246 OA
BRANCH  31  33
ATOM     33  C   UNL     1      -4.202  -3.752   4.482  1.00  0.00     0.060 A 
ATOM     34  C   UNL     1      -4.984  -2.637   4.143  1.00  0.00     0.016 A 
ATOM     35  C   UNL     1      -4.629  -4.637   5.474  1.00  0.00     0.016 A 
ATOM     36  C   UNL     1      -6.174  -2.383   4.825  1.00  0.00     0.010 A 
ATOM     37  C   UNL     1      -5.816  -4.377   6.161  1.00  0.00     0.010 A 
ATOM     38  C   UNL     1      -6.577  -3.231   5.864  1.00  0.00    -0.014 A 
BRANCH  38  39
ATOM     39  C   UNL     1      -7.682  -2.829   6.769  1.00  0.00     0.031 A 
ATOM     40  C   UNL     1      -7.324  -2.241   8.108  1.00  0.00     0.074 A 
ATOM     41  C   UNL     1      -8.973  -2.968   6.415  1.00  0.00     0.049 A 
ATOM     42  N   UNL     1      -8.105  -1.879   9.091  1.00  0.00    -0.248 NA
ATOM     43  C   UNL     1      -5.888  -2.042   8.374  1.00  0.00     0.031 C 
ATOM     44  C   UNL     1      -9.451  -3.487   5.135  1.00  0.00     0.029 A 
ATOM     45  N   UNL     1     -10.121  -2.692   7.117  1.00  0.00    -0.354 N 
ATOM     46  C   UNL     1      -7.260  -1.413  10.091  1.00  0.00     0.074 A 
ATOM     47  C   UNL     1      -5.905  -1.576   9.614  1.00  0.00     0.031 C 
ATOM     48  C   UNL     1     -10.797  -3.505   5.149  1.00  0.00     0.029 A 
ATOM     49  C   UNL     1     -11.273  -3.034   6.449  1.00  0.00     0.049 A 
ATOM     50  H   UNL     1     -10.119  -2.287   8.014  1.00  0.00     0.167 HD
ATOM     51  C   UNL     1      -7.580  -0.885  11.296  1.00  0.00     0.031 A 
ATOM     52  C   UNL     1     -12.560  -2.997   6.850  1.00  0.00     0.031 A 
ATOM     53  C   UNL     1      -8.927  -0.740  11.778  1.00  0.00     0.049 A 
ATOM     54  C   UNL     1     -12.891  -2.480   8.229  1.00  0.00     0.074 A 
ATOM     55  C   UNL     1      -9.355  -0.220  12.987  1.00  0.00     0.029 A 
ATOM     56  N   UNL     1     -10.063  -1.119  11.081  1.00  0.00    -0.354 N 
ATOM     57  N   UNL     1     -12.081  -2.026   9.157  1.00  0.00    -0.248 NA
ATOM     58  C   UNL     1     -14.311  -2.458   8.610  1.00  0.00     0.031 C 
ATOM     59  C   UNL     1     -10.747  -0.336  13.043  1.00  0.00     0.029 A 
ATOM     60  C   UNL     1     -11.192  -0.863  11.841  1.00  0.00     0.049 A 
ATOM     61  H   UNL     1     -10.068  -1.513  10.178  1.00  0.00     0.167 HD
ATOM     62  C   UNL     1     -12.896  -1.639  10.217  1.00  0.00     0.074 A 
ATOM     63  C   UNL     1     -14.262  -1.894   9.809  1.00  0.00     0.031 C 
ATOM     64  C   UNL     1     -12.547  -1.117  11.420  1.00  0.00     0.031 A 
BRANCH  51  65
ATOM     65  C   UNL     1      -6.447  -0.443  12.184  1.00  0.00    -0.014 A 
ATOM     66  C   UNL     1      -5.673   0.687  11.864  1.00  0.00     0.010 A 
ATOM     67  C   UNL     1      -6.178  -1.143  13.374  1.00  0.00     0.010 A 
ATOM     68  C   UNL     1      -4.630   1.090  12.701  1.00  0.00     0.020 A 
ATOM     69  C   UNL     1      -5.155  -0.726  14.229  1.00  0.00     0.020 A 
ATOM     70  C   UNL     1      -4.378   0.381  13.880  1.00  0.00     0.054 A 
BRANCH  70  71
ATOM     71  S   UNL     1      -3.039   0.948  14.963  1.00  0.00     0.124 S 
ATOM     72  O   UNL     1      -1.854   0.603  14.182  1.00  0.00    -0.237 OA
ATOM     73  O   UNL     1      -3.314   2.378  15.087  1.00  0.00    -0.237 OA
ATOM     74  O   UNL     1      -3.228   0.172  16.186  1.00  0.00    -0.744 OA
ENDBRANCH  70  71
ENDBRANCH  51  65
BRANCH  52  75
ATOM     75  C   UNL     1     -13.639  -3.495   5.949  1.00  0.00    -0.014 A 
ATOM     76  C   UNL     1     -14.599  -2.618   5.414  1.00  0.00     0.010 A 
ATOM     77  C   UNL     1     -13.721  -4.865   5.638  1.00  0.00     0.010 A 
ATOM     78  C   UNL     1     -15.632  -3.104   4.605  1.00  0.00     0.020 A 
ATOM     79  C   UNL     1     -14.732  -5.351   4.803  1.00  0.00     0.020 A 
ATOM     80  C   UNL     1     -15.690  -4.468   4.303  1.00  0.00     0.054 A 
BRANCH  80  81
ATOM     81  S   UNL     1     -17.015  -5.069   3.218  1.00  0.00     0.124 S 
ATOM     82  O   UNL     1     -18.186  -4.966   4.083  1.00  0.00    -0.237 OA
ATOM     83  O   UNL     1     -16.963  -4.123   2.106  1.00  0.00    -0.237 OA
ATOM     84  O   UNL     1     -16.596  -6.430   2.889  1.00  0.00    -0.744 OA
ENDBRANCH  80  81
ENDBRANCH  52  75
BRANCH  64  85
ATOM     85  C   UNL     1     -13.655  -0.739  12.371  1.00  0.00    -0.014 A 
ATOM     86  C   UNL     1     -14.427  -1.715  13.024  1.00  0.00     0.010 A 
ATOM     87  C   UNL     1     -13.880   0.620  12.663  1.00  0.00     0.010 A 
ATOM     88  C   UNL     1     -15.427  -1.337  13.927  1.00  0.00     0.020 A 
ATOM     89  C   UNL     1     -14.856   1.000  13.588  1.00  0.00     0.020 A 
ATOM     90  C   UNL     1     -15.634   0.018  14.204  1.00  0.00     0.054 A 
BRANCH  90  91
ATOM     91  S   UNL     1     -16.906   0.478  15.412  1.00  0.00     0.124 S 
ATOM     92  O   UNL     1     -18.138   0.193  14.681  1.00  0.00    -0.237 OA
ATOM     93  O   UNL     1     -16.620  -0.414  16.533  1.00  0.00    -0.237 OA
ATOM     94  O   UNL     1     -16.647   1.893  15.668  1.00  0.00    -0.744 OA
ENDBRANCH  90  91
ENDBRANCH  64  85
ENDBRANCH  38  39
ENDBRANCH  31  33
ENDBRANCH  30  31
ENDBRANCH  29  30
ENDBRANCH  28  29
ENDBRANCH  27  28
ENDBRANCH  26  27
ENDBRANCH  25  26
ENDBRANCH   1  25
TORSDOF 26
