REMARK SMILES C/C(=N\Nc1nc(-c2ccc(Cl)cc2)cs1)c1nnn(-c2ccc(C(=O)OCCOCCOCCOC(=O)c3ccc(-c4c5nc(c(-c6ccc(S(=O)(=O)[O-])cc6)c6ccc([nH]6)c(-c6ccc(S(=O)(=O)[O-])cc6)c6nc(c(-c7ccc(S(=O)(=O)[O-])cc7)c7ccc4[nH]7)C=C6)C=C5)cc3)cc2)c1C
REMARK SMILES IDX 31 1 30 2 29 3 28 4 27 5 25 6 26 7 24 8 21 9 22 10 100 11
REMARK SMILES IDX 23 12 99 13 20 14 17 15 18 16 101 17 19 18 102 19 2 20 1 21
REMARK SMILES IDX 3 22 4 23 5 25 6 26 16 27 7 28 15 29 8 30 9 31 14 32 10 33
REMARK SMILES IDX 13 34 11 35 12 36 32 37 33 38 34 39 35 40 36 41 37 42 38 43
REMARK SMILES IDX 39 44 40 45 98 46 41 47 97 48 42 49 43 50 44 51 91 52 45 53
REMARK SMILES IDX 96 54 90 55 92 56 46 57 95 58 89 59 88 60 47 62 77 63 58 64
REMARK SMILES IDX 76 65 59 66 62 67 75 68 93 69 60 70 61 71 74 73 94 74 63 75
REMARK SMILES IDX 48 76 49 77 57 78 50 79 56 80 51 81 52 82 53 83 54 84 55 85
REMARK SMILES IDX 78 86 79 87 87 88 80 89 86 90 81 91 82 92 83 93 84 94 85 95
REMARK SMILES IDX 64 96 65 97 73 98 66 99 72 100 67 101 68 102 69 103 70 104
REMARK SMILES IDX 71 105
REMARK H PARENT 4 24 92 61 62 72
REMARK Flexibility Score: inf
ROOT
ATOM      1  C   UNL     1       7.093  -9.201   0.840  1.00  0.00     0.188 C 
ENDROOT
BRANCH   1   2
ATOM      2  O   UNL     1       8.397  -9.566   0.401  1.00  0.00    -0.376 OA
BRANCH   2   3
ATOM      3  C   UNL     1       9.489  -8.679   0.610  1.00  0.00     0.202 C 
BRANCH   3   4
ATOM      4  C   UNL     1       9.390  -7.230   0.105  1.00  0.00     0.261 C 
BRANCH   4   5
ATOM      5  O   UNL     1       8.223  -6.526   0.555  1.00  0.00    -0.460 OA
BRANCH   5   6
ATOM      6  C   UNL     1       7.336  -6.170  -0.399  1.00  0.00     0.338 C 
ATOM      7  O   UNL     1       7.483  -6.259  -1.612  1.00  0.00    -0.246 OA
BRANCH   6   8
ATOM      8  C   UNL     1       6.055  -5.757   0.218  1.00  0.00     0.060 A 
ATOM      9  C   UNL     1       3.617  -4.821   1.163  1.00  0.00     0.067 A 
ATOM     10  C   UNL     1       3.634  -5.651   0.039  1.00  0.00     0.029 A 
ATOM     11  C   UNL     1       4.787  -4.584   1.899  1.00  0.00     0.029 A 
ATOM     12  C   UNL     1       4.864  -6.097  -0.445  1.00  0.00     0.018 A 
ATOM     13  C   UNL     1       6.011  -5.051   1.425  1.00  0.00     0.018 A 
BRANCH   9  14
ATOM     14  N   UNL     1       2.480  -4.009   1.380  1.00  0.00    -0.217 N 
ATOM     15  C   UNL     1       1.155  -2.282   1.233  1.00  0.00     0.132 A 
ATOM     16  N   UNL     1       0.393  -3.415   1.210  1.00  0.00    -0.128 NA
ATOM     17  C   UNL     1       2.490  -2.622   1.369  1.00  0.00     0.071 A 
ATOM     18  N   UNL     1       1.214  -4.460   1.224  1.00  0.00    -0.061 NA
ATOM     19  C   UNL     1       3.710  -1.780   1.264  1.00  0.00     0.069 C 
BRANCH  15  20
ATOM     20  C   UNL     1       0.664  -0.946   0.929  1.00  0.00     0.087 C 
ATOM     21  C   UNL     1       1.200  -0.357  -0.353  1.00  0.00     0.071 C 
ATOM     22  N   UNL     1      -0.083  -0.397   1.843  1.00  0.00    -0.176 NA
BRANCH  22  23
ATOM     23  N   UNL     1      -0.479   0.917   1.844  1.00  0.00    -0.252 N 
ATOM     24  H   UNL     1      -0.860   1.220   2.700  1.00  0.00     0.193 HD
BRANCH  23  25
ATOM     25  C   UNL     1      -0.445   1.876   0.886  1.00  0.00     0.203 A 
ATOM     26  N   UNL     1      -0.600   1.700  -0.405  1.00  0.00    -0.219 NA
ATOM     27  S   UNL     1      -0.116   3.519   1.323  1.00  0.00    -0.103 S 
ATOM     28  C   UNL     1      -0.181   2.809  -1.107  1.00  0.00     0.084 A 
ATOM     29  C   UNL     1       0.127   3.906  -0.333  1.00  0.00     0.097 A 
BRANCH  28  30
ATOM     30  C   UNL     1      -0.032   2.733  -2.547  1.00  0.00     0.001 A 
ATOM     31  C   UNL     1      -1.082   2.221  -3.320  1.00  0.00     0.012 A 
ATOM     32  C   UNL     1       1.183   3.058  -3.165  1.00  0.00     0.012 A 
ATOM     33  C   UNL     1      -0.929   2.054  -4.699  1.00  0.00     0.021 A 
ATOM     34  C   UNL     1       1.340   2.880  -4.543  1.00  0.00     0.021 A 
ATOM     35  C   UNL     1       0.282   2.383  -5.304  1.00  0.00     0.041 A 
ATOM     36  Cl  UNL     1       0.479   2.160  -6.998  1.00  0.00    -0.084 Cl
ENDBRANCH  28  30
ENDBRANCH  23  25
ENDBRANCH  22  23
ENDBRANCH  15  20
ENDBRANCH   9  14
ENDBRANCH   6   8
ENDBRANCH   5   6
ENDBRANCH   4   5
ENDBRANCH   3   4
ENDBRANCH   2   3
ENDBRANCH   1   2
BRANCH   1  37
ATOM     37  C   UNL     1       6.879  -8.546   2.223  1.00  0.00     0.188 C 
BRANCH  37  38
ATOM     38  O   UNL     1       8.066  -8.115   2.870  1.00  0.00    -0.376 OA
BRANCH  38  39
ATOM     39  C   UNL     1       8.365  -8.722   4.121  1.00  0.00     0.202 C 
BRANCH  39  40
ATOM     40  C   UNL     1       8.713 -10.211   4.103  1.00  0.00     0.261 C 
BRANCH  40  41
ATOM     41  O   UNL     1       7.861 -11.023   3.305  1.00  0.00    -0.460 OA
BRANCH  41  42
ATOM     42  C   UNL     1       6.638 -11.268   3.804  1.00  0.00     0.338 C 
ATOM     43  O   UNL     1       6.104 -10.689   4.749  1.00  0.00    -0.246 OA
BRANCH  42  44
ATOM     44  C   UNL     1       6.045 -12.387   3.066  1.00  0.00     0.060 A 
ATOM     45  C   UNL     1       4.688 -12.656   3.260  1.00  0.00     0.016 A 
ATOM     46  C   UNL     1       6.886 -13.289   2.392  1.00  0.00     0.016 A 
ATOM     47  C   UNL     1       4.219 -13.918   2.961  1.00  0.00     0.010 A 
ATOM     48  C   UNL     1       6.421 -14.553   2.109  1.00  0.00     0.010 A 
ATOM     49  C   UNL     1       5.119 -14.877   2.484  1.00  0.00    -0.014 A 
BRANCH  49  50
ATOM     50  C   UNL     1       4.699 -16.263   2.515  1.00  0.00     0.031 A 
ATOM     51  C   UNL     1       3.893 -16.735   1.375  1.00  0.00     0.074 A 
ATOM     52  C   UNL     1       5.109 -17.095   3.491  1.00  0.00     0.049 A 
ATOM     53  N   UNL     1       2.670 -17.148   1.387  1.00  0.00    -0.248 NA
ATOM     54  C   UNL     1       4.506 -16.668   0.042  1.00  0.00     0.031 C 
ATOM     55  C   UNL     1       6.161 -16.852   4.484  1.00  0.00     0.029 A 
ATOM     56  N   UNL     1       4.752 -18.388   3.718  1.00  0.00    -0.354 N 
ATOM     57  C   UNL     1       2.410 -17.574   0.092  1.00  0.00     0.074 A 
ATOM     58  C   UNL     1       3.513 -17.121  -0.721  1.00  0.00     0.031 C 
ATOM     59  C   UNL     1       6.509 -18.028   5.050  1.00  0.00     0.029 A 
ATOM     60  C   UNL     1       5.625 -19.070   4.551  1.00  0.00     0.049 A 
ATOM     61  H   UNL     1       3.948 -18.800   3.327  1.00  0.00     0.167 HD
ATOM     62  C   UNL     1       1.424 -18.464  -0.195  1.00  0.00     0.031 A 
ATOM     63  C   UNL     1       5.674 -20.410   4.742  1.00  0.00     0.031 A 
ATOM     64  C   UNL     1       0.490 -18.630   0.885  1.00  0.00     0.049 A 
ATOM     65  C   UNL     1       4.376 -20.981   4.309  1.00  0.00     0.074 A 
ATOM     66  C   UNL     1      -0.370 -17.793   1.567  1.00  0.00     0.029 A 
ATOM     67  N   UNL     1       0.602 -19.768   1.647  1.00  0.00    -0.354 N 
ATOM     68  N   UNL     1       3.248 -20.782   4.931  1.00  0.00    -0.248 NA
ATOM     69  C   UNL     1       4.250 -21.493   2.953  1.00  0.00     0.031 C 
ATOM     70  C   UNL     1      -0.401 -18.290   2.903  1.00  0.00     0.029 A 
ATOM     71  C   UNL     1       0.430 -19.410   2.961  1.00  0.00     0.049 A 
ATOM     72  H   UNL     1       0.774 -20.677   1.311  1.00  0.00     0.167 HD
ATOM     73  C   UNL     1       2.286 -20.749   3.933  1.00  0.00     0.074 A 
ATOM     74  C   UNL     1       2.940 -21.321   2.762  1.00  0.00     0.031 C 
ATOM     75  C   UNL     1       1.147 -20.007   4.072  1.00  0.00     0.031 A 
BRANCH  62  76
ATOM     76  C   UNL     1       1.528 -19.452  -1.325  1.00  0.00    -0.014 A 
ATOM     77  C   UNL     1       0.394 -20.193  -1.705  1.00  0.00     0.010 A 
ATOM     78  C   UNL     1       2.775 -19.864  -1.846  1.00  0.00     0.010 A 
ATOM     79  C   UNL     1       0.511 -21.320  -2.530  1.00  0.00     0.020 A 
ATOM     80  C   UNL     1       2.896 -20.953  -2.707  1.00  0.00     0.020 A 
ATOM     81  C   UNL     1       1.766 -21.698  -3.013  1.00  0.00     0.054 A 
BRANCH  81  82
ATOM     82  S   UNL     1       1.929 -23.220  -3.977  1.00  0.00     0.124 S 
ATOM     83  O   UNL     1       1.726 -24.242  -2.955  1.00  0.00    -0.237 OA
ATOM     84  O   UNL     1       0.859 -23.085  -4.962  1.00  0.00    -0.237 OA
ATOM     85  O   UNL     1       3.283 -23.135  -4.521  1.00  0.00    -0.744 OA
ENDBRANCH  81  82
ENDBRANCH  62  76
BRANCH  63  86
ATOM     86  C   UNL     1       6.879 -21.237   4.990  1.00  0.00    -0.014 A 
ATOM     87  C   UNL     1       6.762 -22.574   5.407  1.00  0.00     0.010 A 
ATOM     88  C   UNL     1       8.148 -20.789   4.564  1.00  0.00     0.010 A 
ATOM     89  C   UNL     1       7.861 -23.446   5.342  1.00  0.00     0.020 A 
ATOM     90  C   UNL     1       9.250 -21.646   4.513  1.00  0.00     0.020 A 
ATOM     91  C   UNL     1       9.094 -22.980   4.877  1.00  0.00     0.054 A 
BRANCH  91  92
ATOM     92  S   UNL     1      10.457 -24.152   4.624  1.00  0.00     0.124 S 
ATOM     93  O   UNL     1      10.845 -24.477   5.993  1.00  0.00    -0.237 OA
ATOM     94  O   UNL     1       9.814 -25.229   3.875  1.00  0.00    -0.237 OA
ATOM     95  O   UNL     1      11.440 -23.378   3.867  1.00  0.00    -0.744 OA
ENDBRANCH  91  92
ENDBRANCH  63  86
BRANCH  75  96
ATOM     96  C   UNL     1       0.769 -19.529   5.456  1.00  0.00    -0.014 A 
ATOM     97  C   UNL     1       1.591 -18.693   6.236  1.00  0.00     0.010 A 
ATOM     98  C   UNL     1      -0.522 -19.827   5.929  1.00  0.00     0.010 A 
ATOM     99  C   UNL     1       1.147 -18.197   7.470  1.00  0.00     0.020 A 
ATOM    100  C   UNL     1      -0.979 -19.319   7.149  1.00  0.00     0.020 A 
ATOM    101  C   UNL     1      -0.138 -18.514   7.919  1.00  0.00     0.054 A 
BRANCH 101 102
ATOM    102  S   UNL     1      -0.724 -17.821   9.491  1.00  0.00     0.124 S 
ATOM    103  O   UNL     1       0.054 -18.566  10.476  1.00  0.00    -0.237 OA
ATOM    104  O   UNL     1      -0.390 -16.404   9.367  1.00  0.00    -0.237 OA
ATOM    105  O   UNL     1      -2.158 -18.111   9.486  1.00  0.00    -0.744 OA
ENDBRANCH 101 102
ENDBRANCH  75  96
ENDBRANCH  49  50
ENDBRANCH  42  44
ENDBRANCH  41  42
ENDBRANCH  40  41
ENDBRANCH  39  40
ENDBRANCH  38  39
ENDBRANCH  37  38
ENDBRANCH   1  37
TORSDOF 25
