REMARK SMILES C[C@@H]1CN(C(=O)C[N@H+]2CCO[C@H](CC(=O)OCCOCCOCCOC(=O)c3ccc(-c4c5nc(c(-c6ccc(S(=O)(=O)[O-])cc6)c6ccc([nH]6)c(-c6ccc(S(=O)(=O)[O-])cc6)c6nc(c(-c7ccc(S(=O)(=O)[O-])cc7)c7ccc4[nH]7)C=C6)C=C5)cc3)C2)C[C@H](C)O1
REMARK SMILES IDX 20 1 19 2 18 3 17 4 16 5 14 6 15 7 13 8 12 9 8 10 9 11 88 12
REMARK SMILES IDX 10 14 11 15 7 16 5 17 6 18 4 19 1 20 2 21 3 22 92 23 90 24
REMARK SMILES IDX 89 25 91 26 21 27 22 28 23 29 24 30 25 31 26 32 27 33 28 34
REMARK SMILES IDX 29 35 87 36 30 37 86 38 31 39 32 40 33 41 80 42 34 43 85 44
REMARK SMILES IDX 79 45 81 46 35 47 84 48 78 49 77 50 36 52 66 53 47 54 65 55
REMARK SMILES IDX 48 56 51 57 64 58 82 59 49 60 50 61 63 63 83 64 52 65 37 66
REMARK SMILES IDX 38 67 46 68 39 69 45 70 40 71 41 72 42 73 43 74 44 75 67 76
REMARK SMILES IDX 68 77 76 78 69 79 75 80 70 81 71 82 72 83 73 84 74 85 53 86
REMARK SMILES IDX 54 87 62 88 55 89 61 90 56 91 57 92 58 93 59 94 60 95
REMARK H PARENT 8 13 81 51 51 62
REMARK Flexibility Score: inf
ROOT
ATOM      1  C   UNL     1      -4.834  -5.495  -4.326  1.00  0.00     0.188 C 
ENDROOT
BRANCH   1   2
ATOM      2  O   UNL     1      -5.426  -6.787  -4.396  1.00  0.00    -0.376 OA
BRANCH   2   3
ATOM      3  C   UNL     1      -5.361  -7.591  -3.217  1.00  0.00     0.202 C 
BRANCH   3   4
ATOM      4  C   UNL     1      -3.954  -7.963  -2.722  1.00  0.00     0.261 C 
BRANCH   4   5
ATOM      5  O   UNL     1      -3.148  -6.805  -2.431  1.00  0.00    -0.463 OA
BRANCH   5   6
ATOM      6  C   UNL     1      -1.898  -6.790  -2.970  1.00  0.00     0.308 C 
ATOM      7  O   UNL     1      -1.371  -7.745  -3.531  1.00  0.00    -0.252 OA
BRANCH   6   8
ATOM      8  C   UNL     1      -1.270  -5.410  -2.964  1.00  0.00     0.160 C 
BRANCH   8   9
ATOM      9  C   UNL     1      -1.664  -4.527  -1.783  1.00  0.00     0.184 C 
ATOM     10  N   UNL     1      -1.010  -2.268  -0.695  1.00  0.00    -0.323 N 
ATOM     11  C   UNL     1      -0.575  -3.129   0.420  1.00  0.00     0.291 C 
ATOM     12  C   UNL     1      -1.032  -3.100  -1.928  1.00  0.00     0.295 C 
ATOM     13  H   UNL     1      -0.344  -1.504  -0.809  1.00  0.00     0.348 HD
ATOM     14  C   UNL     1      -1.385  -4.415   0.553  1.00  0.00     0.222 C 
ATOM     15  O   UNL     1      -1.188  -5.208  -0.609  1.00  0.00    -0.366 OA
BRANCH  10  16
ATOM     16  C   UNL     1      -2.291  -1.571  -0.439  1.00  0.00     0.363 C 
BRANCH  16  17
ATOM     17  C   UNL     1      -2.157  -0.038  -0.644  1.00  0.00     0.277 C 
ATOM     18  O   UNL     1      -2.483   0.467  -1.722  1.00  0.00    -0.268 OA
BRANCH  17  19
ATOM     19  N   UNL     1      -1.711   0.748   0.415  1.00  0.00    -0.333 N 
ATOM     20  C   UNL     1       1.305  -0.006   0.376  1.00  0.00     0.040 C 
ATOM     21  C   UNL     1       0.506   0.720   1.454  1.00  0.00     0.135 C 
ATOM     22  C   UNL     1      -0.963   0.278   1.569  1.00  0.00     0.151 C 
ATOM     23  O   UNL     1       0.605   2.149   1.319  1.00  0.00    -0.372 OA
ATOM     24  C   UNL     1      -0.250   2.760   0.328  1.00  0.00     0.135 C 
ATOM     25  C   UNL     1      -1.693   2.207   0.318  1.00  0.00     0.151 C 
ATOM     26  C   UNL     1       0.387   2.758  -1.056  1.00  0.00     0.040 C 
ENDBRANCH  17  19
ENDBRANCH  16  17
ENDBRANCH  10  16
ENDBRANCH   8   9
ENDBRANCH   6   8
ENDBRANCH   5   6
ENDBRANCH   4   5
ENDBRANCH   3   4
ENDBRANCH   2   3
ENDBRANCH   1   2
BRANCH   1  27
ATOM     27  C   UNL     1      -5.424  -4.531  -3.292  1.00  0.00     0.188 C 
BRANCH  27  28
ATOM     28  O   UNL     1      -5.568  -5.059  -1.978  1.00  0.00    -0.376 OA
BRANCH  28  29
ATOM     29  C   UNL     1      -6.051  -4.149  -0.985  1.00  0.00     0.202 C 
BRANCH  29  30
ATOM     30  C   UNL     1      -7.364  -3.412  -1.319  1.00  0.00     0.261 C 
BRANCH  30  31
ATOM     31  O   UNL     1      -7.288  -2.526  -2.454  1.00  0.00    -0.460 OA
BRANCH  31  32
ATOM     32  C   UNL     1      -6.305  -1.593  -2.450  1.00  0.00     0.338 C 
ATOM     33  O   UNL     1      -5.634  -1.266  -1.485  1.00  0.00    -0.246 OA
BRANCH  32  34
ATOM     34  C   UNL     1      -5.995  -1.241  -3.864  1.00  0.00     0.060 A 
ATOM     35  C   UNL     1      -4.656  -1.021  -4.217  1.00  0.00     0.016 A 
ATOM     36  C   UNL     1      -6.987  -1.200  -4.850  1.00  0.00     0.016 A 
ATOM     37  C   UNL     1      -4.314  -0.715  -5.537  1.00  0.00     0.010 A 
ATOM     38  C   UNL     1      -6.646  -0.881  -6.170  1.00  0.00     0.010 A 
ATOM     39  C   UNL     1      -5.312  -0.599  -6.513  1.00  0.00    -0.014 A 
BRANCH  39  40
ATOM     40  C   UNL     1      -5.005   0.060  -7.809  1.00  0.00     0.031 A 
ATOM     41  C   UNL     1      -5.284   1.537  -7.927  1.00  0.00     0.074 A 
ATOM     42  C   UNL     1      -4.471  -0.604  -8.851  1.00  0.00     0.049 A 
ATOM     43  N   UNL     1      -5.140   2.332  -8.955  1.00  0.00    -0.248 NA
ATOM     44  C   UNL     1      -5.798   2.203  -6.717  1.00  0.00     0.031 C 
ATOM     45  C   UNL     1      -4.101  -2.018  -8.863  1.00  0.00     0.029 A 
ATOM     46  N   UNL     1      -4.147  -0.162 -10.112  1.00  0.00    -0.354 N 
ATOM     47  C   UNL     1      -5.547   3.587  -8.518  1.00  0.00     0.074 A 
ATOM     48  C   UNL     1      -5.977   3.442  -7.145  1.00  0.00     0.031 C 
ATOM     49  C   UNL     1      -3.601  -2.328 -10.074  1.00  0.00     0.029 A 
ATOM     50  C   UNL     1      -3.646  -1.144 -10.934  1.00  0.00     0.049 A 
ATOM     51  H   UNL     1      -4.263   0.772 -10.400  1.00  0.00     0.167 HD
ATOM     52  C   UNL     1      -5.556   4.762  -9.191  1.00  0.00     0.031 A 
ATOM     53  C   UNL     1      -3.281  -1.097 -12.233  1.00  0.00     0.031 A 
ATOM     54  C   UNL     1      -5.144   4.914 -10.559  1.00  0.00     0.049 A 
ATOM     55  C   UNL     1      -3.382   0.205 -12.990  1.00  0.00     0.074 A 
ATOM     56  C   UNL     1      -5.123   6.065 -11.327  1.00  0.00     0.029 A 
ATOM     57  N   UNL     1      -4.685   3.885 -11.366  1.00  0.00    -0.354 N 
ATOM     58  N   UNL     1      -3.761   1.386 -12.560  1.00  0.00    -0.248 NA
ATOM     59  C   UNL     1      -2.997   0.181 -14.411  1.00  0.00     0.031 C 
ATOM     60  C   UNL     1      -4.700   5.722 -12.615  1.00  0.00     0.029 A 
ATOM     61  C   UNL     1      -4.398   4.370 -12.630  1.00  0.00     0.049 A 
ATOM     62  H   UNL     1      -4.579   2.948 -11.082  1.00  0.00     0.167 HD
ATOM     63  C   UNL     1      -3.625   2.248 -13.646  1.00  0.00     0.074 A 
ATOM     64  C   UNL     1      -3.122   1.458 -14.749  1.00  0.00     0.031 C 
ATOM     65  C   UNL     1      -3.887   3.577 -13.720  1.00  0.00     0.031 A 
BRANCH  52  66
ATOM     66  C   UNL     1      -6.064   5.972  -8.456  1.00  0.00    -0.014 A 
ATOM     67  C   UNL     1      -5.314   6.565  -7.424  1.00  0.00     0.010 A 
ATOM     68  C   UNL     1      -7.300   6.537  -8.817  1.00  0.00     0.010 A 
ATOM     69  C   UNL     1      -5.810   7.678  -6.740  1.00  0.00     0.020 A 
ATOM     70  C   UNL     1      -7.786   7.667  -8.155  1.00  0.00     0.020 A 
ATOM     71  C   UNL     1      -7.045   8.219  -7.109  1.00  0.00     0.054 A 
BRANCH  71  72
ATOM     72  S   UNL     1      -7.658   9.675  -6.217  1.00  0.00     0.124 S 
ATOM     73  O   UNL     1      -8.042   9.100  -4.930  1.00  0.00    -0.237 OA
ATOM     74  O   UNL     1      -6.489  10.550  -6.189  1.00  0.00    -0.237 OA
ATOM     75  O   UNL     1      -8.766  10.147  -7.043  1.00  0.00    -0.744 OA
ENDBRANCH  71  72
ENDBRANCH  52  66
BRANCH  53  76
ATOM     76  C   UNL     1      -2.799  -2.328 -12.924  1.00  0.00    -0.014 A 
ATOM     77  C   UNL     1      -1.462  -2.439 -13.347  1.00  0.00     0.010 A 
ATOM     78  C   UNL     1      -3.688  -3.384 -13.194  1.00  0.00     0.010 A 
ATOM     79  C   UNL     1      -1.030  -3.571 -14.047  1.00  0.00     0.020 A 
ATOM     80  C   UNL     1      -3.254  -4.530 -13.867  1.00  0.00     0.020 A 
ATOM     81  C   UNL     1      -1.930  -4.610 -14.302  1.00  0.00     0.054 A 
BRANCH  81  82
ATOM     82  S   UNL     1      -1.339  -6.086 -15.179  1.00  0.00     0.124 S 
ATOM     83  O   UNL     1      -1.203  -5.593 -16.546  1.00  0.00    -0.237 OA
ATOM     84  O   UNL     1      -0.089  -6.385 -14.486  1.00  0.00    -0.237 OA
ATOM     85  O   UNL     1      -2.409  -7.059 -14.967  1.00  0.00    -0.744 OA
ENDBRANCH  81  82
ENDBRANCH  53  76
BRANCH  65  86
ATOM     86  C   UNL     1      -3.589   4.284 -15.018  1.00  0.00    -0.014 A 
ATOM     87  C   UNL     1      -4.384   4.093 -16.160  1.00  0.00     0.010 A 
ATOM     88  C   UNL     1      -2.529   5.210 -15.070  1.00  0.00     0.010 A 
ATOM     89  C   UNL     1      -4.107   4.790 -17.341  1.00  0.00     0.020 A 
ATOM     90  C   UNL     1      -2.265   5.929 -16.239  1.00  0.00     0.020 A 
ATOM     91  C   UNL     1      -3.048   5.704 -17.372  1.00  0.00     0.054 A 
BRANCH  91  92
ATOM     92  S   UNL     1      -2.735   6.630 -18.902  1.00  0.00     0.124 S 
ATOM     93  O   UNL     1      -2.138   5.609 -19.758  1.00  0.00    -0.237 OA
ATOM     94  O   UNL     1      -4.073   7.071 -19.289  1.00  0.00    -0.237 OA
ATOM     95  O   UNL     1      -1.831   7.698 -18.482  1.00  0.00    -0.744 OA
ENDBRANCH  91  92
ENDBRANCH  65  86
ENDBRANCH  39  40
ENDBRANCH  32  34
ENDBRANCH  31  32
ENDBRANCH  30  31
ENDBRANCH  29  30
ENDBRANCH  28  29
ENDBRANCH  27  28
ENDBRANCH   1  27
TORSDOF 24
