REMARK SMILES Cc1ccc(S(=O)(=O)n2cc(C(=O)C(=O)N[C@@H](Cc3cnc[nH]3)C(=O)OCCOCCOCCOC(=O)c3ccc(-c4c5nc(c(-c6ccc(S(=O)(=O)[O-])cc6)c6ccc([nH]6)c(-c6ccc(S(=O)(=O)[O-])cc6)c6nc(c(-c7ccc(S(=O)(=O)[O-])cc7)c7ccc4[nH]7)C=C6)C=C5)cc3)c3ccccc32)cc1
REMARK SMILES IDX 30 1 29 2 28 3 27 4 26 5 24 6 25 7 17 8 16 9 14 10 15 11
REMARK SMILES IDX 12 13 13 14 11 15 9 16 10 17 103 18 98 19 102 20 99 21
REMARK SMILES IDX 101 22 100 23 6 24 7 25 8 26 5 27 1 28 2 29 3 30 105 31 4 32
REMARK SMILES IDX 104 33 18 34 19 35 20 36 23 37 21 38 22 39 31 41 32 42 33 43
REMARK SMILES IDX 34 44 35 45 36 46 37 47 38 48 39 49 97 50 40 51 96 52 41 53
REMARK SMILES IDX 42 54 43 55 90 56 44 57 95 58 89 59 91 60 45 61 94 62 88 63
REMARK SMILES IDX 87 64 46 66 76 67 57 68 75 69 58 70 61 71 74 72 92 73 59 74
REMARK SMILES IDX 60 75 73 77 93 78 62 79 47 80 48 81 56 82 49 83 55 84 50 85
REMARK SMILES IDX 51 86 52 87 53 88 54 89 77 90 78 91 86 92 79 93 85 94 80 95
REMARK SMILES IDX 81 96 82 97 83 98 84 99 63 100 64 101 72 102 65 103 71 104
REMARK SMILES IDX 66 105 67 106 68 107 69 108 70 109
REMARK H PARENT 16 12 23 40 91 65 61 76
REMARK Flexibility Score: inf
ROOT
ATOM      1  C   UNL     1      -2.903   7.785   5.914  1.00  0.00     0.188 C 
ENDROOT
BRANCH   1   2
ATOM      2  O   UNL     1      -3.476   8.207   7.146  1.00  0.00    -0.376 OA
BRANCH   2   3
ATOM      3  C   UNL     1      -4.872   8.398   6.995  1.00  0.00     0.202 C 
BRANCH   3   4
ATOM      4  C   UNL     1      -5.632   7.208   6.378  1.00  0.00     0.261 C 
BRANCH   4   5
ATOM      5  O   UNL     1      -5.591   6.976   4.749  1.00  0.00    -0.462 OA
BRANCH   5   6
ATOM      6  C   UNL     1      -6.239   6.916   3.473  1.00  0.00     0.329 C 
ATOM      7  O   UNL     1      -5.531   6.422   2.591  1.00  0.00    -0.250 OA
BRANCH   6   8
ATOM      8  C   UNL     1      -7.911   7.440   2.946  1.00  0.00     0.198 C 
BRANCH   8   9
ATOM      9  N   UNL     1      -8.439   6.195   2.148  1.00  0.00    -0.335 N 
ATOM     10  C   UNL     1      -7.868   5.202   1.287  1.00  0.00     0.293 C 
ATOM     11  O   UNL     1      -8.554   4.199   1.060  1.00  0.00    -0.265 OA
ATOM     12  H   UNL     1      -9.407   6.063   2.270  1.00  0.00     0.164 HD
BRANCH  10  13
ATOM     13  C   UNL     1      -6.502   5.283   0.538  1.00  0.00     0.252 C 
ATOM     14  O   UNL     1      -6.318   6.393   0.021  1.00  0.00    -0.283 OA
BRANCH  13  15
ATOM     15  C   UNL     1      -5.573   4.103   0.172  1.00  0.00     0.054 A 
ATOM     16  N   UNL     1      -4.378   2.156  -0.043  1.00  0.00    -0.240 N 
ATOM     17  C   UNL     1      -5.377   2.811   0.697  1.00  0.00     0.117 A 
ATOM     18  C   UNL     1      -4.031   2.904  -1.145  1.00  0.00     0.065 A 
ATOM     19  C   UNL     1      -4.650   4.151  -0.965  1.00  0.00     0.012 A 
ATOM     20  C   UNL     1      -3.213   2.621  -2.262  1.00  0.00     0.028 A 
ATOM     21  C   UNL     1      -4.333   5.164  -1.896  1.00  0.00     0.011 A 
ATOM     22  C   UNL     1      -2.950   3.644  -3.171  1.00  0.00     0.002 A 
ATOM     23  C   UNL     1      -3.486   4.908  -2.978  1.00  0.00     0.001 A 
BRANCH  16  24
ATOM     24  S   UNL     1      -3.831   0.517   0.153  1.00  0.00     0.268 S 
ATOM     25  O   UNL     1      -4.270  -0.171  -1.046  1.00  0.00    -0.201 OA
ATOM     26  O   UNL     1      -4.287   0.091   1.470  1.00  0.00    -0.201 OA
BRANCH  24  27
ATOM     27  C   UNL     1      -2.029   0.408   0.156  1.00  0.00     0.088 A 
ATOM     28  C   UNL     1       2.292  -0.026   0.012  1.00  0.00     0.044 C 
ATOM     29  C   UNL     1       0.794   0.118   0.052  1.00  0.00    -0.051 A 
ATOM     30  C   UNL     1      -0.034  -1.007  -0.021  1.00  0.00     0.005 A 
ATOM     31  C   UNL     1       0.194   1.379   0.185  1.00  0.00     0.005 A 
ATOM     32  C   UNL     1      -1.435  -0.865   0.022  1.00  0.00     0.022 A 
ATOM     33  C   UNL     1      -1.205   1.527   0.247  1.00  0.00     0.022 A 
ENDBRANCH  24  27
ENDBRANCH  16  24
ENDBRANCH  13  15
ENDBRANCH  10  13
ENDBRANCH   8   9
BRANCH   8  34
ATOM     34  C   UNL     1      -9.282   8.510   3.764  1.00  0.00     0.092 C 
BRANCH  34  35
ATOM     35  C   UNL     1     -10.078   8.520   5.494  1.00  0.00     0.037 A 
ATOM     36  C   UNL     1     -10.389   7.594   6.581  1.00  0.00     0.134 A 
ATOM     37  N   UNL     1     -10.351   9.689   6.221  1.00  0.00    -0.348 N 
ATOM     38  N   UNL     1     -10.762   8.142   7.767  1.00  0.00    -0.245 NA
ATOM     39  C   UNL     1     -10.779   9.411   7.504  1.00  0.00     0.196 A 
ATOM     40  H   UNL     1     -10.248  10.599   5.860  1.00  0.00     0.167 HD
ENDBRANCH  34  35
ENDBRANCH   8  34
ENDBRANCH   6   8
ENDBRANCH   5   6
ENDBRANCH   4   5
ENDBRANCH   3   4
ENDBRANCH   2   3
ENDBRANCH   1   2
BRANCH   1  41
ATOM     41  C   UNL     1      -2.742   6.268   5.808  1.00  0.00     0.188 C 
BRANCH  41  42
ATOM     42  O   UNL     1      -3.681   5.497   6.532  1.00  0.00    -0.376 OA
BRANCH  42  43
ATOM     43  C   UNL     1      -3.574   5.394   7.946  1.00  0.00     0.202 C 
BRANCH  43  44
ATOM     44  C   UNL     1      -3.017   4.012   8.197  1.00  0.00     0.261 C 
BRANCH  44  45
ATOM     45  O   UNL     1      -4.011   3.015   7.827  1.00  0.00    -0.460 OA
BRANCH  45  46
ATOM     46  C   UNL     1      -4.236   2.865   6.487  1.00  0.00     0.338 C 
ATOM     47  O   UNL     1      -3.402   2.474   5.686  1.00  0.00    -0.246 OA
BRANCH  46  48
ATOM     48  C   UNL     1      -5.615   3.358   6.136  1.00  0.00     0.060 A 
ATOM     49  C   UNL     1      -5.912   3.636   4.811  1.00  0.00     0.016 A 
ATOM     50  C   UNL     1      -6.530   3.780   7.114  1.00  0.00     0.016 A 
ATOM     51  C   UNL     1      -6.994   4.477   4.522  1.00  0.00     0.010 A 
ATOM     52  C   UNL     1      -7.527   4.729   6.813  1.00  0.00     0.010 A 
ATOM     53  C   UNL     1      -7.645   5.227   5.519  1.00  0.00    -0.014 A 
BRANCH  53  54
ATOM     54  C   UNL     1      -8.357   6.582   5.248  1.00  0.00     0.031 A 
ATOM     55  C   UNL     1      -9.970   6.103   4.529  1.00  0.00     0.074 A 
ATOM     56  C   UNL     1      -7.704   8.009   5.455  1.00  0.00     0.049 A 
ATOM     57  N   UNL     1     -10.850   6.833   3.841  1.00  0.00    -0.248 NA
ATOM     58  C   UNL     1     -10.652   4.831   4.861  1.00  0.00     0.031 C 
ATOM     59  C   UNL     1      -7.828   9.138   6.508  1.00  0.00     0.029 A 
ATOM     60  N   UNL     1      -6.830   8.867   4.586  1.00  0.00    -0.354 N 
ATOM     61  C   UNL     1     -12.114   6.579   4.372  1.00  0.00     0.074 A 
ATOM     62  C   UNL     1     -11.952   5.161   4.685  1.00  0.00     0.031 C 
ATOM     63  C   UNL     1      -7.504  10.374   6.016  1.00  0.00     0.029 A 
ATOM     64  C   UNL     1      -6.835  10.236   4.752  1.00  0.00     0.049 A 
ATOM     65  H   UNL     1      -6.256   8.454   3.901  1.00  0.00     0.167 HD
ATOM     66  C   UNL     1     -13.003   7.557   4.858  1.00  0.00     0.031 A 
ATOM     67  C   UNL     1      -6.412  11.141   3.825  1.00  0.00     0.031 A 
ATOM     68  C   UNL     1     -12.751   9.071   4.635  1.00  0.00     0.049 A 
ATOM     69  C   UNL     1      -7.641  11.827   3.241  1.00  0.00     0.074 A 
ATOM     70  C   UNL     1     -12.952  10.171   5.495  1.00  0.00     0.029 A 
ATOM     71  N   UNL     1     -12.107   9.669   3.533  1.00  0.00    -0.354 N 
ATOM     72  N   UNL     1      -8.862  11.608   3.669  1.00  0.00    -0.248 NA
ATOM     73  C   UNL     1      -7.608  12.734   2.092  1.00  0.00     0.031 C 
ATOM     74  C   UNL     1     -12.291  11.330   5.014  1.00  0.00     0.029 A 
ATOM     75  C   UNL     1     -11.696  11.001   3.816  1.00  0.00     0.049 A 
ATOM     76  H   UNL     1     -11.958   9.217   2.671  1.00  0.00     0.167 HD
ATOM     77  C   UNL     1      -9.761  12.147   2.779  1.00  0.00     0.074 A 
ATOM     78  C   UNL     1      -8.922  12.904   1.852  1.00  0.00     0.031 C 
ATOM     79  C   UNL     1     -11.114  11.926   2.834  1.00  0.00     0.031 A 
BRANCH  66  80
ATOM     80  C   UNL     1     -14.059   7.202   5.995  1.00  0.00    -0.014 A 
ATOM     81  C   UNL     1     -14.981   8.179   6.457  1.00  0.00     0.010 A 
ATOM     82  C   UNL     1     -14.097   6.004   6.739  1.00  0.00     0.010 A 
ATOM     83  C   UNL     1     -15.781   8.029   7.610  1.00  0.00     0.020 A 
ATOM     84  C   UNL     1     -14.974   5.790   7.829  1.00  0.00     0.020 A 
ATOM     85  C   UNL     1     -15.792   6.817   8.281  1.00  0.00     0.054 A 
BRANCH  85  86
ATOM     86  S   UNL     1     -16.961   6.558   9.645  1.00  0.00     0.124 S 
ATOM     87  O   UNL     1     -16.299   7.216  10.767  1.00  0.00    -0.237 OA
ATOM     88  O   UNL     1     -18.174   7.214   9.161  1.00  0.00    -0.237 OA
ATOM     89  O   UNL     1     -17.052   5.102   9.743  1.00  0.00    -0.744 OA
ENDBRANCH  85  86
ENDBRANCH  66  80
BRANCH  67  90
ATOM     90  C   UNL     1      -5.156  10.733   3.063  1.00  0.00    -0.014 A 
ATOM     91  C   UNL     1      -3.926  10.849   3.763  1.00  0.00     0.010 A 
ATOM     92  C   UNL     1      -5.143   9.937   1.903  1.00  0.00     0.010 A 
ATOM     93  C   UNL     1      -2.800  10.065   3.435  1.00  0.00     0.020 A 
ATOM     94  C   UNL     1      -4.027   9.114   1.595  1.00  0.00     0.020 A 
ATOM     95  C   UNL     1      -2.887   9.131   2.404  1.00  0.00     0.054 A 
BRANCH  95  96
ATOM     96  S   UNL     1      -1.656   7.765   2.302  1.00  0.00     0.124 S 
ATOM     97  O   UNL     1      -0.858   8.133   1.139  1.00  0.00    -0.237 OA
ATOM     98  O   UNL     1      -0.956   7.850   3.584  1.00  0.00    -0.237 OA
ATOM     99  O   UNL     1      -2.481   6.573   2.155  1.00  0.00    -0.744 OA
ENDBRANCH  95  96
ENDBRANCH  67  90
BRANCH  79 100
ATOM    100  C   UNL     1     -12.140  12.723   2.067  1.00  0.00    -0.014 A 
ATOM    101  C   UNL     1     -11.946  14.008   1.546  1.00  0.00     0.010 A 
ATOM    102  C   UNL     1     -13.460  12.208   2.027  1.00  0.00     0.010 A 
ATOM    103  C   UNL     1     -12.979  14.659   0.861  1.00  0.00     0.020 A 
ATOM    104  C   UNL     1     -14.505  12.867   1.407  1.00  0.00     0.020 A 
ATOM    105  C   UNL     1     -14.238  14.061   0.766  1.00  0.00     0.054 A 
BRANCH 105 106
ATOM    106  S   UNL     1     -15.520  14.823  -0.241  1.00  0.00     0.124 S 
ATOM    107  O   UNL     1     -15.492  16.212   0.208  1.00  0.00    -0.237 OA
ATOM    108  O   UNL     1     -15.009  14.582  -1.588  1.00  0.00    -0.237 OA
ATOM    109  O   UNL     1     -16.727  14.079   0.110  1.00  0.00    -0.744 OA
ENDBRANCH 105 106
ENDBRANCH  79 100
ENDBRANCH  53  54
ENDBRANCH  46  48
ENDBRANCH  45  46
ENDBRANCH  44  45
ENDBRANCH  43  44
ENDBRANCH  42  43
ENDBRANCH  41  42
ENDBRANCH   1  41
TORSDOF 27
