REMARK SMILES CC(C)(C)OC(=O)N1CCC[C@]1(Cc1ccccc1)C(=O)OCCOCCOCCOC(=O)c1ccc(-c2c3nc(c(-c4ccc(S(=O)(=O)[O-])cc4)c4ccc([nH]4)c(-c4ccc(S(=O)(=O)[O-])cc4)c4nc(c(-c5ccc(S(=O)(=O)[O-])cc5)c5ccc2[nH]5)C=C4)C=C3)cc1
REMARK SMILES IDX 26 1 25 2 24 3 23 4 22 5 20 6 21 7 12 8 8 9 9 10 10 11 11 12
REMARK SMILES IDX 6 13 7 14 5 15 2 16 1 17 3 18 4 19 13 20 14 21 15 22 19 23
REMARK SMILES IDX 16 24 18 25 17 26 27 27 28 28 29 29 30 30 31 31 32 32 33 33
REMARK SMILES IDX 34 34 35 35 93 36 36 37 92 38 37 39 38 40 39 41 86 42 40 43
REMARK SMILES IDX 91 44 85 45 87 46 41 47 90 48 84 49 83 50 42 52 72 53 53 54
REMARK SMILES IDX 71 55 54 56 57 57 70 58 88 59 55 60 56 61 69 63 89 64 58 65
REMARK SMILES IDX 43 66 44 67 52 68 45 69 51 70 46 71 47 72 48 73 49 74 50 75
REMARK SMILES IDX 73 76 74 77 82 78 75 79 81 80 76 81 77 82 78 83 79 84 80 85
REMARK SMILES IDX 59 86 60 87 68 88 61 89 67 90 62 91 63 92 64 93 65 94 66 95
REMARK H PARENT 87 51 57 62
REMARK Flexibility Score: inf
ROOT
ATOM      1  C   UNL     1      -2.915  -2.488   3.662  1.00  0.00     0.188 C 
ENDROOT
BRANCH   1   2
ATOM      2  O   UNL     1      -4.064  -3.306   3.652  1.00  0.00    -0.376 OA
BRANCH   2   3
ATOM      3  C   UNL     1      -3.856  -4.654   3.285  1.00  0.00     0.202 C 
BRANCH   3   4
ATOM      4  C   UNL     1      -2.814  -5.547   4.007  1.00  0.00     0.261 C 
BRANCH   4   5
ATOM      5  O   UNL     1      -1.652  -4.959   4.636  1.00  0.00    -0.461 OA
BRANCH   5   6
ATOM      6  C   UNL     1      -0.482  -4.988   3.941  1.00  0.00     0.332 C 
ATOM      7  O   UNL     1      -0.429  -5.372   2.773  1.00  0.00    -0.249 OA
BRANCH   6   8
ATOM      8  C   UNL     1       0.799  -4.550   4.761  1.00  0.00     0.147 C 
ATOM      9  N   UNL     1       1.568  -3.676   3.850  1.00  0.00    -0.291 N 
ATOM     10  C   UNL     1       2.813  -4.272   3.422  1.00  0.00     0.124 C 
ATOM     11  C   UNL     1       2.608  -5.754   3.631  1.00  0.00     0.025 C 
ATOM     12  C   UNL     1       1.698  -5.818   4.855  1.00  0.00     0.043 C 
BRANCH   9  13
ATOM     13  C   UNL     1       1.097  -2.476   3.384  1.00  0.00     0.411 C 
ATOM     14  O   UNL     1       0.272  -1.810   3.968  1.00  0.00    -0.224 OA
BRANCH  13  15
ATOM     15  O   UNL     1       1.609  -2.195   2.159  1.00  0.00    -0.444 OA
BRANCH  15  16
ATOM     16  C   UNL     1       1.075  -1.083   1.399  1.00  0.00     0.106 C 
ATOM     17  C   UNL     1       1.500  -1.338  -0.052  1.00  0.00     0.056 C 
ATOM     18  C   UNL     1       1.740   0.188   1.922  1.00  0.00     0.056 C 
ATOM     19  C   UNL     1      -0.459  -1.052   1.425  1.00  0.00     0.056 C 
ENDBRANCH  15  16
ENDBRANCH  13  15
ENDBRANCH   9  13
BRANCH   8  20
ATOM     20  C   UNL     1       0.557  -4.009   6.205  1.00  0.00     0.076 C 
BRANCH  20  21
ATOM     21  C   UNL     1       1.747  -3.463   6.985  1.00  0.00    -0.045 A 
ATOM     22  C   UNL     1       2.112  -4.028   8.214  1.00  0.00     0.004 A 
ATOM     23  C   UNL     1       2.441  -2.322   6.554  1.00  0.00     0.004 A 
ATOM     24  C   UNL     1       3.176  -3.501   8.954  1.00  0.00     0.000 A 
ATOM     25  C   UNL     1       3.517  -1.809   7.278  1.00  0.00     0.000 A 
ATOM     26  C   UNL     1       3.890  -2.403   8.476  1.00  0.00     0.000 A 
ENDBRANCH  20  21
ENDBRANCH   8  20
ENDBRANCH   6   8
ENDBRANCH   5   6
ENDBRANCH   4   5
ENDBRANCH   3   4
ENDBRANCH   2   3
ENDBRANCH   1   2
BRANCH   1  27
ATOM     27  C   UNL     1      -2.429  -2.211   5.085  1.00  0.00     0.188 C 
BRANCH  27  28
ATOM     28  O   UNL     1      -3.121  -2.718   6.215  1.00  0.00    -0.376 OA
BRANCH  28  29
ATOM     29  C   UNL     1      -4.525  -2.547   6.273  1.00  0.00     0.202 C 
BRANCH  29  30
ATOM     30  C   UNL     1      -5.144  -1.158   6.034  1.00  0.00     0.261 C 
BRANCH  30  31
ATOM     31  O   UNL     1      -4.500  -0.311   5.066  1.00  0.00    -0.460 OA
BRANCH  31  32
ATOM     32  C   UNL     1      -3.708   0.669   5.580  1.00  0.00     0.338 C 
ATOM     33  O   UNL     1      -3.519   0.906   6.762  1.00  0.00    -0.246 OA
BRANCH  32  34
ATOM     34  C   UNL     1      -2.944   1.329   4.490  1.00  0.00     0.060 A 
ATOM     35  C   UNL     1      -1.547   1.356   4.574  1.00  0.00     0.016 A 
ATOM     36  C   UNL     1      -3.584   1.959   3.420  1.00  0.00     0.016 A 
ATOM     37  C   UNL     1      -0.796   2.016   3.595  1.00  0.00     0.010 A 
ATOM     38  C   UNL     1      -2.827   2.645   2.453  1.00  0.00     0.010 A 
ATOM     39  C   UNL     1      -1.427   2.690   2.535  1.00  0.00    -0.014 A 
BRANCH  39  40
ATOM     40  C   UNL     1      -0.619   3.590   1.656  1.00  0.00     0.031 A 
ATOM     41  C   UNL     1      -0.199   4.919   2.208  1.00  0.00     0.074 A 
ATOM     42  C   UNL     1      -0.239   3.259   0.405  1.00  0.00     0.049 A 
ATOM     43  N   UNL     1       0.460   5.880   1.617  1.00  0.00    -0.248 NA
ATOM     44  C   UNL     1      -0.625   5.228   3.582  1.00  0.00     0.031 C 
ATOM     45  C   UNL     1      -0.631   2.040  -0.279  1.00  0.00     0.029 A 
ATOM     46  N   UNL     1       0.596   3.879  -0.499  1.00  0.00    -0.354 N 
ATOM     47  C   UNL     1       0.456   6.938   2.514  1.00  0.00     0.074 A 
ATOM     48  C   UNL     1      -0.217   6.481   3.710  1.00  0.00     0.031 C 
ATOM     49  C   UNL     1       0.080   1.912  -1.411  1.00  0.00     0.029 A 
ATOM     50  C   UNL     1       0.879   3.116  -1.616  1.00  0.00     0.049 A 
ATOM     51  H   UNL     1       0.959   4.784  -0.361  1.00  0.00     0.167 HD
ATOM     52  C   UNL     1       0.909   8.198   2.327  1.00  0.00     0.031 A 
ATOM     53  C   UNL     1       1.652   3.372  -2.697  1.00  0.00     0.031 A 
ATOM     54  C   UNL     1       1.522   8.664   1.112  1.00  0.00     0.049 A 
ATOM     55  C   UNL     1       2.192   4.773  -2.861  1.00  0.00     0.074 A 
ATOM     56  C   UNL     1       1.960   9.941   0.809  1.00  0.00     0.029 A 
ATOM     57  N   UNL     1       1.775   7.878  -0.003  1.00  0.00    -0.354 N 
ATOM     58  N   UNL     1       2.129   5.780  -2.023  1.00  0.00    -0.248 NA
ATOM     59  C   UNL     1       2.829   5.101  -4.146  1.00  0.00     0.031 C 
ATOM     60  C   UNL     1       2.428   9.940  -0.508  1.00  0.00     0.029 A 
ATOM     61  C   UNL     1       2.359   8.645  -0.997  1.00  0.00     0.049 A 
ATOM     62  H   UNL     1       1.571   6.918  -0.076  1.00  0.00     0.167 HD
ATOM     63  C   UNL     1       2.693   6.863  -2.688  1.00  0.00     0.074 A 
ATOM     64  C   UNL     1       3.140   6.379  -3.977  1.00  0.00     0.031 C 
ATOM     65  C   UNL     1       2.803   8.150  -2.276  1.00  0.00     0.031 A 
BRANCH  52  66
ATOM     66  C   UNL     1       0.638   9.183   3.429  1.00  0.00    -0.014 A 
ATOM     67  C   UNL     1       1.306   9.112   4.663  1.00  0.00     0.010 A 
ATOM     68  C   UNL     1      -0.322  10.191   3.221  1.00  0.00     0.010 A 
ATOM     69  C   UNL     1       0.987  10.008   5.686  1.00  0.00     0.020 A 
ATOM     70  C   UNL     1      -0.618  11.109   4.229  1.00  0.00     0.020 A 
ATOM     71  C   UNL     1       0.027  11.000   5.462  1.00  0.00     0.054 A 
BRANCH  71  72
ATOM     72  S   UNL     1      -0.351  12.162   6.801  1.00  0.00     0.124 S 
ATOM     73  O   UNL     1      -1.076  11.312   7.742  1.00  0.00    -0.237 OA
ATOM     74  O   UNL     1       0.977  12.589   7.234  1.00  0.00    -0.237 OA
ATOM     75  O   UNL     1      -1.153  13.195   6.149  1.00  0.00    -0.744 OA
ENDBRANCH  71  72
ENDBRANCH  52  66
BRANCH  53  76
ATOM     76  C   UNL     1       1.890   2.345  -3.765  1.00  0.00    -0.014 A 
ATOM     77  C   UNL     1       3.197   1.927  -4.090  1.00  0.00     0.010 A 
ATOM     78  C   UNL     1       0.820   1.797  -4.495  1.00  0.00     0.010 A 
ATOM     79  C   UNL     1       3.424   0.992  -5.111  1.00  0.00     0.020 A 
ATOM     80  C   UNL     1       1.035   0.826  -5.481  1.00  0.00     0.020 A 
ATOM     81  C   UNL     1       2.338   0.439  -5.793  1.00  0.00     0.054 A 
BRANCH  81  82
ATOM     82  S   UNL     1       2.635  -0.825  -7.063  1.00  0.00     0.124 S 
ATOM     83  O   UNL     1       3.133  -0.026  -8.178  1.00  0.00    -0.237 OA
ATOM     84  O   UNL     1       3.615  -1.697  -6.422  1.00  0.00    -0.237 OA
ATOM     85  O   UNL     1       1.317  -1.424  -7.261  1.00  0.00    -0.744 OA
ENDBRANCH  81  82
ENDBRANCH  53  76
BRANCH  65  86
ATOM     86  C   UNL     1       3.472   9.128  -3.205  1.00  0.00    -0.014 A 
ATOM     87  C   UNL     1       2.840   9.591  -4.372  1.00  0.00     0.010 A 
ATOM     88  C   UNL     1       4.730   9.652  -2.853  1.00  0.00     0.010 A 
ATOM     89  C   UNL     1       3.464  10.546  -5.181  1.00  0.00     0.020 A 
ATOM     90  C   UNL     1       5.343  10.627  -3.642  1.00  0.00     0.020 A 
ATOM     91  C   UNL     1       4.710  11.061  -4.808  1.00  0.00     0.054 A 
BRANCH  91  92
ATOM     92  S   UNL     1       5.472  12.343  -5.841  1.00  0.00     0.124 S 
ATOM     93  O   UNL     1       5.860  11.586  -7.028  1.00  0.00    -0.237 OA
ATOM     94  O   UNL     1       4.379  13.293  -6.029  1.00  0.00    -0.237 OA
ATOM     95  O   UNL     1       6.581  12.832  -5.025  1.00  0.00    -0.744 OA
ENDBRANCH  91  92
ENDBRANCH  65  86
ENDBRANCH  39  40
ENDBRANCH  32  34
ENDBRANCH  31  32
ENDBRANCH  30  31
ENDBRANCH  29  30
ENDBRANCH  28  29
ENDBRANCH  27  28
ENDBRANCH   1  27
TORSDOF 25
