REMARK SMILES O=C(CCc1nc(-c2ccccc2)c(-c2ccccc2)o1)OCCOCCOCCOC(=O)c1ccc(-c2c3nc(c(-c4ccc(S(=O)(=O)[O-])cc4)c4ccc([nH]4)c(-c4ccc(S(=O)(=O)[O-])cc4)c4nc(c(-c5ccc(S(=O)(=O)[O-])cc5)c5ccc2[nH]5)C=C4)C=C3)cc1
REMARK SMILES IDX 26 1 25 2 24 3 23 4 22 5 2 6 1 7 3 8 4 9 5 10 6 11 21 12
REMARK SMILES IDX 7 13 14 14 8 15 9 16 13 17 10 18 12 19 11 20 15 21 16 22
REMARK SMILES IDX 20 23 17 24 19 25 18 26 27 27 28 28 29 29 30 30 31 31 32 32
REMARK SMILES IDX 33 33 34 34 35 35 93 36 36 37 92 38 37 39 38 40 39 41 86 42
REMARK SMILES IDX 40 43 91 44 85 45 87 46 41 47 90 48 84 49 83 50 42 52 72 53
REMARK SMILES IDX 53 54 71 55 54 56 57 57 70 58 88 59 55 60 56 61 69 63 89 64
REMARK SMILES IDX 58 65 43 66 44 67 52 68 45 69 51 70 46 71 47 72 48 73 49 74
REMARK SMILES IDX 50 75 73 76 74 77 82 78 75 79 81 80 76 81 77 82 78 83 79 84
REMARK SMILES IDX 80 85 59 86 60 87 68 88 61 89 67 90 62 91 63 92 64 93 65 94
REMARK SMILES IDX 66 95
REMARK H PARENT 87 51 57 62
REMARK Flexibility Score: inf
ROOT
ATOM      1  C   UNL     1       2.200  -1.646   0.683  1.00  0.00     0.188 C 
ENDROOT
BRANCH   1   2
ATOM      2  O   UNL     1       3.521  -1.687   0.172  1.00  0.00    -0.376 OA
BRANCH   2   3
ATOM      3  C   UNL     1       4.452  -0.718   0.646  1.00  0.00     0.202 C 
BRANCH   3   4
ATOM      4  C   UNL     1       3.920   0.671   1.007  1.00  0.00     0.261 C 
BRANCH   4   5
ATOM      5  O   UNL     1       2.884   1.294   0.210  1.00  0.00    -0.463 OA
BRANCH   5   6
ATOM      6  C   UNL     1       2.671   1.381  -1.111  1.00  0.00     0.306 C 
ATOM      7  O   UNL     1       1.737   2.076  -1.514  1.00  0.00    -0.252 OA
BRANCH   6   8
ATOM      8  C   UNL     1       3.541   0.656  -2.093  1.00  0.00     0.132 C 
BRANCH   8   9
ATOM      9  C   UNL     1       4.630   1.546  -2.667  1.00  0.00     0.109 C 
BRANCH   9  10
ATOM     10  C   UNL     1       5.654   1.895  -1.650  1.00  0.00     0.196 A 
ATOM     11  N   UNL     1       6.534   1.113  -1.053  1.00  0.00    -0.213 NA
ATOM     12  O   UNL     1       5.602   3.168  -1.157  1.00  0.00    -0.440 OA
ATOM     13  C   UNL     1       7.048   1.901  -0.048  1.00  0.00     0.117 A 
ATOM     14  C   UNL     1       6.523   3.174  -0.147  1.00  0.00     0.162 A 
BRANCH  13  15
ATOM     15  C   UNL     1       7.866   1.394   1.039  1.00  0.00     0.004 A 
ATOM     16  C   UNL     1       7.543   1.698   2.373  1.00  0.00     0.010 A 
ATOM     17  C   UNL     1       8.959   0.563   0.782  1.00  0.00     0.010 A 
ATOM     18  C   UNL     1       8.323   1.219   3.426  1.00  0.00     0.001 A 
ATOM     19  C   UNL     1       9.745   0.089   1.838  1.00  0.00     0.001 A 
ATOM     20  C   UNL     1       9.432   0.423   3.157  1.00  0.00     0.000 A 
ENDBRANCH  13  15
BRANCH  14  21
ATOM     21  C   UNL     1       6.685   4.419   0.572  1.00  0.00     0.020 A 
ATOM     22  C   UNL     1       5.576   5.108   1.075  1.00  0.00     0.012 A 
ATOM     23  C   UNL     1       7.971   4.923   0.803  1.00  0.00     0.012 A 
ATOM     24  C   UNL     1       5.754   6.285   1.802  1.00  0.00     0.001 A 
ATOM     25  C   UNL     1       8.147   6.104   1.520  1.00  0.00     0.001 A 
ATOM     26  C   UNL     1       7.038   6.784   2.021  1.00  0.00     0.000 A 
ENDBRANCH  14  21
ENDBRANCH   9  10
ENDBRANCH   8   9
ENDBRANCH   6   8
ENDBRANCH   5   6
ENDBRANCH   4   5
ENDBRANCH   3   4
ENDBRANCH   2   3
ENDBRANCH   1   2
BRANCH   1  27
ATOM     27  C   UNL     1       2.022  -1.929   2.176  1.00  0.00     0.188 C 
BRANCH  27  28
ATOM     28  O   UNL     1       3.183  -1.640   2.947  1.00  0.00    -0.376 OA
BRANCH  28  29
ATOM     29  C   UNL     1       3.690  -2.761   3.667  1.00  0.00     0.202 C 
BRANCH  29  30
ATOM     30  C   UNL     1       4.522  -3.773   2.859  1.00  0.00     0.261 C 
BRANCH  30  31
ATOM     31  O   UNL     1       4.001  -4.191   1.589  1.00  0.00    -0.460 OA
BRANCH  31  32
ATOM     32  C   UNL     1       2.959  -5.050   1.581  1.00  0.00     0.338 C 
ATOM     33  O   UNL     1       2.326  -5.440   2.544  1.00  0.00    -0.246 OA
BRANCH  32  34
ATOM     34  C   UNL     1       2.651  -5.375   0.171  1.00  0.00     0.060 A 
ATOM     35  C   UNL     1       1.403  -5.037  -0.367  1.00  0.00     0.016 A 
ATOM     36  C   UNL     1       3.595  -6.044  -0.612  1.00  0.00     0.016 A 
ATOM     37  C   UNL     1       1.101  -5.353  -1.696  1.00  0.00     0.010 A 
ATOM     38  C   UNL     1       3.279  -6.394  -1.927  1.00  0.00     0.010 A 
ATOM     39  C   UNL     1       2.025  -6.066  -2.472  1.00  0.00    -0.014 A 
BRANCH  39  40
ATOM     40  C   UNL     1       1.628  -6.661  -3.772  1.00  0.00     0.031 A 
ATOM     41  C   UNL     1       1.075  -8.059  -3.769  1.00  0.00     0.074 A 
ATOM     42  C   UNL     1       1.816  -6.014  -4.936  1.00  0.00     0.049 A 
ATOM     43  N   UNL     1       0.792  -8.844  -4.774  1.00  0.00    -0.248 NA
ATOM     44  C   UNL     1       0.819  -8.652  -2.446  1.00  0.00     0.031 C 
ATOM     45  C   UNL     1       2.308  -4.646  -5.074  1.00  0.00     0.029 A 
ATOM     46  N   UNL     1       1.641  -6.444  -6.230  1.00  0.00    -0.354 N 
ATOM     47  C   UNL     1       0.345 -10.032  -4.207  1.00  0.00     0.074 A 
ATOM     48  C   UNL     1       0.404  -9.866  -2.772  1.00  0.00     0.031 C 
ATOM     49  C   UNL     1       2.434  -4.361  -6.383  1.00  0.00     0.029 A 
ATOM     50  C   UNL     1       2.070  -5.539  -7.171  1.00  0.00     0.049 A 
ATOM     51  H   UNL     1       1.247  -7.317  -6.460  1.00  0.00     0.167 HD
ATOM     52  C   UNL     1      -0.064 -11.165  -4.825  1.00  0.00     0.031 A 
ATOM     53  C   UNL     1       2.196  -5.660  -8.509  1.00  0.00     0.031 A 
ATOM     54  C   UNL     1      -0.080 -11.342  -6.251  1.00  0.00     0.049 A 
ATOM     55  C   UNL     1       1.801  -6.952  -9.180  1.00  0.00     0.074 A 
ATOM     56  C   UNL     1      -0.492 -12.446  -6.976  1.00  0.00     0.029 A 
ATOM     57  N   UNL     1       0.359 -10.399  -7.169  1.00  0.00    -0.354 N 
ATOM     58  N   UNL     1       1.341  -8.054  -8.637  1.00  0.00    -0.248 NA
ATOM     59  C   UNL     1       1.938  -7.016 -10.643  1.00  0.00     0.031 C 
ATOM     60  C   UNL     1      -0.243 -12.194  -8.329  1.00  0.00     0.029 A 
ATOM     61  C   UNL     1       0.259 -10.907  -8.453  1.00  0.00     0.049 A 
ATOM     62  H   UNL     1       0.693  -9.502  -6.941  1.00  0.00     0.167 HD
ATOM     63  C   UNL     1       1.108  -8.932  -9.692  1.00  0.00     0.074 A 
ATOM     64  C   UNL     1       1.475  -8.232 -10.906  1.00  0.00     0.031 C 
ATOM     65  C   UNL     1       0.625 -10.199  -9.656  1.00  0.00     0.031 A 
BRANCH  52  66
ATOM     66  C   UNL     1      -0.456 -12.320  -3.943  1.00  0.00    -0.014 A 
ATOM     67  C   UNL     1      -1.623 -12.283  -3.158  1.00  0.00     0.010 A 
ATOM     68  C   UNL     1       0.371 -13.456  -3.886  1.00  0.00     0.010 A 
ATOM     69  C   UNL     1      -1.920 -13.332  -2.284  1.00  0.00     0.020 A 
ATOM     70  C   UNL     1       0.062 -14.521  -3.036  1.00  0.00     0.020 A 
ATOM     71  C   UNL     1      -1.069 -14.439  -2.220  1.00  0.00     0.054 A 
BRANCH  71  72
ATOM     72  S   UNL     1      -1.461 -15.775  -1.058  1.00  0.00     0.124 S 
ATOM     73  O   UNL     1      -1.111 -15.169   0.224  1.00  0.00    -0.237 OA
ATOM     74  O   UNL     1      -2.888 -15.988  -1.283  1.00  0.00    -0.237 OA
ATOM     75  O   UNL     1      -0.596 -16.872  -1.485  1.00  0.00    -0.744 OA
ENDBRANCH  71  72
ENDBRANCH  52  66
BRANCH  53  76
ATOM     76  C   UNL     1       2.763  -4.529  -9.295  1.00  0.00    -0.014 A 
ATOM     77  C   UNL     1       1.947  -3.751 -10.133  1.00  0.00     0.010 A 
ATOM     78  C   UNL     1       4.125  -4.196  -9.168  1.00  0.00     0.010 A 
ATOM     79  C   UNL     1       2.479  -2.654 -10.821  1.00  0.00     0.020 A 
ATOM     80  C   UNL     1       4.655  -3.087  -9.833  1.00  0.00     0.020 A 
ATOM     81  C   UNL     1       3.828  -2.322 -10.657  1.00  0.00     0.054 A 
BRANCH  81  82
ATOM     82  S   UNL     1       4.471  -0.836 -11.476  1.00  0.00     0.124 S 
ATOM     83  O   UNL     1       4.526  -1.256 -12.873  1.00  0.00    -0.237 OA
ATOM     84  O   UNL     1       3.455   0.164 -11.155  1.00  0.00    -0.237 OA
ATOM     85  O   UNL     1       5.766  -0.624 -10.834  1.00  0.00    -0.744 OA
ENDBRANCH  81  82
ENDBRANCH  53  76
BRANCH  65  86
ATOM     86  C   UNL     1       0.416 -10.918 -10.964  1.00  0.00    -0.014 A 
ATOM     87  C   UNL     1       1.497 -11.431 -11.701  1.00  0.00     0.010 A 
ATOM     88  C   UNL     1      -0.897 -11.179 -11.401  1.00  0.00     0.010 A 
ATOM     89  C   UNL     1       1.268 -12.186 -12.856  1.00  0.00     0.020 A 
ATOM     90  C   UNL     1      -1.130 -11.955 -12.540  1.00  0.00     0.020 A 
ATOM     91  C   UNL     1      -0.044 -12.450 -13.264  1.00  0.00     0.054 A 
BRANCH  91  92
ATOM     92  S   UNL     1      -0.315 -13.503 -14.716  1.00  0.00     0.124 S 
ATOM     93  O   UNL     1       0.071 -12.618 -15.812  1.00  0.00    -0.237 OA
ATOM     94  O   UNL     1       0.585 -14.627 -14.469  1.00  0.00    -0.237 OA
ATOM     95  O   UNL     1      -1.739 -13.827 -14.650  1.00  0.00    -0.744 OA
ENDBRANCH  91  92
ENDBRANCH  65  86
ENDBRANCH  39  40
ENDBRANCH  32  34
ENDBRANCH  31  32
ENDBRANCH  30  31
ENDBRANCH  29  30
ENDBRANCH  28  29
ENDBRANCH  27  28
ENDBRANCH   1  27
TORSDOF 24
