REMARK SMILES CC[N@H+](Cc1cccc(C)n1)[C@H](C(=O)OCCOCCOCCOC(=O)c1ccc(-c2c3nc(c(-c4ccc(S(=O)(=O)[O-])cc4)c4ccc([nH]4)c(-c4ccc(S(=O)(=O)[O-])cc4)c4nc(c(-c5ccc(S(=O)(=O)[O-])cc5)c5ccc2[nH]5)C=C4)C=C3)cc1)C(C)C
REMARK SMILES IDX 19 1 18 2 17 3 16 4 15 5 13 6 14 7 12 8 3 9 2 11 1 12 4 13
REMARK SMILES IDX 5 14 6 15 11 16 7 17 9 18 8 19 10 20 87 21 88 22 89 23 20 24
REMARK SMILES IDX 21 25 22 26 23 27 24 28 25 29 26 30 27 31 28 32 86 33 29 34
REMARK SMILES IDX 85 35 30 36 31 37 32 38 79 39 33 40 84 41 78 42 80 43 34 44
REMARK SMILES IDX 83 45 77 46 76 47 35 49 65 50 46 51 64 52 47 53 50 54 63 55
REMARK SMILES IDX 81 56 48 57 49 58 62 60 82 61 51 62 36 63 37 64 45 65 38 66
REMARK SMILES IDX 44 67 39 68 40 69 41 70 42 71 43 72 66 73 67 74 75 75 68 76
REMARK SMILES IDX 74 77 69 78 70 79 71 80 72 81 73 82 52 83 53 84 61 85 54 86
REMARK SMILES IDX 60 87 55 88 56 89 57 90 58 91 59 92
REMARK H PARENT 3 10 80 48 50 59
REMARK Flexibility Score: inf
ROOT
ATOM      1  C   UNL     1      -0.487  -3.777   0.269  1.00  0.00     0.188 C 
ENDROOT
BRANCH   1   2
ATOM      2  O   UNL     1      -1.746  -3.115   0.206  1.00  0.00    -0.376 OA
BRANCH   2   3
ATOM      3  C   UNL     1      -2.202  -2.586  -1.029  1.00  0.00     0.202 C 
BRANCH   3   4
ATOM      4  C   UNL     1      -1.380  -1.454  -1.651  1.00  0.00     0.261 C 
BRANCH   4   5
ATOM      5  O   UNL     1       0.023  -1.749  -1.721  1.00  0.00    -0.459 OA
BRANCH   5   6
ATOM      6  C   UNL     1       0.849  -0.947  -0.989  1.00  0.00     0.365 C 
ATOM      7  O   UNL     1       0.484   0.078  -0.427  1.00  0.00    -0.245 OA
BRANCH   6   8
ATOM      8  C   UNL     1       2.294  -1.522  -0.937  1.00  0.00     0.297 C 
BRANCH   8   9
ATOM      9  N   UNL     1       3.038  -1.383  -2.232  1.00  0.00    -0.318 N 
ATOM     10  H   UNL     1       4.012  -1.421  -1.929  1.00  0.00     0.349 HD
BRANCH   9  11
ATOM     11  C   UNL     1       2.804  -0.103  -2.939  1.00  0.00     0.259 C 
ATOM     12  C   UNL     1       3.146   1.173  -2.183  1.00  0.00     0.071 C 
ENDBRANCH   9  11
BRANCH   9  13
ATOM     13  C   UNL     1       2.760  -2.491  -3.201  1.00  0.00     0.320 C 
BRANCH  13  14
ATOM     14  C   UNL     1       3.174  -3.924  -2.875  1.00  0.00     0.095 A 
ATOM     15  C   UNL     1       4.008  -4.260  -1.816  1.00  0.00     0.030 A 
ATOM     16  N   UNL     1       2.692  -4.880  -3.718  1.00  0.00    -0.252 NA
ATOM     17  C   UNL     1       4.279  -5.600  -1.553  1.00  0.00     0.004 A 
ATOM     18  C   UNL     1       3.003  -6.180  -3.482  1.00  0.00     0.038 A 
ATOM     19  C   UNL     1       3.768  -6.578  -2.395  1.00  0.00     0.023 A 
ATOM     20  C   UNL     1       2.525  -7.186  -4.486  1.00  0.00     0.067 C 
ENDBRANCH  13  14
ENDBRANCH   9  13
ENDBRANCH   8   9
BRANCH   8  21
ATOM     21  C   UNL     1       3.053  -0.937   0.307  1.00  0.00     0.053 C 
ATOM     22  C   UNL     1       2.494  -1.538   1.611  1.00  0.00     0.014 C 
ATOM     23  C   UNL     1       4.569  -1.164   0.303  1.00  0.00     0.014 C 
ENDBRANCH   8  21
ENDBRANCH   6   8
ENDBRANCH   5   6
ENDBRANCH   4   5
ENDBRANCH   3   4
ENDBRANCH   2   3
ENDBRANCH   1   2
BRANCH   1  24
ATOM     24  C   UNL     1       0.051  -4.568  -0.940  1.00  0.00     0.188 C 
BRANCH  24  25
ATOM     25  O   UNL     1      -0.957  -5.016  -1.830  1.00  0.00    -0.376 OA
BRANCH  25  26
ATOM     26  C   UNL     1      -1.061  -6.423  -1.959  1.00  0.00     0.202 C 
BRANCH  26  27
ATOM     27  C   UNL     1      -1.837  -7.051  -0.796  1.00  0.00     0.261 C 
BRANCH  27  28
ATOM     28  O   UNL     1      -1.264  -6.829   0.506  1.00  0.00    -0.460 OA
BRANCH  28  29
ATOM     29  C   UNL     1      -0.066  -7.405   0.750  1.00  0.00     0.338 C 
ATOM     30  O   UNL     1       0.567  -8.116  -0.014  1.00  0.00    -0.246 OA
BRANCH  29  31
ATOM     31  C   UNL     1       0.458  -6.899   2.040  1.00  0.00     0.060 A 
ATOM     32  C   UNL     1       1.763  -6.391   2.081  1.00  0.00     0.016 A 
ATOM     33  C   UNL     1      -0.309  -6.955   3.207  1.00  0.00     0.016 A 
ATOM     34  C   UNL     1       2.328  -6.009   3.301  1.00  0.00     0.010 A 
ATOM     35  C   UNL     1       0.262  -6.580   4.430  1.00  0.00     0.010 A 
ATOM     36  C   UNL     1       1.601  -6.156   4.492  1.00  0.00    -0.014 A 
BRANCH  36  37
ATOM     37  C   UNL     1       2.312  -6.093   5.799  1.00  0.00     0.031 A 
ATOM     38  C   UNL     1       2.751  -7.390   6.435  1.00  0.00     0.074 A 
ATOM     39  C   UNL     1       2.607  -4.926   6.401  1.00  0.00     0.049 A 
ATOM     40  N   UNL     1       3.410  -7.591   7.548  1.00  0.00    -0.248 NA
ATOM     41  C   UNL     1       2.398  -8.626   5.716  1.00  0.00     0.031 C 
ATOM     42  C   UNL     1       2.273  -3.597   5.892  1.00  0.00     0.029 A 
ATOM     43  N   UNL     1       3.264  -4.678   7.583  1.00  0.00    -0.354 N 
ATOM     44  C   UNL     1       3.550  -8.970   7.661  1.00  0.00     0.074 A 
ATOM     45  C   UNL     1       2.874  -9.559   6.526  1.00  0.00     0.031 C 
ATOM     46  C   UNL     1       2.727  -2.673   6.758  1.00  0.00     0.029 A 
ATOM     47  C   UNL     1       3.364  -3.342   7.893  1.00  0.00     0.049 A 
ATOM     48  H   UNL     1       3.628  -5.391   8.156  1.00  0.00     0.167 HD
ATOM     49  C   UNL     1       4.192  -9.689   8.613  1.00  0.00     0.031 A 
ATOM     50  C   UNL     1       3.900  -2.729   8.969  1.00  0.00     0.031 A 
ATOM     51  C   UNL     1       4.851  -9.117   9.757  1.00  0.00     0.049 A 
ATOM     52  C   UNL     1       4.552  -3.554  10.053  1.00  0.00     0.074 A 
ATOM     53  C   UNL     1       5.540  -9.767  10.767  1.00  0.00     0.029 A 
ATOM     54  N   UNL     1       4.895  -7.764  10.050  1.00  0.00    -0.354 N 
ATOM     55  N   UNL     1       4.710  -4.855  10.122  1.00  0.00    -0.248 NA
ATOM     56  C   UNL     1       5.114  -2.820  11.197  1.00  0.00     0.031 C 
ATOM     57  C   UNL     1       5.954  -8.810  11.700  1.00  0.00     0.029 A 
ATOM     58  C   UNL     1       5.578  -7.559  11.239  1.00  0.00     0.049 A 
ATOM     59  H   UNL     1       4.500  -7.053   9.496  1.00  0.00     0.167 HD
ATOM     60  C   UNL     1       5.414  -5.090  11.301  1.00  0.00     0.074 A 
ATOM     61  C   UNL     1       5.666  -3.797  11.902  1.00  0.00     0.031 C 
ATOM     62  C   UNL     1       5.819  -6.270  11.835  1.00  0.00     0.031 A 
BRANCH  49  63
ATOM     63  C   UNL     1       4.184 -11.188   8.467  1.00  0.00    -0.014 A 
ATOM     64  C   UNL     1       4.933 -11.825   7.461  1.00  0.00     0.010 A 
ATOM     65  C   UNL     1       3.436 -11.973   9.364  1.00  0.00     0.010 A 
ATOM     66  C   UNL     1       4.899 -13.216   7.327  1.00  0.00     0.020 A 
ATOM     67  C   UNL     1       3.422 -13.366   9.251  1.00  0.00     0.020 A 
ATOM     68  C   UNL     1       4.140 -13.977   8.221  1.00  0.00     0.054 A 
BRANCH  68  69
ATOM     69  S   UNL     1       4.125 -15.781   8.033  1.00  0.00     0.124 S 
ATOM     70  O   UNL     1       3.304 -15.951   6.837  1.00  0.00    -0.237 OA
ATOM     71  O   UNL     1       5.542 -16.098   7.871  1.00  0.00    -0.237 OA
ATOM     72  O   UNL     1       3.522 -16.255   9.276  1.00  0.00    -0.744 OA
ENDBRANCH  68  69
ENDBRANCH  49  63
BRANCH  50  73
ATOM     73  C   UNL     1       3.844  -1.244   9.090  1.00  0.00    -0.014 A 
ATOM     74  C   UNL     1       5.015  -0.470   8.999  1.00  0.00     0.010 A 
ATOM     75  C   UNL     1       2.616  -0.598   9.323  1.00  0.00     0.010 A 
ATOM     76  C   UNL     1       4.962   0.918   9.158  1.00  0.00     0.020 A 
ATOM     77  C   UNL     1       2.555   0.792   9.454  1.00  0.00     0.020 A 
ATOM     78  C   UNL     1       3.731   1.541   9.383  1.00  0.00     0.054 A 
BRANCH  78  79
ATOM     79  S   UNL     1       3.680   3.349   9.538  1.00  0.00     0.124 S 
ATOM     80  O   UNL     1       4.262   3.557  10.860  1.00  0.00    -0.237 OA
ATOM     81  O   UNL     1       4.499   3.785   8.410  1.00  0.00    -0.237 OA
ATOM     82  O   UNL     1       2.257   3.661   9.423  1.00  0.00    -0.744 OA
ENDBRANCH  78  79
ENDBRANCH  50  73
BRANCH  62  83
ATOM     83  C   UNL     1       6.610  -6.220  13.119  1.00  0.00    -0.014 A 
ATOM     84  C   UNL     1       6.010  -5.857  14.338  1.00  0.00     0.010 A 
ATOM     85  C   UNL     1       7.973  -6.572  13.108  1.00  0.00     0.010 A 
ATOM     86  C   UNL     1       6.769  -5.799  15.511  1.00  0.00     0.020 A 
ATOM     87  C   UNL     1       8.728  -6.545  14.284  1.00  0.00     0.020 A 
ATOM     88  C   UNL     1       8.126  -6.137  15.475  1.00  0.00     0.054 A 
BRANCH  88  89
ATOM     89  S   UNL     1       9.089  -6.063  17.011  1.00  0.00     0.124 S 
ATOM     90  O   UNL     1       9.264  -4.625  17.191  1.00  0.00    -0.237 OA
ATOM     91  O   UNL     1       8.206  -6.714  17.977  1.00  0.00    -0.237 OA
ATOM     92  O   UNL     1      10.307  -6.804  16.692  1.00  0.00    -0.744 OA
ENDBRANCH  88  89
ENDBRANCH  62  83
ENDBRANCH  36  37
ENDBRANCH  29  31
ENDBRANCH  28  29
ENDBRANCH  27  28
ENDBRANCH  26  27
ENDBRANCH  25  26
ENDBRANCH  24  25
ENDBRANCH   1  24
TORSDOF 25
