REMARK SMILES Cc1ccc(S(=O)(=O)n2cc(C(=O)C(=O)NCC(=O)NCC(=O)OCCOCCOCCOC(=O)c3ccc(-c4c5nc(c(-c6ccc(S(=O)(=O)[O-])cc6)c6ccc([nH]6)c(-c6ccc(S(=O)(=O)[O-])cc6)c6nc(c(-c7ccc(S(=O)(=O)[O-])cc7)c7ccc4[nH]7)C=C6)C=C5)cc3)c3ccccc32)cc1
REMARK SMILES IDX 26 1 25 2 24 3 22 4 23 5 21 6 20 7 18 8 19 9 17 11 16 12
REMARK SMILES IDX 14 13 15 14 12 16 13 17 11 18 9 19 10 20 101 21 96 22 100 23
REMARK SMILES IDX 97 24 99 25 98 26 6 27 7 28 8 29 5 30 1 31 2 32 3 33 103 34
REMARK SMILES IDX 4 35 102 36 27 37 28 38 29 39 30 40 31 41 32 42 33 43 34 44
REMARK SMILES IDX 35 45 36 46 37 47 95 48 38 49 94 50 39 51 40 52 41 53 88 54
REMARK SMILES IDX 42 55 93 56 87 57 89 58 43 59 92 60 86 61 85 62 44 64 74 65
REMARK SMILES IDX 55 66 73 67 56 68 59 69 72 70 90 71 57 72 58 73 71 75 91 76
REMARK SMILES IDX 60 77 45 78 46 79 54 80 47 81 53 82 48 83 49 84 50 85 51 86
REMARK SMILES IDX 52 87 75 88 76 89 84 90 77 91 83 92 78 93 79 94 80 95 81 96
REMARK SMILES IDX 82 97 61 98 62 99 70 100 63 101 69 102 64 103 65 104 66 105
REMARK SMILES IDX 67 106 68 107
REMARK H PARENT 20 10 16 15 89 63 59 74
REMARK Flexibility Score: inf
ROOT
ATOM      1  C   UNL     1     -12.627   0.318   2.153  1.00  0.00     0.202 C 
ENDROOT
BRANCH   1   2
ATOM      2  C   UNL     1     -11.568   1.410   2.349  1.00  0.00     0.261 C 
BRANCH   2   3
ATOM      3  O   UNL     1     -11.313   2.531   1.037  1.00  0.00    -0.462 OA
BRANCH   3   4
ATOM      4  C   UNL     1     -10.570   3.370   0.076  1.00  0.00     0.325 C 
ATOM      5  O   UNL     1     -11.250   3.665  -0.890  1.00  0.00    -0.250 OA
BRANCH   4   6
ATOM      6  C   UNL     1      -8.941   4.106   0.068  1.00  0.00     0.238 C 
BRANCH   6   7
ATOM      7  N   UNL     1      -8.683   5.685   0.078  1.00  0.00    -0.344 N 
ATOM      8  C   UNL     1      -8.431   6.665   1.028  1.00  0.00     0.239 C 
ATOM      9  O   UNL     1      -9.142   7.680   1.032  1.00  0.00    -0.273 OA
ATOM     10  H   UNL     1      -8.710   6.062  -0.831  1.00  0.00     0.164 HD
BRANCH   8  11
ATOM     11  C   UNL     1      -7.183   6.692   1.906  1.00  0.00     0.216 C 
BRANCH  11  12
ATOM     12  N   UNL     1      -6.805   5.360   2.244  1.00  0.00    -0.340 N 
ATOM     13  C   UNL     1      -5.757   4.557   1.944  1.00  0.00     0.292 C 
ATOM     14  O   UNL     1      -5.631   3.514   2.568  1.00  0.00    -0.265 OA
ATOM     15  H   UNL     1      -7.460   4.921   2.834  1.00  0.00     0.164 HD
BRANCH  13  16
ATOM     16  C   UNL     1      -4.870   4.858   0.758  1.00  0.00     0.252 C 
ATOM     17  O   UNL     1      -4.860   6.026   0.368  1.00  0.00    -0.283 OA
BRANCH  16  18
ATOM     18  C   UNL     1      -4.160   3.770   0.055  1.00  0.00     0.054 A 
ATOM     19  N   UNL     1      -3.075   1.515  -0.509  1.00  0.00    -0.240 N 
ATOM     20  C   UNL     1      -3.748   2.564   0.568  1.00  0.00     0.117 A 
ATOM     21  C   UNL     1      -3.126   2.654  -1.739  1.00  0.00     0.065 A 
ATOM     22  C   UNL     1      -3.780   3.835  -1.294  1.00  0.00     0.012 A 
ATOM     23  C   UNL     1      -2.598   2.714  -3.065  1.00  0.00     0.028 A 
ATOM     24  C   UNL     1      -3.968   4.931  -2.183  1.00  0.00     0.011 A 
ATOM     25  C   UNL     1      -2.721   3.854  -3.870  1.00  0.00     0.002 A 
ATOM     26  C   UNL     1      -3.415   4.957  -3.444  1.00  0.00     0.001 A 
BRANCH  19  27
ATOM     27  S   UNL     1      -3.162  -0.981  -0.524  1.00  0.00     0.268 S 
ATOM     28  O   UNL     1      -3.082  -1.712  -1.799  1.00  0.00    -0.201 OA
ATOM     29  O   UNL     1      -3.692  -1.702   0.647  1.00  0.00    -0.201 OA
BRANCH  27  30
ATOM     30  C   UNL     1      -1.807  -0.483  -0.129  1.00  0.00     0.088 A 
ATOM     31  C   UNL     1       2.857   0.057   0.988  1.00  0.00     0.044 C 
ATOM     32  C   UNL     1       1.353   0.103   0.891  1.00  0.00    -0.051 A 
ATOM     33  C   UNL     1       0.709  -1.470   0.759  1.00  0.00     0.005 A 
ATOM     34  C   UNL     1       0.519   1.579   0.579  1.00  0.00     0.005 A 
ATOM     35  C   UNL     1      -0.771  -1.820   0.282  1.00  0.00     0.022 A 
ATOM     36  C   UNL     1      -1.144   1.463   0.019  1.00  0.00     0.022 A 
ENDBRANCH  27  30
ENDBRANCH  19  27
ENDBRANCH  16  18
ENDBRANCH  13  16
ENDBRANCH  11  12
ENDBRANCH   8  11
ENDBRANCH   6   7
ENDBRANCH   4   6
ENDBRANCH   3   4
ENDBRANCH   2   3
ENDBRANCH   1   2
BRANCH   1  37
ATOM     37  O   UNL     1     -13.633   0.420   1.173  1.00  0.00    -0.376 OA
BRANCH  37  38
ATOM     38  C   UNL     1     -13.643   1.605   0.399  1.00  0.00     0.188 C 
BRANCH  38  39
ATOM     39  C   UNL     1     -13.843   2.919   1.163  1.00  0.00     0.188 C 
BRANCH  39  40
ATOM     40  O   UNL     1     -13.346   2.957   2.500  1.00  0.00    -0.376 OA
BRANCH  40  41
ATOM     41  C   UNL     1     -14.116   2.741   3.653  1.00  0.00     0.202 C 
BRANCH  41  42
ATOM     42  C   UNL     1     -15.422   3.415   3.491  1.00  0.00     0.261 C 
BRANCH  42  43
ATOM     43  O   UNL     1     -15.344   4.868   3.299  1.00  0.00    -0.460 OA
BRANCH  43  44
ATOM     44  C   UNL     1     -14.427   5.691   2.701  1.00  0.00     0.338 C 
ATOM     45  O   UNL     1     -14.839   6.605   1.988  1.00  0.00    -0.246 OA
BRANCH  44  46
ATOM     46  C   UNL     1     -12.938   5.577   2.908  1.00  0.00     0.060 A 
ATOM     47  C   UNL     1     -12.152   5.819   1.821  1.00  0.00     0.016 A 
ATOM     48  C   UNL     1     -12.264   5.064   4.011  1.00  0.00     0.016 A 
ATOM     49  C   UNL     1     -10.921   5.141   1.723  1.00  0.00     0.010 A 
ATOM     50  C   UNL     1     -11.061   4.296   3.842  1.00  0.00     0.010 A 
ATOM     51  C   UNL     1     -10.401   4.136   2.603  1.00  0.00    -0.014 A 
BRANCH  51  52
ATOM     52  C   UNL     1      -9.331   2.684   2.394  1.00  0.00     0.031 A 
ATOM     53  C   UNL     1      -8.599   2.674   3.679  1.00  0.00     0.074 A 
ATOM     54  C   UNL     1      -9.211   1.479   1.428  1.00  0.00     0.049 A 
ATOM     55  N   UNL     1      -8.249   1.653   4.359  1.00  0.00    -0.248 NA
ATOM     56  C   UNL     1      -8.271   3.953   4.359  1.00  0.00     0.031 C 
ATOM     57  C   UNL     1      -8.933  -0.017   1.623  1.00  0.00     0.029 A 
ATOM     58  N   UNL     1      -9.855   1.224   0.135  1.00  0.00    -0.354 N 
ATOM     59  C   UNL     1      -7.258   2.156   5.180  1.00  0.00     0.074 A 
ATOM     60  C   UNL     1      -7.470   3.568   5.337  1.00  0.00     0.031 C 
ATOM     61  C   UNL     1      -9.176  -0.789   0.509  1.00  0.00     0.029 A 
ATOM     62  C   UNL     1      -9.738   0.029  -0.545  1.00  0.00     0.049 A 
ATOM     63  H   UNL     1     -10.398   1.940  -0.267  1.00  0.00     0.167 HD
ATOM     64  C   UNL     1      -6.051   1.549   5.180  1.00  0.00     0.031 A 
ATOM     65  C   UNL     1      -9.567   0.056  -1.907  1.00  0.00     0.031 A 
ATOM     66  C   UNL     1      -6.000   0.512   4.159  1.00  0.00     0.049 A 
ATOM     67  C   UNL     1      -8.076   0.183  -1.962  1.00  0.00     0.074 A 
ATOM     68  C   UNL     1      -6.563  -0.743   4.049  1.00  0.00     0.029 A 
ATOM     69  N   UNL     1      -5.743   0.918   2.862  1.00  0.00    -0.354 N 
ATOM     70  N   UNL     1      -7.410   0.866  -1.062  1.00  0.00    -0.248 NA
ATOM     71  C   UNL     1      -7.300  -0.847  -2.623  1.00  0.00     0.031 C 
ATOM     72  C   UNL     1      -6.495  -1.132   2.672  1.00  0.00     0.029 A 
ATOM     73  C   UNL     1      -6.047  -0.050   1.917  1.00  0.00     0.049 A 
ATOM     74  H   UNL     1      -5.382   1.805   2.633  1.00  0.00     0.167 HD
ATOM     75  C   UNL     1      -6.525  -0.066  -0.560  1.00  0.00     0.074 A 
ATOM     76  C   UNL     1      -6.355  -0.998  -1.687  1.00  0.00     0.031 C 
ATOM     77  C   UNL     1      -5.760   0.233   0.517  1.00  0.00     0.031 A 
BRANCH  64  78
ATOM     78  C   UNL     1      -5.080   1.780   6.285  1.00  0.00    -0.014 A 
ATOM     79  C   UNL     1      -4.355   0.649   6.665  1.00  0.00     0.010 A 
ATOM     80  C   UNL     1      -5.019   2.914   7.126  1.00  0.00     0.010 A 
ATOM     81  C   UNL     1      -3.785   0.567   7.929  1.00  0.00     0.020 A 
ATOM     82  C   UNL     1      -4.456   2.843   8.399  1.00  0.00     0.020 A 
ATOM     83  C   UNL     1      -3.885   1.646   8.806  1.00  0.00     0.054 A 
BRANCH  83  84
ATOM     84  S   UNL     1      -3.313   1.425  10.498  1.00  0.00     0.124 S 
ATOM     85  O   UNL     1      -4.160   0.330  10.966  1.00  0.00    -0.237 OA
ATOM     86  O   UNL     1      -1.904   1.098  10.301  1.00  0.00    -0.237 OA
ATOM     87  O   UNL     1      -3.573   2.719  11.126  1.00  0.00    -0.744 OA
ENDBRANCH  83  84
ENDBRANCH  64  78
BRANCH  65  88
ATOM     88  C   UNL     1     -10.494   0.936  -2.716  1.00  0.00    -0.014 A 
ATOM     89  C   UNL     1     -11.867   0.598  -2.767  1.00  0.00     0.010 A 
ATOM     90  C   UNL     1     -10.125   2.219  -3.151  1.00  0.00     0.010 A 
ATOM     91  C   UNL     1     -12.849   1.595  -2.938  1.00  0.00     0.020 A 
ATOM     92  C   UNL     1     -11.107   3.217  -3.361  1.00  0.00     0.020 A 
ATOM     93  C   UNL     1     -12.460   2.925  -3.134  1.00  0.00     0.054 A 
BRANCH  93  94
ATOM     94  S   UNL     1     -13.618   4.295  -2.590  1.00  0.00     0.124 S 
ATOM     95  O   UNL     1     -14.158   4.754  -3.865  1.00  0.00    -0.237 OA
ATOM     96  O   UNL     1     -14.574   3.590  -1.733  1.00  0.00    -0.237 OA
ATOM     97  O   UNL     1     -12.795   5.287  -1.900  1.00  0.00    -0.744 OA
ENDBRANCH  93  94
ENDBRANCH  65  88
BRANCH  77  98
ATOM     98  C   UNL     1      -4.374   0.428   0.138  1.00  0.00    -0.014 A 
ATOM     99  C   UNL     1      -3.814   0.431  -1.760  1.00  0.00     0.010 A 
ATOM    100  C   UNL     1      -2.878   0.359   1.418  1.00  0.00     0.010 A 
ATOM    101  C   UNL     1      -1.881   0.302  -2.024  1.00  0.00     0.020 A 
ATOM    102  C   UNL     1      -0.947   0.144   1.207  1.00  0.00     0.020 A 
ATOM    103  C   UNL     1      -0.350   0.092  -0.826  1.00  0.00     0.054 A 
BRANCH 103 104
ATOM    104  S   UNL     1       1.167   0.200  -2.012  1.00  0.00     0.124 S 
ATOM    105  O   UNL     1       1.643  -1.179  -2.050  1.00  0.00    -0.237 OA
ATOM    106  O   UNL     1       0.533   0.646  -3.256  1.00  0.00    -0.237 OA
ATOM    107  O   UNL     1       2.097   1.202  -1.501  1.00  0.00    -0.744 OA
ENDBRANCH 103 104
ENDBRANCH  77  98
ENDBRANCH  51  52
ENDBRANCH  44  46
ENDBRANCH  43  44
ENDBRANCH  42  43
ENDBRANCH  41  42
ENDBRANCH  40  41
ENDBRANCH  39  40
ENDBRANCH  38  39
ENDBRANCH  37  38
ENDBRANCH   1  37
TORSDOF 27
