REMARK SMILES C[N@@H+]1CCN(C(=O)c2ccc3[nH]c4c(c3c2)CSCC4)C[C@H]1C(=O)OCCOCCOCCOC(=O)c1ccc(-c2c3nc(c(-c4ccc(S(=O)(=O)[O-])cc4)c4ccc([nH]4)c(-c4ccc(S(=O)(=O)[O-])cc4)c4nc(c(-c5ccc(S(=O)(=O)[O-])cc5)c5ccc2[nH]5)C=C4)C=C3)cc1
REMARK SMILES IDX 30 1 29 2 28 3 27 4 26 5 25 6 23 7 24 8 22 9 1 10 2 11 3 12
REMARK SMILES IDX 4 14 21 15 5 16 6 17 7 18 8 19 9 20 16 21 10 22 15 23 11 24
REMARK SMILES IDX 14 25 12 26 13 27 17 28 20 30 18 31 19 32 31 33 32 34 33 35
REMARK SMILES IDX 34 36 35 37 36 38 37 39 38 40 96 41 39 42 95 43 40 44 41 45
REMARK SMILES IDX 42 46 89 47 43 48 94 49 88 50 90 51 44 52 93 53 87 54 86 55
REMARK SMILES IDX 45 57 75 58 56 59 74 60 57 61 60 62 73 63 91 64 58 65 59 66
REMARK SMILES IDX 72 68 92 69 61 70 46 71 47 72 55 73 48 74 54 75 49 76 50 77
REMARK SMILES IDX 51 78 52 79 53 80 76 81 77 82 85 83 78 84 84 85 79 86 80 87
REMARK SMILES IDX 81 88 82 89 83 90 62 91 63 92 71 93 64 94 70 95 65 96 66 97
REMARK SMILES IDX 67 98 68 99 69 100
REMARK H PARENT 2 13 12 29 90 56 60 67
REMARK Flexibility Score: inf
ROOT
ATOM      1  C   UNL     1       3.656  -2.800  -0.800  1.00  0.00     0.188 C 
ENDROOT
BRANCH   1   2
ATOM      2  C   UNL     1       3.011  -4.177  -0.847  1.00  0.00     0.188 C 
BRANCH   2   3
ATOM      3  O   UNL     1       2.931  -4.795  -2.098  1.00  0.00    -0.376 OA
BRANCH   3   4
ATOM      4  C   UNL     1       2.424  -4.021  -3.181  1.00  0.00     0.202 C 
BRANCH   4   5
ATOM      5  C   UNL     1       1.129  -3.156  -3.051  1.00  0.00     0.261 C 
BRANCH   5   6
ATOM      6  O   UNL     1       1.169  -1.675  -2.739  1.00  0.00    -0.459 OA
BRANCH   6   7
ATOM      7  C   UNL     1       0.834  -1.410  -1.455  1.00  0.00     0.366 C 
ATOM      8  O   UNL     1       0.838  -2.404  -0.725  1.00  0.00    -0.245 OA
BRANCH   7   9
ATOM      9  C   UNL     1       0.426  -0.040  -0.769  1.00  0.00     0.314 C 
ATOM     10  C   UNL     1       2.335   1.421  -1.257  1.00  0.00     0.333 C 
ATOM     11  N   UNL     1       0.888   1.347  -1.027  1.00  0.00    -0.323 N 
ATOM     12  C   UNL     1       0.496   2.200   0.248  1.00  0.00     0.284 C 
ATOM     13  H   UNL     1       0.448   1.704  -1.875  1.00  0.00     0.348 HD
ATOM     14  C   UNL     1      -0.818   1.847   1.288  1.00  0.00     0.181 C 
ATOM     15  C   UNL     1      -1.022   0.127  -0.255  1.00  0.00     0.197 C 
ATOM     16  N   UNL     1      -1.185   0.402   1.306  1.00  0.00    -0.326 N 
BRANCH  16  17
ATOM     17  C   UNL     1      -1.846  -0.388   2.709  1.00  0.00     0.254 C 
ATOM     18  O   UNL     1      -2.183   0.461   3.561  1.00  0.00    -0.269 OA
BRANCH  17  19
ATOM     19  C   UNL     1      -2.185  -2.230   3.249  1.00  0.00     0.040 A 
ATOM     20  C   UNL     1      -1.673  -3.552   2.920  1.00  0.00     0.016 A 
ATOM     21  C   UNL     1      -3.502  -2.504   3.027  1.00  0.00     0.024 A 
ATOM     22  C   UNL     1      -2.360  -4.726   2.217  1.00  0.00     0.027 A 
ATOM     23  C   UNL     1      -4.400  -3.574   2.220  1.00  0.00     0.004 A 
ATOM     24  C   UNL     1      -3.747  -4.747   1.980  1.00  0.00     0.046 A 
ATOM     25  C   UNL     1      -5.687  -3.716   1.385  1.00  0.00    -0.009 A 
ATOM     26  N   UNL     1      -4.723  -5.680   1.664  1.00  0.00    -0.358 N 
ATOM     27  C   UNL     1      -5.946  -5.072   1.425  1.00  0.00     0.021 A 
ATOM     28  C   UNL     1      -6.687  -2.766   0.712  1.00  0.00     0.107 C 
ATOM     29  H   UNL     1      -4.567  -6.651   1.617  1.00  0.00     0.166 HD
ATOM     30  C   UNL     1      -7.269  -5.759   1.159  1.00  0.00     0.065 C 
ATOM     31  S   UNL     1      -7.975  -3.555  -0.328  1.00  0.00    -0.157 SA
ATOM     32  C   UNL     1      -8.450  -4.800   0.886  1.00  0.00     0.076 C 
ENDBRANCH  17  19
ENDBRANCH  16  17
ENDBRANCH   7   9
ENDBRANCH   6   7
ENDBRANCH   5   6
ENDBRANCH   4   5
ENDBRANCH   3   4
ENDBRANCH   2   3
ENDBRANCH   1   2
BRANCH   1  33
ATOM     33  O   UNL     1       4.182  -2.101  -1.904  1.00  0.00    -0.376 OA
BRANCH  33  34
ATOM     34  C   UNL     1       5.569  -2.303  -2.122  1.00  0.00     0.202 C 
BRANCH  34  35
ATOM     35  C   UNL     1       6.595  -1.945  -0.996  1.00  0.00     0.261 C 
BRANCH  35  36
ATOM     36  O   UNL     1       6.192  -2.220   0.372  1.00  0.00    -0.460 OA
BRANCH  36  37
ATOM     37  C   UNL     1       5.842  -1.154   1.144  1.00  0.00     0.338 C 
ATOM     38  O   UNL     1       6.326  -0.026   1.027  1.00  0.00    -0.246 OA
BRANCH  37  39
ATOM     39  C   UNL     1       4.533  -1.412   1.852  1.00  0.00     0.060 A 
ATOM     40  C   UNL     1       3.992  -2.667   2.209  1.00  0.00     0.016 A 
ATOM     41  C   UNL     1       3.657  -0.350   1.799  1.00  0.00     0.016 A 
ATOM     42  C   UNL     1       2.569  -2.902   2.175  1.00  0.00     0.010 A 
ATOM     43  C   UNL     1       2.289  -0.615   1.769  1.00  0.00     0.010 A 
ATOM     44  C   UNL     1       1.680  -1.900   1.753  1.00  0.00    -0.014 A 
BRANCH  44  45
ATOM     45  C   UNL     1       0.095  -1.947   1.804  1.00  0.00     0.031 A 
ATOM     46  C   UNL     1       0.200  -1.500   3.594  1.00  0.00     0.074 A 
ATOM     47  C   UNL     1      -1.161  -2.127   0.809  1.00  0.00     0.049 A 
ATOM     48  N   UNL     1       0.088  -2.250   4.683  1.00  0.00    -0.248 NA
ATOM     49  C   UNL     1       0.581  -0.115   4.021  1.00  0.00     0.031 C 
ATOM     50  C   UNL     1      -1.878  -2.429  -0.621  1.00  0.00     0.029 A 
ATOM     51  N   UNL     1      -2.514  -1.865   1.161  1.00  0.00    -0.354 N 
ATOM     52  C   UNL     1       0.167  -1.417   5.837  1.00  0.00     0.074 A 
ATOM     53  C   UNL     1       0.638  -0.154   5.355  1.00  0.00     0.031 C 
ATOM     54  C   UNL     1      -3.237  -1.866  -0.696  1.00  0.00     0.029 A 
ATOM     55  C   UNL     1      -3.692  -1.306   0.662  1.00  0.00     0.049 A 
ATOM     56  H   UNL     1      -2.677  -2.194   2.075  1.00  0.00     0.167 HD
ATOM     57  C   UNL     1      -0.328  -1.695   7.093  1.00  0.00     0.031 A 
ATOM     58  C   UNL     1      -4.924  -0.875   1.481  1.00  0.00     0.031 A 
ATOM     59  C   UNL     1      -1.165  -2.855   7.094  1.00  0.00     0.049 A 
ATOM     60  C   UNL     1      -5.589  -1.335   3.241  1.00  0.00     0.074 A 
ATOM     61  C   UNL     1      -1.056  -4.172   7.448  1.00  0.00     0.029 A 
ATOM     62  N   UNL     1      -2.485  -2.590   6.790  1.00  0.00    -0.354 N 
ATOM     63  N   UNL     1      -5.850  -2.582   3.803  1.00  0.00    -0.248 NA
ATOM     64  C   UNL     1      -5.236  -0.475   4.429  1.00  0.00     0.031 C 
ATOM     65  C   UNL     1      -2.371  -4.710   7.289  1.00  0.00     0.029 A 
ATOM     66  C   UNL     1      -3.173  -3.753   6.613  1.00  0.00     0.049 A 
ATOM     67  H   UNL     1      -2.874  -1.689   6.712  1.00  0.00     0.167 HD
ATOM     68  C   UNL     1      -5.056  -2.785   5.059  1.00  0.00     0.074 A 
ATOM     69  C   UNL     1      -4.966  -1.346   5.447  1.00  0.00     0.031 C 
ATOM     70  C   UNL     1      -4.217  -3.916   5.536  1.00  0.00     0.031 A 
BRANCH  57  71
ATOM     71  C   UNL     1      -0.481  -0.867   8.404  1.00  0.00    -0.014 A 
ATOM     72  C   UNL     1      -0.481   0.530   8.510  1.00  0.00     0.010 A 
ATOM     73  C   UNL     1      -0.929  -1.562   9.574  1.00  0.00     0.010 A 
ATOM     74  C   UNL     1      -0.991   1.186   9.661  1.00  0.00     0.020 A 
ATOM     75  C   UNL     1      -1.473  -0.926  10.702  1.00  0.00     0.020 A 
ATOM     76  C   UNL     1      -1.521   0.457  10.731  1.00  0.00     0.054 A 
BRANCH  76  77
ATOM     77  S   UNL     1      -2.378   1.313  12.089  1.00  0.00     0.124 S 
ATOM     78  O   UNL     1      -1.268   1.910  12.828  1.00  0.00    -0.237 OA
ATOM     79  O   UNL     1      -3.242   2.254  11.381  1.00  0.00    -0.237 OA
ATOM     80  O   UNL     1      -3.083   0.242  12.792  1.00  0.00    -0.744 OA
ENDBRANCH  76  77
ENDBRANCH  57  71
BRANCH  58  81
ATOM     81  C   UNL     1      -5.530   0.479   1.129  1.00  0.00    -0.014 A 
ATOM     82  C   UNL     1      -4.689   1.528   0.724  1.00  0.00     0.010 A 
ATOM     83  C   UNL     1      -6.858   0.812   1.473  1.00  0.00     0.010 A 
ATOM     84  C   UNL     1      -5.107   2.865   0.767  1.00  0.00     0.020 A 
ATOM     85  C   UNL     1      -7.294   2.150   1.502  1.00  0.00     0.020 A 
ATOM     86  C   UNL     1      -6.396   3.172   1.198  1.00  0.00     0.054 A 
BRANCH  86  87
ATOM     87  S   UNL     1      -6.849   4.917   1.427  1.00  0.00     0.124 S 
ATOM     88  O   UNL     1      -6.158   5.250   2.668  1.00  0.00    -0.237 OA
ATOM     89  O   UNL     1      -6.312   5.549   0.223  1.00  0.00    -0.237 OA
ATOM     90  O   UNL     1      -8.307   4.886   1.508  1.00  0.00    -0.744 OA
ENDBRANCH  86  87
ENDBRANCH  58  81
BRANCH  70  91
ATOM     91  C   UNL     1      -3.825  -5.443   4.920  1.00  0.00    -0.014 A 
ATOM     92  C   UNL     1      -4.628  -6.577   4.785  1.00  0.00     0.010 A 
ATOM     93  C   UNL     1      -2.420  -5.775   4.686  1.00  0.00     0.010 A 
ATOM     94  C   UNL     1      -4.134  -7.795   4.170  1.00  0.00     0.020 A 
ATOM     95  C   UNL     1      -1.914  -6.949   4.061  1.00  0.00     0.020 A 
ATOM     96  C   UNL     1      -2.817  -7.917   3.698  1.00  0.00     0.054 A 
BRANCH  96  97
ATOM     97  S   UNL     1      -2.324  -9.145   2.426  1.00  0.00     0.124 S 
ATOM     98  O   UNL     1      -1.215  -9.861   3.047  1.00  0.00    -0.237 OA
ATOM     99  O   UNL     1      -3.542  -9.926   2.224  1.00  0.00    -0.237 OA
ATOM    100  O   UNL     1      -1.960  -8.293   1.294  1.00  0.00    -0.744 OA
ENDBRANCH  96  97
ENDBRANCH  70  91
ENDBRANCH  44  45
ENDBRANCH  37  39
ENDBRANCH  36  37
ENDBRANCH  35  36
ENDBRANCH  34  35
ENDBRANCH  33  34
ENDBRANCH   1  33
TORSDOF 22
