REMARK SMILES CSCc1ccc(C(=O)N[C@H]2C=C[C@@H](C(=O)OCCOCCOCCOC(=O)c3ccc(-c4c5nc(c(-c6ccc(S(=O)(=O)[O-])cc6)c6ccc([nH]6)c(-c6ccc(S(=O)(=O)[O-])cc6)c6nc(c(-c7ccc(S(=O)(=O)[O-])cc7)c7ccc4[nH]7)C=C6)C=C5)cc3)C2)o1
REMARK SMILES IDX 21 1 20 2 19 3 18 4 17 5 15 6 16 7 14 8 11 9 12 10 89 11
REMARK SMILES IDX 13 12 10 13 8 14 9 15 7 17 4 18 5 19 90 20 6 21 3 22 2 23
REMARK SMILES IDX 1 24 22 25 23 26 24 27 25 28 26 29 27 30 28 31 29 32 30 33
REMARK SMILES IDX 88 34 31 35 87 36 32 37 33 38 34 39 81 40 35 41 86 42 80 43
REMARK SMILES IDX 82 44 36 45 85 46 79 47 78 48 37 50 67 51 48 52 66 53 49 54
REMARK SMILES IDX 52 55 65 56 83 57 50 58 51 59 64 61 84 62 53 63 38 64 39 65
REMARK SMILES IDX 47 66 40 67 46 68 41 69 42 70 43 71 44 72 45 73 68 74 69 75
REMARK SMILES IDX 77 76 70 77 76 78 71 79 72 80 73 81 74 82 75 83 54 84 55 85
REMARK SMILES IDX 63 86 56 87 62 88 57 89 58 90 59 91 60 92 61 93
REMARK H PARENT 10 16 82 49 52 60
REMARK Flexibility Score: inf
ROOT
ATOM      1  C   UNL     1      -6.360   4.660  -4.484  1.00  0.00     0.188 C 
ENDROOT
BRANCH   1   2
ATOM      2  O   UNL     1      -7.037   4.104  -3.363  1.00  0.00    -0.376 OA
BRANCH   2   3
ATOM      3  C   UNL     1      -6.265   3.478  -2.338  1.00  0.00     0.202 C 
BRANCH   3   4
ATOM      4  C   UNL     1      -5.179   2.465  -2.749  1.00  0.00     0.261 C 
BRANCH   4   5
ATOM      5  O   UNL     1      -4.187   3.031  -3.629  1.00  0.00    -0.463 OA
BRANCH   5   6
ATOM      6  C   UNL     1      -3.776   2.277  -4.685  1.00  0.00     0.312 C 
ATOM      7  O   UNL     1      -4.051   1.092  -4.828  1.00  0.00    -0.252 OA
BRANCH   6   8
ATOM      8  C   UNL     1      -3.035   3.126  -5.746  1.00  0.00     0.124 C 
ATOM      9  C   UNL     1      -0.701   3.953  -5.722  1.00  0.00     0.106 C 
ATOM     10  C   UNL     1      -0.834   2.736  -6.551  1.00  0.00    -0.006 C 
ATOM     11  C   UNL     1      -2.105   4.222  -5.190  1.00  0.00     0.048 C 
ATOM     12  C   UNL     1      -2.105   2.314  -6.607  1.00  0.00    -0.014 C 
BRANCH   9  13
ATOM     13  N   UNL     1       0.313   3.939  -4.690  1.00  0.00    -0.343 N 
ATOM     14  C   UNL     1       0.775   3.089  -3.720  1.00  0.00     0.287 C 
ATOM     15  O   UNL     1       1.564   3.613  -2.924  1.00  0.00    -0.266 OA
ATOM     16  H   UNL     1       0.817   4.784  -4.683  1.00  0.00     0.164 HD
BRANCH  14  17
ATOM     17  C   UNL     1       0.434   1.685  -3.643  1.00  0.00     0.191 A 
ATOM     18  C   UNL     1       0.850  -0.399  -3.003  1.00  0.00     0.114 A 
ATOM     19  C   UNL     1      -0.341  -0.442  -3.682  1.00  0.00     0.047 A 
ATOM     20  O   UNL     1       1.338   0.873  -2.991  1.00  0.00    -0.455 OA
ATOM     21  C   UNL     1      -0.626   0.894  -4.027  1.00  0.00     0.056 A 
BRANCH  18  22
ATOM     22  C   UNL     1       1.628  -1.420  -2.271  1.00  0.00     0.144 C 
BRANCH  22  23
ATOM     23  S   UNL     1       0.907  -1.743  -0.624  1.00  0.00    -0.157 SA
ATOM     24  C   UNL     1       1.082  -0.089   0.098  1.00  0.00     0.085 C 
ENDBRANCH  22  23
ENDBRANCH  18  22
ENDBRANCH  14  17
ENDBRANCH   9  13
ENDBRANCH   6   8
ENDBRANCH   5   6
ENDBRANCH   4   5
ENDBRANCH   3   4
ENDBRANCH   2   3
ENDBRANCH   1   2
BRANCH   1  25
ATOM     25  C   UNL     1      -5.158   5.578  -4.225  1.00  0.00     0.188 C 
BRANCH  25  26
ATOM     26  O   UNL     1      -4.816   5.752  -2.875  1.00  0.00    -0.376 OA
BRANCH  26  27
ATOM     27  C   UNL     1      -5.014   7.007  -2.256  1.00  0.00     0.202 C 
BRANCH  27  28
ATOM     28  C   UNL     1      -6.207   7.928  -2.587  1.00  0.00     0.261 C 
BRANCH  28  29
ATOM     29  O   UNL     1      -6.739   7.902  -3.919  1.00  0.00    -0.460 OA
BRANCH  29  30
ATOM     30  C   UNL     1      -6.061   8.596  -4.870  1.00  0.00     0.338 C 
ATOM     31  O   UNL     1      -5.045   9.240  -4.714  1.00  0.00    -0.246 OA
BRANCH  30  32
ATOM     32  C   UNL     1      -6.622   8.196  -6.188  1.00  0.00     0.060 A 
ATOM     33  C   UNL     1      -5.780   7.573  -7.124  1.00  0.00     0.016 A 
ATOM     34  C   UNL     1      -7.970   8.398  -6.482  1.00  0.00     0.016 A 
ATOM     35  C   UNL     1      -6.281   7.172  -8.365  1.00  0.00     0.010 A 
ATOM     36  C   UNL     1      -8.463   8.022  -7.736  1.00  0.00     0.010 A 
ATOM     37  C   UNL     1      -7.617   7.434  -8.694  1.00  0.00    -0.014 A 
BRANCH  37  38
ATOM     38  C   UNL     1      -8.084   7.291 -10.096  1.00  0.00     0.031 A 
ATOM     39  C   UNL     1      -8.137   8.527 -10.955  1.00  0.00     0.074 A 
ATOM     40  C   UNL     1      -8.457   6.102 -10.605  1.00  0.00     0.049 A 
ATOM     41  N   UNL     1      -8.592   8.675 -12.171  1.00  0.00    -0.248 NA
ATOM     42  C   UNL     1      -7.608   9.763 -10.354  1.00  0.00     0.031 C 
ATOM     43  C   UNL     1      -8.402   4.822  -9.903  1.00  0.00     0.029 A 
ATOM     44  N   UNL     1      -8.973   5.788 -11.839  1.00  0.00    -0.354 N 
ATOM     45  C   UNL     1      -8.421  10.020 -12.476  1.00  0.00     0.074 A 
ATOM     46  C   UNL     1      -7.844  10.650 -11.308  1.00  0.00     0.031 C 
ATOM     47  C   UNL     1      -8.880   3.860 -10.713  1.00  0.00     0.029 A 
ATOM     48  C   UNL     1      -9.314   4.463 -11.974  1.00  0.00     0.049 A 
ATOM     49  H   UNL     1      -9.088   6.449 -12.559  1.00  0.00     0.167 HD
ATOM     50  C   UNL     1      -8.716  10.675 -13.623  1.00  0.00     0.031 A 
ATOM     51  C   UNL     1      -9.932   3.817 -12.985  1.00  0.00     0.031 A 
ATOM     52  C   UNL     1      -9.307  10.053 -14.777  1.00  0.00     0.049 A 
ATOM     53  C   UNL     1     -10.334   4.584 -14.221  1.00  0.00     0.074 A 
ATOM     54  C   UNL     1      -9.634  10.631 -15.992  1.00  0.00     0.029 A 
ATOM     55  N   UNL     1      -9.669   8.717 -14.860  1.00  0.00    -0.354 N 
ATOM     56  N   UNL     1     -10.151   5.853 -14.502  1.00  0.00    -0.248 NA
ATOM     57  C   UNL     1     -11.021   3.829 -15.279  1.00  0.00     0.031 C 
ATOM     58  C   UNL     1     -10.254   9.660 -16.784  1.00  0.00     0.029 A 
ATOM     59  C   UNL     1     -10.244   8.459 -16.093  1.00  0.00     0.049 A 
ATOM     60  H   UNL     1      -9.537   8.051 -14.147  1.00  0.00     0.167 HD
ATOM     61  C   UNL     1     -10.670   6.038 -15.781  1.00  0.00     0.074 A 
ATOM     62  C   UNL     1     -11.162   4.750 -16.223  1.00  0.00     0.031 C 
ATOM     63  C   UNL     1     -10.729   7.171 -16.525  1.00  0.00     0.031 A 
BRANCH  50  64
ATOM     64  C   UNL     1      -8.441  12.156 -13.669  1.00  0.00    -0.014 A 
ATOM     65  C   UNL     1      -7.126  12.656 -13.692  1.00  0.00     0.010 A 
ATOM     66  C   UNL     1      -9.518  13.060 -13.723  1.00  0.00     0.010 A 
ATOM     67  C   UNL     1      -6.895  14.033 -13.729  1.00  0.00     0.020 A 
ATOM     68  C   UNL     1      -9.290  14.436 -13.793  1.00  0.00     0.020 A 
ATOM     69  C   UNL     1      -7.979  14.915 -13.778  1.00  0.00     0.054 A 
BRANCH  69  70
ATOM     70  S   UNL     1      -7.647  16.696 -13.850  1.00  0.00     0.124 S 
ATOM     71  O   UNL     1      -7.148  16.963 -12.502  1.00  0.00    -0.237 OA
ATOM     72  O   UNL     1      -6.654  16.793 -14.917  1.00  0.00    -0.237 OA
ATOM     73  O   UNL     1      -8.949  17.281 -14.157  1.00  0.00    -0.744 OA
ENDBRANCH  69  70
ENDBRANCH  50  64
BRANCH  51  74
ATOM     74  C   UNL     1     -10.234   2.362 -12.868  1.00  0.00    -0.014 A 
ATOM     75  C   UNL     1      -9.583   1.424 -13.689  1.00  0.00     0.010 A 
ATOM     76  C   UNL     1     -11.188   1.906 -11.938  1.00  0.00     0.010 A 
ATOM     77  C   UNL     1      -9.888   0.063 -13.593  1.00  0.00     0.020 A 
ATOM     78  C   UNL     1     -11.473   0.543 -11.818  1.00  0.00     0.020 A 
ATOM     79  C   UNL     1     -10.828  -0.370 -12.654  1.00  0.00     0.054 A 
BRANCH  79  80
ATOM     80  S   UNL     1     -11.166  -2.147 -12.510  1.00  0.00     0.124 S 
ATOM     81  O   UNL     1     -11.900  -2.418 -13.742  1.00  0.00    -0.237 OA
ATOM     82  O   UNL     1      -9.822  -2.715 -12.435  1.00  0.00    -0.237 OA
ATOM     83  O   UNL     1     -11.948  -2.248 -11.280  1.00  0.00    -0.744 OA
ENDBRANCH  79  80
ENDBRANCH  51  74
BRANCH  63  84
ATOM     84  C   UNL     1     -11.303   7.071 -17.916  1.00  0.00    -0.014 A 
ATOM     85  C   UNL     1     -12.676   6.859 -18.133  1.00  0.00     0.010 A 
ATOM     86  C   UNL     1     -10.457   7.258 -19.026  1.00  0.00     0.010 A 
ATOM     87  C   UNL     1     -13.186   6.803 -19.434  1.00  0.00     0.020 A 
ATOM     88  C   UNL     1     -10.968   7.235 -20.327  1.00  0.00     0.020 A 
ATOM     89  C   UNL     1     -12.328   6.993 -20.523  1.00  0.00     0.054 A 
BRANCH  89  90
ATOM     90  S   UNL     1     -13.023   6.960 -22.199  1.00  0.00     0.124 S 
ATOM     91  O   UNL     1     -13.327   5.542 -22.374  1.00  0.00    -0.237 OA
ATOM     92  O   UNL     1     -14.181   7.842 -22.082  1.00  0.00    -0.237 OA
ATOM     93  O   UNL     1     -11.939   7.471 -23.035  1.00  0.00    -0.744 OA
ENDBRANCH  89  90
ENDBRANCH  63  84
ENDBRANCH  37  38
ENDBRANCH  30  32
ENDBRANCH  29  30
ENDBRANCH  28  29
ENDBRANCH  27  28
ENDBRANCH  26  27
ENDBRANCH  25  26
ENDBRANCH   1  25
TORSDOF 24
