REMARK SMILES CCn1c(N2CCC[C@H](C(=O)OCCOCCOCCOC(=O)c3ccc(-c4c5nc(c(-c6ccc(S(=O)(=O)[O-])cc6)c6ccc([nH]6)c(-c6ccc(S(=O)(=O)[O-])cc6)c6nc(c(-c7ccc(S(=O)(=O)[O-])cc7)c7ccc4[nH]7)C=C6)C=C5)cc3)C2)nc2cc(C)ccc21
REMARK SMILES IDX 17 1 16 2 15 3 14 4 13 5 12 6 10 7 11 8 9 9 5 10 6 11 84 12
REMARK SMILES IDX 7 13 8 14 4 15 3 16 92 17 85 18 86 19 91 20 87 21 90 22
REMARK SMILES IDX 88 23 89 24 2 25 1 26 18 27 19 28 20 29 21 30 22 31 23 32
REMARK SMILES IDX 24 33 25 34 83 35 26 36 82 37 27 38 28 39 29 40 76 41 30 42
REMARK SMILES IDX 81 43 75 44 77 45 31 46 80 47 74 48 73 49 32 51 62 52 43 53
REMARK SMILES IDX 61 54 44 55 47 56 60 57 78 58 45 59 46 60 59 62 79 63 48 64
REMARK SMILES IDX 33 65 34 66 42 67 35 68 41 69 36 70 37 71 38 72 39 73 40 74
REMARK SMILES IDX 63 75 64 76 72 77 65 78 71 79 66 80 67 81 68 82 69 83 70 84
REMARK SMILES IDX 49 85 50 86 58 87 51 88 57 89 52 90 53 91 54 92 55 93 56 94
REMARK H PARENT 77 50 47 61
REMARK Flexibility Score: inf
ROOT
ATOM      1  C   UNL     1       1.887   0.829   6.995  1.00  0.00     0.188 C 
ENDROOT
BRANCH   1   2
ATOM      2  C   UNL     1       0.556   0.286   7.515  1.00  0.00     0.188 C 
BRANCH   2   3
ATOM      3  O   UNL     1       0.565  -0.955   8.189  1.00  0.00    -0.376 OA
BRANCH   3   4
ATOM      4  C   UNL     1       1.180  -2.077   7.565  1.00  0.00     0.202 C 
BRANCH   4   5
ATOM      5  C   UNL     1       0.993  -2.310   6.059  1.00  0.00     0.261 C 
BRANCH   5   6
ATOM      6  O   UNL     1       1.766  -1.398   5.245  1.00  0.00    -0.463 OA
BRANCH   6   7
ATOM      7  C   UNL     1       1.054  -0.759   4.284  1.00  0.00     0.310 C 
ATOM      8  O   UNL     1      -0.142  -0.966   4.091  1.00  0.00    -0.252 OA
BRANCH   7   9
ATOM      9  C   UNL     1       1.776   0.354   3.514  1.00  0.00     0.119 C 
ATOM     10  N   UNL     1       2.792  -1.005   1.752  1.00  0.00    -0.341 N 
ATOM     11  C   UNL     1       4.155  -0.680   2.138  1.00  0.00     0.119 C 
ATOM     12  C   UNL     1       1.738  -0.050   2.056  1.00  0.00     0.135 C 
ATOM     13  C   UNL     1       4.255  -0.069   3.534  1.00  0.00     0.022 C 
ATOM     14  C   UNL     1       3.158   0.938   3.790  1.00  0.00     0.019 C 
BRANCH  10  15
ATOM     15  C   UNL     1       2.407  -2.285   1.553  1.00  0.00     0.206 A 
ATOM     16  N   UNL     1       1.635  -2.649   0.469  1.00  0.00    -0.310 N 
ATOM     17  C   UNL     1       1.208  -3.944   0.686  1.00  0.00     0.070 A 
ATOM     18  N   UNL     1       2.579  -3.291   2.381  1.00  0.00    -0.213 NA
ATOM     19  C   UNL     1       1.795  -4.307   1.891  1.00  0.00     0.091 A 
ATOM     20  C   UNL     1       0.365  -4.795  -0.038  1.00  0.00     0.029 A 
ATOM     21  C   UNL     1       1.527  -5.580   2.423  1.00  0.00     0.034 A 
ATOM     22  C   UNL     1       0.130  -6.064   0.493  1.00  0.00     0.006 A 
ATOM     23  C   UNL     1       0.704  -6.469   1.705  1.00  0.00    -0.049 A 
ATOM     24  C   UNL     1       0.411  -7.833   2.256  1.00  0.00     0.044 C 
BRANCH  16  25
ATOM     25  C   UNL     1       1.251  -1.897  -0.714  1.00  0.00     0.122 C 
ATOM     26  C   UNL     1       2.026  -0.648  -1.108  1.00  0.00     0.028 C 
ENDBRANCH  16  25
ENDBRANCH  10  15
ENDBRANCH   7   9
ENDBRANCH   6   7
ENDBRANCH   5   6
ENDBRANCH   4   5
ENDBRANCH   3   4
ENDBRANCH   2   3
ENDBRANCH   1   2
BRANCH   1  27
ATOM     27  O   UNL     1       3.129   0.450   7.545  1.00  0.00    -0.376 OA
BRANCH  27  28
ATOM     28  C   UNL     1       3.252   0.606   8.946  1.00  0.00     0.202 C 
BRANCH  28  29
ATOM     29  C   UNL     1       3.013   2.014   9.534  1.00  0.00     0.261 C 
BRANCH  29  30
ATOM     30  O   UNL     1       1.814   2.658   9.045  1.00  0.00    -0.460 OA
BRANCH  30  31
ATOM     31  C   UNL     1       1.982   3.894   8.473  1.00  0.00     0.338 C 
ATOM     32  O   UNL     1       2.899   4.650   8.668  1.00  0.00    -0.246 OA
BRANCH  31  33
ATOM     33  C   UNL     1       1.042   4.006   7.303  1.00  0.00     0.060 A 
ATOM     34  C   UNL     1      -0.295   3.596   7.351  1.00  0.00     0.016 A 
ATOM     35  C   UNL     1       1.629   4.281   6.057  1.00  0.00     0.016 A 
ATOM     36  C   UNL     1      -1.023   3.423   6.157  1.00  0.00     0.010 A 
ATOM     37  C   UNL     1       0.907   4.081   4.870  1.00  0.00     0.010 A 
ATOM     38  C   UNL     1      -0.425   3.643   4.903  1.00  0.00    -0.014 A 
BRANCH  38  39
ATOM     39  C   UNL     1      -1.231   3.781   3.667  1.00  0.00     0.031 A 
ATOM     40  C   UNL     1      -2.227   4.851   3.728  1.00  0.00     0.074 A 
ATOM     41  C   UNL     1      -1.268   3.059   2.524  1.00  0.00     0.049 A 
ATOM     42  N   UNL     1      -3.491   4.603   3.820  1.00  0.00    -0.248 NA
ATOM     43  C   UNL     1      -1.849   6.252   3.856  1.00  0.00     0.031 C 
ATOM     44  C   UNL     1      -0.883   1.679   2.375  1.00  0.00     0.029 A 
ATOM     45  N   UNL     1      -1.726   3.372   1.255  1.00  0.00    -0.354 N 
ATOM     46  C   UNL     1      -4.110   5.828   3.809  1.00  0.00     0.074 A 
ATOM     47  C   UNL     1      -3.058   6.811   3.967  1.00  0.00     0.031 C 
ATOM     48  C   UNL     1      -0.923   1.314   1.079  1.00  0.00     0.029 A 
ATOM     49  C   UNL     1      -1.350   2.447   0.277  1.00  0.00     0.049 A 
ATOM     50  H   UNL     1      -2.265   4.172   1.060  1.00  0.00     0.167 HD
ATOM     51  C   UNL     1      -5.418   5.936   3.469  1.00  0.00     0.031 A 
ATOM     52  C   UNL     1      -1.837   2.183  -0.964  1.00  0.00     0.031 A 
ATOM     53  C   UNL     1      -6.116   4.674   3.491  1.00  0.00     0.049 A 
ATOM     54  C   UNL     1      -3.303   2.323  -0.862  1.00  0.00     0.074 A 
ATOM     55  C   UNL     1      -6.410   3.745   4.470  1.00  0.00     0.029 A 
ATOM     56  N   UNL     1      -6.332   4.047   2.288  1.00  0.00    -0.354 N 
ATOM     57  N   UNL     1      -4.070   1.440  -0.292  1.00  0.00    -0.248 NA
ATOM     58  C   UNL     1      -3.907   3.625  -1.103  1.00  0.00     0.031 C 
ATOM     59  C   UNL     1      -6.440   2.482   3.814  1.00  0.00     0.029 A 
ATOM     60  C   UNL     1      -6.189   2.690   2.458  1.00  0.00     0.049 A 
ATOM     61  H   UNL     1      -6.554   4.497   1.440  1.00  0.00     0.167 HD
ATOM     62  C   UNL     1      -5.069   2.194   0.300  1.00  0.00     0.074 A 
ATOM     63  C   UNL     1      -4.995   3.500  -0.343  1.00  0.00     0.031 C 
ATOM     64  C   UNL     1      -5.682   1.780   1.444  1.00  0.00     0.031 A 
BRANCH  51  65
ATOM     65  C   UNL     1      -5.964   7.170   2.826  1.00  0.00    -0.014 A 
ATOM     66  C   UNL     1      -5.137   8.068   2.119  1.00  0.00     0.010 A 
ATOM     67  C   UNL     1      -7.353   7.362   2.747  1.00  0.00     0.010 A 
ATOM     68  C   UNL     1      -5.656   9.166   1.442  1.00  0.00     0.020 A 
ATOM     69  C   UNL     1      -7.889   8.436   2.027  1.00  0.00     0.020 A 
ATOM     70  C   UNL     1      -7.033   9.344   1.401  1.00  0.00     0.054 A 
BRANCH  70  71
ATOM     71  S   UNL     1      -7.670  10.754   0.469  1.00  0.00     0.124 S 
ATOM     72  O   UNL     1      -7.234  11.878   1.294  1.00  0.00    -0.237 OA
ATOM     73  O   UNL     1      -6.989  10.613  -0.815  1.00  0.00    -0.237 OA
ATOM     74  O   UNL     1      -9.111  10.522   0.439  1.00  0.00    -0.744 OA
ENDBRANCH  70  71
ENDBRANCH  51  65
BRANCH  52  75
ATOM     75  C   UNL     1      -1.090   2.564  -2.194  1.00  0.00    -0.014 A 
ATOM     76  C   UNL     1       0.172   3.185  -2.128  1.00  0.00     0.010 A 
ATOM     77  C   UNL     1      -1.668   2.377  -3.466  1.00  0.00     0.010 A 
ATOM     78  C   UNL     1       0.769   3.729  -3.270  1.00  0.00     0.020 A 
ATOM     79  C   UNL     1      -1.074   2.918  -4.616  1.00  0.00     0.020 A 
ATOM     80  C   UNL     1       0.115   3.636  -4.499  1.00  0.00     0.054 A 
BRANCH  80  81
ATOM     81  S   UNL     1       0.801   4.549  -5.910  1.00  0.00     0.124 S 
ATOM     82  O   UNL     1       0.561   5.933  -5.513  1.00  0.00    -0.237 OA
ATOM     83  O   UNL     1       2.200   4.129  -5.911  1.00  0.00    -0.237 OA
ATOM     84  O   UNL     1       0.011   4.077  -7.045  1.00  0.00    -0.744 OA
ENDBRANCH  80  81
ENDBRANCH  52  75
BRANCH  64  85
ATOM     85  C   UNL     1      -5.601   0.315   1.824  1.00  0.00    -0.014 A 
ATOM     86  C   UNL     1      -6.814  -0.352   2.077  1.00  0.00     0.010 A 
ATOM     87  C   UNL     1      -4.399  -0.366   2.098  1.00  0.00     0.010 A 
ATOM     88  C   UNL     1      -6.830  -1.634   2.632  1.00  0.00     0.020 A 
ATOM     89  C   UNL     1      -4.405  -1.665   2.635  1.00  0.00     0.020 A 
ATOM     90  C   UNL     1      -5.626  -2.278   2.926  1.00  0.00     0.054 A 
BRANCH  90  91
ATOM     91  S   UNL     1      -5.702  -3.905   3.726  1.00  0.00     0.124 S 
ATOM     92  O   UNL     1      -6.154  -3.565   5.074  1.00  0.00    -0.237 OA
ATOM     93  O   UNL     1      -6.678  -4.622   2.907  1.00  0.00    -0.237 OA
ATOM     94  O   UNL     1      -4.336  -4.413   3.638  1.00  0.00    -0.744 OA
ENDBRANCH  90  91
ENDBRANCH  64  85
ENDBRANCH  38  39
ENDBRANCH  31  33
ENDBRANCH  30  31
ENDBRANCH  29  30
ENDBRANCH  28  29
ENDBRANCH  27  28
ENDBRANCH   1  27
TORSDOF 22
