REMARK SMILES O=C(OCCOCCOCCOC(=O)C1(n2ccnc2)CCN(C(=O)[C@@H]2CC(=O)N(C3CC3)C2)CC1)c1ccc(-c2c3nc(c(-c4ccc(S(=O)(=O)[O-])cc4)c4ccc([nH]4)c(-c4ccc(S(=O)(=O)[O-])cc4)c4nc(c(-c5ccc(S(=O)(=O)[O-])cc5)c5ccc2[nH]5)C=C4)C=C3)cc1
REMARK SMILES IDX 7 1 6 2 5 3 4 4 3 5 2 6 1 7 37 8 38 9 96 10 39 11 95 12
REMARK SMILES IDX 40 13 41 14 42 15 89 16 43 17 94 18 88 19 90 20 44 21 93 22
REMARK SMILES IDX 87 23 86 24 45 26 75 27 56 28 74 29 57 30 60 31 73 32 91 33
REMARK SMILES IDX 58 34 59 35 72 37 92 38 61 39 46 40 47 41 55 42 48 43 54 44
REMARK SMILES IDX 49 45 50 46 51 47 52 48 53 49 76 50 77 51 85 52 78 53 84 54
REMARK SMILES IDX 79 55 80 56 81 57 82 58 83 59 62 60 63 61 71 62 64 63 70 64
REMARK SMILES IDX 65 65 66 66 67 67 68 68 69 69 8 70 9 71 10 72 11 73 12 74
REMARK SMILES IDX 13 75 14 76 15 77 21 78 36 79 22 80 35 81 23 82 24 83 25 84
REMARK SMILES IDX 16 85 17 86 20 87 18 88 19 89 26 90 27 91 34 92 28 93 30 94
REMARK SMILES IDX 29 95 31 96 32 97 33 98
REMARK H PARENT 90 25 60 36
REMARK Flexibility Score: inf
ROOT
ATOM      1  C   UNL     1       3.834   0.226  -1.187  1.00  0.00     0.188 C 
ENDROOT
BRANCH   1   2
ATOM      2  O   UNL     1       5.247   0.188  -1.161  1.00  0.00    -0.376 OA
BRANCH   2   3
ATOM      3  C   UNL     1       5.957  -0.861  -0.528  1.00  0.00     0.202 C 
BRANCH   3   4
ATOM      4  C   UNL     1       5.587  -1.296   0.880  1.00  0.00     0.261 C 
BRANCH   4   5
ATOM      5  O   UNL     1       4.226  -1.705   0.997  1.00  0.00    -0.460 OA
BRANCH   5   6
ATOM      6  C   UNL     1       3.323  -1.297   1.914  1.00  0.00     0.338 C 
ATOM      7  O   UNL     1       2.331  -1.993   2.121  1.00  0.00    -0.246 OA
BRANCH   6   8
ATOM      8  C   UNL     1       3.347   0.071   2.498  1.00  0.00     0.060 A 
ATOM      9  C   UNL     1       4.429   0.677   3.147  1.00  0.00     0.016 A 
ATOM     10  C   UNL     1       2.104   0.717   2.509  1.00  0.00     0.016 A 
ATOM     11  C   UNL     1       4.265   1.895   3.813  1.00  0.00     0.010 A 
ATOM     12  C   UNL     1       1.931   1.901   3.208  1.00  0.00     0.010 A 
ATOM     13  C   UNL     1       2.999   2.470   3.899  1.00  0.00    -0.014 A 
BRANCH  13  14
ATOM     14  C   UNL     1       2.762   3.599   4.799  1.00  0.00     0.031 A 
ATOM     15  C   UNL     1       3.186   4.949   4.352  1.00  0.00     0.074 A 
ATOM     16  C   UNL     1       1.946   3.500   5.869  1.00  0.00     0.049 A 
ATOM     17  N   UNL     1       4.208   5.661   4.702  1.00  0.00    -0.248 NA
ATOM     18  C   UNL     1       2.374   5.566   3.302  1.00  0.00     0.031 C 
ATOM     19  C   UNL     1       1.108   2.358   6.250  1.00  0.00     0.029 A 
ATOM     20  N   UNL     1       1.600   4.457   6.777  1.00  0.00    -0.354 N 
ATOM     21  C   UNL     1       4.012   6.905   4.095  1.00  0.00     0.074 A 
ATOM     22  C   UNL     1       3.039   6.692   3.056  1.00  0.00     0.031 C 
ATOM     23  C   UNL     1       0.206   2.756   7.174  1.00  0.00     0.029 A 
ATOM     24  C   UNL     1       0.500   4.125   7.559  1.00  0.00     0.049 A 
ATOM     25  H   UNL     1       2.087   5.307   6.871  1.00  0.00     0.167 HD
ATOM     26  C   UNL     1       4.388   8.081   4.678  1.00  0.00     0.031 A 
ATOM     27  C   UNL     1      -0.141   4.924   8.445  1.00  0.00     0.031 A 
ATOM     28  C   UNL     1       5.223   7.870   5.832  1.00  0.00     0.049 A 
ATOM     29  C   UNL     1       0.780   6.029   8.797  1.00  0.00     0.074 A 
ATOM     30  C   UNL     1       6.391   7.184   6.095  1.00  0.00     0.029 A 
ATOM     31  N   UNL     1       4.651   8.126   7.057  1.00  0.00    -0.354 N 
ATOM     32  N   UNL     1       1.883   5.865   9.471  1.00  0.00    -0.248 NA
ATOM     33  C   UNL     1       0.660   7.305   8.109  1.00  0.00     0.031 C 
ATOM     34  C   UNL     1       6.221   6.657   7.410  1.00  0.00     0.029 A 
ATOM     35  C   UNL     1       4.990   7.100   7.898  1.00  0.00     0.049 A 
ATOM     36  H   UNL     1       4.097   8.907   7.287  1.00  0.00     0.167 HD
ATOM     37  C   UNL     1       2.760   6.804   8.956  1.00  0.00     0.074 A 
ATOM     38  C   UNL     1       1.911   7.754   8.245  1.00  0.00     0.031 C 
ATOM     39  C   UNL     1       4.104   6.560   8.912  1.00  0.00     0.031 A 
BRANCH  26  40
ATOM     40  C   UNL     1       3.653   9.399   4.484  1.00  0.00    -0.014 A 
ATOM     41  C   UNL     1       4.205  10.574   5.039  1.00  0.00     0.010 A 
ATOM     42  C   UNL     1       2.318   9.482   4.035  1.00  0.00     0.010 A 
ATOM     43  C   UNL     1       3.437  11.735   5.209  1.00  0.00     0.020 A 
ATOM     44  C   UNL     1       1.561  10.651   4.144  1.00  0.00     0.020 A 
ATOM     45  C   UNL     1       2.112  11.757   4.773  1.00  0.00     0.054 A 
BRANCH  45  46
ATOM     46  S   UNL     1       1.084  13.209   5.106  1.00  0.00     0.124 S 
ATOM     47  O   UNL     1       0.877  13.097   6.547  1.00  0.00    -0.237 OA
ATOM     48  O   UNL     1       1.942  14.307   4.671  1.00  0.00    -0.237 OA
ATOM     49  O   UNL     1      -0.099  12.984   4.279  1.00  0.00    -0.744 OA
ENDBRANCH  45  46
ENDBRANCH  26  40
BRANCH  27  50
ATOM     50  C   UNL     1      -1.547   4.886   8.908  1.00  0.00    -0.014 A 
ATOM     51  C   UNL     1      -1.938   5.596  10.059  1.00  0.00     0.010 A 
ATOM     52  C   UNL     1      -2.562   4.369   8.078  1.00  0.00     0.010 A 
ATOM     53  C   UNL     1      -3.292   5.844  10.330  1.00  0.00     0.020 A 
ATOM     54  C   UNL     1      -3.916   4.601   8.350  1.00  0.00     0.020 A 
ATOM     55  C   UNL     1      -4.272   5.364   9.460  1.00  0.00     0.054 A 
BRANCH  55  56
ATOM     56  S   UNL     1      -6.002   5.859   9.713  1.00  0.00     0.124 S 
ATOM     57  O   UNL     1      -6.370   5.108  10.910  1.00  0.00    -0.237 OA
ATOM     58  O   UNL     1      -5.897   7.306   9.883  1.00  0.00    -0.237 OA
ATOM     59  O   UNL     1      -6.667   5.430   8.484  1.00  0.00    -0.744 OA
ENDBRANCH  55  56
ENDBRANCH  27  50
BRANCH  39  60
ATOM     60  C   UNL     1       4.670   5.460   9.784  1.00  0.00    -0.014 A 
ATOM     61  C   UNL     1       4.237   4.121   9.740  1.00  0.00     0.010 A 
ATOM     62  C   UNL     1       5.781   5.775  10.588  1.00  0.00     0.010 A 
ATOM     63  C   UNL     1       4.876   3.133  10.503  1.00  0.00     0.020 A 
ATOM     64  C   UNL     1       6.439   4.792  11.331  1.00  0.00     0.020 A 
ATOM     65  C   UNL     1       5.976   3.476  11.294  1.00  0.00     0.054 A 
BRANCH  65  66
ATOM     66  S   UNL     1       6.839   2.183  12.228  1.00  0.00     0.124 S 
ATOM     67  O   UNL     1       5.889   1.874  13.293  1.00  0.00    -0.237 OA
ATOM     68  O   UNL     1       7.030   1.132  11.231  1.00  0.00    -0.237 OA
ATOM     69  O   UNL     1       8.072   2.835  12.668  1.00  0.00    -0.744 OA
ENDBRANCH  65  66
ENDBRANCH  39  60
ENDBRANCH  13  14
ENDBRANCH   6   8
ENDBRANCH   5   6
ENDBRANCH   4   5
ENDBRANCH   3   4
ENDBRANCH   2   3
ENDBRANCH   1   2
BRANCH   1  70
ATOM     70  C   UNL     1       2.956  -0.916  -1.742  1.00  0.00     0.188 C 
BRANCH  70  71
ATOM     71  O   UNL     1       3.364  -1.823  -2.750  1.00  0.00    -0.376 OA
BRANCH  71  72
ATOM     72  C   UNL     1       4.472  -1.560  -3.579  1.00  0.00     0.202 C 
BRANCH  72  73
ATOM     73  C   UNL     1       4.260  -0.562  -4.706  1.00  0.00     0.261 C 
BRANCH  73  74
ATOM     74  O   UNL     1       4.023   0.775  -4.246  1.00  0.00    -0.461 OA
BRANCH  74  75
ATOM     75  C   UNL     1       2.815   1.313  -4.617  1.00  0.00     0.332 C 
ATOM     76  O   UNL     1       1.840   0.663  -4.978  1.00  0.00    -0.249 OA
BRANCH  75  77
ATOM     77  C   UNL     1       2.937   2.921  -4.568  1.00  0.00     0.146 C 
ATOM     78  C   UNL     1       2.290   4.343  -4.912  1.00  0.00     0.062 C 
ATOM     79  C   UNL     1       1.854   2.735  -3.329  1.00  0.00     0.062 C 
ATOM     80  C   UNL     1       2.672   5.374  -3.850  1.00  0.00     0.122 C 
ATOM     81  C   UNL     1       2.147   3.724  -2.185  1.00  0.00     0.122 C 
ATOM     82  N   UNL     1       1.928   5.078  -2.646  1.00  0.00    -0.342 N 
ATOM     83  C   UNL     1       1.058   6.040  -2.165  1.00  0.00     0.227 C 
ATOM     84  O   UNL     1       1.073   7.184  -2.634  1.00  0.00    -0.274 OA
BRANCH  77  85
ATOM     85  N   UNL     1       3.343   2.805  -5.977  1.00  0.00    -0.320 N 
ATOM     86  C   UNL     1       4.612   3.130  -6.418  1.00  0.00     0.108 A 
ATOM     87  C   UNL     1       2.607   2.481  -7.097  1.00  0.00     0.200 A 
ATOM     88  C   UNL     1       4.559   3.013  -7.786  1.00  0.00     0.130 A 
ATOM     89  N   UNL     1       3.321   2.595  -8.194  1.00  0.00    -0.245 NA
ENDBRANCH  77  85
BRANCH  83  90
ATOM     90  C   UNL     1       0.022   5.744  -1.095  1.00  0.00     0.107 C 
ATOM     91  C   UNL     1       0.578   5.502   0.293  1.00  0.00     0.115 C 
ATOM     92  C   UNL     1      -0.880   4.569  -1.425  1.00  0.00     0.133 C 
ATOM     93  C   UNL     1      -0.167   4.287   0.793  1.00  0.00     0.223 C 
ATOM     94  N   UNL     1      -0.798   3.691  -0.292  1.00  0.00    -0.339 N 
ATOM     95  O   UNL     1      -0.139   3.893   1.928  1.00  0.00    -0.275 OA
BRANCH  94  96
ATOM     96  C   UNL     1      -1.364   2.379  -0.326  1.00  0.00     0.085 C 
ATOM     97  C   UNL     1      -0.431   1.194  -0.432  1.00  0.00     0.027 C 
ATOM     98  C   UNL     1      -1.292   1.364   0.782  1.00  0.00     0.027 C 
ENDBRANCH  94  96
ENDBRANCH  83  90
ENDBRANCH  75  77
ENDBRANCH  74  75
ENDBRANCH  73  74
ENDBRANCH  72  73
ENDBRANCH  71  72
ENDBRANCH  70  71
ENDBRANCH   1  70
TORSDOF 23
