REMARK SMILES C[C@@H](CC(=O)OCCOCCOCCOC(=O)c1ccc(-c2c3nc(c(-c4ccc(S(=O)(=O)[O-])cc4)c4ccc([nH]4)c(-c4ccc(S(=O)(=O)[O-])cc4)c4nc(c(-c5ccc(S(=O)(=O)[O-])cc5)c5ccc2[nH]5)C=C4)C=C3)cc1)NC(=O)/C=C/c1cc(Cl)cc(Cl)c1
REMARK SMILES IDX 10 1 9 2 8 3 7 4 6 5 4 6 5 7 3 8 2 9 1 10 78 11 79 12 80 14
REMARK SMILES IDX 81 15 82 16 83 17 84 18 90 19 85 20 88 21 86 22 87 23 89 24
REMARK SMILES IDX 11 25 12 26 13 27 14 28 15 29 16 30 17 31 18 32 19 33 77 34
REMARK SMILES IDX 20 35 76 36 21 37 22 38 23 39 70 40 24 41 75 42 69 43 71 44
REMARK SMILES IDX 25 45 74 46 68 47 67 48 26 50 56 51 37 52 55 53 38 54 41 55
REMARK SMILES IDX 54 56 72 57 39 58 40 59 53 61 73 62 42 63 27 64 28 65 36 66
REMARK SMILES IDX 29 67 35 68 30 69 31 70 32 71 33 72 34 73 57 74 58 75 66 76
REMARK SMILES IDX 59 77 65 78 60 79 61 80 62 81 63 82 64 83 43 84 44 85 52 86
REMARK SMILES IDX 45 87 51 88 46 89 47 90 48 91 49 92 50 93
REMARK H PARENT 78 13 71 49 41 60
REMARK Flexibility Score: inf
ROOT
ATOM      1  C   UNL     1      -1.410   2.804  -3.310  1.00  0.00     0.188 C 
ENDROOT
BRANCH   1   2
ATOM      2  O   UNL     1      -1.319   2.185  -4.590  1.00  0.00    -0.376 OA
BRANCH   2   3
ATOM      3  C   UNL     1      -0.382   1.107  -4.715  1.00  0.00     0.202 C 
BRANCH   3   4
ATOM      4  C   UNL     1       0.996   1.327  -4.067  1.00  0.00     0.261 C 
BRANCH   4   5
ATOM      5  O   UNL     1       0.929   1.238  -2.621  1.00  0.00    -0.463 OA
BRANCH   5   6
ATOM      6  C   UNL     1       1.757   2.054  -1.929  1.00  0.00     0.307 C 
ATOM      7  O   UNL     1       2.602   2.773  -2.452  1.00  0.00    -0.252 OA
BRANCH   6   8
ATOM      8  C   UNL     1       1.469   2.126  -0.440  1.00  0.00     0.147 C 
BRANCH   8   9
ATOM      9  C   UNL     1       1.074   0.881   0.369  1.00  0.00     0.090 C 
ATOM     10  C   UNL     1       1.444  -0.468  -0.237  1.00  0.00     0.031 C 
BRANCH   9  11
ATOM     11  N   UNL     1      -0.347   0.886   0.714  1.00  0.00    -0.350 N 
ATOM     12  C   UNL     1      -1.009   1.058   1.884  1.00  0.00     0.244 C 
ATOM     13  H   UNL     1      -0.941   0.734  -0.057  1.00  0.00     0.164 HD
ATOM     14  O   UNL     1      -2.200   0.757   1.937  1.00  0.00    -0.270 OA
BRANCH  12  15
ATOM     15  C   UNL     1      -0.363   1.479   3.145  1.00  0.00     0.072 C 
ATOM     16  C   UNL     1       0.715   2.252   3.337  1.00  0.00     0.014 C 
BRANCH  16  17
ATOM     17  C   UNL     1       1.363   2.451   4.652  1.00  0.00    -0.023 A 
ATOM     18  C   UNL     1       2.532   3.224   4.712  1.00  0.00     0.028 A 
ATOM     19  C   UNL     1       0.941   1.800   5.824  1.00  0.00     0.028 A 
ATOM     20  C   UNL     1       3.275   3.297   5.895  1.00  0.00     0.043 A 
ATOM     21  C   UNL     1       1.690   1.884   6.999  1.00  0.00     0.043 A 
ATOM     22  Cl  UNL     1       4.747   4.189   5.921  1.00  0.00    -0.084 Cl
ATOM     23  C   UNL     1       2.866   2.621   7.039  1.00  0.00     0.041 A 
ATOM     24  Cl  UNL     1       1.178   1.017   8.396  1.00  0.00    -0.084 Cl
ENDBRANCH  16  17
ENDBRANCH  12  15
ENDBRANCH   9  11
ENDBRANCH   8   9
ENDBRANCH   6   8
ENDBRANCH   5   6
ENDBRANCH   4   5
ENDBRANCH   3   4
ENDBRANCH   2   3
ENDBRANCH   1   2
BRANCH   1  25
ATOM     25  C   UNL     1      -2.008   1.935  -2.197  1.00  0.00     0.188 C 
BRANCH  25  26
ATOM     26  O   UNL     1      -1.675   0.560  -2.322  1.00  0.00    -0.376 OA
BRANCH  26  27
ATOM     27  C   UNL     1      -2.646  -0.434  -1.995  1.00  0.00     0.202 C 
BRANCH  27  28
ATOM     28  C   UNL     1      -4.059  -0.273  -2.587  1.00  0.00     0.261 C 
BRANCH  28  29
ATOM     29  O   UNL     1      -4.799   0.855  -2.083  1.00  0.00    -0.460 OA
BRANCH  29  30
ATOM     30  C   UNL     1      -4.915   0.946  -0.736  1.00  0.00     0.338 C 
ATOM     31  O   UNL     1      -4.735   0.046   0.065  1.00  0.00    -0.246 OA
BRANCH  30  32
ATOM     32  C   UNL     1      -5.050   2.382  -0.400  1.00  0.00     0.060 A 
ATOM     33  C   UNL     1      -4.103   2.965   0.449  1.00  0.00     0.016 A 
ATOM     34  C   UNL     1      -6.054   3.169  -0.962  1.00  0.00     0.016 A 
ATOM     35  C   UNL     1      -4.181   4.314   0.788  1.00  0.00     0.010 A 
ATOM     36  C   UNL     1      -6.137   4.525  -0.623  1.00  0.00     0.010 A 
ATOM     37  C   UNL     1      -5.222   5.097   0.281  1.00  0.00    -0.014 A 
BRANCH  37  38
ATOM     38  C   UNL     1      -5.445   6.458   0.829  1.00  0.00     0.031 A 
ATOM     39  C   UNL     1      -6.552   6.658   1.829  1.00  0.00     0.074 A 
ATOM     40  C   UNL     1      -4.655   7.492   0.485  1.00  0.00     0.049 A 
ATOM     41  N   UNL     1      -6.949   7.756   2.418  1.00  0.00    -0.248 NA
ATOM     42  C   UNL     1      -7.313   5.458   2.213  1.00  0.00     0.031 C 
ATOM     43  C   UNL     1      -3.515   7.422  -0.429  1.00  0.00     0.029 A 
ATOM     44  N   UNL     1      -4.695   8.809   0.872  1.00  0.00    -0.354 N 
ATOM     45  C   UNL     1      -8.018   7.384   3.226  1.00  0.00     0.074 A 
ATOM     46  C   UNL     1      -8.223   5.965   3.030  1.00  0.00     0.031 C 
ATOM     47  C   UNL     1      -2.965   8.645  -0.534  1.00  0.00     0.029 A 
ATOM     48  C   UNL     1      -3.734   9.590   0.274  1.00  0.00     0.049 A 
ATOM     49  H   UNL     1      -5.351   9.161   1.516  1.00  0.00     0.167 HD
ATOM     50  C   UNL     1      -8.761   8.151   4.059  1.00  0.00     0.031 A 
ATOM     51  C   UNL     1      -3.512  10.918   0.353  1.00  0.00     0.031 A 
ATOM     52  C   UNL     1      -8.560   9.563   4.251  1.00  0.00     0.049 A 
ATOM     53  C   UNL     1      -4.389  11.763   1.240  1.00  0.00     0.074 A 
ATOM     54  C   UNL     1      -9.253  10.424   5.084  1.00  0.00     0.029 A 
ATOM     55  N   UNL     1      -7.602  10.323   3.598  1.00  0.00    -0.354 N 
ATOM     56  N   UNL     1      -5.391  11.395   2.003  1.00  0.00    -0.248 NA
ATOM     57  C   UNL     1      -4.096  13.203   1.283  1.00  0.00     0.031 C 
ATOM     58  C   UNL     1      -8.752  11.716   4.890  1.00  0.00     0.029 A 
ATOM     59  C   UNL     1      -7.702  11.649   3.988  1.00  0.00     0.049 A 
ATOM     60  H   UNL     1      -6.946   9.972   2.953  1.00  0.00     0.167 HD
ATOM     61  C   UNL     1      -5.833  12.555   2.636  1.00  0.00     0.074 A 
ATOM     62  C   UNL     1      -4.976  13.630   2.179  1.00  0.00     0.031 C 
ATOM     63  C   UNL     1      -6.853  12.714   3.517  1.00  0.00     0.031 A 
BRANCH  50  64
ATOM     64  C   UNL     1      -9.896   7.479   4.786  1.00  0.00    -0.014 A 
ATOM     65  C   UNL     1      -9.663   6.555   5.821  1.00  0.00     0.010 A 
ATOM     66  C   UNL     1     -11.222   7.791   4.433  1.00  0.00     0.010 A 
ATOM     67  C   UNL     1     -10.735   5.922   6.458  1.00  0.00     0.020 A 
ATOM     68  C   UNL     1     -12.296   7.184   5.088  1.00  0.00     0.020 A 
ATOM     69  C   UNL     1     -12.044   6.238   6.084  1.00  0.00     0.054 A 
BRANCH  69  70
ATOM     70  S   UNL     1     -13.417   5.412   6.934  1.00  0.00     0.124 S 
ATOM     71  O   UNL     1     -13.345   4.062   6.382  1.00  0.00    -0.237 OA
ATOM     72  O   UNL     1     -13.044   5.536   8.340  1.00  0.00    -0.237 OA
ATOM     73  O   UNL     1     -14.590   6.186   6.533  1.00  0.00    -0.744 OA
ENDBRANCH  69  70
ENDBRANCH  50  64
BRANCH  51  74
ATOM     74  C   UNL     1      -2.419  11.536  -0.449  1.00  0.00    -0.014 A 
ATOM     75  C   UNL     1      -1.272  12.056   0.174  1.00  0.00     0.010 A 
ATOM     76  C   UNL     1      -2.523  11.600  -1.851  1.00  0.00     0.010 A 
ATOM     77  C   UNL     1      -0.253  12.636  -0.589  1.00  0.00     0.020 A 
ATOM     78  C   UNL     1      -1.494  12.152  -2.619  1.00  0.00     0.020 A 
ATOM     79  C   UNL     1      -0.368  12.674  -1.982  1.00  0.00     0.054 A 
BRANCH  79  80
ATOM     80  S   UNL     1       0.999  13.365  -2.956  1.00  0.00     0.124 S 
ATOM     81  O   UNL     1       0.865  14.795  -2.697  1.00  0.00    -0.237 OA
ATOM     82  O   UNL     1       2.167  12.720  -2.360  1.00  0.00    -0.237 OA
ATOM     83  O   UNL     1       0.693  12.943  -4.321  1.00  0.00    -0.744 OA
ENDBRANCH  79  80
ENDBRANCH  51  74
BRANCH  63  84
ATOM     84  C   UNL     1      -7.078  14.097   4.072  1.00  0.00    -0.014 A 
ATOM     85  C   UNL     1      -7.580  15.138   3.271  1.00  0.00     0.010 A 
ATOM     86  C   UNL     1      -6.804  14.352   5.429  1.00  0.00     0.010 A 
ATOM     87  C   UNL     1      -7.753  16.420   3.802  1.00  0.00     0.020 A 
ATOM     88  C   UNL     1      -7.005  15.624   5.972  1.00  0.00     0.020 A 
ATOM     89  C   UNL     1      -7.457  16.656   5.148  1.00  0.00     0.054 A 
BRANCH  89  90
ATOM     90  S   UNL     1      -7.692  18.326   5.817  1.00  0.00     0.124 S 
ATOM     91  O   UNL     1      -6.558  19.045   5.243  1.00  0.00    -0.237 OA
ATOM     92  O   UNL     1      -9.004  18.701   5.293  1.00  0.00    -0.237 OA
ATOM     93  O   UNL     1      -7.639  18.131   7.264  1.00  0.00    -0.744 OA
ENDBRANCH  89  90
ENDBRANCH  63  84
ENDBRANCH  37  38
ENDBRANCH  30  32
ENDBRANCH  29  30
ENDBRANCH  28  29
ENDBRANCH  27  28
ENDBRANCH  26  27
ENDBRANCH  25  26
ENDBRANCH   1  25
TORSDOF 24
