REMARK SMILES O=C(/C=C/C(=O)OCCOCCOCCOC(=O)c1ccc(-c2c3nc(c(-c4ccc(S(=O)(=O)[O-])cc4)c4ccc([nH]4)c(-c4ccc(S(=O)(=O)[O-])cc4)c4nc(c(-c5ccc(S(=O)(=O)[O-])cc5)c5ccc2[nH]5)C=C4)C=C3)cc1)NCc1ccc(-c2cccs2)s1
REMARK SMILES IDX 11 1 10 2 9 3 8 4 7 5 5 6 6 7 4 8 3 9 2 10 1 11 79 12 80 14
REMARK SMILES IDX 81 15 82 16 90 17 83 18 84 19 85 20 86 21 89 22 87 23 88 24
REMARK SMILES IDX 12 25 13 26 14 27 15 28 16 29 17 30 18 31 19 32 20 33 78 34
REMARK SMILES IDX 21 35 77 36 22 37 23 38 24 39 71 40 25 41 76 42 70 43 72 44
REMARK SMILES IDX 26 45 75 46 69 47 68 48 27 50 57 51 38 52 56 53 39 54 42 55
REMARK SMILES IDX 55 56 73 57 40 58 41 59 54 61 74 62 43 63 28 64 29 65 37 66
REMARK SMILES IDX 30 67 36 68 31 69 32 70 33 71 34 72 35 73 58 74 59 75 67 76
REMARK SMILES IDX 60 77 66 78 61 79 62 80 63 81 64 82 65 83 44 84 45 85 53 86
REMARK SMILES IDX 46 87 52 88 47 89 48 90 49 91 50 92 51 93
REMARK H PARENT 79 13 72 49 42 60
REMARK Flexibility Score: inf
ROOT
ATOM      1  C   UNL     1       6.470   1.244  -2.905  1.00  0.00     0.188 C 
ENDROOT
BRANCH   1   2
ATOM      2  O   UNL     1       7.049   0.850  -4.142  1.00  0.00    -0.376 OA
BRANCH   2   3
ATOM      3  C   UNL     1       6.252   0.202  -5.124  1.00  0.00     0.202 C 
BRANCH   3   4
ATOM      4  C   UNL     1       5.359  -0.990  -4.742  1.00  0.00     0.261 C 
BRANCH   4   5
ATOM      5  O   UNL     1       4.545  -0.794  -3.575  1.00  0.00    -0.460 OA
BRANCH   5   6
ATOM      6  C   UNL     1       4.765  -1.657  -2.553  1.00  0.00     0.331 C 
ATOM      7  O   UNL     1       5.539  -2.601  -2.554  1.00  0.00    -0.247 OA
BRANCH   6   8
ATOM      8  C   UNL     1       4.044  -1.266  -1.326  1.00  0.00     0.099 C 
ATOM      9  C   UNL     1       2.946  -0.498  -1.308  1.00  0.00     0.078 C 
BRANCH   9  10
ATOM     10  C   UNL     1       2.219  -0.125  -0.070  1.00  0.00     0.244 C 
ATOM     11  O   UNL     1       1.019   0.114  -0.128  1.00  0.00    -0.270 OA
ATOM     12  N   UNL     1       2.973  -0.035   1.069  1.00  0.00    -0.348 N 
ATOM     13  H   UNL     1       3.954  -0.079   1.000  1.00  0.00     0.164 HD
BRANCH  12  14
ATOM     14  C   UNL     1       2.365   0.123   2.373  1.00  0.00     0.163 C 
BRANCH  14  15
ATOM     15  C   UNL     1       2.559  -1.141   3.158  1.00  0.00     0.024 A 
ATOM     16  C   UNL     1       3.115  -1.300   4.413  1.00  0.00     0.018 A 
ATOM     17  S   UNL     1       2.026  -2.644   2.525  1.00  0.00    -0.138 S 
ATOM     18  C   UNL     1       3.115  -2.663   4.841  1.00  0.00     0.022 A 
ATOM     19  C   UNL     1       2.571  -3.508   3.896  1.00  0.00     0.045 A 
BRANCH  19  20
ATOM     20  C   UNL     1       2.416  -4.934   3.960  1.00  0.00     0.044 A 
ATOM     21  C   UNL     1       2.917  -5.865   3.071  1.00  0.00     0.021 A 
ATOM     22  S   UNL     1       1.499  -5.679   5.199  1.00  0.00    -0.143 S 
ATOM     23  C   UNL     1       2.516  -7.195   3.392  1.00  0.00     0.012 A 
ATOM     24  C   UNL     1       1.726  -7.234   4.519  1.00  0.00     0.065 A 
ENDBRANCH  19  20
ENDBRANCH  14  15
ENDBRANCH  12  14
ENDBRANCH   9  10
ENDBRANCH   6   8
ENDBRANCH   5   6
ENDBRANCH   4   5
ENDBRANCH   3   4
ENDBRANCH   2   3
ENDBRANCH   1   2
BRANCH   1  25
ATOM     25  C   UNL     1       5.148   2.039  -2.896  1.00  0.00     0.188 C 
BRANCH  25  26
ATOM     26  O   UNL     1       4.544   2.188  -4.158  1.00  0.00    -0.376 OA
BRANCH  26  27
ATOM     27  C   UNL     1       4.731   3.386  -4.891  1.00  0.00     0.202 C 
BRANCH  27  28
ATOM     28  C   UNL     1       5.953   4.321  -4.772  1.00  0.00     0.261 C 
BRANCH  28  29
ATOM     29  O   UNL     1       6.839   4.155  -3.662  1.00  0.00    -0.460 OA
BRANCH  29  30
ATOM     30  C   UNL     1       6.621   4.949  -2.591  1.00  0.00     0.338 C 
ATOM     31  O   UNL     1       5.699   5.743  -2.436  1.00  0.00    -0.246 OA
BRANCH  30  32
ATOM     32  C   UNL     1       7.583   4.583  -1.538  1.00  0.00     0.060 A 
ATOM     33  C   UNL     1       7.109   3.975  -0.368  1.00  0.00     0.016 A 
ATOM     34  C   UNL     1       8.944   4.852  -1.698  1.00  0.00     0.016 A 
ATOM     35  C   UNL     1       7.998   3.651   0.658  1.00  0.00     0.010 A 
ATOM     36  C   UNL     1       9.829   4.545  -0.661  1.00  0.00     0.010 A 
ATOM     37  C   UNL     1       9.358   3.966   0.531  1.00  0.00    -0.014 A 
BRANCH  37  38
ATOM     38  C   UNL     1      10.259   3.846   1.703  1.00  0.00     0.031 A 
ATOM     39  C   UNL     1      10.555   5.079   2.513  1.00  0.00     0.074 A 
ATOM     40  C   UNL     1      10.801   2.664   2.047  1.00  0.00     0.049 A 
ATOM     41  N   UNL     1      11.346   5.223   3.544  1.00  0.00    -0.248 NA
ATOM     42  C   UNL     1       9.866   6.313   2.103  1.00  0.00     0.031 C 
ATOM     43  C   UNL     1      10.557   1.390   1.372  1.00  0.00     0.029 A 
ATOM     44  N   UNL     1      11.680   2.348   3.054  1.00  0.00    -0.354 N 
ATOM     45  C   UNL     1      11.259   6.564   3.900  1.00  0.00     0.074 A 
ATOM     46  C   UNL     1      10.359   7.195   2.960  1.00  0.00     0.031 C 
ATOM     47  C   UNL     1      11.276   0.430   1.980  1.00  0.00     0.029 A 
ATOM     48  C   UNL     1      12.060   1.027   3.061  1.00  0.00     0.049 A 
ATOM     49  H   UNL     1      12.008   3.006   3.709  1.00  0.00     0.167 HD
ATOM     50  C   UNL     1      11.872   7.212   4.920  1.00  0.00     0.031 A 
ATOM     51  C   UNL     1      12.956   0.381   3.834  1.00  0.00     0.031 A 
ATOM     52  C   UNL     1      12.786   6.587   5.839  1.00  0.00     0.049 A 
ATOM     53  C   UNL     1      13.693   1.143   4.906  1.00  0.00     0.074 A 
ATOM     54  C   UNL     1      13.449   7.156   6.912  1.00  0.00     0.029 A 
ATOM     55  N   UNL     1      13.176   5.258   5.786  1.00  0.00    -0.354 N 
ATOM     56  N   UNL     1      13.579   2.404   5.250  1.00  0.00    -0.248 NA
ATOM     57  C   UNL     1      14.677   0.390   5.699  1.00  0.00     0.031 C 
ATOM     58  C   UNL     1      14.288   6.186   7.470  1.00  0.00     0.029 A 
ATOM     59  C   UNL     1      14.095   4.995   6.789  1.00  0.00     0.049 A 
ATOM     60  H   UNL     1      12.849   4.598   5.133  1.00  0.00     0.167 HD
ATOM     61  C   UNL     1      14.452   2.587   6.319  1.00  0.00     0.074 A 
ATOM     62  C   UNL     1      15.077   1.305   6.572  1.00  0.00     0.031 C 
ATOM     63  C   UNL     1      14.709   3.713   7.031  1.00  0.00     0.031 A 
BRANCH  50  64
ATOM     64  C   UNL     1      11.603   8.687   5.063  1.00  0.00    -0.014 A 
ATOM     65  C   UNL     1      10.348   9.164   5.485  1.00  0.00     0.010 A 
ATOM     66  C   UNL     1      12.630   9.610   4.794  1.00  0.00     0.010 A 
ATOM     67  C   UNL     1      10.113  10.537   5.591  1.00  0.00     0.020 A 
ATOM     68  C   UNL     1      12.408  10.983   4.928  1.00  0.00     0.020 A 
ATOM     69  C   UNL     1      11.144  11.438   5.308  1.00  0.00     0.054 A 
BRANCH  69  70
ATOM     70  S   UNL     1      10.814  13.215   5.464  1.00  0.00     0.124 S 
ATOM     71  O   UNL     1       9.951  13.463   4.311  1.00  0.00    -0.237 OA
ATOM     72  O   UNL     1      10.161  13.305   6.767  1.00  0.00    -0.237 OA
ATOM     73  O   UNL     1      12.140  13.823   5.391  1.00  0.00    -0.744 OA
ENDBRANCH  69  70
ENDBRANCH  50  64
BRANCH  51  74
ATOM     74  C   UNL     1      13.221  -1.069   3.617  1.00  0.00    -0.014 A 
ATOM     75  C   UNL     1      12.837  -2.020   4.579  1.00  0.00     0.010 A 
ATOM     76  C   UNL     1      13.869  -1.507   2.447  1.00  0.00     0.010 A 
ATOM     77  C   UNL     1      13.110  -3.377   4.384  1.00  0.00     0.020 A 
ATOM     78  C   UNL     1      14.118  -2.866   2.234  1.00  0.00     0.020 A 
ATOM     79  C   UNL     1      13.746  -3.792   3.210  1.00  0.00     0.054 A 
BRANCH  79  80
ATOM     80  S   UNL     1      14.044  -5.564   2.957  1.00  0.00     0.124 S 
ATOM     81  O   UNL     1      15.117  -5.830   3.910  1.00  0.00    -0.237 OA
ATOM     82  O   UNL     1      12.747  -6.150   3.283  1.00  0.00    -0.237 OA
ATOM     83  O   UNL     1      14.422  -5.649   1.548  1.00  0.00    -0.744 OA
ENDBRANCH  79  80
ENDBRANCH  51  74
BRANCH  63  84
ATOM     84  C   UNL     1      15.675   3.607   8.184  1.00  0.00    -0.014 A 
ATOM     85  C   UNL     1      17.055   3.438   7.973  1.00  0.00     0.010 A 
ATOM     86  C   UNL     1      15.196   3.740   9.501  1.00  0.00     0.010 A 
ATOM     87  C   UNL     1      17.933   3.372   9.059  1.00  0.00     0.020 A 
ATOM     88  C   UNL     1      16.074   3.706  10.587  1.00  0.00     0.020 A 
ATOM     89  C   UNL     1      17.436   3.508  10.360  1.00  0.00     0.054 A 
BRANCH  89  90
ATOM     90  S   UNL     1      18.602   3.464  11.749  1.00  0.00     0.124 S 
ATOM     91  O   UNL     1      18.963   2.050  11.799  1.00  0.00    -0.237 OA
ATOM     92  O   UNL     1      19.660   4.369  11.308  1.00  0.00    -0.237 OA
ATOM     93  O   UNL     1      17.811   3.945  12.881  1.00  0.00    -0.744 OA
ENDBRANCH  89  90
ENDBRANCH  63  84
ENDBRANCH  37  38
ENDBRANCH  30  32
ENDBRANCH  29  30
ENDBRANCH  28  29
ENDBRANCH  27  28
ENDBRANCH  26  27
ENDBRANCH  25  26
ENDBRANCH   1  25
TORSDOF 24
