REMARK SMILES Cc1cc(Br)cc2c1O[C@H](C(F)(F)F)C(C(=O)OCCOCCOCCOC(=O)c1ccc(-c3c4nc(c(-c5ccc(S(=O)(=O)[O-])cc5)c5ccc([nH]5)c(-c5ccc(S(=O)(=O)[O-])cc5)c5nc(c(-c6ccc(S(=O)(=O)[O-])cc6)c6ccc3[nH]6)C=C5)C=C4)cc1)=C2
REMARK SMILES IDX 23 1 22 2 21 3 20 4 19 5 18 6 16 7 17 8 15 9 1 10 2 11 3 12
REMARK SMILES IDX 8 13 4 14 7 15 9 16 5 17 6 18 90 19 10 20 11 21 12 22 13 23
REMARK SMILES IDX 14 24 24 25 25 26 26 27 27 28 28 29 29 30 30 31 31 32 89 33
REMARK SMILES IDX 32 34 88 35 33 36 34 37 35 38 82 39 36 40 87 41 81 42 83 43
REMARK SMILES IDX 37 44 86 45 80 46 79 47 38 49 68 50 49 51 67 52 50 53 53 54
REMARK SMILES IDX 66 55 84 56 51 57 52 58 65 60 85 61 54 62 39 63 40 64 48 65
REMARK SMILES IDX 41 66 47 67 42 68 43 69 44 70 45 71 46 72 69 73 70 74 78 75
REMARK SMILES IDX 71 76 77 77 72 78 73 79 74 80 75 81 76 82 55 83 56 84 64 85
REMARK SMILES IDX 57 86 63 87 58 88 59 89 60 90 61 91 62 92
REMARK H PARENT 83 48 53 59
REMARK Flexibility Score: inf
ROOT
ATOM      1  C   UNL     1       3.815  -6.470   1.468  1.00  0.00     0.188 C 
ENDROOT
BRANCH   1   2
ATOM      2  C   UNL     1       2.942  -7.579   2.094  1.00  0.00     0.188 C 
BRANCH   2   3
ATOM      3  O   UNL     1       3.017  -8.905   1.620  1.00  0.00    -0.376 OA
BRANCH   3   4
ATOM      4  C   UNL     1       2.639  -9.256   0.301  1.00  0.00     0.202 C 
BRANCH   4   5
ATOM      5  C   UNL     1       1.571  -8.512  -0.510  1.00  0.00     0.261 C 
BRANCH   5   6
ATOM      6  O   UNL     1       1.531  -7.095  -0.332  1.00  0.00    -0.460 OA
BRANCH   6   7
ATOM      7  C   UNL     1       0.370  -6.620   0.182  1.00  0.00     0.338 C 
ATOM      8  O   UNL     1      -0.620  -7.270   0.476  1.00  0.00    -0.246 OA
BRANCH   7   9
ATOM      9  C   UNL     1       0.503  -5.178   0.448  1.00  0.00     0.087 C 
ATOM     10  C   UNL     1       1.081  -0.102   0.098  1.00  0.00     0.048 C 
ATOM     11  C   UNL     1       0.606  -1.061   1.153  1.00  0.00    -0.007 A 
ATOM     12  C   UNL     1       0.142  -0.570   2.382  1.00  0.00     0.023 A 
ATOM     13  C   UNL     1       0.631  -2.449   0.936  1.00  0.00     0.130 A 
ATOM     14  C   UNL     1      -0.302  -1.451   3.367  1.00  0.00     0.019 A 
ATOM     15  C   UNL     1       0.154  -3.326   1.917  1.00  0.00     0.019 A 
ATOM     16  O   UNL     1       1.139  -2.873  -0.262  1.00  0.00    -0.475 OA
ATOM     17  Br  UNL     1      -0.932  -0.771   5.014  1.00  0.00    -0.051 Br
ATOM     18  C   UNL     1      -0.302  -2.825   3.141  1.00  0.00     0.027 A 
ATOM     19  C   UNL     1       0.088  -4.752   1.647  1.00  0.00     0.027 C 
ATOM     20  C   UNL     1       1.077  -4.281  -0.611  1.00  0.00     0.316 C 
BRANCH  20  21
ATOM     21  C   UNL     1       0.339  -4.410  -1.952  1.00  0.00     0.430 C 
ATOM     22  F   UNL     1       0.864  -3.574  -2.882  1.00  0.00    -0.167 F 
ATOM     23  F   UNL     1       0.437  -5.660  -2.464  1.00  0.00    -0.167 F 
ATOM     24  F   UNL     1      -0.976  -4.118  -1.843  1.00  0.00    -0.167 F 
ENDBRANCH  20  21
ENDBRANCH   7   9
ENDBRANCH   6   7
ENDBRANCH   5   6
ENDBRANCH   4   5
ENDBRANCH   3   4
ENDBRANCH   2   3
ENDBRANCH   1   2
BRANCH   1  25
ATOM     25  O   UNL     1       4.775  -6.774   0.473  1.00  0.00    -0.376 OA
BRANCH  25  26
ATOM     26  C   UNL     1       5.737  -7.786   0.733  1.00  0.00     0.202 C 
BRANCH  26  27
ATOM     27  C   UNL     1       6.592  -7.732   2.004  1.00  0.00     0.261 C 
BRANCH  27  28
ATOM     28  O   UNL     1       5.828  -7.661   3.217  1.00  0.00    -0.460 OA
BRANCH  28  29
ATOM     29  C   UNL     1       6.029  -6.543   3.959  1.00  0.00     0.338 C 
ATOM     30  O   UNL     1       6.799  -5.628   3.723  1.00  0.00    -0.246 OA
BRANCH  29  31
ATOM     31  C   UNL     1       5.018  -6.484   5.030  1.00  0.00     0.060 A 
ATOM     32  C   UNL     1       4.128  -5.401   5.039  1.00  0.00     0.016 A 
ATOM     33  C   UNL     1       4.972  -7.452   6.034  1.00  0.00     0.016 A 
ATOM     34  C   UNL     1       3.195  -5.275   6.066  1.00  0.00     0.010 A 
ATOM     35  C   UNL     1       4.054  -7.308   7.079  1.00  0.00     0.010 A 
ATOM     36  C   UNL     1       3.180  -6.207   7.112  1.00  0.00    -0.014 A 
BRANCH  36  37
ATOM     37  C   UNL     1       2.380  -5.925   8.326  1.00  0.00     0.031 A 
ATOM     38  C   UNL     1       3.038  -5.189   9.462  1.00  0.00     0.074 A 
ATOM     39  C   UNL     1       1.084  -6.277   8.406  1.00  0.00     0.049 A 
ATOM     40  N   UNL     1       2.538  -4.835  10.616  1.00  0.00    -0.248 NA
ATOM     41  C   UNL     1       4.443  -4.794   9.264  1.00  0.00     0.031 C 
ATOM     42  C   UNL     1       0.318  -6.938   7.350  1.00  0.00     0.029 A 
ATOM     43  N   UNL     1       0.182  -6.117   9.428  1.00  0.00    -0.354 N 
ATOM     44  C   UNL     1       3.560  -4.162  11.276  1.00  0.00     0.074 A 
ATOM     45  C   UNL     1       4.718  -4.190  10.410  1.00  0.00     0.031 C 
ATOM     46  C   UNL     1      -0.943  -7.125   7.780  1.00  0.00     0.029 A 
ATOM     47  C   UNL     1      -1.064  -6.626   9.150  1.00  0.00     0.049 A 
ATOM     48  H   UNL     1       0.407  -5.679  10.281  1.00  0.00     0.167 HD
ATOM     49  C   UNL     1       3.535  -3.565  12.490  1.00  0.00     0.031 A 
ATOM     50  C   UNL     1      -2.170  -6.691   9.918  1.00  0.00     0.031 A 
ATOM     51  C   UNL     1       2.397  -3.567  13.367  1.00  0.00     0.049 A 
ATOM     52  C   UNL     1      -2.135  -6.129  11.317  1.00  0.00     0.074 A 
ATOM     53  C   UNL     1       2.282  -3.008  14.628  1.00  0.00     0.029 A 
ATOM     54  N   UNL     1       1.179  -4.163  13.080  1.00  0.00    -0.354 N 
ATOM     55  N   UNL     1      -1.162  -5.496  11.927  1.00  0.00    -0.248 NA
ATOM     56  C   UNL     1      -3.349  -6.293  12.132  1.00  0.00     0.031 C 
ATOM     57  C   UNL     1       1.010  -3.310  15.124  1.00  0.00     0.029 A 
ATOM     58  C   UNL     1       0.314  -4.008  14.149  1.00  0.00     0.049 A 
ATOM     59  H   UNL     1       0.961  -4.628  12.240  1.00  0.00     0.167 HD
ATOM     60  C   UNL     1      -1.655  -5.163  13.186  1.00  0.00     0.074 A 
ATOM     61  C   UNL     1      -3.015  -5.658  13.248  1.00  0.00     0.031 C 
ATOM     62  C   UNL     1      -1.037  -4.505  14.197  1.00  0.00     0.031 A 
BRANCH  49  63
ATOM     63  C   UNL     1       4.790  -2.876  12.949  1.00  0.00    -0.014 A 
ATOM     64  C   UNL     1       5.183  -1.649  12.384  1.00  0.00     0.010 A 
ATOM     65  C   UNL     1       5.560  -3.436  13.983  1.00  0.00     0.010 A 
ATOM     66  C   UNL     1       6.340  -1.007  12.829  1.00  0.00     0.020 A 
ATOM     67  C   UNL     1       6.706  -2.784  14.447  1.00  0.00     0.020 A 
ATOM     68  C   UNL     1       7.095  -1.579  13.858  1.00  0.00     0.054 A 
BRANCH  68  69
ATOM     69  S   UNL     1       8.576  -0.705  14.434  1.00  0.00     0.124 S 
ATOM     70  O   UNL     1       9.486  -0.878  13.305  1.00  0.00    -0.237 OA
ATOM     71  O   UNL     1       8.084   0.654  14.642  1.00  0.00    -0.237 OA
ATOM     72  O   UNL     1       8.952  -1.422  15.650  1.00  0.00    -0.744 OA
ENDBRANCH  68  69
ENDBRANCH  49  63
BRANCH  50  73
ATOM     73  C   UNL     1      -3.411  -7.321   9.389  1.00  0.00    -0.014 A 
ATOM     74  C   UNL     1      -4.542  -6.537   9.102  1.00  0.00     0.010 A 
ATOM     75  C   UNL     1      -3.470  -8.711   9.176  1.00  0.00     0.010 A 
ATOM     76  C   UNL     1      -5.713  -7.132   8.623  1.00  0.00     0.020 A 
ATOM     77  C   UNL     1      -4.632  -9.306   8.674  1.00  0.00     0.020 A 
ATOM     78  C   UNL     1      -5.750  -8.513   8.410  1.00  0.00     0.054 A 
BRANCH  78  79
ATOM     79  S   UNL     1      -7.266  -9.254   7.743  1.00  0.00     0.124 S 
ATOM     80  O   UNL     1      -8.178  -9.154   8.878  1.00  0.00    -0.237 OA
ATOM     81  O   UNL     1      -7.569  -8.383   6.610  1.00  0.00    -0.237 OA
ATOM     82  O   UNL     1      -6.856 -10.610   7.386  1.00  0.00    -0.744 OA
ENDBRANCH  78  79
ENDBRANCH  50  73
BRANCH  62  83
ATOM     83  C   UNL     1      -1.821  -4.252  15.458  1.00  0.00    -0.014 A 
ATOM     84  C   UNL     1      -2.071  -5.288  16.375  1.00  0.00     0.010 A 
ATOM     85  C   UNL     1      -2.222  -2.941  15.776  1.00  0.00     0.010 A 
ATOM     86  C   UNL     1      -2.716  -5.018  17.585  1.00  0.00     0.020 A 
ATOM     87  C   UNL     1      -2.845  -2.663  16.995  1.00  0.00     0.020 A 
ATOM     88  C   UNL     1      -3.094  -3.706  17.890  1.00  0.00     0.054 A 
BRANCH  88  89
ATOM     89  S   UNL     1      -3.860  -3.373  19.501  1.00  0.00     0.124 S 
ATOM     90  O   UNL     1      -5.182  -3.971  19.339  1.00  0.00    -0.237 OA
ATOM     91  O   UNL     1      -2.967  -4.063  20.428  1.00  0.00    -0.237 OA
ATOM     92  O   UNL     1      -3.844  -1.915  19.599  1.00  0.00    -0.744 OA
ENDBRANCH  88  89
ENDBRANCH  62  83
ENDBRANCH  36  37
ENDBRANCH  29  31
ENDBRANCH  28  29
ENDBRANCH  27  28
ENDBRANCH  26  27
ENDBRANCH  25  26
ENDBRANCH   1  25
TORSDOF 21
