REMARK SMILES O=C(OCCOCCOCCOC(=O)[C@H]1[C@H]2CC[C@H](CC2)[C@H]1C(=O)Nc1ccc(C(=O)N2CCCC2)cc1)c1ccc(-c2c3nc(c(-c4ccc(S(=O)(=O)[O-])cc4)c4ccc([nH]4)c(-c4ccc(S(=O)(=O)[O-])cc4)c4nc(c(-c5ccc(S(=O)(=O)[O-])cc5)c5ccc2[nH]5)C=C4)C=C3)cc1
REMARK SMILES IDX 7 1 6 2 5 3 4 4 3 5 2 6 1 7 39 8 40 9 98 10 41 11 97 12
REMARK SMILES IDX 42 13 43 14 44 15 91 16 45 17 96 18 90 19 92 20 46 21 95 22
REMARK SMILES IDX 89 23 88 24 47 26 77 27 58 28 76 29 59 30 62 31 75 32 93 33
REMARK SMILES IDX 60 34 61 35 74 37 94 38 63 39 48 40 49 41 57 42 50 43 56 44
REMARK SMILES IDX 51 45 52 46 53 47 54 48 55 49 78 50 79 51 87 52 80 53 86 54
REMARK SMILES IDX 81 55 82 56 83 57 84 58 85 59 64 60 65 61 73 62 66 63 72 64
REMARK SMILES IDX 67 65 68 66 69 67 70 68 71 69 8 70 9 71 10 72 11 73 12 74
REMARK SMILES IDX 13 75 14 76 15 77 16 78 22 79 21 80 17 81 19 82 20 83 18 84
REMARK SMILES IDX 23 85 24 86 25 87 26 89 27 90 38 91 28 92 37 93 29 94 30 95
REMARK SMILES IDX 31 96 32 97 33 98 36 99 34 100 35 101
REMARK H PARENT 92 25 62 36 25 88
REMARK Flexibility Score: inf
ROOT
ATOM      1  C   UNL     1       3.338  -3.345  -0.853  1.00  0.00     0.188 C 
ENDROOT
BRANCH   1   2
ATOM      2  O   UNL     1       4.520  -2.602  -1.125  1.00  0.00    -0.376 OA
BRANCH   2   3
ATOM      3  C   UNL     1       5.329  -2.260  -0.008  1.00  0.00     0.202 C 
BRANCH   3   4
ATOM      4  C   UNL     1       4.607  -1.893   1.287  1.00  0.00     0.261 C 
BRANCH   4   5
ATOM      5  O   UNL     1       3.262  -1.262   1.212  1.00  0.00    -0.460 OA
BRANCH   5   6
ATOM      6  C   UNL     1       2.448  -0.298   0.351  1.00  0.00     0.338 C 
ATOM      7  O   UNL     1       1.469  -1.074   0.283  1.00  0.00    -0.246 OA
BRANCH   6   8
ATOM      8  C   UNL     1       2.815   1.758  -0.225  1.00  0.00     0.060 A 
ATOM      9  C   UNL     1       4.252   2.369  -0.564  1.00  0.00     0.016 A 
ATOM     10  C   UNL     1       2.046   2.994  -0.426  1.00  0.00     0.016 A 
ATOM     11  C   UNL     1       4.705   3.405  -1.344  1.00  0.00     0.010 A 
ATOM     12  C   UNL     1       2.541   4.230  -1.118  1.00  0.00     0.010 A 
ATOM     13  C   UNL     1       3.819   4.345  -1.714  1.00  0.00    -0.014 A 
BRANCH  13  14
ATOM     14  C   UNL     1       4.512   5.455  -2.411  1.00  0.00     0.031 A 
ATOM     15  C   UNL     1       5.237   6.413  -1.517  1.00  0.00     0.074 A 
ATOM     16  C   UNL     1       5.046   5.342  -3.657  1.00  0.00     0.049 A 
ATOM     17  N   UNL     1       5.984   7.423  -1.844  1.00  0.00    -0.248 NA
ATOM     18  C   UNL     1       5.238   6.099  -0.072  1.00  0.00     0.031 C 
ATOM     19  C   UNL     1       5.178   4.122  -4.447  1.00  0.00     0.029 A 
ATOM     20  N   UNL     1       5.531   6.279  -4.530  1.00  0.00    -0.354 N 
ATOM     21  C   UNL     1       6.535   7.867  -0.656  1.00  0.00     0.074 A 
ATOM     22  C   UNL     1       6.079   7.000   0.400  1.00  0.00     0.031 C 
ATOM     23  C   UNL     1       5.338   4.411  -5.748  1.00  0.00     0.029 A 
ATOM     24  C   UNL     1       5.508   5.840  -5.846  1.00  0.00     0.049 A 
ATOM     25  H   UNL     1       5.860   7.165  -4.254  1.00  0.00     0.167 HD
ATOM     26  C   UNL     1       7.319   8.949  -0.489  1.00  0.00     0.031 A 
ATOM     27  C   UNL     1       5.597   6.542  -6.990  1.00  0.00     0.031 A 
ATOM     28  C   UNL     1       7.646   9.806  -1.592  1.00  0.00     0.049 A 
ATOM     29  C   UNL     1       6.110   7.933  -6.805  1.00  0.00     0.074 A 
ATOM     30  C   UNL     1       8.246  11.046  -1.578  1.00  0.00     0.029 A 
ATOM     31  N   UNL     1       7.357   9.505  -2.924  1.00  0.00    -0.354 N 
ATOM     32  N   UNL     1       6.429   8.509  -5.668  1.00  0.00    -0.248 NA
ATOM     33  C   UNL     1       6.379   8.734  -7.996  1.00  0.00     0.031 C 
ATOM     34  C   UNL     1       8.226  11.537  -2.888  1.00  0.00     0.029 A 
ATOM     35  C   UNL     1       7.713  10.562  -3.736  1.00  0.00     0.049 A 
ATOM     36  H   UNL     1       6.958   8.662  -3.238  1.00  0.00     0.167 HD
ATOM     37  C   UNL     1       7.025   9.704  -6.000  1.00  0.00     0.074 A 
ATOM     38  C   UNL     1       6.976   9.790  -7.453  1.00  0.00     0.031 C 
ATOM     39  C   UNL     1       7.601  10.613  -5.178  1.00  0.00     0.031 A 
BRANCH  26  40
ATOM     40  C   UNL     1       7.609   9.331   0.932  1.00  0.00    -0.014 A 
ATOM     41  C   UNL     1       8.449   8.568   1.766  1.00  0.00     0.010 A 
ATOM     42  C   UNL     1       6.894  10.409   1.483  1.00  0.00     0.010 A 
ATOM     43  C   UNL     1       8.528   8.852   3.134  1.00  0.00     0.020 A 
ATOM     44  C   UNL     1       6.997  10.717   2.839  1.00  0.00     0.020 A 
ATOM     45  C   UNL     1       7.800   9.925   3.660  1.00  0.00     0.054 A 
BRANCH  45  46
ATOM     46  S   UNL     1       7.925  10.278   5.433  1.00  0.00     0.124 S 
ATOM     47  O   UNL     1       7.218   9.142   6.019  1.00  0.00    -0.237 OA
ATOM     48  O   UNL     1       9.369  10.299   5.650  1.00  0.00    -0.237 OA
ATOM     49  O   UNL     1       7.256  11.569   5.578  1.00  0.00    -0.744 OA
ENDBRANCH  45  46
ENDBRANCH  26  40
BRANCH  27  50
ATOM     50  C   UNL     1       5.222   5.955  -8.310  1.00  0.00    -0.014 A 
ATOM     51  C   UNL     1       6.167   5.660  -9.306  1.00  0.00     0.010 A 
ATOM     52  C   UNL     1       3.863   5.678  -8.580  1.00  0.00     0.010 A 
ATOM     53  C   UNL     1       5.766   5.115 -10.538  1.00  0.00     0.020 A 
ATOM     54  C   UNL     1       3.457   5.126  -9.804  1.00  0.00     0.020 A 
ATOM     55  C   UNL     1       4.414   4.851 -10.780  1.00  0.00     0.054 A 
BRANCH  55  56
ATOM     56  S   UNL     1       3.929   4.120 -12.374  1.00  0.00     0.124 S 
ATOM     57  O   UNL     1       4.278   5.177 -13.318  1.00  0.00    -0.237 OA
ATOM     58  O   UNL     1       4.761   2.920 -12.432  1.00  0.00    -0.237 OA
ATOM     59  O   UNL     1       2.497   3.871 -12.219  1.00  0.00    -0.744 OA
ENDBRANCH  55  56
ENDBRANCH  27  50
BRANCH  39  60
ATOM     60  C   UNL     1       8.241  11.785  -5.846  1.00  0.00    -0.014 A 
ATOM     61  C   UNL     1       7.464  12.787  -6.444  1.00  0.00     0.010 A 
ATOM     62  C   UNL     1       9.638  11.925  -5.763  1.00  0.00     0.010 A 
ATOM     63  C   UNL     1       8.082  13.919  -6.964  1.00  0.00     0.020 A 
ATOM     64  C   UNL     1      10.252  13.075  -6.243  1.00  0.00     0.020 A 
ATOM     65  C   UNL     1       9.469  14.062  -6.844  1.00  0.00     0.054 A 
BRANCH  65  66
ATOM     66  S   UNL     1      10.228  15.593  -7.433  1.00  0.00     0.124 S 
ATOM     67  O   UNL     1      10.091  15.460  -8.881  1.00  0.00    -0.237 OA
ATOM     68  O   UNL     1       9.392  16.617  -6.812  1.00  0.00    -0.237 OA
ATOM     69  O   UNL     1      11.596  15.520  -6.926  1.00  0.00    -0.744 OA
ENDBRANCH  65  66
ENDBRANCH  39  60
ENDBRANCH  13  14
ENDBRANCH   6   8
ENDBRANCH   5   6
ENDBRANCH   4   5
ENDBRANCH   3   4
ENDBRANCH   2   3
ENDBRANCH   1   2
BRANCH   1  70
ATOM     70  C   UNL     1       2.596  -3.780  -2.112  1.00  0.00     0.188 C 
BRANCH  70  71
ATOM     71  O   UNL     1       3.308  -4.647  -2.982  1.00  0.00    -0.376 OA
BRANCH  71  72
ATOM     72  C   UNL     1       4.565  -4.158  -3.430  1.00  0.00     0.202 C 
BRANCH  72  73
ATOM     73  C   UNL     1       4.586  -2.920  -4.349  1.00  0.00     0.261 C 
BRANCH  73  74
ATOM     74  O   UNL     1       3.792  -1.764  -4.010  1.00  0.00    -0.463 OA
BRANCH  74  75
ATOM     75  C   UNL     1       2.661  -1.535  -4.730  1.00  0.00     0.310 C 
ATOM     76  O   UNL     1       2.007  -2.416  -5.276  1.00  0.00    -0.252 OA
BRANCH  75  77
ATOM     77  C   UNL     1       2.365  -0.044  -4.939  1.00  0.00     0.115 C 
ATOM     78  C   UNL     1       0.855   0.510  -4.889  1.00  0.00     0.004 C 
ATOM     79  C   UNL     1       3.387   1.020  -4.473  1.00  0.00     0.096 C 
ATOM     80  C   UNL     1       0.449   1.545  -3.806  1.00  0.00     0.005 C 
ATOM     81  C   UNL     1       0.723   1.417  -6.127  1.00  0.00     0.005 C 
ATOM     82  C   UNL     1       2.590   2.393  -4.628  1.00  0.00     0.002 C 
ATOM     83  C   UNL     1       1.572   2.513  -3.535  1.00  0.00     0.005 C 
ATOM     84  C   UNL     1       1.766   2.546  -5.963  1.00  0.00     0.005 C 
BRANCH  79  85
ATOM     85  C   UNL     1       4.679   0.650  -3.429  1.00  0.00     0.228 C 
ATOM     86  O   UNL     1       5.804   0.734  -3.975  1.00  0.00    -0.274 OA
ATOM     87  N   UNL     1       4.829   0.271  -2.086  1.00  0.00    -0.326 N 
ATOM     88  H   UNL     1       5.760   0.062  -1.841  1.00  0.00     0.169 HD
BRANCH  87  89
ATOM     89  C   UNL     1       3.904   0.123  -0.993  1.00  0.00     0.041 A 
ATOM     90  C   UNL     1       4.116   0.618   0.832  1.00  0.00     0.027 A 
ATOM     91  C   UNL     1       2.305   0.152  -1.689  1.00  0.00     0.027 A 
ATOM     92  C   UNL     1       2.572   1.097   1.778  1.00  0.00     0.016 A 
ATOM     93  C   UNL     1       0.913   0.680  -0.804  1.00  0.00     0.016 A 
ATOM     94  C   UNL     1       0.956   1.042   0.923  1.00  0.00     0.040 A 
BRANCH  94  95
ATOM     95  C   UNL     1      -0.498   0.838   1.399  1.00  0.00     0.253 C 
ATOM     96  O   UNL     1      -0.880   1.469   2.380  1.00  0.00    -0.269 OA
ATOM     97  N   UNL     1      -1.422   0.127   0.535  1.00  0.00    -0.339 N 
ATOM     98  C   UNL     1      -1.351  -1.239  -0.046  1.00  0.00     0.120 C 
ATOM     99  C   UNL     1      -2.661   0.745   0.065  1.00  0.00     0.120 C 
ATOM    100  C   UNL     1      -2.165  -1.179  -1.340  1.00  0.00     0.023 C 
ATOM    101  C   UNL     1      -3.278  -0.214  -0.977  1.00  0.00     0.023 C 
ENDBRANCH  94  95
ENDBRANCH  87  89
ENDBRANCH  79  85
ENDBRANCH  75  77
ENDBRANCH  74  75
ENDBRANCH  73  74
ENDBRANCH  72  73
ENDBRANCH  71  72
ENDBRANCH  70  71
ENDBRANCH   1  70
TORSDOF 23
