REMARK SMILES CC(C)(C)[N@H+](CC(=O)OCCOCCOCCOC(=O)c1ccc(-c2c3nc(c(-c4ccc(S(=O)(=O)[O-])cc4)c4ccc([nH]4)c(-c4ccc(S(=O)(=O)[O-])cc4)c4nc(c(-c5ccc(S(=O)(=O)[O-])cc5)c5ccc2[nH]5)C=C4)C=C3)cc1)C[C@H]1Cc2cc(F)ccc2O1
REMARK SMILES IDX 13 1 12 2 11 3 10 4 9 5 7 6 8 7 6 8 5 9 2 11 1 12 3 13 4 14
REMARK SMILES IDX 81 15 82 16 83 17 91 18 84 19 90 20 85 21 89 22 86 23 88 24
REMARK SMILES IDX 87 25 14 26 15 27 16 28 17 29 18 30 19 31 20 32 21 33 22 34
REMARK SMILES IDX 80 35 23 36 79 37 24 38 25 39 26 40 73 41 27 42 78 43 72 44
REMARK SMILES IDX 74 45 28 46 77 47 71 48 70 49 29 51 59 52 40 53 58 54 41 55
REMARK SMILES IDX 44 56 57 57 75 58 42 59 43 60 56 62 76 63 45 64 30 65 31 66
REMARK SMILES IDX 39 67 32 68 38 69 33 70 34 71 35 72 36 73 37 74 60 75 61 76
REMARK SMILES IDX 69 77 62 78 68 79 63 80 64 81 65 82 66 83 67 84 46 85 47 86
REMARK SMILES IDX 55 87 48 88 54 89 49 90 50 91 51 92 52 93 53 94
REMARK H PARENT 5 10 74 50 44 61
REMARK Flexibility Score: inf
ROOT
ATOM      1  C   UNL     1       4.354  -5.066   0.850  1.00  0.00     0.188 C 
ENDROOT
BRANCH   1   2
ATOM      2  O   UNL     1       5.215  -4.815   1.950  1.00  0.00    -0.376 OA
BRANCH   2   3
ATOM      3  C   UNL     1       4.817  -3.774   2.842  1.00  0.00     0.202 C 
BRANCH   3   4
ATOM      4  C   UNL     1       4.473  -2.423   2.198  1.00  0.00     0.261 C 
BRANCH   4   5
ATOM      5  O   UNL     1       3.361  -2.511   1.279  1.00  0.00    -0.459 OA
BRANCH   5   6
ATOM      6  C   UNL     1       3.444  -1.723   0.172  1.00  0.00     0.361 C 
ATOM      7  O   UNL     1       4.325  -0.885  -0.006  1.00  0.00    -0.245 OA
BRANCH   6   8
ATOM      8  C   UNL     1       2.410  -2.056  -0.913  1.00  0.00     0.387 C 
BRANCH   8   9
ATOM      9  N   UNL     1       0.988  -2.275  -0.494  1.00  0.00    -0.318 N 
ATOM     10  H   UNL     1       0.959  -2.978   0.244  1.00  0.00     0.349 HD
BRANCH   9  11
ATOM     11  C   UNL     1       0.357  -1.128   0.244  1.00  0.00     0.090 C 
ATOM     12  C   UNL     1       0.998   0.258  -0.011  1.00  0.00     0.078 C 
ATOM     13  C   UNL     1       0.458  -1.452   1.754  1.00  0.00     0.078 C 
ATOM     14  C   UNL     1      -1.150  -0.915  -0.018  1.00  0.00     0.078 C 
ENDBRANCH   9  11
BRANCH   9  15
ATOM     15  C   UNL     1       0.222  -2.835  -1.669  1.00  0.00     0.309 C 
BRANCH  15  16
ATOM     16  C   UNL     1      -1.001  -3.729  -1.314  1.00  0.00     0.232 C 
ATOM     17  C   UNL     1      -2.366  -3.285  -1.867  1.00  0.00     0.090 C 
ATOM     18  O   UNL     1      -0.877  -5.095  -1.843  1.00  0.00    -0.484 OA
ATOM     19  C   UNL     1      -3.081  -4.549  -1.547  1.00  0.00     0.001 A 
ATOM     20  C   UNL     1      -2.156  -5.581  -1.628  1.00  0.00     0.123 A 
ATOM     21  C   UNL     1      -4.366  -4.785  -1.103  1.00  0.00     0.047 A 
ATOM     22  C   UNL     1      -2.488  -6.891  -1.343  1.00  0.00     0.050 A 
ATOM     23  C   UNL     1      -4.681  -6.086  -0.707  1.00  0.00     0.123 A 
ATOM     24  C   UNL     1      -3.762  -7.136  -0.828  1.00  0.00     0.043 A 
ATOM     25  F   UNL     1      -5.878  -6.329  -0.155  1.00  0.00    -0.207 F 
ENDBRANCH  15  16
ENDBRANCH   9  15
ENDBRANCH   8   9
ENDBRANCH   6   8
ENDBRANCH   5   6
ENDBRANCH   4   5
ENDBRANCH   3   4
ENDBRANCH   2   3
ENDBRANCH   1   2
BRANCH   1  26
ATOM     26  C   UNL     1       2.918  -5.500   1.168  1.00  0.00     0.188 C 
BRANCH  26  27
ATOM     27  O   UNL     1       2.443  -5.223   2.481  1.00  0.00    -0.376 OA
BRANCH  27  28
ATOM     28  C   UNL     1       1.083  -5.603   2.705  1.00  0.00     0.202 C 
BRANCH  28  29
ATOM     29  C   UNL     1       0.878  -7.135   2.777  1.00  0.00     0.261 C 
BRANCH  29  30
ATOM     30  O   UNL     1       1.188  -7.861   1.562  1.00  0.00    -0.460 OA
BRANCH  30  31
ATOM     31  C   UNL     1       0.508  -7.427   0.477  1.00  0.00     0.338 C 
ATOM     32  O   UNL     1      -0.422  -6.642   0.532  1.00  0.00    -0.246 OA
BRANCH  31  33
ATOM     33  C   UNL     1       1.170  -7.845  -0.786  1.00  0.00     0.060 A 
ATOM     34  C   UNL     1       1.518  -6.858  -1.719  1.00  0.00     0.016 A 
ATOM     35  C   UNL     1       1.424  -9.181  -1.083  1.00  0.00     0.016 A 
ATOM     36  C   UNL     1       2.087  -7.192  -2.950  1.00  0.00     0.010 A 
ATOM     37  C   UNL     1       2.017  -9.518  -2.312  1.00  0.00     0.010 A 
ATOM     38  C   UNL     1       2.355  -8.529  -3.258  1.00  0.00    -0.014 A 
BRANCH  38  39
ATOM     39  C   UNL     1       3.016  -8.903  -4.539  1.00  0.00     0.031 A 
ATOM     40  C   UNL     1       2.266  -9.667  -5.594  1.00  0.00     0.074 A 
ATOM     41  C   UNL     1       4.310  -8.585  -4.749  1.00  0.00     0.049 A 
ATOM     42  N   UNL     1       2.726 -10.271  -6.660  1.00  0.00    -0.248 NA
ATOM     43  C   UNL     1       0.807  -9.758  -5.432  1.00  0.00     0.031 C 
ATOM     44  C   UNL     1       5.138  -7.770  -3.859  1.00  0.00     0.029 A 
ATOM     45  N   UNL     1       5.162  -8.933  -5.771  1.00  0.00    -0.354 N 
ATOM     46  C   UNL     1       1.622 -10.846  -7.280  1.00  0.00     0.074 A 
ATOM     47  C   UNL     1       0.467 -10.511  -6.471  1.00  0.00     0.031 C 
ATOM     48  C   UNL     1       6.382  -7.698  -4.361  1.00  0.00     0.029 A 
ATOM     49  C   UNL     1       6.460  -8.524  -5.562  1.00  0.00     0.049 A 
ATOM     50  H   UNL     1       4.873  -9.425  -6.572  1.00  0.00     0.167 HD
ATOM     51  C   UNL     1       1.579 -11.595  -8.409  1.00  0.00     0.031 A 
ATOM     52  C   UNL     1       7.598  -8.830  -6.218  1.00  0.00     0.031 A 
ATOM     53  C   UNL     1       2.732 -11.924  -9.211  1.00  0.00     0.049 A 
ATOM     54  C   UNL     1       7.547  -9.765  -7.395  1.00  0.00     0.074 A 
ATOM     55  C   UNL     1       2.783 -12.672 -10.375  1.00  0.00     0.029 A 
ATOM     56  N   UNL     1       4.033 -11.537  -8.931  1.00  0.00    -0.354 N 
ATOM     57  N   UNL     1       6.503 -10.328  -7.955  1.00  0.00    -0.248 NA
ATOM     58  C   UNL     1       8.830 -10.121  -8.020  1.00  0.00     0.031 C 
ATOM     59  C   UNL     1       4.122 -12.791 -10.762  1.00  0.00     0.029 A 
ATOM     60  C   UNL     1       4.899 -12.064  -9.876  1.00  0.00     0.049 A 
ATOM     61  H   UNL     1       4.303 -10.971  -8.172  1.00  0.00     0.167 HD
ATOM     62  C   UNL     1       7.002 -11.091  -9.005  1.00  0.00     0.074 A 
ATOM     63  C   UNL     1       8.438 -10.904  -9.016  1.00  0.00     0.031 C 
ATOM     64  C   UNL     1       6.328 -11.878  -9.880  1.00  0.00     0.031 A 
BRANCH  51  65
ATOM     65  C   UNL     1       0.249 -12.169  -8.823  1.00  0.00    -0.014 A 
ATOM     66  C   UNL     1      -0.760 -11.367  -9.381  1.00  0.00     0.010 A 
ATOM     67  C   UNL     1       0.035 -13.557  -8.709  1.00  0.00     0.010 A 
ATOM     68  C   UNL     1      -1.973 -11.937  -9.785  1.00  0.00     0.020 A 
ATOM     69  C   UNL     1      -1.164 -14.133  -9.134  1.00  0.00     0.020 A 
ATOM     70  C   UNL     1      -2.168 -13.316  -9.656  1.00  0.00     0.054 A 
BRANCH  70  71
ATOM     71  S   UNL     1      -3.742 -14.030 -10.208  1.00  0.00     0.124 S 
ATOM     72  O   UNL     1      -4.664 -13.559  -9.177  1.00  0.00    -0.237 OA
ATOM     73  O   UNL     1      -3.919 -13.434 -11.529  1.00  0.00    -0.237 OA
ATOM     74  O   UNL     1      -3.491 -15.470 -10.206  1.00  0.00    -0.744 OA
ENDBRANCH  70  71
ENDBRANCH  51  65
BRANCH  52  75
ATOM     75  C   UNL     1       8.902  -8.309  -5.720  1.00  0.00    -0.014 A 
ATOM     76  C   UNL     1       9.635  -7.372  -6.467  1.00  0.00     0.010 A 
ATOM     77  C   UNL     1       9.416  -8.752  -4.486  1.00  0.00     0.010 A 
ATOM     78  C   UNL     1      10.862  -6.896  -5.995  1.00  0.00     0.020 A 
ATOM     79  C   UNL     1      10.626  -8.254  -3.996  1.00  0.00     0.020 A 
ATOM     80  C   UNL     1      11.348  -7.337  -4.760  1.00  0.00     0.054 A 
BRANCH  80  81
ATOM     81  S   UNL     1      12.916  -6.663  -4.144  1.00  0.00     0.124 S 
ATOM     82  O   UNL     1      13.890  -7.335  -4.997  1.00  0.00    -0.237 OA
ATOM     83  O   UNL     1      12.755  -5.229  -4.374  1.00  0.00    -0.237 OA
ATOM     84  O   UNL     1      12.931  -7.064  -2.739  1.00  0.00    -0.744 OA
ENDBRANCH  80  81
ENDBRANCH  52  75
BRANCH  64  85
ATOM     85  C   UNL     1       7.127 -12.585 -10.943  1.00  0.00    -0.014 A 
ATOM     86  C   UNL     1       7.934 -13.694 -10.630  1.00  0.00     0.010 A 
ATOM     87  C   UNL     1       7.014 -12.179 -12.286  1.00  0.00     0.010 A 
ATOM     88  C   UNL     1       8.625 -14.373 -11.637  1.00  0.00     0.020 A 
ATOM     89  C   UNL     1       7.683 -12.872 -13.299  1.00  0.00     0.020 A 
ATOM     90  C   UNL     1       8.491 -13.961 -12.967  1.00  0.00     0.054 A 
BRANCH  90  91
ATOM     91  S   UNL     1       9.346 -14.901 -14.262  1.00  0.00     0.124 S 
ATOM     92  O   UNL     1      10.739 -14.518 -14.049  1.00  0.00    -0.237 OA
ATOM     93  O   UNL     1       9.015 -16.284 -13.925  1.00  0.00    -0.237 OA
ATOM     94  O   UNL     1       8.747 -14.409 -15.501  1.00  0.00    -0.744 OA
ENDBRANCH  90  91
ENDBRANCH  64  85
ENDBRANCH  38  39
ENDBRANCH  31  33
ENDBRANCH  30  31
ENDBRANCH  29  30
ENDBRANCH  28  29
ENDBRANCH  27  28
ENDBRANCH  26  27
ENDBRANCH   1  26
TORSDOF 24
