REMARK SMILES CC(=O)N[C@H](C(=O)NC1(CC(=O)OCCOCCOCCOC(=O)c2ccc(-c3c4nc(c(-c5ccc(S(=O)(=O)[O-])cc5)c5ccc([nH]5)c(-c5ccc(S(=O)(=O)[O-])cc5)c5nc(c(-c6ccc(S(=O)(=O)[O-])cc6)c6ccc3[nH]6)C=C5)C=C4)cc2)CCC1)C(C)C
REMARK SMILES IDX 17 1 16 2 15 3 14 4 13 5 11 6 12 7 10 8 9 9 85 10 87 11
REMARK SMILES IDX 86 12 8 13 6 14 7 15 5 17 4 18 1 19 2 20 3 21 88 23 89 24
REMARK SMILES IDX 90 25 18 26 19 27 20 28 21 29 22 30 23 31 24 32 25 33 26 34
REMARK SMILES IDX 84 35 27 36 83 37 28 38 29 39 30 40 77 41 31 42 82 43 76 44
REMARK SMILES IDX 78 45 32 46 81 47 75 48 74 49 33 51 63 52 44 53 62 54 45 55
REMARK SMILES IDX 48 56 61 57 79 58 46 59 47 60 60 62 80 63 49 64 34 65 35 66
REMARK SMILES IDX 43 67 36 68 42 69 37 70 38 71 39 72 40 73 41 74 64 75 65 76
REMARK SMILES IDX 73 77 66 78 72 79 67 80 68 81 69 82 70 83 71 84 50 85 51 86
REMARK SMILES IDX 59 87 52 88 58 89 53 90 54 91 55 92 56 93 57 94
REMARK H PARENT 8 16 4 22 78 50 48 61
REMARK Flexibility Score: inf
ROOT
ATOM      1  C   UNL     1      -0.136   1.746  -0.461  1.00  0.00     0.188 C 
ENDROOT
BRANCH   1   2
ATOM      2  O   UNL     1      -0.788   2.547  -1.444  1.00  0.00    -0.376 OA
BRANCH   2   3
ATOM      3  C   UNL     1      -2.164   2.246  -1.688  1.00  0.00     0.202 C 
BRANCH   3   4
ATOM      4  C   UNL     1      -2.453   0.812  -2.163  1.00  0.00     0.261 C 
BRANCH   4   5
ATOM      5  O   UNL     1      -2.221  -0.203  -1.149  1.00  0.00    -0.463 OA
BRANCH   5   6
ATOM      6  C   UNL     1      -1.490  -1.270  -1.533  1.00  0.00     0.308 C 
ATOM      7  O   UNL     1      -1.082  -1.433  -2.683  1.00  0.00    -0.252 OA
BRANCH   6   8
ATOM      8  C   UNL     1      -1.117  -2.279  -0.474  1.00  0.00     0.151 C 
BRANCH   8   9
ATOM      9  C   UNL     1      -1.685  -2.347   0.950  1.00  0.00     0.051 C 
ATOM     10  C   UNL     1      -2.150  -3.763   1.535  1.00  0.00     0.029 C 
ATOM     11  C   UNL     1      -3.217  -2.003   1.097  1.00  0.00     0.029 C 
ATOM     12  C   UNL     1      -3.513  -3.506   0.897  1.00  0.00     0.005 C 
BRANCH   9  13
ATOM     13  N   UNL     1      -0.788  -1.732   1.986  1.00  0.00    -0.348 N 
ATOM     14  C   UNL     1       0.328  -2.292   2.582  1.00  0.00     0.243 C 
ATOM     15  O   UNL     1       0.430  -2.171   3.810  1.00  0.00    -0.273 OA
ATOM     16  H   UNL     1      -1.023  -0.821   2.277  1.00  0.00     0.164 HD
BRANCH  14  17
ATOM     17  C   UNL     1       1.470  -2.988   1.775  1.00  0.00     0.173 C 
BRANCH  17  18
ATOM     18  N   UNL     1       2.695  -2.623   2.505  1.00  0.00    -0.344 N 
ATOM     19  C   UNL     1       4.261  -2.618   0.597  1.00  0.00     0.114 C 
ATOM     20  C   UNL     1       3.981  -2.517   2.069  1.00  0.00     0.217 C 
ATOM     21  O   UNL     1       4.872  -2.310   2.888  1.00  0.00    -0.275 OA
ATOM     22  H   UNL     1       2.564  -2.423   3.459  1.00  0.00     0.164 HD
ENDBRANCH  17  18
BRANCH  17  23
ATOM     23  C   UNL     1       1.283  -4.529   1.698  1.00  0.00     0.015 C 
ATOM     24  C   UNL     1       0.902  -4.970   0.282  1.00  0.00     0.010 C 
ATOM     25  C   UNL     1       2.498  -5.382   2.099  1.00  0.00     0.010 C 
ENDBRANCH  17  23
ENDBRANCH  14  17
ENDBRANCH   9  13
ENDBRANCH   8   9
ENDBRANCH   6   8
ENDBRANCH   5   6
ENDBRANCH   4   5
ENDBRANCH   3   4
ENDBRANCH   2   3
ENDBRANCH   1   2
BRANCH   1  26
ATOM     26  C   UNL     1      -0.765   1.829   0.933  1.00  0.00     0.188 C 
BRANCH  26  27
ATOM     27  O   UNL     1      -2.122   1.423   0.951  1.00  0.00    -0.376 OA
BRANCH  27  28
ATOM     28  C   UNL     1      -2.970   1.776   2.036  1.00  0.00     0.202 C 
BRANCH  28  29
ATOM     29  C   UNL     1      -2.647   2.969   2.956  1.00  0.00     0.261 C 
BRANCH  29  30
ATOM     30  O   UNL     1      -1.311   3.058   3.481  1.00  0.00    -0.460 OA
BRANCH  30  31
ATOM     31  C   UNL     1      -0.793   1.940   4.040  1.00  0.00     0.338 C 
ATOM     32  O   UNL     1      -1.398   0.911   4.274  1.00  0.00    -0.246 OA
BRANCH  31  33
ATOM     33  C   UNL     1       0.689   2.062   4.031  1.00  0.00     0.060 A 
ATOM     34  C   UNL     1       1.399   0.941   3.599  1.00  0.00     0.016 A 
ATOM     35  C   UNL     1       1.385   3.222   4.365  1.00  0.00     0.016 A 
ATOM     36  C   UNL     1       2.784   0.934   3.539  1.00  0.00     0.010 A 
ATOM     37  C   UNL     1       2.790   3.220   4.317  1.00  0.00     0.010 A 
ATOM     38  C   UNL     1       3.498   2.063   3.933  1.00  0.00    -0.014 A 
BRANCH  38  39
ATOM     39  C   UNL     1       4.963   1.927   4.134  1.00  0.00     0.031 A 
ATOM     40  C   UNL     1       5.481   1.849   5.544  1.00  0.00     0.074 A 
ATOM     41  C   UNL     1       5.808   1.744   3.100  1.00  0.00     0.049 A 
ATOM     42  N   UNL     1       6.713   1.827   5.979  1.00  0.00    -0.248 NA
ATOM     43  C   UNL     1       4.466   1.790   6.610  1.00  0.00     0.031 C 
ATOM     44  C   UNL     1       5.424   1.651   1.691  1.00  0.00     0.029 A 
ATOM     45  N   UNL     1       7.172   1.583   3.085  1.00  0.00    -0.354 N 
ATOM     46  C   UNL     1       6.622   1.791   7.365  1.00  0.00     0.074 A 
ATOM     47  C   UNL     1       5.216   1.814   7.701  1.00  0.00     0.031 C 
ATOM     48  C   UNL     1       6.526   1.439   0.951  1.00  0.00     0.029 A 
ATOM     49  C   UNL     1       7.699   1.448   1.822  1.00  0.00     0.049 A 
ATOM     50  H   UNL     1       7.722   1.567   3.901  1.00  0.00     0.167 HD
ATOM     51  C   UNL     1       7.621   1.745   8.277  1.00  0.00     0.031 A 
ATOM     52  C   UNL     1       8.983   1.379   1.412  1.00  0.00     0.031 A 
ATOM     53  C   UNL     1       9.017   1.690   7.935  1.00  0.00     0.049 A 
ATOM     54  C   UNL     1      10.085   1.436   2.440  1.00  0.00     0.074 A 
ATOM     55  C   UNL     1      10.110   1.663   8.783  1.00  0.00     0.029 A 
ATOM     56  N   UNL     1       9.514   1.642   6.640  1.00  0.00    -0.354 N 
ATOM     57  N   UNL     1       9.993   1.487   3.748  1.00  0.00    -0.248 NA
ATOM     58  C   UNL     1      11.466   1.437   1.935  1.00  0.00     0.031 C 
ATOM     59  C   UNL     1      11.269   1.664   8.001  1.00  0.00     0.029 A 
ATOM     60  C   UNL     1      10.898   1.617   6.666  1.00  0.00     0.049 A 
ATOM     61  H   UNL     1       8.963   1.627   5.824  1.00  0.00     0.167 HD
ATOM     62  C   UNL     1      11.302   1.499   4.222  1.00  0.00     0.074 A 
ATOM     63  C   UNL     1      12.166   1.436   3.061  1.00  0.00     0.031 C 
ATOM     64  C   UNL     1      11.747   1.556   5.502  1.00  0.00     0.031 A 
BRANCH  51  65
ATOM     65  C   UNL     1       7.238   1.826   9.731  1.00  0.00    -0.014 A 
ATOM     66  C   UNL     1       6.588   0.768  10.392  1.00  0.00     0.010 A 
ATOM     67  C   UNL     1       7.554   2.992  10.454  1.00  0.00     0.010 A 
ATOM     68  C   UNL     1       6.225   0.892  11.737  1.00  0.00     0.020 A 
ATOM     69  C   UNL     1       7.223   3.107  11.806  1.00  0.00     0.020 A 
ATOM     70  C   UNL     1       6.543   2.063  12.434  1.00  0.00     0.054 A 
BRANCH  70  71
ATOM     71  S   UNL     1       6.074   2.193  14.181  1.00  0.00     0.124 S 
ATOM     72  O   UNL     1       4.623   2.335  14.095  1.00  0.00    -0.237 OA
ATOM     73  O   UNL     1       6.550   0.928  14.736  1.00  0.00    -0.237 OA
ATOM     74  O   UNL     1       6.788   3.380  14.646  1.00  0.00    -0.744 OA
ENDBRANCH  70  71
ENDBRANCH  51  65
BRANCH  52  75
ATOM     75  C   UNL     1       9.300   1.319  -0.044  1.00  0.00    -0.014 A 
ATOM     76  C   UNL     1       9.911   0.187  -0.611  1.00  0.00     0.010 A 
ATOM     77  C   UNL     1       8.994   2.413  -0.876  1.00  0.00     0.010 A 
ATOM     78  C   UNL     1      10.216   0.154  -1.977  1.00  0.00     0.020 A 
ATOM     79  C   UNL     1       9.266   2.371  -2.246  1.00  0.00     0.020 A 
ATOM     80  C   UNL     1       9.885   1.244  -2.787  1.00  0.00     0.054 A 
BRANCH  80  81
ATOM     81  S   UNL     1      10.232   1.155  -4.566  1.00  0.00     0.124 S 
ATOM     82  O   UNL     1      11.687   1.267  -4.600  1.00  0.00    -0.237 OA
ATOM     83  O   UNL     1       9.689  -0.152  -4.927  1.00  0.00    -0.237 OA
ATOM     84  O   UNL     1       9.503   2.296  -5.115  1.00  0.00    -0.744 OA
ENDBRANCH  80  81
ENDBRANCH  52  75
BRANCH  64  85
ATOM     85  C   UNL     1      13.237   1.515   5.726  1.00  0.00    -0.014 A 
ATOM     86  C   UNL     1      14.058   2.608   5.397  1.00  0.00     0.010 A 
ATOM     87  C   UNL     1      13.813   0.385   6.335  1.00  0.00     0.010 A 
ATOM     88  C   UNL     1      15.434   2.557   5.644  1.00  0.00     0.020 A 
ATOM     89  C   UNL     1      15.182   0.343   6.612  1.00  0.00     0.020 A 
ATOM     90  C   UNL     1      15.987   1.425   6.251  1.00  0.00     0.054 A 
BRANCH  90  91
ATOM     91  S   UNL     1      17.767   1.403   6.600  1.00  0.00     0.124 S 
ATOM     92  O   UNL     1      18.337   1.260   5.263  1.00  0.00    -0.237 OA
ATOM     93  O   UNL     1      17.983   2.698   7.240  1.00  0.00    -0.237 OA
ATOM     94  O   UNL     1      17.936   0.246   7.476  1.00  0.00    -0.744 OA
ENDBRANCH  90  91
ENDBRANCH  64  85
ENDBRANCH  38  39
ENDBRANCH  31  33
ENDBRANCH  30  31
ENDBRANCH  29  30
ENDBRANCH  28  29
ENDBRANCH  27  28
ENDBRANCH  26  27
ENDBRANCH   1  26
TORSDOF 25
