REMARK SMILES CC[C@@H]1CC(=O)N(Cc2ccc(C(=O)OCCOCCOCCOC(=O)c3ccc(-c4c5nc(c(-c6ccc(S(=O)(=O)[O-])cc6)c6ccc([nH]6)c(-c6ccc(S(=O)(=O)[O-])cc6)c6nc(c(-c7ccc(S(=O)(=O)[O-])cc7)c7ccc4[nH]7)C=C6)C=C5)cc3)cn2)C1
REMARK SMILES IDX 19 1 18 2 17 3 16 4 15 5 13 6 14 7 12 8 9 9 10 10 88 11
REMARK SMILES IDX 11 12 87 13 8 14 7 15 3 16 4 17 89 18 5 19 6 20 2 21 1 22
REMARK SMILES IDX 20 23 21 24 22 25 23 26 24 27 25 28 26 29 27 30 28 31 86 32
REMARK SMILES IDX 29 33 85 34 30 35 31 36 32 37 79 38 33 39 84 40 78 41 80 42
REMARK SMILES IDX 34 43 83 44 77 45 76 46 35 48 65 49 46 50 64 51 47 52 50 53
REMARK SMILES IDX 63 54 81 55 48 56 49 57 62 59 82 60 51 61 36 62 37 63 45 64
REMARK SMILES IDX 38 65 44 66 39 67 40 68 41 69 42 70 43 71 66 72 67 73 75 74
REMARK SMILES IDX 68 75 74 76 69 77 70 78 71 79 72 80 73 81 52 82 53 83 61 84
REMARK SMILES IDX 54 85 60 86 55 87 56 88 57 89 58 90 59 91
REMARK H PARENT 80 47 50 58
REMARK Flexibility Score: inf
ROOT
ATOM      1  C   UNL     1       2.759  11.567   1.551  1.00  0.00     0.188 C 
ENDROOT
BRANCH   1   2
ATOM      2  O   UNL     1       3.486  12.432   0.693  1.00  0.00    -0.376 OA
BRANCH   2   3
ATOM      3  C   UNL     1       3.564  12.157  -0.698  1.00  0.00     0.202 C 
BRANCH   3   4
ATOM      4  C   UNL     1       3.927  10.754  -1.198  1.00  0.00     0.261 C 
BRANCH   4   5
ATOM      5  O   UNL     1       3.101   9.716  -0.653  1.00  0.00    -0.460 OA
BRANCH   5   6
ATOM      6  C   UNL     1       3.767   8.752   0.028  1.00  0.00     0.339 C 
ATOM      7  O   UNL     1       4.977   8.630   0.126  1.00  0.00    -0.246 OA
BRANCH   6   8
ATOM      8  C   UNL     1       2.821   7.906   0.774  1.00  0.00     0.078 A 
ATOM      9  C   UNL     1       1.259   6.213   2.275  1.00  0.00     0.060 A 
ATOM     10  C   UNL     1       0.738   6.753   1.096  1.00  0.00     0.026 A 
ATOM     11  N   UNL     1       2.479   6.563   2.746  1.00  0.00    -0.259 NA
ATOM     12  C   UNL     1       1.537   7.599   0.327  1.00  0.00     0.019 A 
ATOM     13  C   UNL     1       3.233   7.396   1.994  1.00  0.00     0.127 A 
BRANCH   9  14
ATOM     14  C   UNL     1       0.582   5.023   2.934  1.00  0.00     0.175 C 
BRANCH  14  15
ATOM     15  N   UNL     1       0.990   3.782   2.276  1.00  0.00    -0.336 N 
ATOM     16  C   UNL     1       1.304   2.141   0.623  1.00  0.00     0.017 C 
ATOM     17  C   UNL     1       2.477   2.103   1.609  1.00  0.00     0.105 C 
ATOM     18  C   UNL     1       0.652   3.486   0.909  1.00  0.00     0.124 C 
ATOM     19  C   UNL     1       2.031   2.995   2.744  1.00  0.00     0.223 C 
ATOM     20  O   UNL     1       2.548   3.036   3.846  1.00  0.00    -0.275 OA
BRANCH  16  21
ATOM     21  C   UNL     1       0.336   0.967   0.824  1.00  0.00     0.002 C 
ATOM     22  C   UNL     1       0.818  -0.273   0.082  1.00  0.00     0.004 C 
ENDBRANCH  16  21
ENDBRANCH  14  15
ENDBRANCH   9  14
ENDBRANCH   6   8
ENDBRANCH   5   6
ENDBRANCH   4   5
ENDBRANCH   3   4
ENDBRANCH   2   3
ENDBRANCH   1   2
BRANCH   1  23
ATOM     23  C   UNL     1       1.291  11.216   1.234  1.00  0.00     0.188 C 
BRANCH  23  24
ATOM     24  O   UNL     1       0.745  11.688   0.027  1.00  0.00    -0.376 OA
BRANCH  24  25
ATOM     25  C   UNL     1       0.258  13.015  -0.084  1.00  0.00     0.202 C 
BRANCH  25  26
ATOM     26  C   UNL     1       0.210  14.077   1.033  1.00  0.00     0.261 C 
BRANCH  26  27
ATOM     27  O   UNL     1       0.862  13.800   2.270  1.00  0.00    -0.460 OA
BRANCH  27  28
ATOM     28  C   UNL     1       0.045  13.429   3.287  1.00  0.00     0.338 C 
ATOM     29  O   UNL     1      -1.158  13.249   3.236  1.00  0.00    -0.246 OA
BRANCH  28  30
ATOM     30  C   UNL     1       0.879  13.093   4.455  1.00  0.00     0.060 A 
ATOM     31  C   UNL     1       0.878  11.773   4.922  1.00  0.00     0.016 A 
ATOM     32  C   UNL     1       1.631  14.077   5.099  1.00  0.00     0.016 A 
ATOM     33  C   UNL     1       1.615  11.437   6.057  1.00  0.00     0.010 A 
ATOM     34  C   UNL     1       2.353  13.742   6.247  1.00  0.00     0.010 A 
ATOM     35  C   UNL     1       2.325  12.428   6.748  1.00  0.00    -0.014 A 
BRANCH  35  36
ATOM     36  C   UNL     1       2.897  12.132   8.083  1.00  0.00     0.031 A 
ATOM     37  C   UNL     1       2.104  12.507   9.305  1.00  0.00     0.074 A 
ATOM     38  C   UNL     1       4.093  11.529   8.209  1.00  0.00     0.049 A 
ATOM     39  N   UNL     1       2.417  12.378  10.568  1.00  0.00    -0.248 NA
ATOM     40  C   UNL     1       0.781  13.108   9.069  1.00  0.00     0.031 C 
ATOM     41  C   UNL     1       4.934  11.074   7.104  1.00  0.00     0.029 A 
ATOM     42  N   UNL     1       4.806  11.200   9.335  1.00  0.00    -0.354 N 
ATOM     43  C   UNL     1       1.335  12.884  11.278  1.00  0.00     0.074 A 
ATOM     44  C   UNL     1       0.370  13.350  10.305  1.00  0.00     0.031 C 
ATOM     45  C   UNL     1       6.056  10.529   7.607  1.00  0.00     0.029 A 
ATOM     46  C   UNL     1       6.026  10.626   9.066  1.00  0.00     0.049 A 
ATOM     47  H   UNL     1       4.475  11.359  10.248  1.00  0.00     0.167 HD
ATOM     48  C   UNL     1       1.156  12.951  12.618  1.00  0.00     0.031 A 
ATOM     49  C   UNL     1       7.011  10.241   9.901  1.00  0.00     0.031 A 
ATOM     50  C   UNL     1       2.126  12.510  13.585  1.00  0.00     0.049 A 
ATOM     51  C   UNL     1       6.826  10.403  11.389  1.00  0.00     0.074 A 
ATOM     52  C   UNL     1       2.038  12.534  14.966  1.00  0.00     0.029 A 
ATOM     53  N   UNL     1       3.367  11.975  13.272  1.00  0.00    -0.354 N 
ATOM     54  N   UNL     1       5.790  10.869  12.046  1.00  0.00    -0.248 NA
ATOM     55  C   UNL     1       7.942   9.981  12.246  1.00  0.00     0.031 C 
ATOM     56  C   UNL     1       3.248  12.064  15.488  1.00  0.00     0.029 A 
ATOM     57  C   UNL     1       4.065  11.688  14.434  1.00  0.00     0.049 A 
ATOM     58  H   UNL     1       3.702  11.821  12.360  1.00  0.00     0.167 HD
ATOM     59  C   UNL     1       6.119  10.766  13.395  1.00  0.00     0.074 A 
ATOM     60  C   UNL     1       7.444  10.186  13.459  1.00  0.00     0.031 C 
ATOM     61  C   UNL     1       5.386  11.114  14.483  1.00  0.00     0.031 A 
BRANCH  48  62
ATOM     62  C   UNL     1      -0.128  13.562  13.113  1.00  0.00    -0.014 A 
ATOM     63  C   UNL     1      -1.356  12.891  12.972  1.00  0.00     0.010 A 
ATOM     64  C   UNL     1      -0.103  14.818  13.745  1.00  0.00     0.010 A 
ATOM     65  C   UNL     1      -2.542  13.485  13.414  1.00  0.00     0.020 A 
ATOM     66  C   UNL     1      -1.282  15.403  14.214  1.00  0.00     0.020 A 
ATOM     67  C   UNL     1      -2.497  14.741  14.027  1.00  0.00     0.054 A 
BRANCH  67  68
ATOM     68  S   UNL     1      -4.049  15.486  14.599  1.00  0.00     0.124 S 
ATOM     69  O   UNL     1      -4.676  15.878  13.340  1.00  0.00    -0.237 OA
ATOM     70  O   UNL     1      -4.695  14.381  15.305  1.00  0.00    -0.237 OA
ATOM     71  O   UNL     1      -3.612  16.592  15.447  1.00  0.00    -0.744 OA
ENDBRANCH  67  68
ENDBRANCH  48  62
BRANCH  49  72
ATOM     72  C   UNL     1       8.275   9.676   9.351  1.00  0.00    -0.014 A 
ATOM     73  C   UNL     1       8.593   8.319   9.533  1.00  0.00     0.010 A 
ATOM     74  C   UNL     1       9.171  10.498   8.644  1.00  0.00     0.010 A 
ATOM     75  C   UNL     1       9.791   7.798   9.033  1.00  0.00     0.020 A 
ATOM     76  C   UNL     1      10.357   9.976   8.119  1.00  0.00     0.020 A 
ATOM     77  C   UNL     1      10.665   8.631   8.327  1.00  0.00     0.054 A 
BRANCH  77  78
ATOM     78  S   UNL     1      12.193   7.925   7.648  1.00  0.00     0.124 S 
ATOM     79  O   UNL     1      13.005   7.746   8.847  1.00  0.00    -0.237 OA
ATOM     80  O   UNL     1      11.720   6.697   7.014  1.00  0.00    -0.237 OA
ATOM     81  O   UNL     1      12.663   8.953   6.722  1.00  0.00    -0.744 OA
ENDBRANCH  77  78
ENDBRANCH  49  72
BRANCH  61  82
ATOM     82  C   UNL     1       5.983  10.845  15.841  1.00  0.00    -0.014 A 
ATOM     83  C   UNL     1       7.052  11.612  16.336  1.00  0.00     0.010 A 
ATOM     84  C   UNL     1       5.426   9.842  16.655  1.00  0.00     0.010 A 
ATOM     85  C   UNL     1       7.575  11.358  17.608  1.00  0.00     0.020 A 
ATOM     86  C   UNL     1       5.927   9.603  17.937  1.00  0.00     0.020 A 
ATOM     87  C   UNL     1       7.009  10.354  18.400  1.00  0.00     0.054 A 
BRANCH  87  88
ATOM     88  S   UNL     1       7.679  10.069  20.062  1.00  0.00     0.124 S 
ATOM     89  O   UNL     1       8.941   9.395  19.771  1.00  0.00    -0.237 OA
ATOM     90  O   UNL     1       7.798  11.423  20.597  1.00  0.00    -0.237 OA
ATOM     91  O   UNL     1       6.664   9.239  20.708  1.00  0.00    -0.744 OA
ENDBRANCH  87  88
ENDBRANCH  61  82
ENDBRANCH  35  36
ENDBRANCH  28  30
ENDBRANCH  27  28
ENDBRANCH  26  27
ENDBRANCH  25  26
ENDBRANCH  24  25
ENDBRANCH  23  24
ENDBRANCH   1  23
TORSDOF 23
