REMARK SMILES Cc1cc(N)c(S(=O)(=O)NCC(=O)OCCOCCOCCOC(=O)c2ccc(-c3c4nc(c(-c5ccc(S(=O)(=O)[O-])cc5)c5ccc([nH]5)c(-c5ccc(S(=O)(=O)[O-])cc5)c5nc(c(-c6ccc(S(=O)(=O)[O-])cc6)c6ccc3[nH]6)C=C5)C=C4)cc2)cc1Cl
REMARK SMILES IDX 18 1 17 2 16 3 15 4 14 5 12 6 13 7 11 8 10 9 7 11 8 12 9 13
REMARK SMILES IDX 6 14 1 15 2 16 3 17 87 18 4 19 86 20 88 21 5 22 19 25 20 26
REMARK SMILES IDX 21 27 22 28 23 29 24 30 25 31 26 32 27 33 85 34 28 35 84 36
REMARK SMILES IDX 29 37 30 38 31 39 78 40 32 41 83 42 77 43 79 44 33 45 82 46
REMARK SMILES IDX 76 47 75 48 34 50 64 51 45 52 63 53 46 54 49 55 62 56 80 57
REMARK SMILES IDX 47 58 48 59 61 61 81 62 50 63 35 64 36 65 44 66 37 67 43 68
REMARK SMILES IDX 38 69 39 70 40 71 41 72 42 73 65 74 66 75 74 76 67 77 73 78
REMARK SMILES IDX 68 79 69 80 70 81 71 82 72 83 51 84 52 85 60 86 53 87 59 88
REMARK SMILES IDX 54 89 55 90 56 91 57 92 58 93
REMARK H PARENT 10 10 5 23 5 24 79 49 49 60
REMARK Flexibility Score: inf
ROOT
ATOM      1  C   UNL     1      -1.935   8.600  -2.326  1.00  0.00     0.188 C 
ENDROOT
BRANCH   1   2
ATOM      2  O   UNL     1      -3.047   8.164  -3.098  1.00  0.00    -0.376 OA
BRANCH   2   3
ATOM      3  C   UNL     1      -3.432   6.789  -3.023  1.00  0.00     0.202 C 
BRANCH   3   4
ATOM      4  C   UNL     1      -2.312   5.762  -3.156  1.00  0.00     0.261 C 
BRANCH   4   5
ATOM      5  O   UNL     1      -1.500   5.839  -1.980  1.00  0.00    -0.462 OA
BRANCH   5   6
ATOM      6  C   UNL     1      -0.397   5.060  -1.960  1.00  0.00     0.321 C 
ATOM      7  O   UNL     1      -0.178   4.135  -2.729  1.00  0.00    -0.251 OA
BRANCH   6   8
ATOM      8  C   UNL     1       0.616   5.618  -0.994  1.00  0.00     0.221 C 
BRANCH   8   9
ATOM      9  N   UNL     1       0.304   5.874   0.411  1.00  0.00    -0.200 NA
ATOM     10  H   UNL     1       1.198   5.830   0.900  1.00  0.00     0.142 HD
BRANCH   9  11
ATOM     11  S   UNL     1      -0.755   4.973   1.337  1.00  0.00     0.243 S 
ATOM     12  O   UNL     1      -2.069   5.047   0.732  1.00  0.00    -0.207 OA
ATOM     13  O   UNL     1      -0.522   5.381   2.701  1.00  0.00    -0.207 OA
BRANCH  11  14
ATOM     14  C   UNL     1      -0.197   3.300   1.188  1.00  0.00     0.106 A 
ATOM     15  C   UNL     1       1.121  -0.637   0.096  1.00  0.00     0.046 C 
ATOM     16  C   UNL     1       0.722   0.733   0.564  1.00  0.00    -0.030 A 
ATOM     17  C   UNL     1      -0.627   0.962   0.895  1.00  0.00     0.031 A 
ATOM     18  C   UNL     1       1.614   1.810   0.601  1.00  0.00     0.045 A 
ATOM     19  C   UNL     1      -1.118   2.244   1.174  1.00  0.00     0.052 A 
ATOM     20  C   UNL     1       1.166   3.078   0.953  1.00  0.00     0.044 A 
ATOM     21  Cl  UNL     1       3.278   1.644   0.177  1.00  0.00    -0.084 Cl
BRANCH  19  22
ATOM     22  N   UNL     1      -2.449   2.373   1.554  1.00  0.00    -0.398 N 
ATOM     23  H   UNL     1      -3.048   1.592   1.522  1.00  0.00     0.156 HD
ATOM     24  H   UNL     1      -2.793   3.245   1.856  1.00  0.00     0.156 HD
ENDBRANCH  19  22
ENDBRANCH  11  14
ENDBRANCH   9  11
ENDBRANCH   8   9
ENDBRANCH   6   8
ENDBRANCH   5   6
ENDBRANCH   4   5
ENDBRANCH   3   4
ENDBRANCH   2   3
ENDBRANCH   1   2
BRANCH   1  25
ATOM     25  C   UNL     1      -1.970   8.478  -0.790  1.00  0.00     0.188 C 
BRANCH  25  26
ATOM     26  O   UNL     1      -3.104   7.939  -0.138  1.00  0.00    -0.376 OA
BRANCH  26  27
ATOM     27  C   UNL     1      -4.348   8.612  -0.287  1.00  0.00     0.202 C 
BRANCH  27  28
ATOM     28  C   UNL     1      -4.479   9.957   0.425  1.00  0.00     0.261 C 
BRANCH  28  29
ATOM     29  O   UNL     1      -3.617  10.936  -0.173  1.00  0.00    -0.460 OA
BRANCH  29  30
ATOM     30  C   UNL     1      -2.702  11.493   0.659  1.00  0.00     0.338 C 
ATOM     31  O   UNL     1      -2.632  11.371   1.870  1.00  0.00    -0.246 OA
BRANCH  30  32
ATOM     32  C   UNL     1      -1.631  12.091  -0.165  1.00  0.00     0.060 A 
ATOM     33  C   UNL     1      -1.918  12.917  -1.254  1.00  0.00     0.016 A 
ATOM     34  C   UNL     1      -0.305  11.771   0.157  1.00  0.00     0.016 A 
ATOM     35  C   UNL     1      -0.868  13.454  -2.001  1.00  0.00     0.010 A 
ATOM     36  C   UNL     1       0.741  12.291  -0.602  1.00  0.00     0.010 A 
ATOM     37  C   UNL     1       0.466  13.155  -1.670  1.00  0.00    -0.014 A 
BRANCH  37  38
ATOM     38  C   UNL     1       1.572  13.894  -2.318  1.00  0.00     0.031 A 
ATOM     39  C   UNL     1       2.303  13.345  -3.503  1.00  0.00     0.074 A 
ATOM     40  C   UNL     1       1.905  15.092  -1.801  1.00  0.00     0.049 A 
ATOM     41  N   UNL     1       3.222  13.925  -4.229  1.00  0.00    -0.248 NA
ATOM     42  C   UNL     1       1.968  11.979  -3.932  1.00  0.00     0.031 C 
ATOM     43  C   UNL     1       1.255  15.710  -0.642  1.00  0.00     0.029 A 
ATOM     44  N   UNL     1       2.852  16.006  -2.182  1.00  0.00    -0.354 N 
ATOM     45  C   UNL     1       3.558  13.013  -5.220  1.00  0.00     0.074 A 
ATOM     46  C   UNL     1       2.775  11.820  -4.976  1.00  0.00     0.031 C 
ATOM     47  C   UNL     1       1.804  16.915  -0.424  1.00  0.00     0.029 A 
ATOM     48  C   UNL     1       2.853  17.146  -1.413  1.00  0.00     0.049 A 
ATOM     49  H   UNL     1       3.471  15.861  -2.933  1.00  0.00     0.167 HD
ATOM     50  C   UNL     1       4.428  13.175  -6.244  1.00  0.00     0.031 A 
ATOM     51  C   UNL     1       3.600  18.263  -1.502  1.00  0.00     0.031 A 
ATOM     52  C   UNL     1       5.208  14.368  -6.462  1.00  0.00     0.049 A 
ATOM     53  C   UNL     1       4.600  18.387  -2.614  1.00  0.00     0.074 A 
ATOM     54  C   UNL     1       6.076  14.640  -7.506  1.00  0.00     0.029 A 
ATOM     55  N   UNL     1       5.227  15.476  -5.628  1.00  0.00    -0.354 N 
ATOM     56  N   UNL     1       4.847  17.546  -3.590  1.00  0.00    -0.248 NA
ATOM     57  C   UNL     1       5.413  19.611  -2.650  1.00  0.00     0.031 C 
ATOM     58  C   UNL     1       6.669  15.882  -7.270  1.00  0.00     0.029 A 
ATOM     59  C   UNL     1       6.120  16.415  -6.115  1.00  0.00     0.049 A 
ATOM     60  H   UNL     1       4.686  15.579  -4.812  1.00  0.00     0.167 HD
ATOM     61  C   UNL     1       5.821  18.152  -4.373  1.00  0.00     0.074 A 
ATOM     62  C   UNL     1       6.118  19.431  -3.761  1.00  0.00     0.031 C 
ATOM     63  C   UNL     1       6.408  17.688  -5.501  1.00  0.00     0.031 A 
BRANCH  50  64
ATOM     64  C   UNL     1       4.587  12.064  -7.247  1.00  0.00    -0.014 A 
ATOM     65  C   UNL     1       5.805  11.363  -7.330  1.00  0.00     0.010 A 
ATOM     66  C   UNL     1       3.603  11.848  -8.228  1.00  0.00     0.010 A 
ATOM     67  C   UNL     1       6.054  10.500  -8.401  1.00  0.00     0.020 A 
ATOM     68  C   UNL     1       3.841  10.970  -9.289  1.00  0.00     0.020 A 
ATOM     69  C   UNL     1       5.076  10.323  -9.383  1.00  0.00     0.054 A 
BRANCH  69  70
ATOM     70  S   UNL     1       5.442   9.252 -10.802  1.00  0.00     0.124 S 
ATOM     71  O   UNL     1       6.342  10.085 -11.593  1.00  0.00    -0.237 OA
ATOM     72  O   UNL     1       6.052   8.085 -10.169  1.00  0.00    -0.237 OA
ATOM     73  O   UNL     1       4.128   9.011 -11.395  1.00  0.00    -0.744 OA
ENDBRANCH  69  70
ENDBRANCH  50  64
BRANCH  51  74
ATOM     74  C   UNL     1       3.370  19.370  -0.537  1.00  0.00    -0.014 A 
ATOM     75  C   UNL     1       3.721  19.223   0.818  1.00  0.00     0.010 A 
ATOM     76  C   UNL     1       2.730  20.549  -0.956  1.00  0.00     0.010 A 
ATOM     77  C   UNL     1       3.403  20.220   1.743  1.00  0.00     0.020 A 
ATOM     78  C   UNL     1       2.434  21.559  -0.038  1.00  0.00     0.020 A 
ATOM     79  C   UNL     1       2.752  21.377   1.310  1.00  0.00     0.054 A 
BRANCH  79  80
ATOM     80  S   UNL     1       2.330  22.652   2.530  1.00  0.00     0.124 S 
ATOM     81  O   UNL     1       1.130  22.092   3.145  1.00  0.00    -0.237 OA
ATOM     82  O   UNL     1       3.517  22.687   3.381  1.00  0.00    -0.237 OA
ATOM     83  O   UNL     1       2.119  23.846   1.714  1.00  0.00    -0.744 OA
ENDBRANCH  79  80
ENDBRANCH  51  74
BRANCH  63  84
ATOM     84  C   UNL     1       7.436  18.554  -6.179  1.00  0.00    -0.014 A 
ATOM     85  C   UNL     1       7.146  19.123  -7.434  1.00  0.00     0.010 A 
ATOM     86  C   UNL     1       8.732  18.677  -5.651  1.00  0.00     0.010 A 
ATOM     87  C   UNL     1       8.146  19.760  -8.170  1.00  0.00     0.020 A 
ATOM     88  C   UNL     1       9.730  19.338  -6.375  1.00  0.00     0.020 A 
ATOM     89  C   UNL     1       9.437  19.849  -7.643  1.00  0.00     0.054 A 
BRANCH  89  90
ATOM     90  S   UNL     1      10.739  20.628  -8.637  1.00  0.00     0.124 S 
ATOM     91  O   UNL     1      11.066  19.576  -9.594  1.00  0.00    -0.237 OA
ATOM     92  O   UNL     1      10.063  21.798  -9.194  1.00  0.00    -0.237 OA
ATOM     93  O   UNL     1      11.782  20.930  -7.658  1.00  0.00    -0.744 OA
ENDBRANCH  89  90
ENDBRANCH  63  84
ENDBRANCH  37  38
ENDBRANCH  30  32
ENDBRANCH  29  30
ENDBRANCH  28  29
ENDBRANCH  27  28
ENDBRANCH  26  27
ENDBRANCH  25  26
ENDBRANCH   1  25
TORSDOF 24
