REMARK SMILES CCOc1ccc(-c2cc(Cl)cc3c2O[C@H](C(F)(F)F)C(C(=O)OCCOCCOCCOC(=O)c2ccc(-c4c5nc(c(-c6ccc(S(=O)(=O)[O-])cc6)c6ccc([nH]6)c(-c6ccc(S(=O)(=O)[O-])cc6)c6nc(c(-c7ccc(S(=O)(=O)[O-])cc7)c7ccc4[nH]7)C=C6)C=C5)cc2)=C3)cc1
REMARK SMILES IDX 28 1 27 2 26 3 25 4 24 5 22 6 23 7 21 8 8 9 9 10 14 11 10 12
REMARK SMILES IDX 13 13 15 14 11 15 12 16 96 17 16 18 7 19 4 20 5 21 98 22
REMARK SMILES IDX 6 23 97 24 3 25 2 26 1 27 17 28 18 29 19 30 20 31 29 32
REMARK SMILES IDX 30 33 31 34 32 35 33 36 34 37 35 38 36 39 37 40 95 41 38 42
REMARK SMILES IDX 94 43 39 44 40 45 41 46 88 47 42 48 93 49 87 50 89 51 43 52
REMARK SMILES IDX 92 53 86 54 85 55 44 57 74 58 55 59 73 60 56 61 59 62 72 63
REMARK SMILES IDX 90 64 57 65 58 66 71 68 91 69 60 70 45 71 46 72 54 73 47 74
REMARK SMILES IDX 53 75 48 76 49 77 50 78 51 79 52 80 75 81 76 82 84 83 77 84
REMARK SMILES IDX 83 85 78 86 79 87 80 88 81 89 82 90 61 91 62 92 70 93 63 94
REMARK SMILES IDX 69 95 64 96 65 97 66 98 67 99 68 100
REMARK H PARENT 89 56 59 67
REMARK Flexibility Score: inf
ROOT
ATOM      1  C   UNL     1      10.766   4.549  -4.372  1.00  0.00     0.188 C 
ENDROOT
BRANCH   1   2
ATOM      2  O   UNL     1      11.896   5.196  -3.810  1.00  0.00    -0.376 OA
BRANCH   2   3
ATOM      3  C   UNL     1      12.767   4.362  -3.052  1.00  0.00     0.202 C 
BRANCH   3   4
ATOM      4  C   UNL     1      13.360   3.183  -3.838  1.00  0.00     0.261 C 
BRANCH   4   5
ATOM      5  O   UNL     1      12.356   2.179  -4.149  1.00  0.00    -0.460 OA
BRANCH   5   6
ATOM      6  C   UNL     1      12.152   1.264  -3.176  1.00  0.00     0.338 C 
ATOM      7  O   UNL     1      12.836   1.177  -2.164  1.00  0.00    -0.246 OA
BRANCH   6   8
ATOM      8  C   UNL     1      10.936   0.432  -3.401  1.00  0.00     0.087 C 
ATOM      9  C   UNL     1       7.068   1.785  -2.819  1.00  0.00     0.026 A 
ATOM     10  C   UNL     1       7.264   2.919  -2.003  1.00  0.00     0.033 A 
ATOM     11  C   UNL     1       8.218   1.005  -3.020  1.00  0.00     0.135 A 
ATOM     12  C   UNL     1       8.422   3.133  -1.256  1.00  0.00     0.042 A 
ATOM     13  C   UNL     1       9.272   1.081  -2.086  1.00  0.00     0.019 A 
ATOM     14  O   UNL     1       8.534   0.332  -4.208  1.00  0.00    -0.475 OA
ATOM     15  Cl  UNL     1       8.625   4.558  -0.324  1.00  0.00    -0.084 Cl
ATOM     16  C   UNL     1       9.397   2.160  -1.223  1.00  0.00     0.032 A 
ATOM     17  C   UNL     1      10.374   0.106  -2.226  1.00  0.00     0.027 C 
ATOM     18  C   UNL     1       9.986   0.571  -4.590  1.00  0.00     0.316 C 
BRANCH   9  19
ATOM     19  C   UNL     1       5.625   1.386  -2.922  1.00  0.00    -0.014 A 
ATOM     20  C   UNL     1       2.801   1.093  -2.392  1.00  0.00     0.119 A 
ATOM     21  C   UNL     1       3.271   2.057  -3.280  1.00  0.00     0.047 A 
ATOM     22  C   UNL     1       3.734   0.274  -1.768  1.00  0.00     0.047 A 
ATOM     23  C   UNL     1       4.653   2.193  -3.541  1.00  0.00     0.013 A 
ATOM     24  C   UNL     1       5.118   0.418  -2.030  1.00  0.00     0.013 A 
BRANCH  20  25
ATOM     25  O   UNL     1       1.452   0.877  -2.372  1.00  0.00    -0.494 OA
BRANCH  25  26
ATOM     26  C   UNL     1       0.746   0.912  -1.127  1.00  0.00     0.226 C 
ATOM     27  C   UNL     1       0.828  -0.386  -0.338  1.00  0.00     0.049 C 
ENDBRANCH  25  26
ENDBRANCH  20  25
ENDBRANCH   9  19
BRANCH  18  28
ATOM     28  C   UNL     1      10.482  -0.367  -5.699  1.00  0.00     0.430 C 
ATOM     29  F   UNL     1      10.447  -1.666  -5.327  1.00  0.00    -0.167 F 
ATOM     30  F   UNL     1       9.768  -0.239  -6.838  1.00  0.00    -0.167 F 
ATOM     31  F   UNL     1      11.774  -0.087  -6.021  1.00  0.00    -0.167 F 
ENDBRANCH  18  28
ENDBRANCH   6   8
ENDBRANCH   5   6
ENDBRANCH   4   5
ENDBRANCH   3   4
ENDBRANCH   2   3
ENDBRANCH   1   2
BRANCH   1  32
ATOM     32  C   UNL     1      10.885   4.233  -5.880  1.00  0.00     0.188 C 
BRANCH  32  33
ATOM     33  O   UNL     1      12.018   4.646  -6.628  1.00  0.00    -0.376 OA
BRANCH  33  34
ATOM     34  C   UNL     1      12.549   5.947  -6.437  1.00  0.00     0.202 C 
BRANCH  34  35
ATOM     35  C   UNL     1      11.633   7.176  -6.549  1.00  0.00     0.261 C 
BRANCH  35  36
ATOM     36  O   UNL     1      10.410   7.130  -5.793  1.00  0.00    -0.460 OA
BRANCH  36  37
ATOM     37  C   UNL     1       9.276   6.987  -6.521  1.00  0.00     0.338 C 
ATOM     38  O   UNL     1       9.198   6.859  -7.737  1.00  0.00    -0.246 OA
BRANCH  37  39
ATOM     39  C   UNL     1       8.106   6.826  -5.632  1.00  0.00     0.060 A 
ATOM     40  C   UNL     1       7.365   5.646  -5.726  1.00  0.00     0.016 A 
ATOM     41  C   UNL     1       7.679   7.848  -4.780  1.00  0.00     0.016 A 
ATOM     42  C   UNL     1       6.193   5.500  -4.982  1.00  0.00     0.010 A 
ATOM     43  C   UNL     1       6.493   7.695  -4.038  1.00  0.00     0.010 A 
ATOM     44  C   UNL     1       5.731   6.521  -4.136  1.00  0.00    -0.014 A 
BRANCH  44  45
ATOM     45  C   UNL     1       4.375   6.403  -3.514  1.00  0.00     0.031 A 
ATOM     46  C   UNL     1       3.173   6.751  -4.345  1.00  0.00     0.074 A 
ATOM     47  C   UNL     1       4.196   5.960  -2.252  1.00  0.00     0.049 A 
ATOM     48  N   UNL     1       1.907   6.677  -4.032  1.00  0.00    -0.248 NA
ATOM     49  C   UNL     1       3.435   7.290  -5.690  1.00  0.00     0.031 C 
ATOM     50  C   UNL     1       5.274   5.646  -1.329  1.00  0.00     0.029 A 
ATOM     51  N   UNL     1       3.060   5.638  -1.539  1.00  0.00    -0.354 N 
ATOM     52  C   UNL     1       1.222   7.222  -5.110  1.00  0.00     0.074 A 
ATOM     53  C   UNL     1       2.210   7.582  -6.104  1.00  0.00     0.031 C 
ATOM     54  C   UNL     1       4.771   5.027  -0.245  1.00  0.00     0.029 A 
ATOM     55  C   UNL     1       3.315   5.001  -0.338  1.00  0.00     0.049 A 
ATOM     56  H   UNL     1       2.151   5.843  -1.856  1.00  0.00     0.167 HD
ATOM     57  C   UNL     1      -0.107   7.448  -5.236  1.00  0.00     0.031 A 
ATOM     58  C   UNL     1       2.474   4.460   0.575  1.00  0.00     0.031 A 
ATOM     59  C   UNL     1      -1.081   7.119  -4.229  1.00  0.00     0.049 A 
ATOM     60  C   UNL     1       0.985   4.652   0.361  1.00  0.00     0.074 A 
ATOM     61  C   UNL     1      -2.441   7.374  -4.236  1.00  0.00     0.029 A 
ATOM     62  N   UNL     1      -0.804   6.459  -3.042  1.00  0.00    -0.354 N 
ATOM     63  N   UNL     1       0.355   5.166  -0.669  1.00  0.00    -0.248 NA
ATOM     64  C   UNL     1       0.092   4.223   1.450  1.00  0.00     0.031 C 
ATOM     65  C   UNL     1      -2.978   6.913  -3.031  1.00  0.00     0.029 A 
ATOM     66  C   UNL     1      -1.966   6.307  -2.304  1.00  0.00     0.049 A 
ATOM     67  H   UNL     1       0.087   6.146  -2.764  1.00  0.00     0.167 HD
ATOM     68  C   UNL     1      -1.000   5.135  -0.345  1.00  0.00     0.074 A 
ATOM     69  C   UNL     1      -1.105   4.485   0.944  1.00  0.00     0.031 C 
ATOM     70  C   UNL     1      -2.058   5.635  -1.031  1.00  0.00     0.031 A 
BRANCH  57  71
ATOM     71  C   UNL     1      -0.575   8.159  -6.477  1.00  0.00    -0.014 A 
ATOM     72  C   UNL     1      -0.609   7.512  -7.723  1.00  0.00     0.010 A 
ATOM     73  C   UNL     1      -1.032   9.487  -6.379  1.00  0.00     0.010 A 
ATOM     74  C   UNL     1      -1.077   8.187  -8.854  1.00  0.00     0.020 A 
ATOM     75  C   UNL     1      -1.526  10.156  -7.501  1.00  0.00     0.020 A 
ATOM     76  C   UNL     1      -1.537   9.503  -8.735  1.00  0.00     0.054 A 
BRANCH  76  77
ATOM     77  S   UNL     1      -2.186  10.334 -10.210  1.00  0.00     0.124 S 
ATOM     78  O   UNL     1      -0.974  10.538 -11.000  1.00  0.00    -0.237 OA
ATOM     79  O   UNL     1      -3.124   9.350 -10.742  1.00  0.00    -0.237 OA
ATOM     80  O   UNL     1      -2.797  11.552  -9.684  1.00  0.00    -0.744 OA
ENDBRANCH  76  77
ENDBRANCH  57  71
BRANCH  58  81
ATOM     81  C   UNL     1       2.968   3.698   1.776  1.00  0.00    -0.014 A 
ATOM     82  C   UNL     1       2.555   2.366   1.988  1.00  0.00     0.010 A 
ATOM     83  C   UNL     1       3.790   4.282   2.754  1.00  0.00     0.010 A 
ATOM     84  C   UNL     1       2.902   1.656   3.141  1.00  0.00     0.020 A 
ATOM     85  C   UNL     1       4.180   3.564   3.898  1.00  0.00     0.020 A 
ATOM     86  C   UNL     1       3.711   2.264   4.096  1.00  0.00     0.054 A 
BRANCH  86  87
ATOM     87  S   UNL     1       4.144   1.329   5.589  1.00  0.00     0.124 S 
ATOM     88  O   UNL     1       2.909   1.408   6.363  1.00  0.00    -0.237 OA
ATOM     89  O   UNL     1       4.470   0.008   5.053  1.00  0.00    -0.237 OA
ATOM     90  O   UNL     1       5.278   2.069   6.135  1.00  0.00    -0.744 OA
ENDBRANCH  86  87
ENDBRANCH  58  81
BRANCH  70  91
ATOM     91  C   UNL     1      -3.431   5.497  -0.418  1.00  0.00    -0.014 A 
ATOM     92  C   UNL     1      -3.791   6.222   0.733  1.00  0.00     0.010 A 
ATOM     93  C   UNL     1      -4.404   4.703  -1.053  1.00  0.00     0.010 A 
ATOM     94  C   UNL     1      -5.084   6.129   1.256  1.00  0.00     0.020 A 
ATOM     95  C   UNL     1      -5.708   4.632  -0.552  1.00  0.00     0.020 A 
ATOM     96  C   UNL     1      -6.036   5.336   0.608  1.00  0.00     0.054 A 
BRANCH  96  97
ATOM     97  S   UNL     1      -7.721   5.274   1.279  1.00  0.00     0.124 S 
ATOM     98  O   UNL     1      -7.537   4.482   2.492  1.00  0.00    -0.237 OA
ATOM     99  O   UNL     1      -8.032   6.686   1.492  1.00  0.00    -0.237 OA
ATOM    100  O   UNL     1      -8.493   4.625   0.222  1.00  0.00    -0.744 OA
ENDBRANCH  96  97
ENDBRANCH  70  91
ENDBRANCH  44  45
ENDBRANCH  37  39
ENDBRANCH  36  37
ENDBRANCH  35  36
ENDBRANCH  34  35
ENDBRANCH  33  34
ENDBRANCH  32  33
ENDBRANCH   1  32
TORSDOF 24
