REMARK SMILES Cc1cccc(O[C@H](C)C(=O)NNC(=O)[C@H]2[C@@H]3CC[C@@H](C3)[C@@H]2C(=O)OCCOCCOCCOC(=O)c2ccc(-c3c4nc(c(-c5ccc(S(=O)(=O)[O-])cc5)c5ccc([nH]5)c(-c5ccc(S(=O)(=O)[O-])cc5)c5nc(c(-c6ccc(S(=O)(=O)[O-])cc6)c6ccc3[nH]6)C=C5)C=C4)cc2)c1
REMARK SMILES IDX 29 1 28 2 27 3 26 4 25 5 23 6 24 7 22 8 16 9 17 10 18 11
REMARK SMILES IDX 21 12 20 13 19 14 14 15 13 16 15 18 12 19 10 20 11 21 8 23
REMARK SMILES IDX 9 24 7 25 6 26 1 27 2 28 3 29 97 30 4 31 5 32 30 33 31 34
REMARK SMILES IDX 32 35 33 36 34 37 35 38 36 39 37 40 38 41 96 42 39 43 95 44
REMARK SMILES IDX 40 45 41 46 42 47 89 48 43 49 94 50 88 51 90 52 44 53 93 54
REMARK SMILES IDX 87 55 86 56 45 58 75 59 56 60 74 61 57 62 60 63 73 64 91 65
REMARK SMILES IDX 58 66 59 67 72 69 92 70 61 71 46 72 47 73 55 74 48 75 54 76
REMARK SMILES IDX 49 77 50 78 51 79 52 80 53 81 76 82 77 83 85 84 78 85 84 86
REMARK SMILES IDX 79 87 80 88 81 89 82 90 83 91 62 92 63 93 71 94 64 95 70 96
REMARK SMILES IDX 65 97 66 98 67 99 68 100 69 101
REMARK H PARENT 13 17 12 22 90 57 60 68
REMARK Flexibility Score: inf
ROOT
ATOM      1  C   UNL     1       7.054   5.212   0.240  1.00  0.00     0.188 C 
ENDROOT
BRANCH   1   2
ATOM      2  O   UNL     1       6.567   5.975  -0.889  1.00  0.00    -0.376 OA
BRANCH   2   3
ATOM      3  C   UNL     1       5.238   6.532  -0.995  1.00  0.00     0.202 C 
BRANCH   3   4
ATOM      4  C   UNL     1       3.996   6.201  -2.099  1.00  0.00     0.261 C 
BRANCH   4   5
ATOM      5  O   UNL     1       2.930   4.780  -2.460  1.00  0.00    -0.463 OA
BRANCH   5   6
ATOM      6  C   UNL     1       2.958   3.412  -2.974  1.00  0.00     0.310 C 
ATOM      7  O   UNL     1       3.941   2.714  -3.229  1.00  0.00    -0.252 OA
BRANCH   6   8
ATOM      8  C   UNL     1       1.710   2.667  -3.338  1.00  0.00     0.115 C 
ATOM      9  C   UNL     1       1.811   1.215  -2.720  1.00  0.00     0.098 C 
ATOM     10  C   UNL     1       1.481   0.260  -3.896  1.00  0.00     0.003 C 
ATOM     11  C   UNL     1       2.742   0.103  -4.756  1.00  0.00     0.005 C 
ATOM     12  C   UNL     1       0.593   1.125  -4.787  1.00  0.00     0.009 C 
ATOM     13  C   UNL     1       1.612   2.269  -4.868  1.00  0.00     0.004 C 
ATOM     14  C   UNL     1       2.814   1.464  -5.463  1.00  0.00     0.005 C 
BRANCH   9  15
ATOM     15  C   UNL     1       1.053   0.815  -1.483  1.00  0.00     0.242 C 
ATOM     16  N   UNL     1       0.475   1.803  -0.749  1.00  0.00    -0.267 N 
ATOM     17  H   UNL     1       0.806   2.022   0.152  1.00  0.00     0.191 HD
ATOM     18  O   UNL     1       1.031  -0.345  -1.073  1.00  0.00    -0.273 OA
BRANCH  16  19
ATOM     19  N   UNL     1      -0.602   2.501  -1.305  1.00  0.00    -0.264 N 
ATOM     20  C   UNL     1      -1.028   3.658  -0.717  1.00  0.00     0.279 C 
ATOM     21  O   UNL     1      -1.072   4.691  -1.391  1.00  0.00    -0.269 OA
ATOM     22  H   UNL     1      -1.049   2.161  -2.113  1.00  0.00     0.191 HD
BRANCH  20  23
ATOM     23  C   UNL     1      -1.729   3.549   0.655  1.00  0.00     0.260 C 
ATOM     24  C   UNL     1      -3.094   2.881   0.459  1.00  0.00     0.064 C 
BRANCH  23  25
ATOM     25  O   UNL     1      -1.076   3.289   1.880  1.00  0.00    -0.481 OA
BRANCH  25  26
ATOM     26  C   UNL     1      -0.615   2.100   2.342  1.00  0.00     0.120 A 
ATOM     27  C   UNL     1       1.910   1.256   5.093  1.00  0.00     0.044 C 
ATOM     28  C   UNL     1       0.923   1.115   3.972  1.00  0.00    -0.047 A 
ATOM     29  C   UNL     1       0.677  -0.147   3.431  1.00  0.00     0.003 A 
ATOM     30  C   UNL     1       0.284   2.229   3.411  1.00  0.00     0.049 A 
ATOM     31  C   UNL     1      -0.239  -0.292   2.394  1.00  0.00     0.004 A 
ATOM     32  C   UNL     1      -0.905   0.823   1.871  1.00  0.00     0.046 A 
ENDBRANCH  25  26
ENDBRANCH  23  25
ENDBRANCH  20  23
ENDBRANCH  16  19
ENDBRANCH   9  15
ENDBRANCH   6   8
ENDBRANCH   5   6
ENDBRANCH   4   5
ENDBRANCH   3   4
ENDBRANCH   2   3
ENDBRANCH   1   2
BRANCH   1  33
ATOM     33  C   UNL     1       6.762   5.611   1.688  1.00  0.00     0.188 C 
BRANCH  33  34
ATOM     34  O   UNL     1       5.456   6.128   1.774  1.00  0.00    -0.376 OA
BRANCH  34  35
ATOM     35  C   UNL     1       5.117   6.812   2.958  1.00  0.00     0.202 C 
BRANCH  35  36
ATOM     36  C   UNL     1       4.554   5.857   4.011  1.00  0.00     0.261 C 
BRANCH  36  37
ATOM     37  O   UNL     1       3.550   5.010   3.417  1.00  0.00    -0.460 OA
BRANCH  37  38
ATOM     38  C   UNL     1       3.929   3.695   3.269  1.00  0.00     0.338 C 
ATOM     39  O   UNL     1       4.417   3.038   4.176  1.00  0.00    -0.246 OA
BRANCH  38  40
ATOM     40  C   UNL     1       3.888   3.335   1.818  1.00  0.00     0.060 A 
ATOM     41  C   UNL     1       4.756   2.444   1.180  1.00  0.00     0.016 A 
ATOM     42  C   UNL     1       3.182   4.154   1.007  1.00  0.00     0.016 A 
ATOM     43  C   UNL     1       5.126   2.567  -0.222  1.00  0.00     0.010 A 
ATOM     44  C   UNL     1       3.672   4.333  -0.285  1.00  0.00     0.010 A 
ATOM     45  C   UNL     1       4.741   3.658  -1.015  1.00  0.00    -0.014 A 
BRANCH  45  46
ATOM     46  C   UNL     1       5.571   4.120  -2.544  1.00  0.00     0.031 A 
ATOM     47  C   UNL     1       4.975   4.711  -4.150  1.00  0.00     0.074 A 
ATOM     48  C   UNL     1       6.861   3.726  -2.691  1.00  0.00     0.049 A 
ATOM     49  N   UNL     1       5.530   4.438  -5.324  1.00  0.00    -0.248 NA
ATOM     50  C   UNL     1       3.663   5.434  -4.535  1.00  0.00     0.031 C 
ATOM     51  C   UNL     1       7.793   4.109  -3.746  1.00  0.00     0.029 A 
ATOM     52  N   UNL     1       7.543   2.728  -1.995  1.00  0.00    -0.354 N 
ATOM     53  C   UNL     1       4.766   5.059  -6.334  1.00  0.00     0.074 A 
ATOM     54  C   UNL     1       3.491   5.276  -5.820  1.00  0.00     0.031 C 
ATOM     55  C   UNL     1       8.760   3.183  -3.819  1.00  0.00     0.029 A 
ATOM     56  C   UNL     1       8.402   2.111  -2.911  1.00  0.00     0.049 A 
ATOM     57  H   UNL     1       7.439   2.501  -1.043  1.00  0.00     0.167 HD
ATOM     58  C   UNL     1       5.261   5.603  -7.478  1.00  0.00     0.031 A 
ATOM     59  C   UNL     1       8.282   0.787  -3.209  1.00  0.00     0.031 A 
ATOM     60  C   UNL     1       6.509   4.965  -7.779  1.00  0.00     0.049 A 
ATOM     61  C   UNL     1       8.131   0.501  -4.693  1.00  0.00     0.074 A 
ATOM     62  C   UNL     1       7.850   5.264  -7.682  1.00  0.00     0.029 A 
ATOM     63  N   UNL     1       6.426   3.595  -7.902  1.00  0.00    -0.354 N 
ATOM     64  N   UNL     1       8.199   1.398  -5.642  1.00  0.00    -0.248 NA
ATOM     65  C   UNL     1       7.816  -0.828  -5.219  1.00  0.00     0.031 C 
ATOM     66  C   UNL     1       8.567   4.020  -7.711  1.00  0.00     0.029 A 
ATOM     67  C   UNL     1       7.655   2.993  -7.881  1.00  0.00     0.049 A 
ATOM     68  H   UNL     1       5.577   3.104  -7.995  1.00  0.00     0.167 HD
ATOM     69  C   UNL     1       7.836   0.831  -6.836  1.00  0.00     0.074 A 
ATOM     70  C   UNL     1       7.644  -0.575  -6.527  1.00  0.00     0.031 C 
ATOM     71  C   UNL     1       7.635   1.545  -7.983  1.00  0.00     0.031 A 
BRANCH  58  72
ATOM     72  C   UNL     1       4.637   6.847  -8.149  1.00  0.00    -0.014 A 
ATOM     73  C   UNL     1       5.459   7.720  -8.884  1.00  0.00     0.010 A 
ATOM     74  C   UNL     1       3.299   7.302  -7.999  1.00  0.00     0.010 A 
ATOM     75  C   UNL     1       5.007   8.984  -9.337  1.00  0.00     0.020 A 
ATOM     76  C   UNL     1       2.844   8.570  -8.400  1.00  0.00     0.020 A 
ATOM     77  C   UNL     1       3.709   9.416  -9.064  1.00  0.00     0.054 A 
BRANCH  77  78
ATOM     78  S   UNL     1       3.162  11.078  -9.546  1.00  0.00     0.124 S 
ATOM     79  O   UNL     1       4.219  11.931  -9.010  1.00  0.00    -0.237 OA
ATOM     80  O   UNL     1       3.104  10.979 -11.001  1.00  0.00    -0.237 OA
ATOM     81  O   UNL     1       1.865  11.225  -8.884  1.00  0.00    -0.744 OA
ENDBRANCH  77  78
ENDBRANCH  58  72
BRANCH  59  82
ATOM     82  C   UNL     1       7.785  -0.049  -2.064  1.00  0.00    -0.014 A 
ATOM     83  C   UNL     1       8.573  -0.068  -0.887  1.00  0.00     0.010 A 
ATOM     84  C   UNL     1       6.465  -0.525  -1.976  1.00  0.00     0.010 A 
ATOM     85  C   UNL     1       8.034  -0.444   0.349  1.00  0.00     0.020 A 
ATOM     86  C   UNL     1       5.924  -0.930  -0.735  1.00  0.00     0.020 A 
ATOM     87  C   UNL     1       6.705  -0.859   0.424  1.00  0.00     0.054 A 
BRANCH  87  88
ATOM     88  S   UNL     1       5.981  -1.088   2.083  1.00  0.00     0.124 S 
ATOM     89  O   UNL     1       6.487  -2.401   2.469  1.00  0.00    -0.237 OA
ATOM     90  O   UNL     1       6.547   0.036   2.829  1.00  0.00    -0.237 OA
ATOM     91  O   UNL     1       4.543  -1.007   1.849  1.00  0.00    -0.744 OA
ENDBRANCH  87  88
ENDBRANCH  59  82
BRANCH  71  92
ATOM     92  C   UNL     1       7.220   0.920  -9.295  1.00  0.00    -0.014 A 
ATOM     93  C   UNL     1       7.817  -0.255  -9.773  1.00  0.00     0.010 A 
ATOM     94  C   UNL     1       6.298   1.567 -10.155  1.00  0.00     0.010 A 
ATOM     95  C   UNL     1       7.462  -0.788 -11.021  1.00  0.00     0.020 A 
ATOM     96  C   UNL     1       5.949   1.054 -11.403  1.00  0.00     0.020 A 
ATOM     97  C   UNL     1       6.524  -0.134 -11.823  1.00  0.00     0.054 A 
BRANCH  97  98
ATOM     98  S   UNL     1       6.107  -0.815 -13.445  1.00  0.00     0.124 S 
ATOM     99  O   UNL     1       7.420  -1.127 -14.006  1.00  0.00    -0.237 OA
ATOM    100  O   UNL     1       5.287  -1.968 -13.086  1.00  0.00    -0.237 OA
ATOM    101  O   UNL     1       5.396   0.274 -14.111  1.00  0.00    -0.744 OA
ENDBRANCH  97  98
ENDBRANCH  71  92
ENDBRANCH  45  46
ENDBRANCH  38  40
ENDBRANCH  37  38
ENDBRANCH  36  37
ENDBRANCH  35  36
ENDBRANCH  34  35
ENDBRANCH  33  34
ENDBRANCH   1  33
TORSDOF 25
