REMARK SMILES C[C@@H](C(=O)OCCOCCOCCOC(=O)c1ccc(-c2c3nc(c(-c4ccc(S(=O)(=O)[O-])cc4)c4ccc([nH]4)c(-c4ccc(S(=O)(=O)[O-])cc4)c4nc(c(-c5ccc(S(=O)(=O)[O-])cc5)c5ccc2[nH]5)C=C4)C=C3)cc1)c1ccc(=O)n(C(F)F)c1
REMARK SMILES IDX 10 1 9 2 8 3 7 4 6 5 5 6 3 7 4 8 2 9 1 10 77 11 78 12 86 13
REMARK SMILES IDX 79 14 82 15 80 16 81 17 83 18 84 19 85 20 11 21 12 22 13 23
REMARK SMILES IDX 14 24 15 25 16 26 17 27 18 28 76 29 19 30 75 31 20 32 21 33
REMARK SMILES IDX 22 34 69 35 23 36 74 37 68 38 70 39 24 40 73 41 67 42 66 43
REMARK SMILES IDX 25 45 55 46 36 47 54 48 37 49 40 50 53 51 71 52 38 53 39 54
REMARK SMILES IDX 52 56 72 57 41 58 26 59 27 60 35 61 28 62 34 63 29 64 30 65
REMARK SMILES IDX 31 66 32 67 33 68 56 69 57 70 65 71 58 72 64 73 59 74 60 75
REMARK SMILES IDX 61 76 62 77 63 78 42 79 43 80 51 81 44 82 50 83 45 84 46 85
REMARK SMILES IDX 47 86 48 87 49 88
REMARK H PARENT 70 44 40 55
REMARK Flexibility Score: inf
ROOT
ATOM      1  C   UNL     1       1.043   2.013  -2.059  1.00  0.00     0.188 C 
ENDROOT
BRANCH   1   2
ATOM      2  C   UNL     1       0.334   3.352  -1.804  1.00  0.00     0.188 C 
BRANCH   2   3
ATOM      3  O   UNL     1       1.074   4.557  -1.961  1.00  0.00    -0.376 OA
BRANCH   3   4
ATOM      4  C   UNL     1       2.353   4.658  -1.339  1.00  0.00     0.202 C 
BRANCH   4   5
ATOM      5  C   UNL     1       2.514   4.219   0.130  1.00  0.00     0.261 C 
BRANCH   5   6
ATOM      6  O   UNL     1       2.046   2.882   0.408  1.00  0.00    -0.463 OA
BRANCH   6   7
ATOM      7  C   UNL     1       1.433   2.682   1.605  1.00  0.00     0.313 C 
ATOM      8  O   UNL     1       1.359   3.535   2.484  1.00  0.00    -0.252 OA
BRANCH   7   9
ATOM      9  C   UNL     1       0.714   1.315   1.715  1.00  0.00     0.127 C 
ATOM     10  C   UNL     1       1.469   0.172   1.011  1.00  0.00     0.025 C 
BRANCH   9  11
ATOM     11  C   UNL     1      -0.789   1.406   1.408  1.00  0.00    -0.017 A 
ATOM     12  C   UNL     1      -1.539   0.179   1.170  1.00  0.00     0.012 A 
ATOM     13  C   UNL     1      -1.487   2.560   1.401  1.00  0.00     0.099 A 
ATOM     14  C   UNL     1      -2.849   0.203   0.892  1.00  0.00     0.072 A 
ATOM     15  N   UNL     1      -2.850   2.611   1.155  1.00  0.00    -0.258 N 
ATOM     16  C   UNL     1      -3.591   1.488   0.837  1.00  0.00     0.254 A 
ATOM     17  O   UNL     1      -4.776   1.449   0.532  1.00  0.00    -0.269 OA
BRANCH  15  18
ATOM     18  C   UNL     1      -3.506   3.901   1.119  1.00  0.00     0.451 C 
ATOM     19  F   UNL     1      -3.456   4.403  -0.139  1.00  0.00    -0.185 F 
ATOM     20  F   UNL     1      -4.798   3.848   1.506  1.00  0.00    -0.185 F 
ENDBRANCH  15  18
ENDBRANCH   9  11
ENDBRANCH   7   9
ENDBRANCH   6   7
ENDBRANCH   5   6
ENDBRANCH   4   5
ENDBRANCH   3   4
ENDBRANCH   2   3
ENDBRANCH   1   2
BRANCH   1  21
ATOM     21  O   UNL     1       2.418   2.120  -2.341  1.00  0.00    -0.376 OA
BRANCH  21  22
ATOM     22  C   UNL     1       2.877   1.870  -3.657  1.00  0.00     0.202 C 
BRANCH  22  23
ATOM     23  C   UNL     1       2.100   2.322  -4.910  1.00  0.00     0.261 C 
BRANCH  23  24
ATOM     24  O   UNL     1       0.667   2.321  -4.854  1.00  0.00    -0.460 OA
BRANCH  24  25
ATOM     25  C   UNL     1       0.042   1.129  -5.000  1.00  0.00     0.338 C 
ATOM     26  O   UNL     1       0.576   0.041  -5.157  1.00  0.00    -0.246 OA
BRANCH  25  27
ATOM     27  C   UNL     1      -1.393   1.333  -4.695  1.00  0.00     0.060 A 
ATOM     28  C   UNL     1      -1.959   0.677  -3.591  1.00  0.00     0.016 A 
ATOM     29  C   UNL     1      -2.172   2.182  -5.483  1.00  0.00     0.016 A 
ATOM     30  C   UNL     1      -3.311   0.852  -3.287  1.00  0.00     0.010 A 
ATOM     31  C   UNL     1      -3.532   2.334  -5.193  1.00  0.00     0.010 A 
ATOM     32  C   UNL     1      -4.115   1.649  -4.112  1.00  0.00    -0.014 A 
BRANCH  32  33
ATOM     33  C   UNL     1      -5.592   1.636  -3.953  1.00  0.00     0.031 A 
ATOM     34  C   UNL     1      -6.402   0.740  -4.846  1.00  0.00     0.074 A 
ATOM     35  C   UNL     1      -6.211   2.401  -3.036  1.00  0.00     0.049 A 
ATOM     36  N   UNL     1      -7.699   0.606  -4.926  1.00  0.00    -0.248 NA
ATOM     37  C   UNL     1      -5.646  -0.107  -5.783  1.00  0.00     0.031 C 
ATOM     38  C   UNL     1      -5.533   3.277  -2.090  1.00  0.00     0.029 A 
ATOM     39  N   UNL     1      -7.544   2.557  -2.743  1.00  0.00    -0.354 N 
ATOM     40  C   UNL     1      -7.919  -0.316  -5.940  1.00  0.00     0.074 A 
ATOM     41  C   UNL     1      -6.622  -0.699  -6.455  1.00  0.00     0.031 C 
ATOM     42  C   UNL     1      -6.449   3.857  -1.296  1.00  0.00     0.029 A 
ATOM     43  C   UNL     1      -7.783   3.437  -1.711  1.00  0.00     0.049 A 
ATOM     44  H   UNL     1      -8.261   2.085  -3.224  1.00  0.00     0.167 HD
ATOM     45  C   UNL     1      -9.098  -0.792  -6.405  1.00  0.00     0.031 A 
ATOM     46  C   UNL     1      -8.942   3.868  -1.171  1.00  0.00     0.031 A 
ATOM     47  C   UNL     1     -10.385  -0.394  -5.899  1.00  0.00     0.049 A 
ATOM     48  C   UNL     1     -10.241   3.361  -1.745  1.00  0.00     0.074 A 
ATOM     49  C   UNL     1     -11.636  -0.826  -6.304  1.00  0.00     0.029 A 
ATOM     50  N   UNL     1     -10.590   0.532  -4.886  1.00  0.00    -0.354 N 
ATOM     51  N   UNL     1     -10.436   2.482  -2.700  1.00  0.00    -0.248 NA
ATOM     52  C   UNL     1     -11.480   3.913  -1.176  1.00  0.00     0.031 C 
ATOM     53  C   UNL     1     -12.598  -0.111  -5.584  1.00  0.00     0.029 A 
ATOM     54  C   UNL     1     -11.947   0.709  -4.676  1.00  0.00     0.049 A 
ATOM     55  H   UNL     1      -9.876   0.996  -4.391  1.00  0.00     0.167 HD
ATOM     56  C   UNL     1     -11.815   2.360  -2.830  1.00  0.00     0.074 A 
ATOM     57  C   UNL     1     -12.407   3.238  -1.842  1.00  0.00     0.031 C 
ATOM     58  C   UNL     1     -12.526   1.590  -3.691  1.00  0.00     0.031 A 
BRANCH  45  59
ATOM     59  C   UNL     1      -9.045  -1.753  -7.562  1.00  0.00    -0.014 A 
ATOM     60  C   UNL     1      -8.556  -3.063  -7.409  1.00  0.00     0.010 A 
ATOM     61  C   UNL     1      -9.521  -1.342  -8.821  1.00  0.00     0.010 A 
ATOM     62  C   UNL     1      -8.508  -3.930  -8.504  1.00  0.00     0.020 A 
ATOM     63  C   UNL     1      -9.504  -2.216  -9.910  1.00  0.00     0.020 A 
ATOM     64  C   UNL     1      -8.982  -3.501  -9.747  1.00  0.00     0.054 A 
BRANCH  64  65
ATOM     65  S   UNL     1      -8.930  -4.657 -11.143  1.00  0.00     0.124 S 
ATOM     66  O   UNL     1      -7.497  -4.735 -11.417  1.00  0.00    -0.237 OA
ATOM     67  O   UNL     1      -9.528  -5.864 -10.580  1.00  0.00    -0.237 OA
ATOM     68  O   UNL     1      -9.725  -3.994 -12.174  1.00  0.00    -0.744 OA
ENDBRANCH  64  65
ENDBRANCH  45  59
BRANCH  46  69
ATOM     69  C   UNL     1      -8.939   4.854  -0.050  1.00  0.00    -0.014 A 
ATOM     70  C   UNL     1      -9.432   4.504   1.221  1.00  0.00     0.010 A 
ATOM     71  C   UNL     1      -8.460   6.162  -0.251  1.00  0.00     0.010 A 
ATOM     72  C   UNL     1      -9.468   5.445   2.257  1.00  0.00     0.020 A 
ATOM     73  C   UNL     1      -8.460   7.096   0.791  1.00  0.00     0.020 A 
ATOM     74  C   UNL     1      -8.978   6.735   2.036  1.00  0.00     0.054 A 
BRANCH  74  75
ATOM     75  S   UNL     1      -8.994   7.929   3.404  1.00  0.00     0.124 S 
ATOM     76  O   UNL     1     -10.416   8.232   3.530  1.00  0.00    -0.237 OA
ATOM     77  O   UNL     1      -8.411   7.162   4.503  1.00  0.00    -0.237 OA
ATOM     78  O   UNL     1      -8.162   9.026   2.913  1.00  0.00    -0.744 OA
ENDBRANCH  74  75
ENDBRANCH  46  69
BRANCH  58  79
ATOM     79  C   UNL     1     -14.030   1.631  -3.585  1.00  0.00    -0.014 A 
ATOM     80  C   UNL     1     -14.765   2.763  -3.979  1.00  0.00     0.010 A 
ATOM     81  C   UNL     1     -14.721   0.489  -3.137  1.00  0.00     0.010 A 
ATOM     82  C   UNL     1     -16.161   2.763  -3.897  1.00  0.00     0.020 A 
ATOM     83  C   UNL     1     -16.117   0.474  -3.085  1.00  0.00     0.020 A 
ATOM     84  C   UNL     1     -16.828   1.617  -3.453  1.00  0.00     0.054 A 
BRANCH  84  85
ATOM     85  S   UNL     1     -18.641   1.627  -3.402  1.00  0.00     0.124 S 
ATOM     86  O   UNL     1     -18.910   2.518  -2.276  1.00  0.00    -0.237 OA
ATOM     87  O   UNL     1     -18.996   2.153  -4.718  1.00  0.00    -0.237 OA
ATOM     88  O   UNL     1     -18.991   0.226  -3.183  1.00  0.00    -0.744 OA
ENDBRANCH  84  85
ENDBRANCH  58  79
ENDBRANCH  32  33
ENDBRANCH  25  27
ENDBRANCH  24  25
ENDBRANCH  23  24
ENDBRANCH  22  23
ENDBRANCH  21  22
ENDBRANCH   1  21
TORSDOF 22
