REMARK SMILES C[C@H]1CC[C@@](NC(=O)N[C@H]2CCOC2)(C(=O)OCCOCCOCCOC(=O)c2ccc(-c3c4nc(c(-c5ccc(S(=O)(=O)[O-])cc5)c5ccc([nH]5)c(-c5ccc(S(=O)(=O)[O-])cc5)c5nc(c(-c6ccc(S(=O)(=O)[O-])cc6)c6ccc3[nH]6)C=C5)C=C4)cc2)CC1
REMARK SMILES IDX 22 1 21 2 20 3 19 4 18 5 17 6 15 7 16 8 5 9 1 10 2 11 90 12
REMARK SMILES IDX 3 13 89 14 4 15 6 16 7 17 8 19 9 20 10 22 11 23 14 24 12 25
REMARK SMILES IDX 13 26 23 27 24 28 25 29 26 30 27 31 28 32 29 33 30 34 88 35
REMARK SMILES IDX 31 36 87 37 32 38 33 39 34 40 81 41 35 42 86 43 80 44 82 45
REMARK SMILES IDX 36 46 85 47 79 48 78 49 37 51 67 52 48 53 66 54 49 55 52 56
REMARK SMILES IDX 65 57 83 58 50 59 51 60 64 62 84 63 53 64 38 65 39 66 47 67
REMARK SMILES IDX 40 68 46 69 41 70 42 71 43 72 44 73 45 74 68 75 69 76 77 77
REMARK SMILES IDX 70 78 76 79 71 80 72 81 73 82 74 83 75 84 54 85 55 86 63 87
REMARK SMILES IDX 56 88 62 89 57 90 58 91 59 92 60 93 61 94
REMARK H PARENT 6 18 9 21 82 50 52 61
REMARK Flexibility Score: inf
ROOT
ATOM      1  C   UNL     1      -4.571   0.578   0.716  1.00  0.00     0.188 C 
ENDROOT
BRANCH   1   2
ATOM      2  C   UNL     1      -3.034   0.675   0.752  1.00  0.00     0.188 C 
BRANCH   2   3
ATOM      3  O   UNL     1      -2.557   1.858   0.113  1.00  0.00    -0.376 OA
BRANCH   3   4
ATOM      4  C   UNL     1      -2.344   1.722  -1.288  1.00  0.00     0.202 C 
BRANCH   4   5
ATOM      5  C   UNL     1      -3.623   1.915  -2.108  1.00  0.00     0.261 C 
BRANCH   5   6
ATOM      6  O   UNL     1      -4.236   0.791  -2.791  1.00  0.00    -0.461 OA
BRANCH   6   7
ATOM      7  C   UNL     1      -4.127  -0.521  -2.455  1.00  0.00     0.331 C 
ATOM      8  O   UNL     1      -3.508  -0.965  -1.497  1.00  0.00    -0.249 OA
BRANCH   7   9
ATOM      9  C   UNL     1      -4.881  -1.405  -3.450  1.00  0.00     0.139 C 
ATOM     10  C   UNL     1      -7.225  -3.292  -0.211  1.00  0.00     0.007 C 
ATOM     11  C   UNL     1      -6.764  -2.982  -1.639  1.00  0.00    -0.014 C 
ATOM     12  C   UNL     1      -5.300  -3.393  -1.852  1.00  0.00     0.006 C 
ATOM     13  C   UNL     1      -6.993  -1.501  -1.949  1.00  0.00     0.006 C 
ATOM     14  C   UNL     1      -4.718  -2.916  -3.196  1.00  0.00     0.041 C 
ATOM     15  C   UNL     1      -6.397  -1.074  -3.292  1.00  0.00     0.041 C 
BRANCH   9  16
ATOM     16  N   UNL     1      -4.471  -1.021  -4.831  1.00  0.00    -0.322 N 
ATOM     17  C   UNL     1      -3.364  -0.932  -5.569  1.00  0.00     0.316 C 
ATOM     18  H   UNL     1      -5.257  -0.750  -5.359  1.00  0.00     0.166 HD
ATOM     19  O   UNL     1      -3.538  -0.830  -6.789  1.00  0.00    -0.249 OA
ATOM     20  N   UNL     1      -2.099  -0.891  -5.151  1.00  0.00    -0.333 N 
ATOM     21  H   UNL     1      -1.469  -0.964  -5.904  1.00  0.00     0.165 HD
BRANCH  20  22
ATOM     22  C   UNL     1      -1.400  -0.767  -3.889  1.00  0.00     0.112 C 
ATOM     23  C   UNL     1      -0.848  -2.050  -3.321  1.00  0.00     0.056 C 
ATOM     24  C   UNL     1      -0.145   0.107  -3.903  1.00  0.00     0.185 C 
ATOM     25  C   UNL     1       0.107  -1.530  -2.265  1.00  0.00     0.162 C 
ATOM     26  O   UNL     1       0.636  -0.287  -2.760  1.00  0.00    -0.379 OA
ENDBRANCH  20  22
ENDBRANCH   9  16
ENDBRANCH   7   9
ENDBRANCH   6   7
ENDBRANCH   5   6
ENDBRANCH   4   5
ENDBRANCH   3   4
ENDBRANCH   2   3
ENDBRANCH   1   2
BRANCH   1  27
ATOM     27  O   UNL     1      -5.306   1.705   1.186  1.00  0.00    -0.376 OA
BRANCH  27  28
ATOM     28  C   UNL     1      -4.767   2.348   2.331  1.00  0.00     0.202 C 
BRANCH  28  29
ATOM     29  C   UNL     1      -4.764   1.518   3.626  1.00  0.00     0.261 C 
BRANCH  29  30
ATOM     30  O   UNL     1      -4.123   0.226   3.500  1.00  0.00    -0.460 OA
BRANCH  30  31
ATOM     31  C   UNL     1      -4.868  -0.840   3.882  1.00  0.00     0.338 C 
ATOM     32  O   UNL     1      -5.982  -0.808   4.379  1.00  0.00    -0.246 OA
BRANCH  31  33
ATOM     33  C   UNL     1      -4.200  -2.127   3.579  1.00  0.00     0.060 A 
ATOM     34  C   UNL     1      -4.431  -2.752   2.350  1.00  0.00     0.016 A 
ATOM     35  C   UNL     1      -3.597  -2.847   4.610  1.00  0.00     0.016 A 
ATOM     36  C   UNL     1      -4.160  -4.111   2.176  1.00  0.00     0.010 A 
ATOM     37  C   UNL     1      -3.291  -4.205   4.423  1.00  0.00     0.010 A 
ATOM     38  C   UNL     1      -3.634  -4.867   3.228  1.00  0.00    -0.014 A 
BRANCH  38  39
ATOM     39  C   UNL     1      -3.645  -6.358   3.148  1.00  0.00     0.031 A 
ATOM     40  C   UNL     1      -4.543  -7.133   4.085  1.00  0.00     0.074 A 
ATOM     41  C   UNL     1      -2.954  -7.033   2.209  1.00  0.00     0.049 A 
ATOM     42  N   UNL     1      -4.585  -8.419   4.323  1.00  0.00    -0.248 NA
ATOM     43  C   UNL     1      -5.522  -6.349   4.858  1.00  0.00     0.031 C 
ATOM     44  C   UNL     1      -2.145  -6.433   1.148  1.00  0.00     0.029 A 
ATOM     45  N   UNL     1      -2.835  -8.386   1.992  1.00  0.00    -0.354 N 
ATOM     46  C   UNL     1      -5.543  -8.590   5.318  1.00  0.00     0.074 A 
ATOM     47  C   UNL     1      -6.063  -7.277   5.633  1.00  0.00     0.031 C 
ATOM     48  C   UNL     1      -1.630  -7.411   0.383  1.00  0.00     0.029 A 
ATOM     49  C   UNL     1      -2.003  -8.707   0.946  1.00  0.00     0.049 A 
ATOM     50  H   UNL     1      -3.303  -9.061   2.535  1.00  0.00     0.167 HD
ATOM     51  C   UNL     1      -5.948  -9.733   5.922  1.00  0.00     0.031 A 
ATOM     52  C   UNL     1      -1.549  -9.902   0.516  1.00  0.00     0.031 A 
ATOM     53  C   UNL     1      -5.471 -11.046   5.577  1.00  0.00     0.049 A 
ATOM     54  C   UNL     1      -1.956 -11.157   1.244  1.00  0.00     0.074 A 
ATOM     55  C   UNL     1      -5.808 -12.263   6.146  1.00  0.00     0.029 A 
ATOM     56  N   UNL     1      -4.574 -11.318   4.557  1.00  0.00    -0.354 N 
ATOM     57  N   UNL     1      -2.774 -11.293   2.260  1.00  0.00    -0.248 NA
ATOM     58  C   UNL     1      -1.360 -12.416   0.776  1.00  0.00     0.031 C 
ATOM     59  C   UNL     1      -5.080 -13.267   5.496  1.00  0.00     0.029 A 
ATOM     60  C   UNL     1      -4.332 -12.680   4.489  1.00  0.00     0.049 A 
ATOM     61  H   UNL     1      -4.167 -10.642   3.968  1.00  0.00     0.167 HD
ATOM     62  C   UNL     1      -2.793 -12.655   2.549  1.00  0.00     0.074 A 
ATOM     63  C   UNL     1      -1.930 -13.301   1.582  1.00  0.00     0.031 C 
ATOM     64  C   UNL     1      -3.460 -13.310   3.532  1.00  0.00     0.031 A 
BRANCH  51  65
ATOM     65  C   UNL     1      -6.912  -9.604   7.073  1.00  0.00    -0.014 A 
ATOM     66  C   UNL     1      -8.268  -9.294   6.875  1.00  0.00     0.010 A 
ATOM     67  C   UNL     1      -6.442  -9.823   8.382  1.00  0.00     0.010 A 
ATOM     68  C   UNL     1      -9.128  -9.165   7.971  1.00  0.00     0.020 A 
ATOM     69  C   UNL     1      -7.304  -9.721   9.476  1.00  0.00     0.020 A 
ATOM     70  C   UNL     1      -8.639  -9.374   9.265  1.00  0.00     0.054 A 
BRANCH  70  71
ATOM     71  S   UNL     1      -9.777  -9.216  10.669  1.00  0.00     0.124 S 
ATOM     72  O   UNL     1      -9.933  -7.767  10.767  1.00  0.00    -0.237 OA
ATOM     73  O   UNL     1     -10.957  -9.945  10.211  1.00  0.00    -0.237 OA
ATOM     74  O   UNL     1      -9.053  -9.840  11.774  1.00  0.00    -0.744 OA
ENDBRANCH  70  71
ENDBRANCH  51  65
BRANCH  52  75
ATOM     75  C   UNL     1      -0.588  -9.968  -0.621  1.00  0.00    -0.014 A 
ATOM     76  C   UNL     1      -0.961 -10.539  -1.850  1.00  0.00     0.010 A 
ATOM     77  C   UNL     1       0.716  -9.460  -0.471  1.00  0.00     0.010 A 
ATOM     78  C   UNL     1      -0.045 -10.605  -2.906  1.00  0.00     0.020 A 
ATOM     79  C   UNL     1       1.623  -9.496  -1.533  1.00  0.00     0.020 A 
ATOM     80  C   UNL     1       1.239 -10.078  -2.742  1.00  0.00     0.054 A 
BRANCH  80  81
ATOM     81  S   UNL     1       2.389 -10.104  -4.145  1.00  0.00     0.124 S 
ATOM     82  O   UNL     1       2.828 -11.496  -4.152  1.00  0.00    -0.237 OA
ATOM     83  O   UNL     1       1.537  -9.702  -5.261  1.00  0.00    -0.237 OA
ATOM     84  O   UNL     1       3.407  -9.126  -3.767  1.00  0.00    -0.744 OA
ENDBRANCH  80  81
ENDBRANCH  52  75
BRANCH  64  85
ATOM     85  C   UNL     1      -3.296 -14.806   3.594  1.00  0.00    -0.014 A 
ATOM     86  C   UNL     1      -2.094 -15.388   4.037  1.00  0.00     0.010 A 
ATOM     87  C   UNL     1      -4.363 -15.641   3.218  1.00  0.00     0.010 A 
ATOM     88  C   UNL     1      -1.946 -16.778   4.055  1.00  0.00     0.020 A 
ATOM     89  C   UNL     1      -4.228 -17.031   3.259  1.00  0.00     0.020 A 
ATOM     90  C   UNL     1      -3.012 -17.590   3.656  1.00  0.00     0.054 A 
BRANCH  90  91
ATOM     91  S   UNL     1      -2.800 -19.392   3.688  1.00  0.00     0.124 S 
ATOM     92  O   UNL     1      -1.991 -19.622   2.494  1.00  0.00    -0.237 OA
ATOM     93  O   UNL     1      -2.120 -19.616   4.961  1.00  0.00    -0.237 OA
ATOM     94  O   UNL     1      -4.168 -19.902   3.621  1.00  0.00    -0.744 OA
ENDBRANCH  90  91
ENDBRANCH  64  85
ENDBRANCH  38  39
ENDBRANCH  31  33
ENDBRANCH  30  31
ENDBRANCH  29  30
ENDBRANCH  28  29
ENDBRANCH  27  28
ENDBRANCH   1  27
TORSDOF 22
