REMARK SMILES O=C(NCc1ccc(C(=O)OCCOCCOCCOC(=O)c2ccc(-c3c4nc(c(-c5ccc(S(=O)(=O)[O-])cc5)c5ccc([nH]5)c(-c5ccc(S(=O)(=O)[O-])cc5)c5nc(c(-c6ccc(S(=O)(=O)[O-])cc6)c6ccc3[nH]6)C=C5)C=C4)cc2)o1)c1ccc(Cl)cc1
REMARK SMILES IDX 15 1 14 2 13 3 12 4 11 5 9 6 10 7 8 8 5 9 6 10 83 11 7 12
REMARK SMILES IDX 4 13 3 14 1 15 2 16 84 18 85 19 90 20 86 21 89 22 87 23
REMARK SMILES IDX 88 24 16 25 17 26 18 27 19 28 20 29 21 30 22 31 23 32 24 33
REMARK SMILES IDX 82 34 25 35 81 36 26 37 27 38 28 39 75 40 29 41 80 42 74 43
REMARK SMILES IDX 76 44 30 45 79 46 73 47 72 48 31 50 61 51 42 52 60 53 43 54
REMARK SMILES IDX 46 55 59 56 77 57 44 58 45 59 58 61 78 62 47 63 32 64 33 65
REMARK SMILES IDX 41 66 34 67 40 68 35 69 36 70 37 71 38 72 39 73 62 74 63 75
REMARK SMILES IDX 71 76 64 77 70 78 65 79 66 80 67 81 68 82 69 83 48 84 49 85
REMARK SMILES IDX 57 86 50 87 56 88 51 89 52 90 53 91 54 92 55 93
REMARK H PARENT 3 17 76 49 46 60
REMARK Flexibility Score: inf
ROOT
ATOM      1  C   UNL     1       3.109  -6.925   0.672  1.00  0.00     0.188 C 
ENDROOT
BRANCH   1   2
ATOM      2  O   UNL     1       3.428  -8.303   0.502  1.00  0.00    -0.376 OA
BRANCH   2   3
ATOM      3  C   UNL     1       4.657  -8.803   1.022  1.00  0.00     0.202 C 
BRANCH   3   4
ATOM      4  C   UNL     1       5.938  -8.186   0.460  1.00  0.00     0.261 C 
BRANCH   4   5
ATOM      5  O   UNL     1       6.084  -6.811   0.854  1.00  0.00    -0.457 OA
BRANCH   5   6
ATOM      6  C   UNL     1       6.328  -5.933  -0.164  1.00  0.00     0.374 C 
ATOM      7  O   UNL     1       6.609  -6.259  -1.311  1.00  0.00    -0.242 OA
BRANCH   6   8
ATOM      8  C   UNL     1       6.099  -4.582   0.290  1.00  0.00     0.211 A 
ATOM      9  C   UNL     1       5.401  -2.506   0.019  1.00  0.00     0.124 A 
ATOM     10  C   UNL     1       5.742  -2.627   1.349  1.00  0.00     0.048 A 
ATOM     11  O   UNL     1       5.635  -3.679  -0.628  1.00  0.00    -0.452 OA
ATOM     12  C   UNL     1       6.190  -3.961   1.525  1.00  0.00     0.058 A 
BRANCH   9  13
ATOM     13  C   UNL     1       4.885  -1.393  -0.814  1.00  0.00     0.191 C 
BRANCH  13  14
ATOM     14  N   UNL     1       3.449  -1.287  -0.640  1.00  0.00    -0.345 N 
ATOM     15  O   UNL     1       1.489  -0.647   0.243  1.00  0.00    -0.269 OA
ATOM     16  C   UNL     1       2.688  -0.419   0.095  1.00  0.00     0.251 C 
ATOM     17  H   UNL     1       2.930  -1.958  -1.139  1.00  0.00     0.164 HD
BRANCH  16  18
ATOM     18  C   UNL     1       3.285   0.762   0.765  1.00  0.00     0.039 A 
ATOM     19  C   UNL     1       4.198   1.609   0.127  1.00  0.00     0.015 A 
ATOM     20  C   UNL     1       2.859   1.061   2.067  1.00  0.00     0.015 A 
ATOM     21  C   UNL     1       4.762   2.682   0.823  1.00  0.00     0.021 A 
ATOM     22  C   UNL     1       3.405   2.149   2.754  1.00  0.00     0.021 A 
ATOM     23  C   UNL     1       4.372   2.941   2.137  1.00  0.00     0.041 A 
ATOM     24  Cl  UNL     1       5.082   4.251   2.997  1.00  0.00    -0.084 Cl
ENDBRANCH  16  18
ENDBRANCH  13  14
ENDBRANCH   9  13
ENDBRANCH   6   8
ENDBRANCH   5   6
ENDBRANCH   4   5
ENDBRANCH   3   4
ENDBRANCH   2   3
ENDBRANCH   1   2
BRANCH   1  25
ATOM     25  C   UNL     1       3.263  -6.310   2.076  1.00  0.00     0.188 C 
BRANCH  25  26
ATOM     26  O   UNL     1       3.407  -7.280   3.102  1.00  0.00    -0.376 OA
BRANCH  26  27
ATOM     27  C   UNL     1       2.354  -7.366   4.047  1.00  0.00     0.202 C 
BRANCH  27  28
ATOM     28  C   UNL     1       1.036  -7.942   3.520  1.00  0.00     0.261 C 
BRANCH  28  29
ATOM     29  O   UNL     1       0.475  -7.273   2.382  1.00  0.00    -0.460 OA
BRANCH  29  30
ATOM     30  C   UNL     1      -0.038  -6.036   2.574  1.00  0.00     0.338 C 
ATOM     31  O   UNL     1      -0.040  -5.397   3.609  1.00  0.00    -0.246 OA
BRANCH  30  32
ATOM     32  C   UNL     1      -0.462  -5.532   1.249  1.00  0.00     0.060 A 
ATOM     33  C   UNL     1       0.058  -4.325   0.769  1.00  0.00     0.016 A 
ATOM     34  C   UNL     1      -1.354  -6.278   0.470  1.00  0.00     0.016 A 
ATOM     35  C   UNL     1      -0.316  -3.861  -0.497  1.00  0.00     0.010 A 
ATOM     36  C   UNL     1      -1.737  -5.804  -0.786  1.00  0.00     0.010 A 
ATOM     37  C   UNL     1      -1.229  -4.589  -1.273  1.00  0.00    -0.014 A 
BRANCH  37  38
ATOM     38  C   UNL     1      -1.762  -4.038  -2.542  1.00  0.00     0.031 A 
ATOM     39  C   UNL     1      -3.035  -3.240  -2.509  1.00  0.00     0.074 A 
ATOM     40  C   UNL     1      -1.148  -4.279  -3.715  1.00  0.00     0.049 A 
ATOM     41  N   UNL     1      -3.725  -2.739  -3.500  1.00  0.00    -0.248 NA
ATOM     42  C   UNL     1      -3.608  -2.979  -1.178  1.00  0.00     0.031 C 
ATOM     43  C   UNL     1       0.107  -5.011  -3.879  1.00  0.00     0.029 A 
ATOM     44  N   UNL     1      -1.512  -3.942  -4.995  1.00  0.00    -0.354 N 
ATOM     45  C   UNL     1      -4.810  -2.097  -2.916  1.00  0.00     0.074 A 
ATOM     46  C   UNL     1      -4.701  -2.297  -1.486  1.00  0.00     0.031 C 
ATOM     47  C   UNL     1       0.404  -5.076  -5.190  1.00  0.00     0.029 A 
ATOM     48  C   UNL     1      -0.656  -4.423  -5.957  1.00  0.00     0.049 A 
ATOM     49  H   UNL     1      -2.311  -3.406  -5.205  1.00  0.00     0.167 HD
ATOM     50  C   UNL     1      -5.807  -1.402  -3.513  1.00  0.00     0.031 A 
ATOM     51  C   UNL     1      -0.732  -4.365  -7.302  1.00  0.00     0.031 A 
ATOM     52  C   UNL     1      -5.937  -1.234  -4.935  1.00  0.00     0.049 A 
ATOM     53  C   UNL     1      -1.905  -3.676  -7.950  1.00  0.00     0.074 A 
ATOM     54  C   UNL     1      -6.911  -0.544  -5.636  1.00  0.00     0.029 A 
ATOM     55  N   UNL     1      -5.075  -1.776  -5.876  1.00  0.00    -0.354 N 
ATOM     56  N   UNL     1      -2.911  -3.053  -7.384  1.00  0.00    -0.248 NA
ATOM     57  C   UNL     1      -1.955  -3.688  -9.420  1.00  0.00     0.031 C 
ATOM     58  C   UNL     1      -6.664  -0.710  -7.003  1.00  0.00     0.029 A 
ATOM     59  C   UNL     1      -5.510  -1.462  -7.152  1.00  0.00     0.049 A 
ATOM     60  H   UNL     1      -4.271  -2.305  -5.667  1.00  0.00     0.167 HD
ATOM     61  C   UNL     1      -3.702  -2.582  -8.428  1.00  0.00     0.074 A 
ATOM     62  C   UNL     1      -3.054  -2.984  -9.659  1.00  0.00     0.031 C 
ATOM     63  C   UNL     1      -4.858  -1.875  -8.370  1.00  0.00     0.031 A 
BRANCH  50  64
ATOM     64  C   UNL     1      -6.856  -0.805  -2.616  1.00  0.00    -0.014 A 
ATOM     65  C   UNL     1      -6.573   0.323  -1.825  1.00  0.00     0.010 A 
ATOM     66  C   UNL     1      -8.139  -1.378  -2.564  1.00  0.00     0.010 A 
ATOM     67  C   UNL     1      -7.542   0.839  -0.961  1.00  0.00     0.020 A 
ATOM     68  C   UNL     1      -9.117  -0.851  -1.717  1.00  0.00     0.020 A 
ATOM     69  C   UNL     1      -8.805   0.242  -0.905  1.00  0.00     0.054 A 
BRANCH  69  70
ATOM     70  S   UNL     1     -10.045   0.925   0.230  1.00  0.00     0.124 S 
ATOM     71  O   UNL     1      -9.580   0.423   1.520  1.00  0.00    -0.237 OA
ATOM     72  O   UNL     1      -9.908   2.365   0.030  1.00  0.00    -0.237 OA
ATOM     73  O   UNL     1     -11.302   0.351  -0.245  1.00  0.00    -0.744 OA
ENDBRANCH  69  70
ENDBRANCH  50  64
BRANCH  51  74
ATOM     74  C   UNL     1       0.327  -4.998  -8.134  1.00  0.00    -0.014 A 
ATOM     75  C   UNL     1       1.248  -4.205  -8.840  1.00  0.00     0.010 A 
ATOM     76  C   UNL     1       0.422  -6.399  -8.220  1.00  0.00     0.010 A 
ATOM     77  C   UNL     1       2.241  -4.801  -9.623  1.00  0.00     0.020 A 
ATOM     78  C   UNL     1       1.427  -6.998  -8.985  1.00  0.00     0.020 A 
ATOM     79  C   UNL     1       2.325  -6.194  -9.690  1.00  0.00     0.054 A 
BRANCH  79  80
ATOM     80  S   UNL     1       3.659  -6.947 -10.665  1.00  0.00     0.124 S 
ATOM     81  O   UNL     1       3.176  -6.765 -12.030  1.00  0.00    -0.237 OA
ATOM     82  O   UNL     1       4.819  -6.142 -10.291  1.00  0.00    -0.237 OA
ATOM     83  O   UNL     1       3.690  -8.329 -10.190  1.00  0.00    -0.744 OA
ENDBRANCH  79  80
ENDBRANCH  51  74
BRANCH  63  84
ATOM     84  C   UNL     1      -5.492  -1.468  -9.672  1.00  0.00    -0.014 A 
ATOM     85  C   UNL     1      -6.197  -2.397 -10.457  1.00  0.00     0.010 A 
ATOM     86  C   UNL     1      -5.446  -0.121 -10.077  1.00  0.00     0.010 A 
ATOM     87  C   UNL     1      -6.830  -1.989 -11.635  1.00  0.00     0.020 A 
ATOM     88  C   UNL     1      -6.096   0.294 -11.242  1.00  0.00     0.020 A 
ATOM     89  C   UNL     1      -6.777  -0.645 -12.019  1.00  0.00     0.054 A 
BRANCH  89  90
ATOM     90  S   UNL     1      -7.660  -0.126 -13.517  1.00  0.00     0.124 S 
ATOM     91  O   UNL     1      -6.776  -0.608 -14.574  1.00  0.00    -0.237 OA
ATOM     92  O   UNL     1      -8.937  -0.827 -13.399  1.00  0.00    -0.237 OA
ATOM     93  O   UNL     1      -7.741   1.327 -13.385  1.00  0.00    -0.744 OA
ENDBRANCH  89  90
ENDBRANCH  63  84
ENDBRANCH  37  38
ENDBRANCH  30  32
ENDBRANCH  29  30
ENDBRANCH  28  29
ENDBRANCH  27  28
ENDBRANCH  26  27
ENDBRANCH  25  26
ENDBRANCH   1  25
TORSDOF 23
