REMARK SMILES O=C(OCCOCCOCCOC(=O)[C@@H](Cc1c[nH]c2ccccc12)Nc1ncnc2ccccc12)c1ccc(-c2c3nc(c(-c4ccc(S(=O)(=O)[O-])cc4)c4ccc([nH]4)c(-c4ccc(S(=O)(=O)[O-])cc4)c4nc(c(-c5ccc(S(=O)(=O)[O-])cc5)c5ccc2[nH]5)C=C4)C=C3)cc1
REMARK SMILES IDX 7 1 6 2 5 3 4 4 3 5 2 6 1 7 37 8 38 9 96 10 39 11 95 12
REMARK SMILES IDX 40 13 41 14 42 15 89 16 43 17 94 18 88 19 90 20 44 21 93 22
REMARK SMILES IDX 87 23 86 24 45 26 75 27 56 28 74 29 57 30 60 31 73 32 91 33
REMARK SMILES IDX 58 34 59 35 72 37 92 38 61 39 46 40 47 41 55 42 48 43 54 44
REMARK SMILES IDX 49 45 50 46 51 47 52 48 53 49 76 50 77 51 85 52 78 53 84 54
REMARK SMILES IDX 79 55 80 56 81 57 82 58 83 59 62 60 63 61 71 62 64 63 70 64
REMARK SMILES IDX 65 65 66 66 67 67 68 68 69 69 8 70 9 71 10 72 11 73 12 74
REMARK SMILES IDX 13 75 14 76 15 77 16 78 17 79 18 80 25 81 19 82 20 83 24 84
REMARK SMILES IDX 21 86 23 87 22 88 26 89 27 91 28 92 36 93 29 94 31 95 35 96
REMARK SMILES IDX 30 97 32 98 34 99 33 100
REMARK H PARENT 90 25 60 36 19 85 26 90
REMARK Flexibility Score: inf
ROOT
ATOM      1  C   UNL     1       2.081   0.736  -1.796  1.00  0.00     0.188 C 
ENDROOT
BRANCH   1   2
ATOM      2  O   UNL     1       3.390   0.687  -1.219  1.00  0.00    -0.376 OA
BRANCH   2   3
ATOM      3  C   UNL     1       3.934  -0.637  -1.170  1.00  0.00     0.202 C 
BRANCH   3   4
ATOM      4  C   UNL     1       3.575  -1.402   0.110  1.00  0.00     0.261 C 
BRANCH   4   5
ATOM      5  O   UNL     1       2.146  -1.388   0.341  1.00  0.00    -0.460 OA
BRANCH   5   6
ATOM      6  C   UNL     1       1.531  -1.093   1.519  1.00  0.00     0.338 C 
ATOM      7  O   UNL     1       0.406  -1.520   1.756  1.00  0.00    -0.246 OA
BRANCH   6   8
ATOM      8  C   UNL     1       2.204  -0.226   2.525  1.00  0.00     0.060 A 
ATOM      9  C   UNL     1       3.018   0.828   2.136  1.00  0.00     0.016 A 
ATOM     10  C   UNL     1       1.996  -0.436   3.894  1.00  0.00     0.016 A 
ATOM     11  C   UNL     1       3.784   1.509   3.079  1.00  0.00     0.010 A 
ATOM     12  C   UNL     1       2.694   0.328   4.849  1.00  0.00     0.010 A 
ATOM     13  C   UNL     1       3.658   1.266   4.446  1.00  0.00    -0.014 A 
BRANCH  13  14
ATOM     14  C   UNL     1       4.673   1.858   5.373  1.00  0.00     0.031 A 
ATOM     15  C   UNL     1       5.567   0.932   6.158  1.00  0.00     0.074 A 
ATOM     16  C   UNL     1       4.946   3.182   5.396  1.00  0.00     0.049 A 
ATOM     17  N   UNL     1       6.423   1.212   7.106  1.00  0.00    -0.248 NA
ATOM     18  C   UNL     1       5.477  -0.503   5.842  1.00  0.00     0.031 C 
ATOM     19  C   UNL     1       4.274   4.201   4.591  1.00  0.00     0.029 A 
ATOM     20  N   UNL     1       5.923   3.889   6.058  1.00  0.00    -0.354 N 
ATOM     21  C   UNL     1       6.870  -0.014   7.584  1.00  0.00     0.074 A 
ATOM     22  C   UNL     1       6.236  -1.038   6.785  1.00  0.00     0.031 C 
ATOM     23  C   UNL     1       4.955   5.356   4.679  1.00  0.00     0.029 A 
ATOM     24  C   UNL     1       6.025   5.205   5.659  1.00  0.00     0.049 A 
ATOM     25  H   UNL     1       6.497   3.492   6.752  1.00  0.00     0.167 HD
ATOM     26  C   UNL     1       7.702  -0.260   8.623  1.00  0.00     0.031 A 
ATOM     27  C   UNL     1       6.871   6.180   6.056  1.00  0.00     0.031 A 
ATOM     28  C   UNL     1       8.396   0.764   9.352  1.00  0.00     0.049 A 
ATOM     29  C   UNL     1       7.813   5.892   7.199  1.00  0.00     0.074 A 
ATOM     30  C   UNL     1       9.187   0.642  10.480  1.00  0.00     0.029 A 
ATOM     31  N   UNL     1       8.416   2.102   8.990  1.00  0.00    -0.354 N 
ATOM     32  N   UNL     1       8.073   4.750   7.789  1.00  0.00    -0.248 NA
ATOM     33  C   UNL     1       8.531   7.042   7.771  1.00  0.00     0.031 C 
ATOM     34  C   UNL     1       9.668   1.914  10.814  1.00  0.00     0.029 A 
ATOM     35  C   UNL     1       9.211   2.817   9.867  1.00  0.00     0.049 A 
ATOM     36  H   UNL     1       7.934   2.486   8.222  1.00  0.00     0.167 HD
ATOM     37  C   UNL     1       8.965   5.048   8.814  1.00  0.00     0.074 A 
ATOM     38  C   UNL     1       9.244   6.466   8.729  1.00  0.00     0.031 C 
ATOM     39  C   UNL     1       9.482   4.227   9.762  1.00  0.00     0.031 A 
BRANCH  26  40
ATOM     40  C   UNL     1       7.781  -1.683   9.100  1.00  0.00    -0.014 A 
ATOM     41  C   UNL     1       8.487  -2.677   8.403  1.00  0.00     0.010 A 
ATOM     42  C   UNL     1       7.072  -2.031  10.265  1.00  0.00     0.010 A 
ATOM     43  C   UNL     1       8.429  -4.008   8.830  1.00  0.00     0.020 A 
ATOM     44  C   UNL     1       7.034  -3.353  10.710  1.00  0.00     0.020 A 
ATOM     45  C   UNL     1       7.691  -4.339   9.972  1.00  0.00     0.054 A 
BRANCH  45  46
ATOM     46  S   UNL     1       7.595  -6.075  10.488  1.00  0.00     0.124 S 
ATOM     47  O   UNL     1       6.628  -6.616   9.535  1.00  0.00    -0.237 OA
ATOM     48  O   UNL     1       8.970  -6.538  10.318  1.00  0.00    -0.237 OA
ATOM     49  O   UNL     1       7.133  -5.999  11.871  1.00  0.00    -0.744 OA
ENDBRANCH  45  46
ENDBRANCH  26  40
BRANCH  27  50
ATOM     50  C   UNL     1       6.838   7.540   5.437  1.00  0.00    -0.014 A 
ATOM     51  C   UNL     1       7.973   8.046   4.774  1.00  0.00     0.010 A 
ATOM     52  C   UNL     1       5.699   8.359   5.543  1.00  0.00     0.010 A 
ATOM     53  C   UNL     1       7.975   9.345   4.250  1.00  0.00     0.020 A 
ATOM     54  C   UNL     1       5.683   9.643   4.988  1.00  0.00     0.020 A 
ATOM     55  C   UNL     1       6.828  10.135   4.362  1.00  0.00     0.054 A 
BRANCH  55  56
ATOM     56  S   UNL     1       6.837  11.806   3.652  1.00  0.00     0.124 S 
ATOM     57  O   UNL     1       7.578  12.558   4.660  1.00  0.00    -0.237 OA
ATOM     58  O   UNL     1       7.525  11.607   2.379  1.00  0.00    -0.237 OA
ATOM     59  O   UNL     1       5.418  12.136   3.541  1.00  0.00    -0.744 OA
ENDBRANCH  55  56
ENDBRANCH  27  50
BRANCH  39  60
ATOM     60  C   UNL     1      10.406   4.838  10.778  1.00  0.00    -0.014 A 
ATOM     61  C   UNL     1       9.905   5.644  11.816  1.00  0.00     0.010 A 
ATOM     62  C   UNL     1      11.782   4.552  10.731  1.00  0.00     0.010 A 
ATOM     63  C   UNL     1      10.770   6.177  12.775  1.00  0.00     0.020 A 
ATOM     64  C   UNL     1      12.646   5.066  11.701  1.00  0.00     0.020 A 
ATOM     65  C   UNL     1      12.136   5.886  12.710  1.00  0.00     0.054 A 
BRANCH  65  66
ATOM     66  S   UNL     1      13.235   6.550  13.992  1.00  0.00     0.124 S 
ATOM     67  O   UNL     1      13.371   7.945  13.581  1.00  0.00    -0.237 OA
ATOM     68  O   UNL     1      12.473   6.327  15.218  1.00  0.00    -0.237 OA
ATOM     69  O   UNL     1      14.444   5.740  13.863  1.00  0.00    -0.744 OA
ENDBRANCH  65  66
ENDBRANCH  39  60
ENDBRANCH  13  14
ENDBRANCH   6   8
ENDBRANCH   5   6
ENDBRANCH   4   5
ENDBRANCH   3   4
ENDBRANCH   2   3
ENDBRANCH   1   2
BRANCH   1  70
ATOM     70  C   UNL     1       1.919   1.936  -2.737  1.00  0.00     0.188 C 
BRANCH  70  71
ATOM     71  O   UNL     1       2.722   1.875  -3.920  1.00  0.00    -0.376 OA
BRANCH  71  72
ATOM     72  C   UNL     1       4.122   2.144  -3.770  1.00  0.00     0.202 C 
BRANCH  72  73
ATOM     73  C   UNL     1       4.457   3.588  -3.385  1.00  0.00     0.261 C 
BRANCH  73  74
ATOM     74  O   UNL     1       4.144   3.797  -2.001  1.00  0.00    -0.462 OA
BRANCH  74  75
ATOM     75  C   UNL     1       3.770   5.059  -1.643  1.00  0.00     0.329 C 
ATOM     76  O   UNL     1       3.735   6.008  -2.418  1.00  0.00    -0.250 OA
BRANCH  75  77
ATOM     77  C   UNL     1       3.272   5.085  -0.186  1.00  0.00     0.195 C 
BRANCH  77  78
ATOM     78  C   UNL     1       4.040   4.093   0.695  1.00  0.00     0.074 C 
BRANCH  78  79
ATOM     79  C   UNL     1       5.535   4.219   0.825  1.00  0.00    -0.020 A 
ATOM     80  C   UNL     1       6.264   5.369   1.051  1.00  0.00     0.087 A 
ATOM     81  C   UNL     1       6.476   3.128   0.901  1.00  0.00     0.003 A 
ATOM     82  N   UNL     1       7.568   5.025   1.293  1.00  0.00    -0.361 N 
ATOM     83  C   UNL     1       7.715   3.659   1.255  1.00  0.00     0.046 A 
ATOM     84  C   UNL     1       6.375   1.724   0.781  1.00  0.00     0.010 A 
ATOM     85  H   UNL     1       8.296   5.664   1.470  1.00  0.00     0.166 HD
ATOM     86  C   UNL     1       8.832   2.862   1.537  1.00  0.00     0.026 A 
ATOM     87  C   UNL     1       7.469   0.907   1.089  1.00  0.00     0.001 A 
ATOM     88  C   UNL     1       8.680   1.474   1.470  1.00  0.00     0.002 A 
ENDBRANCH  78  79
ENDBRANCH  77  78
BRANCH  77  89
ATOM     89  N   UNL     1       3.310   6.441   0.391  1.00  0.00    -0.356 N 
ATOM     90  H   UNL     1       4.148   6.783   0.779  1.00  0.00     0.163 HD
BRANCH  89  91
ATOM     91  C   UNL     1       2.177   7.239   0.393  1.00  0.00     0.137 A 
ATOM     92  N   UNL     1       2.297   8.310  -0.403  1.00  0.00    -0.219 NA
ATOM     93  C   UNL     1       1.032   7.010   1.178  1.00  0.00     0.043 A 
ATOM     94  C   UNL     1       1.261   9.149  -0.446  1.00  0.00     0.224 A 
ATOM     95  C   UNL     1       0.017   7.972   1.042  1.00  0.00     0.076 A 
ATOM     96  C   UNL     1       0.854   5.956   2.112  1.00  0.00     0.014 A 
ATOM     97  N   UNL     1       0.109   9.020   0.220  1.00  0.00    -0.236 NA
ATOM     98  C   UNL     1      -1.131   7.856   1.816  1.00  0.00     0.029 A 
ATOM     99  C   UNL     1      -0.308   5.862   2.881  1.00  0.00     0.001 A 
ATOM    100  C   UNL     1      -1.304   6.817   2.732  1.00  0.00     0.002 A 
ENDBRANCH  89  91
ENDBRANCH  77  89
ENDBRANCH  75  77
ENDBRANCH  74  75
ENDBRANCH  73  74
ENDBRANCH  72  73
ENDBRANCH  71  72
ENDBRANCH  70  71
ENDBRANCH   1  70
TORSDOF 24
