REMARK SMILES O=C(OCCOCCOCCOC(=O)[C@@H]1CSCN1C(=O)c1cccc(Cl)c1)c1ccc(-c2c3nc(c(-c4ccc(S(=O)(=O)[O-])cc4)c4ccc([nH]4)c(-c4ccc(S(=O)(=O)[O-])cc4)c4nc(c(-c5ccc(S(=O)(=O)[O-])cc5)c5ccc2[nH]5)C=C4)C=C3)cc1
REMARK SMILES IDX 7 1 6 2 5 3 4 4 3 5 2 6 1 7 29 8 30 9 88 10 31 11 87 12
REMARK SMILES IDX 32 13 33 14 34 15 81 16 35 17 86 18 80 19 82 20 36 21 85 22
REMARK SMILES IDX 79 23 78 24 37 26 67 27 48 28 66 29 49 30 52 31 65 32 83 33
REMARK SMILES IDX 50 34 51 35 64 37 84 38 53 39 38 40 39 41 47 42 40 43 46 44
REMARK SMILES IDX 41 45 42 46 43 47 44 48 45 49 68 50 69 51 77 52 70 53 76 54
REMARK SMILES IDX 71 55 72 56 73 57 74 58 75 59 54 60 55 61 63 62 56 63 62 64
REMARK SMILES IDX 57 65 58 66 59 67 60 68 61 69 8 70 9 71 10 72 11 73 12 74
REMARK SMILES IDX 13 75 14 76 15 77 16 78 19 79 17 80 18 81 20 82 21 83 22 84
REMARK SMILES IDX 23 85 28 86 24 87 26 88 25 89 27 90
REMARK H PARENT 82 25 52 36
REMARK Flexibility Score: inf
ROOT
ATOM      1  C   UNL     1      -1.204   5.113   3.021  1.00  0.00     0.188 C 
ENDROOT
BRANCH   1   2
ATOM      2  O   UNL     1      -0.786   3.762   3.258  1.00  0.00    -0.376 OA
BRANCH   2   3
ATOM      3  C   UNL     1      -1.559   3.101   4.266  1.00  0.00     0.202 C 
BRANCH   3   4
ATOM      4  C   UNL     1      -1.079   3.353   5.703  1.00  0.00     0.261 C 
BRANCH   4   5
ATOM      5  O   UNL     1      -0.512   4.662   5.868  1.00  0.00    -0.460 OA
BRANCH   5   6
ATOM      6  C   UNL     1       0.782   5.045   5.719  1.00  0.00     0.338 C 
ATOM      7  O   UNL     1       1.052   6.236   5.874  1.00  0.00    -0.246 OA
BRANCH   6   8
ATOM      8  C   UNL     1       1.911   4.107   5.410  1.00  0.00     0.060 A 
ATOM      9  C   UNL     1       1.788   2.858   4.800  1.00  0.00     0.016 A 
ATOM     10  C   UNL     1       3.208   4.551   5.728  1.00  0.00     0.016 A 
ATOM     11  C   UNL     1       2.885   2.019   4.637  1.00  0.00     0.010 A 
ATOM     12  C   UNL     1       4.328   3.739   5.508  1.00  0.00     0.010 A 
ATOM     13  C   UNL     1       4.160   2.445   5.008  1.00  0.00    -0.014 A 
BRANCH  13  14
ATOM     14  C   UNL     1       5.260   1.458   4.985  1.00  0.00     0.031 A 
ATOM     15  C   UNL     1       5.696   0.851   6.284  1.00  0.00     0.074 A 
ATOM     16  C   UNL     1       5.741   1.008   3.812  1.00  0.00     0.049 A 
ATOM     17  N   UNL     1       6.559  -0.105   6.496  1.00  0.00    -0.248 NA
ATOM     18  C   UNL     1       5.056   1.371   7.505  1.00  0.00     0.031 C 
ATOM     19  C   UNL     1       5.294   1.471   2.501  1.00  0.00     0.029 A 
ATOM     20  N   UNL     1       6.669   0.046   3.520  1.00  0.00    -0.354 N 
ATOM     21  C   UNL     1       6.569  -0.299   7.870  1.00  0.00     0.074 A 
ATOM     22  C   UNL     1       5.645   0.651   8.446  1.00  0.00     0.031 C 
ATOM     23  C   UNL     1       5.922   0.777   1.540  1.00  0.00     0.029 A 
ATOM     24  C   UNL     1       6.852  -0.152   2.170  1.00  0.00     0.049 A 
ATOM     25  H   UNL     1       7.160  -0.457   4.210  1.00  0.00     0.167 HD
ATOM     26  C   UNL     1       7.287  -1.194   8.586  1.00  0.00     0.031 A 
ATOM     27  C   UNL     1       7.685  -0.986   1.519  1.00  0.00     0.031 A 
ATOM     28  C   UNL     1       8.226  -2.105   7.996  1.00  0.00     0.049 A 
ATOM     29  C   UNL     1       8.555  -1.891   2.345  1.00  0.00     0.074 A 
ATOM     30  C   UNL     1       9.059  -3.014   8.619  1.00  0.00     0.029 A 
ATOM     31  N   UNL     1       8.462  -2.209   6.631  1.00  0.00    -0.354 N 
ATOM     32  N   UNL     1       8.575  -2.043   3.650  1.00  0.00    -0.248 NA
ATOM     33  C   UNL     1       9.513  -2.734   1.621  1.00  0.00     0.031 C 
ATOM     34  C   UNL     1       9.833  -3.636   7.632  1.00  0.00     0.029 A 
ATOM     35  C   UNL     1       9.444  -3.152   6.391  1.00  0.00     0.049 A 
ATOM     36  H   UNL     1       7.998  -1.688   5.936  1.00  0.00     0.167 HD
ATOM     37  C   UNL     1       9.532  -3.016   3.903  1.00  0.00     0.074 A 
ATOM     38  C   UNL     1      10.058  -3.425   2.614  1.00  0.00     0.031 C 
ATOM     39  C   UNL     1       9.940  -3.528   5.090  1.00  0.00     0.031 A 
BRANCH  26  40
ATOM     40  C   UNL     1       7.120  -1.149  10.079  1.00  0.00    -0.014 A 
ATOM     41  C   UNL     1       5.947  -1.617  10.700  1.00  0.00     0.010 A 
ATOM     42  C   UNL     1       8.128  -0.566  10.867  1.00  0.00     0.010 A 
ATOM     43  C   UNL     1       5.761  -1.449  12.075  1.00  0.00     0.020 A 
ATOM     44  C   UNL     1       7.955  -0.416  12.246  1.00  0.00     0.020 A 
ATOM     45  C   UNL     1       6.761  -0.835  12.837  1.00  0.00     0.054 A 
BRANCH  45  46
ATOM     46  S   UNL     1       6.481  -0.588  14.612  1.00  0.00     0.124 S 
ATOM     47  O   UNL     1       5.538   0.528  14.614  1.00  0.00    -0.237 OA
ATOM     48  O   UNL     1       5.932  -1.873  15.034  1.00  0.00    -0.237 OA
ATOM     49  O   UNL     1       7.811  -0.281  15.133  1.00  0.00    -0.744 OA
ENDBRANCH  45  46
ENDBRANCH  26  40
BRANCH  27  50
ATOM     50  C   UNL     1       7.745  -0.986   0.030  1.00  0.00    -0.014 A 
ATOM     51  C   UNL     1       7.312  -2.098  -0.713  1.00  0.00     0.010 A 
ATOM     52  C   UNL     1       8.234   0.141  -0.657  1.00  0.00     0.010 A 
ATOM     53  C   UNL     1       7.381  -2.088  -2.111  1.00  0.00     0.020 A 
ATOM     54  C   UNL     1       8.280   0.166  -2.055  1.00  0.00     0.020 A 
ATOM     55  C   UNL     1       7.865  -0.956  -2.773  1.00  0.00     0.054 A 
BRANCH  55  56
ATOM     56  S   UNL     1       7.907  -0.950  -4.588  1.00  0.00     0.124 S 
ATOM     57  O   UNL     1       9.027  -1.843  -4.868  1.00  0.00    -0.237 OA
ATOM     58  O   UNL     1       6.585  -1.464  -4.935  1.00  0.00    -0.237 OA
ATOM     59  O   UNL     1       8.128   0.456  -4.919  1.00  0.00    -0.744 OA
ENDBRANCH  55  56
ENDBRANCH  27  50
BRANCH  39  60
ATOM     60  C   UNL     1      10.981  -4.608   5.037  1.00  0.00    -0.014 A 
ATOM     61  C   UNL     1      12.325  -4.307   4.760  1.00  0.00     0.010 A 
ATOM     62  C   UNL     1      10.610  -5.935   5.317  1.00  0.00     0.010 A 
ATOM     63  C   UNL     1      13.280  -5.325   4.734  1.00  0.00     0.020 A 
ATOM     64  C   UNL     1      11.566  -6.950   5.317  1.00  0.00     0.020 A 
ATOM     65  C   UNL     1      12.893  -6.640   5.011  1.00  0.00     0.054 A 
BRANCH  65  66
ATOM     66  S   UNL     1      14.156  -7.941   5.017  1.00  0.00     0.124 S 
ATOM     67  O   UNL     1      14.354  -8.175   3.590  1.00  0.00    -0.237 OA
ATOM     68  O   UNL     1      15.273  -7.303   5.711  1.00  0.00    -0.237 OA
ATOM     69  O   UNL     1      13.520  -9.034   5.748  1.00  0.00    -0.744 OA
ENDBRANCH  65  66
ENDBRANCH  39  60
ENDBRANCH  13  14
ENDBRANCH   6   8
ENDBRANCH   5   6
ENDBRANCH   4   5
ENDBRANCH   3   4
ENDBRANCH   2   3
ENDBRANCH   1   2
BRANCH   1  70
ATOM     70  C   UNL     1      -1.132   5.468   1.536  1.00  0.00     0.188 C 
BRANCH  70  71
ATOM     71  O   UNL     1      -2.089   4.831   0.691  1.00  0.00    -0.376 OA
BRANCH  71  72
ATOM     72  C   UNL     1      -2.045   3.410   0.609  1.00  0.00     0.202 C 
BRANCH  72  73
ATOM     73  C   UNL     1      -0.910   2.769  -0.205  1.00  0.00     0.261 C 
BRANCH  73  74
ATOM     74  O   UNL     1       0.413   3.233   0.106  1.00  0.00    -0.462 OA
BRANCH  74  75
ATOM     75  C   UNL     1       0.923   4.163  -0.756  1.00  0.00     0.329 C 
ATOM     76  O   UNL     1       0.278   4.629  -1.689  1.00  0.00    -0.250 OA
BRANCH  75  77
ATOM     77  C   UNL     1       2.359   4.610  -0.390  1.00  0.00     0.206 C 
ATOM     78  C   UNL     1       2.964   3.881   0.813  1.00  0.00     0.108 C 
ATOM     79  N   UNL     1       2.434   6.070  -0.163  1.00  0.00    -0.315 N 
ATOM     80  S   UNL     1       3.739   5.141   1.860  1.00  0.00    -0.138 SA
ATOM     81  C   UNL     1       2.715   6.457   1.203  1.00  0.00     0.191 C 
BRANCH  79  82
ATOM     82  C   UNL     1       2.397   6.926  -1.245  1.00  0.00     0.255 C 
ATOM     83  O   UNL     1       2.305   6.560  -2.417  1.00  0.00    -0.269 OA
BRANCH  82  84
ATOM     84  C   UNL     1       2.471   8.373  -1.011  1.00  0.00     0.041 A 
ATOM     85  C   UNL     1       3.717   8.979  -0.813  1.00  0.00     0.014 A 
ATOM     86  C   UNL     1       1.302   9.132  -1.088  1.00  0.00     0.034 A 
ATOM     87  C   UNL     1       3.789  10.362  -0.660  1.00  0.00     0.002 A 
ATOM     88  C   UNL     1       1.389  10.514  -0.943  1.00  0.00     0.041 A 
ATOM     89  C   UNL     1       2.624  11.130  -0.726  1.00  0.00     0.020 A 
ATOM     90  Cl  UNL     1      -0.034  11.476  -1.048  1.00  0.00    -0.084 Cl
ENDBRANCH  82  84
ENDBRANCH  79  82
ENDBRANCH  75  77
ENDBRANCH  74  75
ENDBRANCH  73  74
ENDBRANCH  72  73
ENDBRANCH  71  72
ENDBRANCH  70  71
ENDBRANCH   1  70
TORSDOF 22
