REMARK SMILES Cc1nnsc1Sc1ccccc1C(=O)OCCOCCOCCOC(=O)c1ccc(-c2c3nc(c(-c4ccc(S(=O)(=O)[O-])cc4)c4ccc([nH]4)c(-c4ccc(S(=O)(=O)[O-])cc4)c4nc(c(-c5ccc(S(=O)(=O)[O-])cc5)c5ccc2[nH]5)C=C4)C=C3)cc1
REMARK SMILES IDX 21 1 20 2 19 3 18 4 17 5 16 6 14 7 15 8 13 9 8 10 9 11 10 12
REMARK SMILES IDX 12 13 11 14 7 15 6 16 1 17 2 18 3 19 4 20 5 21 22 22 23 23
REMARK SMILES IDX 24 24 25 25 26 26 27 27 28 28 29 29 87 30 30 31 86 32 31 33
REMARK SMILES IDX 32 34 33 35 80 36 34 37 85 38 79 39 81 40 35 41 84 42 78 43
REMARK SMILES IDX 77 44 36 46 66 47 47 48 65 49 48 50 51 51 64 52 82 53 49 54
REMARK SMILES IDX 50 55 63 57 83 58 52 59 37 60 38 61 46 62 39 63 45 64 40 65
REMARK SMILES IDX 41 66 42 67 43 68 44 69 67 70 68 71 76 72 69 73 75 74 70 75
REMARK SMILES IDX 71 76 72 77 73 78 74 79 53 80 54 81 62 82 55 83 61 84 56 85
REMARK SMILES IDX 57 86 58 87 59 88 60 89
REMARK H PARENT 81 45 51 56
REMARK Flexibility Score: inf
ROOT
ATOM      1  C   UNL     1      -1.566  -3.608  -3.512  1.00  0.00     0.188 C 
ENDROOT
BRANCH   1   2
ATOM      2  C   UNL     1      -2.284  -2.473  -4.280  1.00  0.00     0.188 C 
BRANCH   2   3
ATOM      3  O   UNL     1      -1.431  -1.585  -4.964  1.00  0.00    -0.376 OA
BRANCH   3   4
ATOM      4  C   UNL     1      -0.959  -0.413  -4.325  1.00  0.00     0.202 C 
BRANCH   4   5
ATOM      5  C   UNL     1      -1.001  -0.150  -2.811  1.00  0.00     0.261 C 
BRANCH   5   6
ATOM      6  O   UNL     1      -1.415  -1.219  -1.955  1.00  0.00    -0.460 OA
BRANCH   6   7
ATOM      7  C   UNL     1      -2.647  -1.081  -1.411  1.00  0.00     0.339 C 
ATOM      8  O   UNL     1      -3.445  -0.192  -1.662  1.00  0.00    -0.246 OA
BRANCH   7   9
ATOM      9  C   UNL     1      -3.011  -2.238  -0.562  1.00  0.00     0.074 A 
ATOM     10  C   UNL     1      -2.199  -2.837   0.416  1.00  0.00     0.028 A 
ATOM     11  C   UNL     1      -2.733  -3.951   1.106  1.00  0.00     0.016 A 
ATOM     12  C   UNL     1      -4.017  -4.444   0.854  1.00  0.00     0.001 A 
ATOM     13  C   UNL     1      -4.313  -2.737  -0.804  1.00  0.00     0.017 A 
ATOM     14  C   UNL     1      -4.809  -3.835  -0.105  1.00  0.00     0.001 A 
BRANCH  10  15
ATOM     15  S   UNL     1      -0.524  -2.479   0.912  1.00  0.00    -0.075 SA
BRANCH  15  16
ATOM     16  C   UNL     1      -0.239  -0.776   0.716  1.00  0.00     0.109 A 
ATOM     17  C   UNL     1      -2.405   0.520   1.366  1.00  0.00     0.071 C 
ATOM     18  C   UNL     1      -1.000   0.371   0.910  1.00  0.00     0.087 A 
ATOM     19  N   UNL     1      -0.334   1.563   0.609  1.00  0.00    -0.142 NA
ATOM     20  N   UNL     1       0.918   1.364   0.245  1.00  0.00    -0.090 NA
ATOM     21  S   UNL     1       1.344  -0.244   0.259  1.00  0.00    -0.005 S 
ENDBRANCH  15  16
ENDBRANCH  10  15
ENDBRANCH   7   9
ENDBRANCH   6   7
ENDBRANCH   5   6
ENDBRANCH   4   5
ENDBRANCH   3   4
ENDBRANCH   2   3
ENDBRANCH   1   2
BRANCH   1  22
ATOM     22  O   UNL     1      -0.150  -3.652  -3.449  1.00  0.00    -0.376 OA
BRANCH  22  23
ATOM     23  C   UNL     1       0.595  -3.540  -4.652  1.00  0.00     0.202 C 
BRANCH  23  24
ATOM     24  C   UNL     1       0.214  -4.339  -5.915  1.00  0.00     0.261 C 
BRANCH  24  25
ATOM     25  O   UNL     1      -1.184  -4.388  -6.245  1.00  0.00    -0.460 OA
BRANCH  25  26
ATOM     26  C   UNL     1      -1.796  -5.585  -6.044  1.00  0.00     0.338 C 
ATOM     27  O   UNL     1      -1.281  -6.613  -5.647  1.00  0.00    -0.246 OA
BRANCH  26  28
ATOM     28  C   UNL     1      -3.261  -5.414  -6.172  1.00  0.00     0.060 A 
ATOM     29  C   UNL     1      -4.067  -5.657  -5.048  1.00  0.00     0.016 A 
ATOM     30  C   UNL     1      -3.841  -5.047  -7.386  1.00  0.00     0.016 A 
ATOM     31  C   UNL     1      -5.455  -5.547  -5.138  1.00  0.00     0.010 A 
ATOM     32  C   UNL     1      -5.235  -4.972  -7.484  1.00  0.00     0.010 A 
ATOM     33  C   UNL     1      -6.050  -5.248  -6.369  1.00  0.00    -0.014 A 
BRANCH  33  34
ATOM     34  C   UNL     1      -7.513  -5.433  -6.546  1.00  0.00     0.031 A 
ATOM     35  C   UNL     1      -7.997  -6.726  -7.150  1.00  0.00     0.074 A 
ATOM     36  C   UNL     1      -8.398  -4.493  -6.167  1.00  0.00     0.049 A 
ATOM     37  N   UNL     1      -9.210  -7.085  -7.479  1.00  0.00    -0.248 NA
ATOM     38  C   UNL     1      -6.971  -7.749  -7.417  1.00  0.00     0.031 C 
ATOM     39  C   UNL     1      -8.068  -3.227  -5.515  1.00  0.00     0.029 A 
ATOM     40  N   UNL     1      -9.767  -4.460  -6.291  1.00  0.00    -0.354 N 
ATOM     41  C   UNL     1      -9.094  -8.372  -7.994  1.00  0.00     0.074 A 
ATOM     42  C   UNL     1      -7.689  -8.716  -7.966  1.00  0.00     0.031 C 
ATOM     43  C   UNL     1      -9.203  -2.532  -5.314  1.00  0.00     0.029 A 
ATOM     44  C   UNL     1     -10.333  -3.284  -5.857  1.00  0.00     0.049 A 
ATOM     45  H   UNL     1     -10.292  -5.209  -6.655  1.00  0.00     0.167 HD
ATOM     46  C   UNL     1     -10.068  -9.198  -8.441  1.00  0.00     0.031 A 
ATOM     47  C   UNL     1     -11.610  -2.854  -5.921  1.00  0.00     0.031 A 
ATOM     48  C   UNL     1     -11.462  -8.848  -8.494  1.00  0.00     0.049 A 
ATOM     49  C   UNL     1     -12.664  -3.751  -6.528  1.00  0.00     0.074 A 
ATOM     50  C   UNL     1     -12.524  -9.610  -8.948  1.00  0.00     0.029 A 
ATOM     51  N   UNL     1     -11.989  -7.634  -8.081  1.00  0.00    -0.354 N 
ATOM     52  N   UNL     1     -12.541  -4.968  -7.005  1.00  0.00    -0.248 NA
ATOM     53  C   UNL     1     -14.033  -3.217  -6.598  1.00  0.00     0.031 C 
ATOM     54  C   UNL     1     -13.686  -8.836  -8.861  1.00  0.00     0.029 A 
ATOM     55  C   UNL     1     -13.358  -7.619  -8.287  1.00  0.00     0.049 A 
ATOM     56  H   UNL     1     -11.467  -6.892  -7.698  1.00  0.00     0.167 HD
ATOM     57  C   UNL     1     -13.821  -5.355  -7.394  1.00  0.00     0.074 A 
ATOM     58  C   UNL     1     -14.704  -4.252  -7.084  1.00  0.00     0.031 C 
ATOM     59  C   UNL     1     -14.229  -6.519  -7.958  1.00  0.00     0.031 A 
BRANCH  46  60
ATOM     60  C   UNL     1      -9.654 -10.561  -8.931  1.00  0.00    -0.014 A 
ATOM     61  C   UNL     1      -9.203 -11.546  -8.034  1.00  0.00     0.010 A 
ATOM     62  C   UNL     1      -9.759 -10.877 -10.298  1.00  0.00     0.010 A 
ATOM     63  C   UNL     1      -8.836 -12.811  -8.498  1.00  0.00     0.020 A 
ATOM     64  C   UNL     1      -9.423 -12.151 -10.763  1.00  0.00     0.020 A 
ATOM     65  C   UNL     1      -8.951 -13.107  -9.860  1.00  0.00     0.054 A 
BRANCH  65  66
ATOM     66  S   UNL     1      -8.503 -14.771 -10.426  1.00  0.00     0.124 S 
ATOM     67  O   UNL     1      -7.051 -14.763 -10.267  1.00  0.00    -0.237 OA
ATOM     68  O   UNL     1      -9.232 -15.630  -9.497  1.00  0.00    -0.237 OA
ATOM     69  O   UNL     1      -8.977 -14.807 -11.807  1.00  0.00    -0.744 OA
ENDBRANCH  65  66
ENDBRANCH  46  60
BRANCH  47  70
ATOM     70  C   UNL     1     -11.976  -1.492  -5.436  1.00  0.00    -0.014 A 
ATOM     71  C   UNL     1     -12.839  -1.324  -4.339  1.00  0.00     0.010 A 
ATOM     72  C   UNL     1     -11.501  -0.349  -6.109  1.00  0.00     0.010 A 
ATOM     73  C   UNL     1     -13.251  -0.045  -3.948  1.00  0.00     0.020 A 
ATOM     74  C   UNL     1     -11.883   0.932  -5.699  1.00  0.00     0.020 A 
ATOM     75  C   UNL     1     -12.772   1.075  -4.633  1.00  0.00     0.054 A 
BRANCH  75  76
ATOM     76  S   UNL     1     -13.311   2.724  -4.101  1.00  0.00     0.124 S 
ATOM     77  O   UNL     1     -14.699   2.748  -4.549  1.00  0.00    -0.237 OA
ATOM     78  O   UNL     1     -13.112   2.667  -2.655  1.00  0.00    -0.237 OA
ATOM     79  O   UNL     1     -12.407   3.625  -4.812  1.00  0.00    -0.744 OA
ENDBRANCH  75  76
ENDBRANCH  47  70
BRANCH  59  80
ATOM     80  C   UNL     1     -15.704  -6.693  -8.223  1.00  0.00    -0.014 A 
ATOM     81  C   UNL     1     -16.360  -5.974  -9.238  1.00  0.00     0.010 A 
ATOM     82  C   UNL     1     -16.432  -7.642  -7.479  1.00  0.00     0.010 A 
ATOM     83  C   UNL     1     -17.723  -6.176  -9.480  1.00  0.00     0.020 A 
ATOM     84  C   UNL     1     -17.785  -7.870  -7.739  1.00  0.00     0.020 A 
ATOM     85  C   UNL     1     -18.426  -7.124  -8.730  1.00  0.00     0.054 A 
BRANCH  85  86
ATOM     86  S   UNL     1     -20.182  -7.399  -9.095  1.00  0.00     0.124 S 
ATOM     87  O   UNL     1     -20.795  -6.179  -8.577  1.00  0.00    -0.237 OA
ATOM     88  O   UNL     1     -20.188  -7.538 -10.549  1.00  0.00    -0.237 OA
ATOM     89  O   UNL     1     -20.503  -8.619  -8.358  1.00  0.00    -0.744 OA
ENDBRANCH  85  86
ENDBRANCH  59  80
ENDBRANCH  33  34
ENDBRANCH  26  28
ENDBRANCH  25  26
ENDBRANCH  24  25
ENDBRANCH  23  24
ENDBRANCH  22  23
ENDBRANCH   1  22
TORSDOF 22
