REMARK SMILES O=C(OCCOCCOCCOC(=O)c1ccc(-c2c3nc(c(-c4ccc(S(=O)(=O)[O-])cc4)c4ccc([nH]4)c(-c4ccc(S(=O)(=O)[O-])cc4)c4nc(c(-c5ccc(S(=O)(=O)[O-])cc5)c5ccc2[nH]5)C=C4)C=C3)cc1)c1ccc(/C=C/c2ccc3cccc(O)c3n2)cc1
REMARK SMILES IDX 7 1 6 2 5 3 4 4 3 5 2 6 1 7 75 8 76 9 93 10 77 11 92 12
REMARK SMILES IDX 78 13 79 14 80 15 81 16 82 17 91 18 83 19 90 20 84 21 88 22
REMARK SMILES IDX 85 23 87 24 86 25 89 26 8 28 9 29 10 30 11 31 12 32 13 33
REMARK SMILES IDX 14 34 15 35 16 36 74 37 17 38 73 39 18 40 19 41 20 42 67 43
REMARK SMILES IDX 21 44 72 45 66 46 68 47 22 48 71 49 65 50 64 51 23 53 53 54
REMARK SMILES IDX 34 55 52 56 35 57 38 58 51 59 69 60 36 61 37 62 50 64 70 65
REMARK SMILES IDX 39 66 24 67 25 68 33 69 26 70 32 71 27 72 28 73 29 74 30 75
REMARK SMILES IDX 31 76 54 77 55 78 63 79 56 80 62 81 57 82 58 83 59 84 60 85
REMARK SMILES IDX 61 86 40 87 41 88 49 89 42 90 48 91 43 92 44 93 45 94 46 95
REMARK SMILES IDX 47 96
REMARK H PARENT 89 27 68 52 38 63
REMARK Flexibility Score: inf
ROOT
ATOM      1  C   UNL     1       2.782  -1.640  -1.174  1.00  0.00     0.188 C 
ENDROOT
BRANCH   1   2
ATOM      2  O   UNL     1       4.034  -0.977  -1.376  1.00  0.00    -0.376 OA
BRANCH   2   3
ATOM      3  C   UNL     1       5.003  -1.192  -0.350  1.00  0.00     0.202 C 
BRANCH   3   4
ATOM      4  C   UNL     1       4.693  -0.590   1.027  1.00  0.00     0.261 C 
BRANCH   4   5
ATOM      5  O   UNL     1       3.313  -0.268   1.229  1.00  0.00    -0.460 OA
BRANCH   5   6
ATOM      6  C   UNL     1       2.699   0.928   1.075  1.00  0.00     0.338 C 
ATOM      7  O   UNL     1       1.553   1.048   1.505  1.00  0.00    -0.246 OA
BRANCH   6   8
ATOM      8  C   UNL     1       3.318   2.111   0.406  1.00  0.00     0.060 A 
ATOM      9  C   UNL     1       4.184   2.072  -0.691  1.00  0.00     0.016 A 
ATOM     10  C   UNL     1       2.865   3.365   0.832  1.00  0.00     0.016 A 
ATOM     11  C   UNL     1       4.614   3.244  -1.333  1.00  0.00     0.009 A 
ATOM     12  C   UNL     1       3.285   4.533   0.191  1.00  0.00     0.009 A 
ATOM     13  C   UNL     1       4.170   4.488  -0.896  1.00  0.00    -0.026 A 
BRANCH  13  14
ATOM     14  C   UNL     1       4.677   5.768  -1.402  1.00  0.00     0.010 C 
ATOM     15  C   UNL     1       5.711   5.980  -2.242  1.00  0.00     0.029 C 
BRANCH  15  16
ATOM     16  C   UNL     1       6.503   7.175  -1.863  1.00  0.00     0.064 A 
ATOM     17  C   UNL     1       7.446   6.869  -0.882  1.00  0.00     0.029 A 
ATOM     18  N   UNL     1       5.875   8.371  -1.941  1.00  0.00    -0.245 NA
ATOM     19  C   UNL     1       7.475   7.672   0.247  1.00  0.00     0.013 A 
ATOM     20  C   UNL     1       5.962   9.181  -0.861  1.00  0.00     0.113 A 
ATOM     21  C   UNL     1       6.660   8.805   0.304  1.00  0.00     0.004 A 
ATOM     22  C   UNL     1       5.268  10.387  -0.833  1.00  0.00     0.141 A 
ATOM     23  C   UNL     1       6.487   9.524   1.497  1.00  0.00     0.010 A 
ATOM     24  C   UNL     1       5.132  11.138   0.331  1.00  0.00     0.048 A 
ATOM     25  C   UNL     1       5.697  10.671   1.514  1.00  0.00     0.005 A 
BRANCH  22  26
ATOM     26  O   UNL     1       4.636  10.833  -1.967  1.00  0.00    -0.506 OA
ATOM     27  H   UNL     1       4.167  11.645  -1.954  1.00  0.00     0.293 HD
ENDBRANCH  22  26
ENDBRANCH  15  16
ENDBRANCH  13  14
ENDBRANCH   6   8
ENDBRANCH   5   6
ENDBRANCH   4   5
ENDBRANCH   3   4
ENDBRANCH   2   3
ENDBRANCH   1   2
BRANCH   1  28
ATOM     28  C   UNL     1       2.126  -2.015  -2.504  1.00  0.00     0.188 C 
BRANCH  28  29
ATOM     29  O   UNL     1       2.750  -3.080  -3.220  1.00  0.00    -0.376 OA
BRANCH  29  30
ATOM     30  C   UNL     1       4.122  -2.905  -3.558  1.00  0.00     0.202 C 
BRANCH  30  31
ATOM     31  C   UNL     1       4.456  -1.877  -4.649  1.00  0.00     0.261 C 
BRANCH  31  32
ATOM     32  O   UNL     1       3.970  -0.539  -4.423  1.00  0.00    -0.460 OA
BRANCH  32  33
ATOM     33  C   UNL     1       3.033  -0.117  -5.298  1.00  0.00     0.338 C 
ATOM     34  O   UNL     1       2.519  -0.779  -6.209  1.00  0.00    -0.246 OA
BRANCH  33  35
ATOM     35  C   UNL     1       2.660   1.286  -5.078  1.00  0.00     0.060 A 
ATOM     36  C   UNL     1       1.463   1.591  -4.420  1.00  0.00     0.016 A 
ATOM     37  C   UNL     1       3.383   2.294  -5.722  1.00  0.00     0.016 A 
ATOM     38  C   UNL     1       0.967   2.901  -4.444  1.00  0.00     0.010 A 
ATOM     39  C   UNL     1       2.890   3.606  -5.731  1.00  0.00     0.010 A 
ATOM     40  C   UNL     1       1.658   3.916  -5.125  1.00  0.00    -0.014 A 
BRANCH  40  41
ATOM     41  C   UNL     1       1.069   5.276  -5.291  1.00  0.00     0.031 A 
ATOM     42  C   UNL     1       0.524   5.704  -6.631  1.00  0.00     0.074 A 
ATOM     43  C   UNL     1       0.981   6.126  -4.250  1.00  0.00     0.049 A 
ATOM     44  N   UNL     1       0.043   6.866  -6.995  1.00  0.00    -0.248 NA
ATOM     45  C   UNL     1       0.490   4.683  -7.691  1.00  0.00     0.031 C 
ATOM     46  C   UNL     1       1.324   5.799  -2.870  1.00  0.00     0.029 A 
ATOM     47  N   UNL     1       0.559   7.434  -4.187  1.00  0.00    -0.354 N 
ATOM     48  C   UNL     1      -0.359   6.716  -8.317  1.00  0.00     0.074 A 
ATOM     49  C   UNL     1      -0.032   5.360  -8.705  1.00  0.00     0.031 C 
ATOM     50  C   UNL     1       1.079   6.867  -2.094  1.00  0.00     0.029 A 
ATOM     51  C   UNL     1       0.643   7.984  -2.928  1.00  0.00     0.049 A 
ATOM     52  H   UNL     1       0.229   7.931  -4.970  1.00  0.00     0.167 HD
ATOM     53  C   UNL     1      -0.964   7.617  -9.130  1.00  0.00     0.031 A 
ATOM     54  C   UNL     1       0.425   9.246  -2.501  1.00  0.00     0.031 A 
ATOM     55  C   UNL     1      -1.298   8.966  -8.751  1.00  0.00     0.049 A 
ATOM     56  C   UNL     1       0.030  10.295  -3.514  1.00  0.00     0.074 A 
ATOM     57  C   UNL     1      -1.939   9.937  -9.503  1.00  0.00     0.029 A 
ATOM     58  N   UNL     1      -1.010   9.540  -7.524  1.00  0.00    -0.354 N 
ATOM     59  N   UNL     1      -0.361  10.138  -4.757  1.00  0.00    -0.248 NA
ATOM     60  C   UNL     1       0.056  11.697  -3.069  1.00  0.00     0.031 C 
ATOM     61  C   UNL     1      -1.984  11.116  -8.752  1.00  0.00     0.029 A 
ATOM     62  C   UNL     1      -1.418  10.864  -7.513  1.00  0.00     0.049 A 
ATOM     63  H   UNL     1      -0.579   9.075  -6.770  1.00  0.00     0.167 HD
ATOM     64  C   UNL     1      -0.716  11.408  -5.206  1.00  0.00     0.074 A 
ATOM     65  C   UNL     1      -0.467  12.325  -4.114  1.00  0.00     0.031 C 
ATOM     66  C   UNL     1      -1.225  11.771  -6.409  1.00  0.00     0.031 A 
BRANCH  53  67
ATOM     67  C   UNL     1      -1.295   7.184 -10.533  1.00  0.00    -0.014 A 
ATOM     68  C   UNL     1      -2.381   6.328 -10.790  1.00  0.00     0.010 A 
ATOM     69  C   UNL     1      -0.560   7.705 -11.613  1.00  0.00     0.010 A 
ATOM     70  C   UNL     1      -2.711   5.983 -12.104  1.00  0.00     0.020 A 
ATOM     71  C   UNL     1      -0.900   7.378 -12.929  1.00  0.00     0.020 A 
ATOM     72  C   UNL     1      -1.968   6.510 -13.165  1.00  0.00     0.054 A 
BRANCH  72  73
ATOM     73  S   UNL     1      -2.445   6.080 -14.862  1.00  0.00     0.124 S 
ATOM     74  O   UNL     1      -1.998   4.692 -14.959  1.00  0.00    -0.237 OA
ATOM     75  O   UNL     1      -3.893   6.273 -14.848  1.00  0.00    -0.237 OA
ATOM     76  O   UNL     1      -1.701   7.031 -15.684  1.00  0.00    -0.744 OA
ENDBRANCH  72  73
ENDBRANCH  53  67
BRANCH  54  77
ATOM     77  C   UNL     1       0.607   9.622  -1.063  1.00  0.00    -0.014 A 
ATOM     78  C   UNL     1      -0.423  10.255  -0.341  1.00  0.00     0.010 A 
ATOM     79  C   UNL     1       1.835   9.406  -0.413  1.00  0.00     0.010 A 
ATOM     80  C   UNL     1      -0.209  10.712   0.967  1.00  0.00     0.020 A 
ATOM     81  C   UNL     1       2.029   9.795   0.914  1.00  0.00     0.020 A 
ATOM     82  C   UNL     1       1.019  10.477   1.587  1.00  0.00     0.054 A 
BRANCH  82  83
ATOM     83  S   UNL     1       1.322  11.137   3.250  1.00  0.00     0.124 S 
ATOM     84  O   UNL     1       0.876  12.522   3.128  1.00  0.00    -0.237 OA
ATOM     85  O   UNL     1       0.489  10.272   4.079  1.00  0.00    -0.237 OA
ATOM     86  O   UNL     1       2.764  10.971   3.433  1.00  0.00    -0.744 OA
ENDBRANCH  82  83
ENDBRANCH  54  77
BRANCH  66  87
ATOM     87  C   UNL     1      -1.675  13.199  -6.578  1.00  0.00    -0.014 A 
ATOM     88  C   UNL     1      -0.759  14.257  -6.710  1.00  0.00     0.010 A 
ATOM     89  C   UNL     1      -3.054  13.479  -6.643  1.00  0.00     0.010 A 
ATOM     90  C   UNL     1      -1.214  15.571  -6.867  1.00  0.00     0.020 A 
ATOM     91  C   UNL     1      -3.512  14.786  -6.828  1.00  0.00     0.020 A 
ATOM     92  C   UNL     1      -2.588  15.828  -6.922  1.00  0.00     0.054 A 
BRANCH  92  93
ATOM     93  S   UNL     1      -3.155  17.535  -7.161  1.00  0.00     0.124 S 
ATOM     94  O   UNL     1      -2.941  18.116  -5.838  1.00  0.00    -0.237 OA
ATOM     95  O   UNL     1      -2.268  18.026  -8.213  1.00  0.00    -0.237 OA
ATOM     96  O   UNL     1      -4.554  17.384  -7.556  1.00  0.00    -0.744 OA
ENDBRANCH  92  93
ENDBRANCH  66  87
ENDBRANCH  40  41
ENDBRANCH  33  35
ENDBRANCH  32  33
ENDBRANCH  31  32
ENDBRANCH  30  31
ENDBRANCH  29  30
ENDBRANCH  28  29
ENDBRANCH   1  28
TORSDOF 23
