REMARK SMILES Cc1ccc(OCCn2ccnc2)c(/C=C/C(=O)OCCOCCOCCOC(=O)c2ccc(-c3c4nc(c(-c5ccc(S(=O)(=O)[O-])cc5)c5ccc([nH]5)c(-c5ccc(S(=O)(=O)[O-])cc5)c5nc(c(-c6ccc(S(=O)(=O)[O-])cc6)c6ccc3[nH]6)C=C5)C=C4)cc2)n1
REMARK SMILES IDX 23 1 22 2 21 3 20 4 19 5 17 6 18 7 16 8 15 9 14 10 1 11 2 12
REMARK SMILES IDX 3 13 91 14 4 15 5 16 6 17 7 18 8 19 9 20 10 21 13 22 11 23
REMARK SMILES IDX 12 24 24 25 25 26 26 27 27 28 28 29 29 30 30 31 31 32 32 33
REMARK SMILES IDX 90 34 33 35 89 36 34 37 35 38 36 39 83 40 37 41 88 42 82 43
REMARK SMILES IDX 84 44 38 45 87 46 81 47 80 48 39 50 69 51 50 52 68 53 51 54
REMARK SMILES IDX 54 55 67 56 85 57 52 58 53 59 66 61 86 62 55 63 40 64 41 65
REMARK SMILES IDX 49 66 42 67 48 68 43 69 44 70 45 71 46 72 47 73 70 74 71 75
REMARK SMILES IDX 79 76 72 77 78 78 73 79 74 80 75 81 76 82 77 83 56 84 57 85
REMARK SMILES IDX 65 86 58 87 64 88 59 89 60 90 61 91 62 92 63 93
REMARK H PARENT 84 49 54 60
REMARK Flexibility Score: inf
ROOT
ATOM      1  C   UNL     1      -0.921   6.234   1.464  1.00  0.00     0.188 C 
ENDROOT
BRANCH   1   2
ATOM      2  O   UNL     1      -1.594   7.457   1.208  1.00  0.00    -0.376 OA
BRANCH   2   3
ATOM      3  C   UNL     1      -2.834   7.462   0.514  1.00  0.00     0.202 C 
BRANCH   3   4
ATOM      4  C   UNL     1      -3.116   6.550  -0.700  1.00  0.00     0.261 C 
BRANCH   4   5
ATOM      5  O   UNL     1      -2.679   5.187  -0.596  1.00  0.00    -0.460 OA
BRANCH   5   6
ATOM      6  C   UNL     1      -1.711   4.796  -1.456  1.00  0.00     0.330 C 
ATOM      7  O   UNL     1      -1.237   5.467  -2.365  1.00  0.00    -0.247 OA
BRANCH   6   8
ATOM      8  C   UNL     1      -1.146   3.482  -1.093  1.00  0.00     0.096 C 
ATOM      9  C   UNL     1      -1.805   2.489  -0.471  1.00  0.00     0.040 C 
BRANCH   9  10
ATOM     10  C   UNL     1      -1.141   1.243  -0.030  1.00  0.00     0.105 A 
ATOM     11  C   UNL     1       2.384   0.174   0.212  1.00  0.00     0.067 C 
ATOM     12  C   UNL     1       0.892   0.166   0.355  1.00  0.00     0.038 A 
ATOM     13  C   UNL     1       0.252  -0.915   0.940  1.00  0.00     0.027 A 
ATOM     14  N   UNL     1       0.219   1.254  -0.088  1.00  0.00    -0.250 NA
ATOM     15  C   UNL     1      -1.139  -0.926   0.984  1.00  0.00     0.050 A 
ATOM     16  C   UNL     1      -1.861   0.132   0.430  1.00  0.00     0.145 A 
BRANCH  16  17
ATOM     17  O   UNL     1      -3.224   0.123   0.284  1.00  0.00    -0.489 OA
BRANCH  17  18
ATOM     18  C   UNL     1      -3.850  -1.143   0.028  1.00  0.00     0.251 C 
BRANCH  18  19
ATOM     19  C   UNL     1      -3.687  -1.638  -1.417  1.00  0.00     0.164 C 
BRANCH  19  20
ATOM     20  N   UNL     1      -2.398  -2.235  -1.710  1.00  0.00    -0.334 N 
ATOM     21  C   UNL     1      -1.349  -1.627  -2.342  1.00  0.00     0.107 A 
ATOM     22  C   UNL     1      -2.016  -3.514  -1.418  1.00  0.00     0.199 A 
ATOM     23  C   UNL     1      -0.334  -2.554  -2.317  1.00  0.00     0.130 A 
ATOM     24  N   UNL     1      -0.764  -3.729  -1.755  1.00  0.00    -0.245 NA
ENDBRANCH  19  20
ENDBRANCH  18  19
ENDBRANCH  17  18
ENDBRANCH  16  17
ENDBRANCH   9  10
ENDBRANCH   6   8
ENDBRANCH   5   6
ENDBRANCH   4   5
ENDBRANCH   3   4
ENDBRANCH   2   3
ENDBRANCH   1   2
BRANCH   1  25
ATOM     25  C   UNL     1      -1.662   5.075   2.160  1.00  0.00     0.188 C 
BRANCH  25  26
ATOM     26  O   UNL     1      -3.070   5.136   2.067  1.00  0.00    -0.376 OA
BRANCH  26  27
ATOM     27  C   UNL     1      -3.858   5.582   3.157  1.00  0.00     0.202 C 
BRANCH  27  28
ATOM     28  C   UNL     1      -3.411   6.647   4.159  1.00  0.00     0.261 C 
BRANCH  28  29
ATOM     29  O   UNL     1      -2.024   6.887   4.282  1.00  0.00    -0.460 OA
BRANCH  29  30
ATOM     30  C   UNL     1      -1.408   6.061   5.153  1.00  0.00     0.338 C 
ATOM     31  O   UNL     1      -1.767   4.945   5.488  1.00  0.00    -0.246 OA
BRANCH  30  32
ATOM     32  C   UNL     1      -0.294   6.782   5.759  1.00  0.00     0.060 A 
ATOM     33  C   UNL     1       0.724   6.030   6.348  1.00  0.00     0.016 A 
ATOM     34  C   UNL     1      -0.439   8.159   5.981  1.00  0.00     0.016 A 
ATOM     35  C   UNL     1       1.516   6.638   7.296  1.00  0.00     0.010 A 
ATOM     36  C   UNL     1       0.333   8.755   6.947  1.00  0.00     0.010 A 
ATOM     37  C   UNL     1       1.257   7.971   7.636  1.00  0.00    -0.014 A 
BRANCH  37  38
ATOM     38  C   UNL     1       2.073   8.586   8.663  1.00  0.00     0.031 A 
ATOM     39  C   UNL     1       3.432   8.921   8.184  1.00  0.00     0.074 A 
ATOM     40  C   UNL     1       1.559   8.937   9.857  1.00  0.00     0.049 A 
ATOM     41  N   UNL     1       4.562   8.465   8.610  1.00  0.00    -0.248 NA
ATOM     42  C   UNL     1       3.534   9.734   6.956  1.00  0.00     0.031 C 
ATOM     43  C   UNL     1       0.147   8.883  10.254  1.00  0.00     0.029 A 
ATOM     44  N   UNL     1       2.155   9.549  10.918  1.00  0.00    -0.354 N 
ATOM     45  C   UNL     1       5.525   9.134   7.862  1.00  0.00     0.074 A 
ATOM     46  C   UNL     1       4.846   9.707   6.731  1.00  0.00     0.031 C 
ATOM     47  C   UNL     1      -0.034   9.652  11.350  1.00  0.00     0.029 A 
ATOM     48  C   UNL     1       1.257  10.154  11.792  1.00  0.00     0.049 A 
ATOM     49  H   UNL     1       3.131   9.561  11.053  1.00  0.00     0.167 HD
ATOM     50  C   UNL     1       6.729   9.460   8.403  1.00  0.00     0.031 A 
ATOM     51  C   UNL     1       1.546  11.075  12.746  1.00  0.00     0.031 A 
ATOM     52  C   UNL     1       7.018   8.664   9.566  1.00  0.00     0.049 A 
ATOM     53  C   UNL     1       3.003  10.996  13.008  1.00  0.00     0.074 A 
ATOM     54  C   UNL     1       7.182   7.317   9.813  1.00  0.00     0.029 A 
ATOM     55  N   UNL     1       6.795   9.271  10.777  1.00  0.00    -0.354 N 
ATOM     56  N   UNL     1       3.588   9.975  13.568  1.00  0.00    -0.248 NA
ATOM     57  C   UNL     1       3.889  11.911  12.303  1.00  0.00     0.031 C 
ATOM     58  C   UNL     1       6.698   7.114  11.136  1.00  0.00     0.029 A 
ATOM     59  C   UNL     1       6.309   8.348  11.662  1.00  0.00     0.049 A 
ATOM     60  H   UNL     1       6.960  10.220  10.977  1.00  0.00     0.167 HD
ATOM     61  C   UNL     1       4.821   9.887  12.940  1.00  0.00     0.074 A 
ATOM     62  C   UNL     1       5.003  11.176  12.282  1.00  0.00     0.031 C 
ATOM     63  C   UNL     1       5.438   8.681  12.774  1.00  0.00     0.031 A 
BRANCH  50  64
ATOM     64  C   UNL     1       7.366  10.818   8.184  1.00  0.00    -0.014 A 
ATOM     65  C   UNL     1       8.595  11.095   8.814  1.00  0.00     0.010 A 
ATOM     66  C   UNL     1       6.668  11.920   7.644  1.00  0.00     0.010 A 
ATOM     67  C   UNL     1       9.056  12.410   8.961  1.00  0.00     0.020 A 
ATOM     68  C   UNL     1       7.139  13.228   7.743  1.00  0.00     0.020 A 
ATOM     69  C   UNL     1       8.316  13.468   8.434  1.00  0.00     0.054 A 
BRANCH  69  70
ATOM     70  S   UNL     1       8.866  15.168   8.708  1.00  0.00     0.124 S 
ATOM     71  O   UNL     1       8.685  15.311  10.149  1.00  0.00    -0.237 OA
ATOM     72  O   UNL     1      10.249  15.122   8.240  1.00  0.00    -0.237 OA
ATOM     73  O   UNL     1       7.959  15.958   7.878  1.00  0.00    -0.744 OA
ENDBRANCH  69  70
ENDBRANCH  50  64
BRANCH  51  74
ATOM     74  C   UNL     1       0.712  12.212  13.218  1.00  0.00    -0.014 A 
ATOM     75  C   UNL     1       1.101  12.972  14.339  1.00  0.00     0.010 A 
ATOM     76  C   UNL     1      -0.321  12.730  12.410  1.00  0.00     0.010 A 
ATOM     77  C   UNL     1       0.533  14.232  14.596  1.00  0.00     0.020 A 
ATOM     78  C   UNL     1      -0.904  13.976  12.669  1.00  0.00     0.020 A 
ATOM     79  C   UNL     1      -0.453  14.736  13.744  1.00  0.00     0.054 A 
BRANCH  79  80
ATOM     80  S   UNL     1      -1.047  16.439  13.968  1.00  0.00     0.124 S 
ATOM     81  O   UNL     1      -1.830  16.336  15.197  1.00  0.00    -0.237 OA
ATOM     82  O   UNL     1       0.195  17.198  14.071  1.00  0.00    -0.237 OA
ATOM     83  O   UNL     1      -1.826  16.693  12.757  1.00  0.00    -0.744 OA
ENDBRANCH  79  80
ENDBRANCH  51  74
BRANCH  63  84
ATOM     84  C   UNL     1       5.049   7.541  13.682  1.00  0.00    -0.014 A 
ATOM     85  C   UNL     1       3.761   6.981  13.760  1.00  0.00     0.010 A 
ATOM     86  C   UNL     1       6.094   6.928  14.398  1.00  0.00     0.010 A 
ATOM     87  C   UNL     1       3.526   5.846  14.551  1.00  0.00     0.020 A 
ATOM     88  C   UNL     1       5.872   5.787  15.167  1.00  0.00     0.020 A 
ATOM     89  C   UNL     1       4.587   5.255  15.248  1.00  0.00     0.054 A 
BRANCH  89  90
ATOM     90  S   UNL     1       4.294   3.754  16.224  1.00  0.00     0.124 S 
ATOM     91  O   UNL     1       3.485   4.250  17.334  1.00  0.00    -0.237 OA
ATOM     92  O   UNL     1       3.601   2.881  15.280  1.00  0.00    -0.237 OA
ATOM     93  O   UNL     1       5.638   3.309  16.591  1.00  0.00    -0.744 OA
ENDBRANCH  89  90
ENDBRANCH  63  84
ENDBRANCH  37  38
ENDBRANCH  30  32
ENDBRANCH  29  30
ENDBRANCH  28  29
ENDBRANCH  27  28
ENDBRANCH  26  27
ENDBRANCH  25  26
ENDBRANCH   1  25
TORSDOF 25
