REMARK SMILES CC(=O)N[C@@H]1[C@H](Oc2ccc(C)c(C)c2)O[C@H]2COC(C)(C)O[C@@H]2[C@H]1O[C@@H](C)C(=O)OCCOCCOCCOC(=O)c1ccc(-c2c3nc(c(-c4ccc(S(=O)(=O)[O-])cc4)c4ccc([nH]4)c(-c4ccc(S(=O)(=O)[O-])cc4)c4nc(c(-c5ccc(S(=O)(=O)[O-])cc5)c5ccc2[nH]5)C=C4)C=C3)cc1
REMARK SMILES IDX 35 1 34 2 33 3 32 4 31 5 29 6 30 7 27 8 28 9 26 10 25 11
REMARK SMILES IDX 5 12 6 13 16 14 24 15 17 16 23 17 18 18 20 19 19 20 21 21
REMARK SMILES IDX 22 22 4 23 1 24 2 25 3 26 7 28 8 29 9 30 15 31 10 32 13 33
REMARK SMILES IDX 11 34 14 35 12 36 36 37 37 38 38 39 39 40 40 41 41 42 42 43
REMARK SMILES IDX 43 44 44 45 102 46 45 47 101 48 46 49 47 50 48 51 95 52
REMARK SMILES IDX 49 53 100 54 94 55 96 56 50 57 99 58 93 59 92 60 51 62 81 63
REMARK SMILES IDX 62 64 80 65 63 66 66 67 79 68 97 69 64 70 65 71 78 73 98 74
REMARK SMILES IDX 67 75 52 76 53 77 61 78 54 79 60 80 55 81 56 82 57 83 58 84
REMARK SMILES IDX 59 85 82 86 83 87 91 88 84 89 90 90 85 91 86 92 87 93 88 94
REMARK SMILES IDX 89 95 68 96 69 97 77 98 70 99 76 100 71 101 72 102 73 103
REMARK SMILES IDX 74 104 75 105
REMARK H PARENT 4 27 96 61 66 72
REMARK Flexibility Score: inf
ROOT
ATOM      1  C   UNL     1       4.838   2.438  -0.909  1.00  0.00     0.188 C 
ENDROOT
BRANCH   1   2
ATOM      2  O   UNL     1       6.000   3.072  -1.432  1.00  0.00    -0.376 OA
BRANCH   2   3
ATOM      3  C   UNL     1       6.280   2.736  -2.786  1.00  0.00     0.202 C 
BRANCH   3   4
ATOM      4  C   UNL     1       6.751   1.279  -3.005  1.00  0.00     0.261 C 
BRANCH   4   5
ATOM      5  O   UNL     1       5.739   0.299  -2.628  1.00  0.00    -0.461 OA
BRANCH   5   6
ATOM      6  C   UNL     1       5.833  -0.152  -1.351  1.00  0.00     0.335 C 
ATOM      7  O   UNL     1       6.839  -0.006  -0.661  1.00  0.00    -0.249 OA
BRANCH   6   8
ATOM      8  C   UNL     1       4.536  -0.888  -0.791  1.00  0.00     0.225 C 
ATOM      9  C   UNL     1       5.030  -2.338  -0.847  1.00  0.00     0.051 C 
BRANCH   8  10
ATOM     10  O   UNL     1       3.091  -0.671  -0.797  1.00  0.00    -0.358 OA
BRANCH  10  11
ATOM     11  C   UNL     1       2.257  -0.634  -1.991  1.00  0.00     0.180 C 
ATOM     12  C   UNL     1       1.853  -2.076  -2.492  1.00  0.00     0.182 C 
ATOM     13  C   UNL     1       1.126  -2.096  -3.872  1.00  0.00     0.333 C 
ATOM     14  O   UNL     1      -0.068  -1.347  -3.811  1.00  0.00    -0.332 OA
ATOM     15  C   UNL     1       0.751   0.085  -1.881  1.00  0.00     0.184 C 
ATOM     16  C   UNL     1       0.086  -0.041  -3.290  1.00  0.00     0.180 C 
ATOM     17  O   UNL     1       0.657   1.482  -1.505  1.00  0.00    -0.342 OA
ATOM     18  C   UNL     1      -1.317   0.520  -3.302  1.00  0.00     0.198 C 
ATOM     19  C   UNL     1      -0.699   2.036  -1.606  1.00  0.00     0.163 C 
ATOM     20  O   UNL     1      -1.294   1.850  -2.890  1.00  0.00    -0.348 OA
ATOM     21  C   UNL     1      -0.690   3.560  -1.567  1.00  0.00     0.075 C 
ATOM     22  C   UNL     1      -1.632   1.552  -0.488  1.00  0.00     0.075 C 
BRANCH  12  23
ATOM     23  N   UNL     1       2.770  -3.199  -2.395  1.00  0.00    -0.345 N 
ATOM     24  C   UNL     1       2.085  -3.945  -0.114  1.00  0.00     0.114 C 
ATOM     25  C   UNL     1       2.759  -4.189  -1.446  1.00  0.00     0.217 C 
ATOM     26  O   UNL     1       3.345  -5.244  -1.685  1.00  0.00    -0.275 OA
ATOM     27  H   UNL     1       3.473  -3.255  -3.082  1.00  0.00     0.164 HD
ENDBRANCH  12  23
BRANCH  13  28
ATOM     28  O   UNL     1       1.881  -1.990  -5.104  1.00  0.00    -0.463 OA
BRANCH  28  29
ATOM     29  C   UNL     1       2.349  -0.761  -5.449  1.00  0.00     0.123 A 
ATOM     30  C   UNL     1       3.487  -0.295  -4.838  1.00  0.00     0.047 A 
ATOM     31  C   UNL     1       1.771   0.007  -6.463  1.00  0.00     0.050 A 
ATOM     32  C   UNL     1       3.841   1.038  -4.996  1.00  0.00     0.007 A 
ATOM     33  C   UNL     1       2.228   1.323  -6.728  1.00  0.00    -0.045 A 
ATOM     34  C   UNL     1       3.211   1.881  -5.904  1.00  0.00    -0.048 A 
ATOM     35  C   UNL     1       1.702   2.074  -7.918  1.00  0.00     0.045 C 
ATOM     36  C   UNL     1       3.664   3.313  -5.980  1.00  0.00     0.044 C 
ENDBRANCH  28  29
ENDBRANCH  13  28
ENDBRANCH  10  11
ENDBRANCH   8  10
ENDBRANCH   6   8
ENDBRANCH   5   6
ENDBRANCH   4   5
ENDBRANCH   3   4
ENDBRANCH   2   3
ENDBRANCH   1   2
BRANCH   1  37
ATOM     37  C   UNL     1       3.634   3.320  -0.853  1.00  0.00     0.188 C 
BRANCH  37  38
ATOM     38  O   UNL     1       2.997   3.495  -2.111  1.00  0.00    -0.376 OA
BRANCH  38  39
ATOM     39  C   UNL     1       2.935   4.853  -2.528  1.00  0.00     0.202 C 
BRANCH  39  40
ATOM     40  C   UNL     1       2.145   5.849  -1.645  1.00  0.00     0.261 C 
BRANCH  40  41
ATOM     41  O   UNL     1       2.584   5.919  -0.276  1.00  0.00    -0.460 OA
BRANCH  41  42
ATOM     42  C   UNL     1       1.916   5.158   0.635  1.00  0.00     0.338 C 
ATOM     43  O   UNL     1       0.878   4.558   0.496  1.00  0.00    -0.246 OA
BRANCH  42  44
ATOM     44  C   UNL     1       2.776   4.928   1.804  1.00  0.00     0.060 A 
ATOM     45  C   UNL     1       2.900   3.619   2.312  1.00  0.00     0.016 A 
ATOM     46  C   UNL     1       3.484   5.991   2.348  1.00  0.00     0.016 A 
ATOM     47  C   UNL     1       3.749   3.370   3.379  1.00  0.00     0.010 A 
ATOM     48  C   UNL     1       4.304   5.750   3.434  1.00  0.00     0.010 A 
ATOM     49  C   UNL     1       4.412   4.450   3.962  1.00  0.00    -0.014 A 
BRANCH  49  50
ATOM     50  C   UNL     1       5.052   4.310   5.275  1.00  0.00     0.031 A 
ATOM     51  C   UNL     1       4.266   4.773   6.461  1.00  0.00     0.074 A 
ATOM     52  C   UNL     1       6.323   3.895   5.360  1.00  0.00     0.049 A 
ATOM     53  N   UNL     1       4.667   4.997   7.679  1.00  0.00    -0.248 NA
ATOM     54  C   UNL     1       2.838   5.058   6.227  1.00  0.00     0.031 C 
ATOM     55  C   UNL     1       7.129   3.397   4.245  1.00  0.00     0.029 A 
ATOM     56  N   UNL     1       7.169   3.874   6.433  1.00  0.00    -0.354 N 
ATOM     57  C   UNL     1       3.553   5.488   8.348  1.00  0.00     0.074 A 
ATOM     58  C   UNL     1       2.466   5.547   7.399  1.00  0.00     0.031 C 
ATOM     59  C   UNL     1       8.373   3.154   4.688  1.00  0.00     0.029 A 
ATOM     60  C   UNL     1       8.455   3.529   6.097  1.00  0.00     0.049 A 
ATOM     61  H   UNL     1       6.886   4.085   7.352  1.00  0.00     0.167 HD
ATOM     62  C   UNL     1       3.462   5.866   9.643  1.00  0.00     0.031 A 
ATOM     63  C   UNL     1       9.574   3.566   6.843  1.00  0.00     0.031 A 
ATOM     64  C   UNL     1       4.579   5.816  10.546  1.00  0.00     0.049 A 
ATOM     65  C   UNL     1       9.462   4.029   8.271  1.00  0.00     0.074 A 
ATOM     66  C   UNL     1       4.617   6.136  11.888  1.00  0.00     0.029 A 
ATOM     67  N   UNL     1       5.864   5.428  10.183  1.00  0.00    -0.354 N 
ATOM     68  N   UNL     1       8.401   4.461   8.915  1.00  0.00    -0.248 NA
ATOM     69  C   UNL     1      10.688   4.003   9.074  1.00  0.00     0.031 C 
ATOM     70  C   UNL     1       5.941   6.005  12.322  1.00  0.00     0.029 A 
ATOM     71  C   UNL     1       6.711   5.529  11.270  1.00  0.00     0.049 A 
ATOM     72  H   UNL     1       6.130   5.127   9.285  1.00  0.00     0.167 HD
ATOM     73  C   UNL     1       8.825   4.729  10.211  1.00  0.00     0.074 A 
ATOM     74  C   UNL     1      10.239   4.402  10.257  1.00  0.00     0.031 C 
ATOM     75  C   UNL     1       8.116   5.195  11.271  1.00  0.00     0.031 A 
BRANCH  62  76
ATOM     76  C   UNL     1       2.142   6.412  10.117  1.00  0.00    -0.014 A 
ATOM     77  C   UNL     1       0.993   5.603  10.193  1.00  0.00     0.010 A 
ATOM     78  C   UNL     1       2.046   7.766  10.488  1.00  0.00     0.010 A 
ATOM     79  C   UNL     1      -0.234   6.147  10.582  1.00  0.00     0.020 A 
ATOM     80  C   UNL     1       0.828   8.306  10.911  1.00  0.00     0.020 A 
ATOM     81  C   UNL     1      -0.309   7.497  10.936  1.00  0.00     0.054 A 
BRANCH  81  82
ATOM     82  S   UNL     1      -1.912   8.175  11.447  1.00  0.00     0.124 S 
ATOM     83  O   UNL     1      -2.647   8.194  10.185  1.00  0.00    -0.237 OA
ATOM     84  O   UNL     1      -2.374   7.195  12.427  1.00  0.00    -0.237 OA
ATOM     85  O   UNL     1      -1.577   9.488  11.993  1.00  0.00    -0.744 OA
ENDBRANCH  81  82
ENDBRANCH  62  76
BRANCH  63  86
ATOM     86  C   UNL     1      10.872   3.164   6.239  1.00  0.00    -0.014 A 
ATOM     87  C   UNL     1      11.486   1.957   6.611  1.00  0.00     0.010 A 
ATOM     88  C   UNL     1      11.468   3.954   5.237  1.00  0.00     0.010 A 
ATOM     89  C   UNL     1      12.672   1.546   5.994  1.00  0.00     0.020 A 
ATOM     90  C   UNL     1      12.638   3.533   4.598  1.00  0.00     0.020 A 
ATOM     91  C   UNL     1      13.236   2.333   4.985  1.00  0.00     0.054 A 
BRANCH  91  92
ATOM     92  S   UNL     1      14.733   1.738   4.150  1.00  0.00     0.124 S 
ATOM     93  O   UNL     1      15.741   1.879   5.195  1.00  0.00    -0.237 OA
ATOM     94  O   UNL     1      14.373   0.366   3.800  1.00  0.00    -0.237 OA
ATOM     95  O   UNL     1      14.877   2.646   3.014  1.00  0.00    -0.744 OA
ENDBRANCH  91  92
ENDBRANCH  63  86
BRANCH  75  96
ATOM     96  C   UNL     1       8.846   5.338  12.578  1.00  0.00    -0.014 A 
ATOM     97  C   UNL     1       9.786   6.362  12.784  1.00  0.00     0.010 A 
ATOM     98  C   UNL     1       8.517   4.479  13.643  1.00  0.00     0.010 A 
ATOM     99  C   UNL     1      10.402   6.509  14.029  1.00  0.00     0.020 A 
ATOM    100  C   UNL     1       9.105   4.644  14.897  1.00  0.00     0.020 A 
ATOM    101  C   UNL     1      10.053   5.653  15.079  1.00  0.00     0.054 A 
BRANCH 101 102
ATOM    102  S   UNL     1      10.820   5.907  16.701  1.00  0.00     0.124 S 
ATOM    103  O   UNL     1      12.189   5.459  16.463  1.00  0.00    -0.237 OA
ATOM    104  O   UNL     1      10.656   7.344  16.909  1.00  0.00    -0.237 OA
ATOM    105  O   UNL     1      10.033   5.059  17.594  1.00  0.00    -0.744 OA
ENDBRANCH 101 102
ENDBRANCH  75  96
ENDBRANCH  49  50
ENDBRANCH  42  44
ENDBRANCH  41  42
ENDBRANCH  40  41
ENDBRANCH  39  40
ENDBRANCH  38  39
ENDBRANCH  37  38
ENDBRANCH   1  37
TORSDOF 25
