REMARK SMILES NC(=O)c1c(-c2ccc(Cl)cc2)csc1NC(=O)[C@H]1[C@@H](C(=O)OCCOCCOCCOC(=O)c2ccc(-c3c4nc(c(-c5ccc(S(=O)(=O)[O-])cc5)c5ccc([nH]5)c(-c5ccc(S(=O)(=O)[O-])cc5)c5nc(c(-c6ccc(S(=O)(=O)[O-])cc6)c6ccc3[nH]6)C=C5)C=C4)cc2)[C@@H]2CC[C@H]1O2
REMARK SMILES IDX 27 1 26 2 25 3 24 4 23 5 21 6 22 7 20 8 19 9 98 10 95 11
REMARK SMILES IDX 97 12 99 13 96 14 17 15 16 16 18 18 15 19 4 20 5 21 13 22
REMARK SMILES IDX 14 23 2 24 1 25 3 28 6 29 7 30 12 31 8 32 11 33 9 34 10 35
REMARK SMILES IDX 28 36 29 37 30 38 31 39 32 40 33 41 34 42 35 43 36 44 94 45
REMARK SMILES IDX 37 46 93 47 38 48 39 49 40 50 87 51 41 52 92 53 86 54 88 55
REMARK SMILES IDX 42 56 91 57 85 58 84 59 43 61 73 62 54 63 72 64 55 65 58 66
REMARK SMILES IDX 71 67 89 68 56 69 57 70 70 72 90 73 59 74 44 75 45 76 53 77
REMARK SMILES IDX 46 78 52 79 47 80 48 81 49 82 50 83 51 84 74 85 75 86 83 87
REMARK SMILES IDX 76 88 82 89 77 90 78 91 79 92 80 93 81 94 60 95 61 96 69 97
REMARK SMILES IDX 62 98 68 99 63 100 64 101 65 102 66 103 67 104
REMARK H PARENT 16 17 1 26 1 27 88 60 58 71
REMARK Flexibility Score: inf
ROOT
ATOM      1  C   UNL     1       2.527  -9.314   2.628  1.00  0.00     0.188 C 
ENDROOT
BRANCH   1   2
ATOM      2  O   UNL     1       2.488 -10.483   3.430  1.00  0.00    -0.376 OA
BRANCH   2   3
ATOM      3  C   UNL     1       1.205 -10.958   3.816  1.00  0.00     0.202 C 
BRANCH   3   4
ATOM      4  C   UNL     1       0.617 -10.259   5.040  1.00  0.00     0.261 C 
BRANCH   4   5
ATOM      5  O   UNL     1       0.075  -8.956   4.716  1.00  0.00    -0.463 OA
BRANCH   5   6
ATOM      6  C   UNL     1       0.672  -7.899   5.332  1.00  0.00     0.312 C 
ATOM      7  O   UNL     1       1.690  -8.010   5.999  1.00  0.00    -0.252 OA
BRANCH   6   8
ATOM      8  C   UNL     1      -0.163  -6.625   5.231  1.00  0.00     0.143 C 
ATOM      9  C   UNL     1      -0.412  -5.912   3.890  1.00  0.00     0.124 C 
ATOM     10  C   UNL     1       0.648  -4.783   3.901  1.00  0.00     0.132 C 
ATOM     11  C   UNL     1       0.642  -5.525   5.945  1.00  0.00     0.133 C 
ATOM     12  C   UNL     1       0.104  -3.579   4.661  1.00  0.00     0.035 C 
ATOM     13  O   UNL     1       1.596  -5.241   4.891  1.00  0.00    -0.373 OA
ATOM     14  C   UNL     1      -0.128  -4.196   6.045  1.00  0.00     0.036 C 
BRANCH   9  15
ATOM     15  C   UNL     1      -0.567  -6.551   2.526  1.00  0.00     0.231 C 
ATOM     16  N   UNL     1      -0.789  -7.893   2.467  1.00  0.00    -0.317 N 
ATOM     17  H   UNL     1       0.000  -8.481   2.455  1.00  0.00     0.170 HD
ATOM     18  O   UNL     1      -0.601  -5.860   1.507  1.00  0.00    -0.274 OA
BRANCH  16  19
ATOM     19  C   UNL     1      -2.028  -8.499   2.424  1.00  0.00     0.108 A 
ATOM     20  C   UNL     1      -2.314  -9.812   2.097  1.00  0.00     0.082 A 
ATOM     21  C   UNL     1      -3.355 -10.295   2.963  1.00  0.00     0.007 A 
ATOM     22  C   UNL     1      -3.984  -9.275   3.646  1.00  0.00     0.076 A 
ATOM     23  S   UNL     1      -3.316  -7.749   3.248  1.00  0.00    -0.125 S 
BRANCH  20  24
ATOM     24  C   UNL     1      -1.624 -10.659   1.130  1.00  0.00     0.252 C 
ATOM     25  N   UNL     1      -1.775 -10.287  -0.173  1.00  0.00    -0.365 N 
ATOM     26  H   UNL     1      -1.340 -10.807  -0.887  1.00  0.00     0.159 HD
ATOM     27  H   UNL     1      -2.319  -9.498  -0.400  1.00  0.00     0.159 HD
ATOM     28  O   UNL     1      -1.086 -11.721   1.417  1.00  0.00    -0.269 OA
ENDBRANCH  20  24
BRANCH  21  29
ATOM     29  C   UNL     1      -3.782 -11.680   3.039  1.00  0.00    -0.017 A 
ATOM     30  C   UNL     1      -4.983 -12.053   2.437  1.00  0.00     0.010 A 
ATOM     31  C   UNL     1      -2.899 -12.661   3.516  1.00  0.00     0.010 A 
ATOM     32  C   UNL     1      -5.282 -13.404   2.272  1.00  0.00     0.021 A 
ATOM     33  C   UNL     1      -3.194 -14.013   3.339  1.00  0.00     0.021 A 
ATOM     34  C   UNL     1      -4.381 -14.377   2.708  1.00  0.00     0.041 A 
ATOM     35  Cl  UNL     1      -4.724 -16.038   2.425  1.00  0.00    -0.084 Cl
ENDBRANCH  21  29
ENDBRANCH  16  19
ENDBRANCH   9  15
ENDBRANCH   6   8
ENDBRANCH   5   6
ENDBRANCH   4   5
ENDBRANCH   3   4
ENDBRANCH   2   3
ENDBRANCH   1   2
BRANCH   1  36
ATOM     36  C   UNL     1       1.833  -9.381   1.263  1.00  0.00     0.188 C 
BRANCH  36  37
ATOM     37  O   UNL     1       1.498 -10.649   0.744  1.00  0.00    -0.376 OA
BRANCH  37  38
ATOM     38  C   UNL     1       2.566 -11.396   0.179  1.00  0.00     0.202 C 
BRANCH  38  39
ATOM     39  C   UNL     1       2.963 -10.902  -1.219  1.00  0.00     0.261 C 
BRANCH  39  40
ATOM     40  O   UNL     1       3.878  -9.795  -1.109  1.00  0.00    -0.460 OA
BRANCH  40  41
ATOM     41  C   UNL     1       3.414  -8.572  -1.464  1.00  0.00     0.338 C 
ATOM     42  O   UNL     1       2.357  -8.313  -2.022  1.00  0.00    -0.246 OA
BRANCH  41  43
ATOM     43  C   UNL     1       4.265  -7.570  -0.785  1.00  0.00     0.060 A 
ATOM     44  C   UNL     1       3.659  -6.545  -0.035  1.00  0.00     0.016 A 
ATOM     45  C   UNL     1       5.653  -7.678  -0.848  1.00  0.00     0.016 A 
ATOM     46  C   UNL     1       4.445  -5.598   0.620  1.00  0.00     0.010 A 
ATOM     47  C   UNL     1       6.436  -6.722  -0.211  1.00  0.00     0.010 A 
ATOM     48  C   UNL     1       5.836  -5.656   0.485  1.00  0.00    -0.014 A 
BRANCH  48  49
ATOM     49  C   UNL     1       6.689  -4.494   0.812  1.00  0.00     0.031 A 
ATOM     50  C   UNL     1       7.138  -3.641  -0.342  1.00  0.00     0.074 A 
ATOM     51  C   UNL     1       7.123  -4.264   2.061  1.00  0.00     0.049 A 
ATOM     52  N   UNL     1       8.101  -2.764  -0.404  1.00  0.00    -0.248 NA
ATOM     53  C   UNL     1       6.416  -3.837  -1.614  1.00  0.00     0.031 C 
ATOM     54  C   UNL     1       6.697  -4.986   3.258  1.00  0.00     0.029 A 
ATOM     55  N   UNL     1       8.058  -3.370   2.519  1.00  0.00    -0.354 N 
ATOM     56  C   UNL     1       8.134  -2.341  -1.728  1.00  0.00     0.074 A 
ATOM     57  C   UNL     1       7.105  -3.064  -2.438  1.00  0.00     0.031 C 
ATOM     58  C   UNL     1       7.394  -4.527   4.313  1.00  0.00     0.029 A 
ATOM     59  C   UNL     1       8.352  -3.524   3.853  1.00  0.00     0.049 A 
ATOM     60  H   UNL     1       8.476  -2.686   1.948  1.00  0.00     0.167 HD
ATOM     61  C   UNL     1       8.961  -1.435  -2.299  1.00  0.00     0.031 A 
ATOM     62  C   UNL     1       9.321  -2.953   4.596  1.00  0.00     0.031 A 
ATOM     63  C   UNL     1       9.976  -0.728  -1.567  1.00  0.00     0.049 A 
ATOM     64  C   UNL     1      10.266  -1.984   3.930  1.00  0.00     0.074 A 
ATOM     65  C   UNL     1      10.866   0.225  -2.026  1.00  0.00     0.029 A 
ATOM     66  N   UNL     1      10.231  -0.899  -0.213  1.00  0.00    -0.354 N 
ATOM     67  N   UNL     1      10.305  -1.597   2.676  1.00  0.00    -0.248 NA
ATOM     68  C   UNL     1      11.299  -1.376   4.779  1.00  0.00     0.031 C 
ATOM     69  C   UNL     1      11.694   0.591  -0.961  1.00  0.00     0.029 A 
ATOM     70  C   UNL     1      11.276  -0.082   0.177  1.00  0.00     0.049 A 
ATOM     71  H   UNL     1       9.741  -1.512   0.381  1.00  0.00     0.167 HD
ATOM     72  C   UNL     1      11.343  -0.673   2.593  1.00  0.00     0.074 A 
ATOM     73  C   UNL     1      11.898  -0.555   3.927  1.00  0.00     0.031 C 
ATOM     74  C   UNL     1      11.797   0.018   1.518  1.00  0.00     0.031 A 
BRANCH  61  75
ATOM     75  C   UNL     1       8.826  -1.196  -3.780  1.00  0.00    -0.014 A 
ATOM     76  C   UNL     1       7.697  -0.557  -4.322  1.00  0.00     0.010 A 
ATOM     77  C   UNL     1       9.863  -1.597  -4.643  1.00  0.00     0.010 A 
ATOM     78  C   UNL     1       7.591  -0.355  -5.702  1.00  0.00     0.020 A 
ATOM     79  C   UNL     1       9.776  -1.369  -6.019  1.00  0.00     0.020 A 
ATOM     80  C   UNL     1       8.633  -0.761  -6.542  1.00  0.00     0.054 A 
BRANCH  80  81
ATOM     81  S   UNL     1       8.485  -0.451  -8.323  1.00  0.00     0.124 S 
ATOM     82  O   UNL     1       7.455  -1.411  -8.712  1.00  0.00    -0.237 OA
ATOM     83  O   UNL     1       8.084   0.953  -8.370  1.00  0.00    -0.237 OA
ATOM     84  O   UNL     1       9.823  -0.731  -8.837  1.00  0.00    -0.744 OA
ENDBRANCH  80  81
ENDBRANCH  61  75
BRANCH  62  85
ATOM     85  C   UNL     1       9.465  -3.303   6.038  1.00  0.00    -0.014 A 
ATOM     86  C   UNL     1       9.190  -2.350   7.035  1.00  0.00     0.010 A 
ATOM     87  C   UNL     1       9.874  -4.593   6.425  1.00  0.00     0.010 A 
ATOM     88  C   UNL     1       9.338  -2.674   8.388  1.00  0.00     0.020 A 
ATOM     89  C   UNL     1       9.993  -4.930   7.778  1.00  0.00     0.020 A 
ATOM     90  C   UNL     1       9.735  -3.963   8.751  1.00  0.00     0.054 A 
BRANCH  90  91
ATOM     91  S   UNL     1       9.873  -4.371  10.514  1.00  0.00     0.124 S 
ATOM     92  O   UNL     1      11.068  -3.629  10.905  1.00  0.00    -0.237 OA
ATOM     93  O   UNL     1       8.612  -3.868  11.054  1.00  0.00    -0.237 OA
ATOM     94  O   UNL     1      10.010  -5.825  10.522  1.00  0.00    -0.744 OA
ENDBRANCH  90  91
ENDBRANCH  62  85
BRANCH  74  95
ATOM     95  C   UNL     1      12.909   1.007   1.748  1.00  0.00    -0.014 A 
ATOM     96  C   UNL     1      14.225   0.585   2.002  1.00  0.00     0.010 A 
ATOM     97  C   UNL     1      12.635   2.383   1.640  1.00  0.00     0.010 A 
ATOM     98  C   UNL     1      15.243   1.526   2.175  1.00  0.00     0.020 A 
ATOM     99  C   UNL     1      13.656   3.325   1.780  1.00  0.00     0.020 A 
ATOM    100  C   UNL     1      14.952   2.890   2.062  1.00  0.00     0.054 A 
BRANCH 100 101
ATOM    101  S   UNL     1      16.301   4.088   2.244  1.00  0.00     0.124 S 
ATOM    102  O   UNL     1      16.563   4.035   3.679  1.00  0.00    -0.237 OA
ATOM    103  O   UNL     1      17.346   3.526   1.392  1.00  0.00    -0.237 OA
ATOM    104  O   UNL     1      15.720   5.340   1.763  1.00  0.00    -0.744 OA
ENDBRANCH 100 101
ENDBRANCH  74  95
ENDBRANCH  48  49
ENDBRANCH  41  43
ENDBRANCH  40  41
ENDBRANCH  39  40
ENDBRANCH  38  39
ENDBRANCH  37  38
ENDBRANCH  36  37
ENDBRANCH   1  36
TORSDOF 24
