REMARK SMILES C#Cc1cc(Cl)cc2c1O[C@H](C(F)(F)F)C(C(=O)OCCOCCOCCOC(=O)c1ccc(-c3c4nc(c(-c5ccc(S(=O)(=O)[O-])cc5)c5ccc([nH]5)c(-c5ccc(S(=O)(=O)[O-])cc5)c5nc(c(-c6ccc(S(=O)(=O)[O-])cc6)c6ccc3[nH]6)C=C5)C=C4)cc1)=C2
REMARK SMILES IDX 24 1 23 2 22 3 21 4 20 5 19 6 17 7 18 8 16 9 3 10 4 11 9 12
REMARK SMILES IDX 5 13 8 14 10 15 6 16 7 17 91 18 11 19 2 20 1 21 12 22 13 23
REMARK SMILES IDX 14 24 15 25 25 26 26 27 27 28 28 29 29 30 30 31 31 32 32 33
REMARK SMILES IDX 90 34 33 35 89 36 34 37 35 38 36 39 83 40 37 41 88 42 82 43
REMARK SMILES IDX 84 44 38 45 87 46 81 47 80 48 39 50 69 51 50 52 68 53 51 54
REMARK SMILES IDX 54 55 67 56 85 57 52 58 53 59 66 61 86 62 55 63 40 64 41 65
REMARK SMILES IDX 49 66 42 67 48 68 43 69 44 70 45 71 46 72 47 73 70 74 71 75
REMARK SMILES IDX 79 76 72 77 78 78 73 79 74 80 75 81 76 82 77 83 56 84 57 85
REMARK SMILES IDX 65 86 58 87 64 88 59 89 60 90 61 91 62 92 63 93
REMARK H PARENT 84 49 54 60
REMARK Flexibility Score: inf
ROOT
ATOM      1  C   UNL     1      -4.722  -5.158   2.141  1.00  0.00     0.188 C 
ENDROOT
BRANCH   1   2
ATOM      2  C   UNL     1      -6.078  -5.329   1.426  1.00  0.00     0.188 C 
BRANCH   2   3
ATOM      3  O   UNL     1      -6.558  -6.643   1.261  1.00  0.00    -0.376 OA
BRANCH   3   4
ATOM      4  C   UNL     1      -5.983  -7.511   0.301  1.00  0.00     0.202 C 
BRANCH   4   5
ATOM      5  C   UNL     1      -4.953  -7.114  -0.777  1.00  0.00     0.261 C 
BRANCH   5   6
ATOM      6  O   UNL     1      -4.200  -5.915  -0.575  1.00  0.00    -0.460 OA
BRANCH   6   7
ATOM      7  C   UNL     1      -4.555  -4.858  -1.346  1.00  0.00     0.338 C 
ATOM      8  O   UNL     1      -5.423  -4.841  -2.201  1.00  0.00    -0.246 OA
BRANCH   7   9
ATOM      9  C   UNL     1      -3.828  -3.654  -0.889  1.00  0.00     0.087 C 
ATOM     10  C   UNL     1      -1.743  -0.142  -0.019  1.00  0.00     0.068 A 
ATOM     11  C   UNL     1      -2.439   1.068   0.061  1.00  0.00     0.041 A 
ATOM     12  C   UNL     1      -2.445  -1.345  -0.202  1.00  0.00     0.143 A 
ATOM     13  C   UNL     1      -3.829   1.073  -0.020  1.00  0.00     0.043 A 
ATOM     14  C   UNL     1      -3.838  -1.325  -0.335  1.00  0.00     0.020 A 
ATOM     15  O   UNL     1      -1.713  -2.501  -0.246  1.00  0.00    -0.474 OA
ATOM     16  Cl  UNL     1      -4.679   2.565   0.071  1.00  0.00    -0.084 Cl
ATOM     17  C   UNL     1      -4.533  -0.115  -0.212  1.00  0.00     0.032 A 
ATOM     18  C   UNL     1      -4.550  -2.543  -0.691  1.00  0.00     0.027 C 
ATOM     19  C   UNL     1      -2.345  -3.739  -0.661  1.00  0.00     0.316 C 
BRANCH  10  20
ATOM     20  C   UNL     1      -0.311  -0.113   0.021  1.00  0.00    -0.067 C 
ATOM     21  C   UNL     1       0.891  -0.079   0.017  1.00  0.00     0.010 C 
ENDBRANCH  10  20
BRANCH  19  22
ATOM     22  C   UNL     1      -1.600  -4.269  -1.892  1.00  0.00     0.430 C 
ATOM     23  F   UNL     1      -0.260  -4.279  -1.692  1.00  0.00    -0.167 F 
ATOM     24  F   UNL     1      -1.954  -5.543  -2.183  1.00  0.00    -0.167 F 
ATOM     25  F   UNL     1      -1.842  -3.520  -2.991  1.00  0.00    -0.167 F 
ENDBRANCH  19  22
ENDBRANCH   7   9
ENDBRANCH   6   7
ENDBRANCH   5   6
ENDBRANCH   4   5
ENDBRANCH   3   4
ENDBRANCH   2   3
ENDBRANCH   1   2
BRANCH   1  26
ATOM     26  O   UNL     1      -3.929  -6.305   2.342  1.00  0.00    -0.376 OA
BRANCH  26  27
ATOM     27  C   UNL     1      -4.346  -7.277   3.289  1.00  0.00     0.202 C 
BRANCH  27  28
ATOM     28  C   UNL     1      -5.424  -7.076   4.383  1.00  0.00     0.261 C 
BRANCH  28  29
ATOM     29  O   UNL     1      -6.383  -6.022   4.228  1.00  0.00    -0.460 OA
BRANCH  29  30
ATOM     30  C   UNL     1      -6.179  -4.909   4.980  1.00  0.00     0.338 C 
ATOM     31  O   UNL     1      -5.265  -4.710   5.760  1.00  0.00    -0.246 OA
BRANCH  30  32
ATOM     32  C   UNL     1      -7.132  -3.862   4.548  1.00  0.00     0.060 A 
ATOM     33  C   UNL     1      -6.656  -2.757   3.824  1.00  0.00     0.016 A 
ATOM     34  C   UNL     1      -8.486  -3.965   4.863  1.00  0.00     0.016 A 
ATOM     35  C   UNL     1      -7.533  -1.754   3.410  1.00  0.00     0.010 A 
ATOM     36  C   UNL     1      -9.357  -2.938   4.482  1.00  0.00     0.010 A 
ATOM     37  C   UNL     1      -8.883  -1.818   3.774  1.00  0.00    -0.014 A 
BRANCH  37  38
ATOM     38  C   UNL     1      -9.754  -0.630   3.588  1.00  0.00     0.031 A 
ATOM     39  C   UNL     1      -9.982   0.276   4.769  1.00  0.00     0.074 A 
ATOM     40  C   UNL     1     -10.309  -0.340   2.396  1.00  0.00     0.049 A 
ATOM     41  N   UNL     1     -10.745   1.333   4.866  1.00  0.00    -0.248 NA
ATOM     42  C   UNL     1      -9.250  -0.054   6.005  1.00  0.00     0.031 C 
ATOM     43  C   UNL     1     -10.112  -1.098   1.161  1.00  0.00     0.029 A 
ATOM     44  N   UNL     1     -11.156   0.679   2.032  1.00  0.00    -0.354 N 
ATOM     45  C   UNL     1     -10.588   1.792   6.169  1.00  0.00     0.074 A 
ATOM     46  C   UNL     1      -9.687   0.879   6.837  1.00  0.00     0.031 C 
ATOM     47  C   UNL     1     -10.821  -0.518   0.176  1.00  0.00     0.029 A 
ATOM     48  C   UNL     1     -11.554   0.626   0.717  1.00  0.00     0.049 A 
ATOM     49  H   UNL     1     -11.451   1.381   2.656  1.00  0.00     0.167 HD
ATOM     50  C   UNL     1     -11.134   2.883   6.754  1.00  0.00     0.031 A 
ATOM     51  C   UNL     1     -12.425   1.400   0.034  1.00  0.00     0.031 A 
ATOM     52  C   UNL     1     -12.037   3.785   6.091  1.00  0.00     0.049 A 
ATOM     53  C   UNL     1     -13.109   2.545   0.744  1.00  0.00     0.074 A 
ATOM     54  C   UNL     1     -12.645   4.917   6.604  1.00  0.00     0.029 A 
ATOM     55  N   UNL     1     -12.461   3.661   4.778  1.00  0.00    -0.354 N 
ATOM     56  N   UNL     1     -12.944   2.970   1.974  1.00  0.00    -0.248 NA
ATOM     57  C   UNL     1     -14.094   3.317  -0.029  1.00  0.00     0.031 C 
ATOM     58  C   UNL     1     -13.489   5.440   5.622  1.00  0.00     0.029 A 
ATOM     59  C   UNL     1     -13.348   4.679   4.473  1.00  0.00     0.049 A 
ATOM     60  H   UNL     1     -12.175   2.955   4.155  1.00  0.00     0.167 HD
ATOM     61  C   UNL     1     -13.778   4.077   2.109  1.00  0.00     0.074 A 
ATOM     62  C   UNL     1     -14.431   4.267   0.832  1.00  0.00     0.031 C 
ATOM     63  C   UNL     1     -13.986   4.865   3.194  1.00  0.00     0.031 A 
BRANCH  50  64
ATOM     64  C   UNL     1     -10.783   3.166   8.191  1.00  0.00    -0.014 A 
ATOM     65  C   UNL     1      -9.501   3.622   8.545  1.00  0.00     0.010 A 
ATOM     66  C   UNL     1     -11.774   3.067   9.185  1.00  0.00     0.010 A 
ATOM     67  C   UNL     1      -9.213   3.964   9.868  1.00  0.00     0.020 A 
ATOM     68  C   UNL     1     -11.499   3.437  10.504  1.00  0.00     0.020 A 
ATOM     69  C   UNL     1     -10.217   3.879  10.838  1.00  0.00     0.054 A 
BRANCH  69  70
ATOM     70  S   UNL     1      -9.828   4.394  12.532  1.00  0.00     0.124 S 
ATOM     71  O   UNL     1      -8.851   3.386  12.938  1.00  0.00    -0.237 OA
ATOM     72  O   UNL     1      -9.297   5.740  12.339  1.00  0.00    -0.237 OA
ATOM     73  O   UNL     1     -11.114   4.324  13.222  1.00  0.00    -0.744 OA
ENDBRANCH  69  70
ENDBRANCH  50  64
BRANCH  51  74
ATOM     74  C   UNL     1     -12.720   1.119  -1.401  1.00  0.00    -0.014 A 
ATOM     75  C   UNL     1     -12.369   2.047  -2.399  1.00  0.00     0.010 A 
ATOM     76  C   UNL     1     -13.379  -0.066  -1.780  1.00  0.00     0.010 A 
ATOM     77  C   UNL     1     -12.690   1.808  -3.739  1.00  0.00     0.020 A 
ATOM     78  C   UNL     1     -13.671  -0.326  -3.122  1.00  0.00     0.020 A 
ATOM     79  C   UNL     1     -13.335   0.620  -4.093  1.00  0.00     0.054 A 
BRANCH  79  80
ATOM     80  S   UNL     1     -13.711   0.320  -5.842  1.00  0.00     0.124 S 
ATOM     81  O   UNL     1     -14.714   1.344  -6.119  1.00  0.00    -0.237 OA
ATOM     82  O   UNL     1     -12.411   0.518  -6.478  1.00  0.00    -0.237 OA
ATOM     83  O   UNL     1     -14.203  -1.056  -5.857  1.00  0.00    -0.744 OA
ENDBRANCH  79  80
ENDBRANCH  51  74
BRANCH  63  84
ATOM     84  C   UNL     1     -14.933   6.030   3.055  1.00  0.00    -0.014 A 
ATOM     85  C   UNL     1     -16.319   5.832   2.924  1.00  0.00     0.010 A 
ATOM     86  C   UNL     1     -14.437   7.345   3.148  1.00  0.00     0.010 A 
ATOM     87  C   UNL     1     -17.186   6.926   2.864  1.00  0.00     0.020 A 
ATOM     88  C   UNL     1     -15.304   8.440   3.124  1.00  0.00     0.020 A 
ATOM     89  C   UNL     1     -16.674   8.223   2.971  1.00  0.00     0.054 A 
BRANCH  89  90
ATOM     90  S   UNL     1     -17.832   9.619   2.943  1.00  0.00     0.124 S 
ATOM     91  O   UNL     1     -18.336   9.570   1.574  1.00  0.00    -0.237 OA
ATOM     92  O   UNL     1     -18.794   9.254   3.980  1.00  0.00    -0.237 OA
ATOM     93  O   UNL     1     -16.994  10.774   3.256  1.00  0.00    -0.744 OA
ENDBRANCH  89  90
ENDBRANCH  63  84
ENDBRANCH  37  38
ENDBRANCH  30  32
ENDBRANCH  29  30
ENDBRANCH  28  29
ENDBRANCH  27  28
ENDBRANCH  26  27
ENDBRANCH   1  26
TORSDOF 22
