REMARK SMILES CN1C(=O)[C@@H]2CC=CC[C@]2(C(=O)OCCOCCOCCOC(=O)c2ccc(-c3c4nc(c(-c5ccc(S(=O)(=O)[O-])cc5)c5ccc([nH]5)c(-c5ccc(S(=O)(=O)[O-])cc5)c5nc(c(-c6ccc(S(=O)(=O)[O-])cc6)c6ccc3[nH]6)C=C5)C=C4)cc2)[C@H]1c1ccccc1
REMARK SMILES IDX 18 1 17 2 16 3 15 4 14 5 13 6 11 7 12 8 10 9 1 10 2 11 3 12
REMARK SMILES IDX 85 13 4 14 5 15 6 16 9 17 7 18 8 19 86 20 87 21 91 22 88 23
REMARK SMILES IDX 90 24 89 25 19 26 20 27 21 28 22 29 23 30 24 31 25 32 26 33
REMARK SMILES IDX 84 34 27 35 83 36 28 37 29 38 30 39 77 40 31 41 82 42 76 43
REMARK SMILES IDX 78 44 32 45 81 46 75 47 74 48 33 50 63 51 44 52 62 53 45 54
REMARK SMILES IDX 48 55 61 56 79 57 46 58 47 59 60 61 80 62 49 63 34 64 35 65
REMARK SMILES IDX 43 66 36 67 42 68 37 69 38 70 39 71 40 72 41 73 64 74 65 75
REMARK SMILES IDX 73 76 66 77 72 78 67 79 68 80 69 81 70 82 71 83 50 84 51 85
REMARK SMILES IDX 59 86 52 87 58 88 53 89 54 90 55 91 56 92 57 93
REMARK H PARENT 78 49 48 60
REMARK Flexibility Score: inf
ROOT
ATOM      1  C   UNL     1      -1.085   5.019   2.326  1.00  0.00     0.188 C 
ENDROOT
BRANCH   1   2
ATOM      2  C   UNL     1      -0.863   5.938   3.555  1.00  0.00     0.188 C 
BRANCH   2   3
ATOM      3  O   UNL     1       0.439   5.890   4.155  1.00  0.00    -0.376 OA
BRANCH   3   4
ATOM      4  C   UNL     1       1.513   6.316   3.326  1.00  0.00     0.202 C 
BRANCH   4   5
ATOM      5  C   UNL     1       2.552   5.195   3.146  1.00  0.00     0.261 C 
BRANCH   5   6
ATOM      6  O   UNL     1       1.872   3.942   2.987  1.00  0.00    -0.463 OA
BRANCH   6   7
ATOM      7  C   UNL     1       2.127   2.814   3.754  1.00  0.00     0.315 C 
ATOM      8  O   UNL     1       3.027   2.690   4.565  1.00  0.00    -0.251 OA
BRANCH   7   9
ATOM      9  C   UNL     1       0.940   1.836   3.477  1.00  0.00     0.108 C 
ATOM     10  C   UNL     1       0.419   0.071   0.096  1.00  0.00     0.147 C 
ATOM     11  N   UNL     1       0.487   0.485   1.488  1.00  0.00    -0.337 N 
ATOM     12  C   UNL     1       0.517  -0.411   2.524  1.00  0.00     0.227 C 
ATOM     13  C   UNL     1       1.036   1.753   1.880  1.00  0.00     0.133 C 
ATOM     14  O   UNL     1       0.365  -1.619   2.400  1.00  0.00    -0.275 OA
ATOM     15  C   UNL     1       0.780   0.318   3.846  1.00  0.00     0.102 C 
ATOM     16  C   UNL     1      -0.437  -0.147   4.726  1.00  0.00     0.041 C 
ATOM     17  C   UNL     1      -0.002   2.619   4.438  1.00  0.00     0.049 C 
ATOM     18  C   UNL     1      -1.515   0.839   5.035  1.00  0.00    -0.030 C 
ATOM     19  C   UNL     1      -1.329   2.138   4.847  1.00  0.00    -0.030 C 
BRANCH  13  20
ATOM     20  C   UNL     1       2.522   1.785   1.369  1.00  0.00    -0.024 A 
ATOM     21  C   UNL     1       3.501   0.957   1.961  1.00  0.00     0.006 A 
ATOM     22  C   UNL     1       2.952   2.806   0.506  1.00  0.00     0.006 A 
ATOM     23  C   UNL     1       4.855   1.277   1.873  1.00  0.00     0.000 A 
ATOM     24  C   UNL     1       4.316   3.103   0.397  1.00  0.00     0.000 A 
ATOM     25  C   UNL     1       5.259   2.372   1.119  1.00  0.00     0.000 A 
ENDBRANCH  13  20
ENDBRANCH   7   9
ENDBRANCH   6   7
ENDBRANCH   5   6
ENDBRANCH   4   5
ENDBRANCH   3   4
ENDBRANCH   2   3
ENDBRANCH   1   2
BRANCH   1  26
ATOM     26  O   UNL     1      -0.866   5.546   1.026  1.00  0.00    -0.376 OA
BRANCH  26  27
ATOM     27  C   UNL     1      -1.342   6.852   0.757  1.00  0.00     0.202 C 
BRANCH  27  28
ATOM     28  C   UNL     1      -2.822   7.194   1.015  1.00  0.00     0.261 C 
BRANCH  28  29
ATOM     29  O   UNL     1      -3.354   6.748   2.278  1.00  0.00    -0.460 OA
BRANCH  29  30
ATOM     30  C   UNL     1      -4.229   5.704   2.200  1.00  0.00     0.338 C 
ATOM     31  O   UNL     1      -4.610   5.163   1.186  1.00  0.00    -0.246 OA
BRANCH  30  32
ATOM     32  C   UNL     1      -4.515   5.162   3.558  1.00  0.00     0.060 A 
ATOM     33  C   UNL     1      -4.469   3.770   3.724  1.00  0.00     0.016 A 
ATOM     34  C   UNL     1      -4.873   5.977   4.633  1.00  0.00     0.016 A 
ATOM     35  C   UNL     1      -4.837   3.188   4.942  1.00  0.00     0.010 A 
ATOM     36  C   UNL     1      -5.250   5.390   5.853  1.00  0.00     0.010 A 
ATOM     37  C   UNL     1      -5.273   3.990   6.003  1.00  0.00    -0.014 A 
BRANCH  37  38
ATOM     38  C   UNL     1      -5.965   3.356   7.160  1.00  0.00     0.031 A 
ATOM     39  C   UNL     1      -7.473   3.285   7.133  1.00  0.00     0.074 A 
ATOM     40  C   UNL     1      -5.297   2.804   8.191  1.00  0.00     0.049 A 
ATOM     41  N   UNL     1      -8.299   2.771   8.009  1.00  0.00    -0.248 NA
ATOM     42  C   UNL     1      -8.134   3.873   5.956  1.00  0.00     0.031 C 
ATOM     43  C   UNL     1      -3.844   2.748   8.333  1.00  0.00     0.029 A 
ATOM     44  N   UNL     1      -5.768   2.177   9.323  1.00  0.00    -0.354 N 
ATOM     45  C   UNL     1      -9.573   2.974   7.490  1.00  0.00     0.074 A 
ATOM     46  C   UNL     1      -9.413   3.689   6.243  1.00  0.00     0.031 C 
ATOM     47  C   UNL     1      -3.542   2.123   9.487  1.00  0.00     0.029 A 
ATOM     48  C   UNL     1      -4.777   1.760  10.182  1.00  0.00     0.049 A 
ATOM     49  H   UNL     1      -6.726   2.039   9.501  1.00  0.00     0.167 HD
ATOM     50  C   UNL     1     -10.771   2.595   7.995  1.00  0.00     0.031 A 
ATOM     51  C   UNL     1      -4.855   1.167  11.393  1.00  0.00     0.031 A 
ATOM     52  C   UNL     1     -10.945   1.904   9.245  1.00  0.00     0.049 A 
ATOM     53  C   UNL     1      -6.208   0.832  11.978  1.00  0.00     0.074 A 
ATOM     54  C   UNL     1     -12.124   1.480   9.835  1.00  0.00     0.029 A 
ATOM     55  N   UNL     1      -9.919   1.545  10.104  1.00  0.00    -0.354 N 
ATOM     56  N   UNL     1      -7.401   1.010  11.463  1.00  0.00    -0.248 NA
ATOM     57  C   UNL     1      -6.219   0.200  13.307  1.00  0.00     0.031 C 
ATOM     58  C   UNL     1     -11.816   0.923  11.080  1.00  0.00     0.029 A 
ATOM     59  C   UNL     1     -10.439   0.929  11.230  1.00  0.00     0.049 A 
ATOM     60  H   UNL     1      -8.962   1.704   9.938  1.00  0.00     0.167 HD
ATOM     61  C   UNL     1      -8.299   0.474  12.385  1.00  0.00     0.074 A 
ATOM     62  C   UNL     1      -7.511  -0.043  13.483  1.00  0.00     0.031 C 
ATOM     63  C   UNL     1      -9.653   0.409  12.322  1.00  0.00     0.031 A 
BRANCH  50  64
ATOM     64  C   UNL     1     -12.002   2.958   7.204  1.00  0.00    -0.014 A 
ATOM     65  C   UNL     1     -12.293   2.333   5.978  1.00  0.00     0.010 A 
ATOM     66  C   UNL     1     -12.897   3.916   7.714  1.00  0.00     0.010 A 
ATOM     67  C   UNL     1     -13.436   2.690   5.257  1.00  0.00     0.020 A 
ATOM     68  C   UNL     1     -14.057   4.252   7.012  1.00  0.00     0.020 A 
ATOM     69  C   UNL     1     -14.310   3.648   5.779  1.00  0.00     0.054 A 
BRANCH  69  70
ATOM     70  S   UNL     1     -15.796   4.077   4.831  1.00  0.00     0.124 S 
ATOM     71  O   UNL     1     -15.232   4.817   3.705  1.00  0.00    -0.237 OA
ATOM     72  O   UNL     1     -16.356   2.768   4.506  1.00  0.00    -0.237 OA
ATOM     73  O   UNL     1     -16.586   4.875   5.766  1.00  0.00    -0.744 OA
ENDBRANCH  69  70
ENDBRANCH  50  64
BRANCH  51  74
ATOM     74  C   UNL     1      -3.613   0.856  12.160  1.00  0.00    -0.014 A 
ATOM     75  C   UNL     1      -3.232  -0.475  12.412  1.00  0.00     0.010 A 
ATOM     76  C   UNL     1      -2.822   1.897  12.678  1.00  0.00     0.010 A 
ATOM     77  C   UNL     1      -2.101  -0.757  13.187  1.00  0.00     0.020 A 
ATOM     78  C   UNL     1      -1.673   1.620  13.426  1.00  0.00     0.020 A 
ATOM     79  C   UNL     1      -1.327   0.293  13.687  1.00  0.00     0.054 A 
BRANCH  79  80
ATOM     80  S   UNL     1       0.158  -0.096  14.656  1.00  0.00     0.124 S 
ATOM     81  O   UNL     1      -0.414  -0.598  15.901  1.00  0.00    -0.237 OA
ATOM     82  O   UNL     1       0.827  -1.089  13.820  1.00  0.00    -0.237 OA
ATOM     83  O   UNL     1       0.846   1.189  14.757  1.00  0.00    -0.744 OA
ENDBRANCH  79  80
ENDBRANCH  51  74
BRANCH  63  84
ATOM     84  C   UNL     1     -10.380  -0.300  13.440  1.00  0.00    -0.014 A 
ATOM     85  C   UNL     1     -10.447   0.234  14.739  1.00  0.00     0.010 A 
ATOM     86  C   UNL     1     -11.050  -1.508  13.167  1.00  0.00     0.010 A 
ATOM     87  C   UNL     1     -11.128  -0.449  15.752  1.00  0.00     0.020 A 
ATOM     88  C   UNL     1     -11.761  -2.177  14.168  1.00  0.00     0.020 A 
ATOM     89  C   UNL     1     -11.779  -1.652  15.461  1.00  0.00     0.054 A 
BRANCH  89  90
ATOM     90  S   UNL     1     -12.675  -2.508  16.787  1.00  0.00     0.124 S 
ATOM     91  O   UNL     1     -11.583  -3.024  17.607  1.00  0.00    -0.237 OA
ATOM     92  O   UNL     1     -13.459  -1.433  17.389  1.00  0.00    -0.237 OA
ATOM     93  O   UNL     1     -13.456  -3.521  16.081  1.00  0.00    -0.744 OA
ENDBRANCH  89  90
ENDBRANCH  63  84
ENDBRANCH  37  38
ENDBRANCH  30  32
ENDBRANCH  29  30
ENDBRANCH  28  29
ENDBRANCH  27  28
ENDBRANCH  26  27
ENDBRANCH   1  26
TORSDOF 21
