REMARK SMILES O=Cc1c(OCc2ccc(C(=O)OCCOCCOCCOC(=O)c3ccc(-c4c5nc(c(-c6ccc(S(=O)(=O)[O-])cc6)c6ccc([nH]6)c(-c6ccc(S(=O)(=O)[O-])cc6)c6nc(c(-c7ccc(S(=O)(=O)[O-])cc7)c7ccc4[nH]7)C=C6)C=C5)cc3)cc2)ccc2ccccc12
REMARK SMILES IDX 17 1 16 2 15 3 14 4 13 5 11 6 12 7 10 8 7 9 8 10 86 11 9 12
REMARK SMILES IDX 85 13 6 14 5 15 4 16 3 17 94 18 87 19 89 20 93 21 88 22
REMARK SMILES IDX 90 23 92 24 91 25 2 26 1 27 18 28 19 29 20 30 21 31 22 32
REMARK SMILES IDX 23 33 24 34 25 35 26 36 84 37 27 38 83 39 28 40 29 41 30 42
REMARK SMILES IDX 77 43 31 44 82 45 76 46 78 47 32 48 81 49 75 50 74 51 33 53
REMARK SMILES IDX 63 54 44 55 62 56 45 57 48 58 61 59 79 60 46 61 47 62 60 64
REMARK SMILES IDX 80 65 49 66 34 67 35 68 43 69 36 70 42 71 37 72 38 73 39 74
REMARK SMILES IDX 40 75 41 76 64 77 65 78 73 79 66 80 72 81 67 82 68 83 69 84
REMARK SMILES IDX 70 85 71 86 50 87 51 88 59 89 52 90 58 91 53 92 54 93 55 94
REMARK SMILES IDX 56 95 57 96
REMARK H PARENT 78 52 48 63
REMARK Flexibility Score: inf
ROOT
ATOM      1  C   UNL     1       6.366   7.800   0.792  1.00  0.00     0.188 C 
ENDROOT
BRANCH   1   2
ATOM      2  O   UNL     1       7.291   8.858   0.655  1.00  0.00    -0.376 OA
BRANCH   2   3
ATOM      3  C   UNL     1       7.160   9.815  -0.384  1.00  0.00     0.202 C 
BRANCH   3   4
ATOM      4  C   UNL     1       6.494   9.534  -1.736  1.00  0.00     0.261 C 
BRANCH   4   5
ATOM      5  O   UNL     1       5.327   8.708  -1.688  1.00  0.00    -0.460 OA
BRANCH   5   6
ATOM      6  C   UNL     1       5.402   7.590  -2.445  1.00  0.00     0.338 C 
ATOM      7  O   UNL     1       6.303   7.271  -3.212  1.00  0.00    -0.246 OA
BRANCH   6   8
ATOM      8  C   UNL     1       4.309   6.675  -2.095  1.00  0.00     0.060 A 
ATOM      9  C   UNL     1       2.328   4.748  -1.649  1.00  0.00    -0.011 A 
ATOM     10  C   UNL     1       3.657   4.501  -1.280  1.00  0.00     0.008 A 
ATOM     11  C   UNL     1       1.989   6.035  -2.111  1.00  0.00     0.008 A 
ATOM     12  C   UNL     1       4.652   5.433  -1.556  1.00  0.00     0.016 A 
ATOM     13  C   UNL     1       2.973   7.007  -2.318  1.00  0.00     0.016 A 
BRANCH   9  14
ATOM     14  C   UNL     1       1.270   3.653  -1.689  1.00  0.00     0.265 C 
BRANCH  14  15
ATOM     15  O   UNL     1       1.645   2.352  -1.227  1.00  0.00    -0.488 OA
BRANCH  15  16
ATOM     16  C   UNL     1       2.557   1.585  -1.908  1.00  0.00     0.130 A 
ATOM     17  C   UNL     1       2.992   0.406  -1.269  1.00  0.00     0.064 A 
ATOM     18  C   UNL     1       4.153  -0.294  -1.705  1.00  0.00    -0.004 A 
ATOM     19  C   UNL     1       3.185   1.982  -3.087  1.00  0.00     0.048 A 
ATOM     20  C   UNL     1       4.845   0.215  -2.831  1.00  0.00    -0.017 A 
ATOM     21  C   UNL     1       4.684  -1.455  -1.086  1.00  0.00     0.009 A 
ATOM     22  C   UNL     1       4.333   1.319  -3.525  1.00  0.00     0.012 A 
ATOM     23  C   UNL     1       6.045  -0.381  -3.253  1.00  0.00     0.009 A 
ATOM     24  C   UNL     1       5.874  -2.043  -1.524  1.00  0.00     0.001 A 
ATOM     25  C   UNL     1       6.561  -1.496  -2.598  1.00  0.00     0.001 A 
BRANCH  17  26
ATOM     26  C   UNL     1       2.249  -0.075  -0.079  1.00  0.00     0.264 C 
ATOM     27  O   UNL     1       1.025  -0.063  -0.011  1.00  0.00    -0.298 OA
ENDBRANCH  17  26
ENDBRANCH  15  16
ENDBRANCH  14  15
ENDBRANCH   9  14
ENDBRANCH   6   8
ENDBRANCH   5   6
ENDBRANCH   4   5
ENDBRANCH   3   4
ENDBRANCH   2   3
ENDBRANCH   1   2
BRANCH   1  28
ATOM     28  C   UNL     1       4.906   8.097   1.198  1.00  0.00     0.188 C 
BRANCH  28  29
ATOM     29  O   UNL     1       4.457   9.421   1.405  1.00  0.00    -0.376 OA
BRANCH  29  30
ATOM     30  C   UNL     1       5.124  10.262   2.329  1.00  0.00     0.202 C 
BRANCH  30  31
ATOM     31  C   UNL     1       5.594   9.780   3.707  1.00  0.00     0.261 C 
BRANCH  31  32
ATOM     32  O   UNL     1       6.178   8.473   3.754  1.00  0.00    -0.460 OA
BRANCH  32  33
ATOM     33  C   UNL     1       5.451   7.549   4.421  1.00  0.00     0.338 C 
ATOM     34  O   UNL     1       4.363   7.709   4.962  1.00  0.00    -0.246 OA
BRANCH  33  35
ATOM     35  C   UNL     1       6.082   6.229   4.276  1.00  0.00     0.060 A 
ATOM     36  C   UNL     1       5.373   5.218   3.613  1.00  0.00     0.016 A 
ATOM     37  C   UNL     1       7.333   5.969   4.842  1.00  0.00     0.016 A 
ATOM     38  C   UNL     1       5.907   3.934   3.532  1.00  0.00     0.010 A 
ATOM     39  C   UNL     1       7.855   4.675   4.774  1.00  0.00     0.010 A 
ATOM     40  C   UNL     1       7.134   3.646   4.142  1.00  0.00    -0.014 A 
BRANCH  40  41
ATOM     41  C   UNL     1       7.594   2.241   4.244  1.00  0.00     0.031 A 
ATOM     42  C   UNL     1       7.335   1.480   5.516  1.00  0.00     0.074 A 
ATOM     43  C   UNL     1       8.220   1.643   3.215  1.00  0.00     0.049 A 
ATOM     44  N   UNL     1       7.667   0.255   5.829  1.00  0.00    -0.248 NA
ATOM     45  C   UNL     1       6.602   2.196   6.573  1.00  0.00     0.031 C 
ATOM     46  C   UNL     1       8.494   2.259   1.917  1.00  0.00     0.029 A 
ATOM     47  N   UNL     1       8.744   0.379   3.106  1.00  0.00    -0.354 N 
ATOM     48  C   UNL     1       7.189   0.052   7.118  1.00  0.00     0.074 A 
ATOM     49  C   UNL     1       6.568   1.290   7.539  1.00  0.00     0.031 C 
ATOM     50  C   UNL     1       9.147   1.373   1.145  1.00  0.00     0.029 A 
ATOM     51  C   UNL     1       9.364   0.142   1.903  1.00  0.00     0.049 A 
ATOM     52  H   UNL     1       8.682  -0.293   3.822  1.00  0.00     0.167 HD
ATOM     53  C   UNL     1       7.256  -1.064   7.882  1.00  0.00     0.031 A 
ATOM     54  C   UNL     1      10.049  -0.936   1.472  1.00  0.00     0.031 A 
ATOM     55  C   UNL     1       7.894  -2.287   7.472  1.00  0.00     0.049 A 
ATOM     56  C   UNL     1      10.182  -2.138   2.372  1.00  0.00     0.074 A 
ATOM     57  C   UNL     1       7.999  -3.477   8.171  1.00  0.00     0.029 A 
ATOM     58  N   UNL     1       8.544  -2.474   6.263  1.00  0.00    -0.354 N 
ATOM     59  N   UNL     1       9.692  -2.328   3.574  1.00  0.00    -0.248 NA
ATOM     60  C   UNL     1      10.954  -3.276   1.850  1.00  0.00     0.031 C 
ATOM     61  C   UNL     1       8.763  -4.366   7.407  1.00  0.00     0.029 A 
ATOM     62  C   UNL     1       9.079  -3.751   6.206  1.00  0.00     0.049 A 
ATOM     63  H   UNL     1       8.616  -1.800   5.549  1.00  0.00     0.167 HD
ATOM     64  C   UNL     1      10.073  -3.616   3.940  1.00  0.00     0.074 A 
ATOM     65  C   UNL     1      10.820  -4.163   2.827  1.00  0.00     0.031 C 
ATOM     66  C   UNL     1       9.822  -4.285   5.092  1.00  0.00     0.031 A 
BRANCH  53  67
ATOM     67  C   UNL     1       6.651  -0.999   9.259  1.00  0.00    -0.014 A 
ATOM     68  C   UNL     1       5.257  -0.962   9.441  1.00  0.00     0.010 A 
ATOM     69  C   UNL     1       7.490  -1.008  10.388  1.00  0.00     0.010 A 
ATOM     70  C   UNL     1       4.714  -0.898  10.727  1.00  0.00     0.020 A 
ATOM     71  C   UNL     1       6.950  -0.971  11.676  1.00  0.00     0.020 A 
ATOM     72  C   UNL     1       5.565  -0.900  11.837  1.00  0.00     0.054 A 
BRANCH  72  73
ATOM     73  S   UNL     1       4.833  -0.836  13.496  1.00  0.00     0.124 S 
ATOM     74  O   UNL     1       4.376   0.550  13.569  1.00  0.00    -0.237 OA
ATOM     75  O   UNL     1       3.778  -1.843  13.420  1.00  0.00    -0.237 OA
ATOM     76  O   UNL     1       5.947  -1.171  14.380  1.00  0.00    -0.744 OA
ENDBRANCH  72  73
ENDBRANCH  53  67
BRANCH  54  77
ATOM     77  C   UNL     1      10.676  -0.927   0.123  1.00  0.00    -0.014 A 
ATOM     78  C   UNL     1      10.179  -1.748  -0.903  1.00  0.00     0.010 A 
ATOM     79  C   UNL     1      11.781  -0.096  -0.140  1.00  0.00     0.010 A 
ATOM     80  C   UNL     1      10.782  -1.748  -2.164  1.00  0.00     0.020 A 
ATOM     81  C   UNL     1      12.369  -0.072  -1.407  1.00  0.00     0.020 A 
ATOM     82  C   UNL     1      11.870  -0.906  -2.409  1.00  0.00     0.054 A 
BRANCH  82  83
ATOM     83  S   UNL     1      12.593  -0.879  -4.073  1.00  0.00     0.124 S 
ATOM     84  O   UNL     1      13.303  -2.153  -4.115  1.00  0.00    -0.237 OA
ATOM     85  O   UNL     1      11.409  -0.785  -4.925  1.00  0.00    -0.237 OA
ATOM     86  O   UNL     1      13.438   0.312  -4.059  1.00  0.00    -0.744 OA
ENDBRANCH  82  83
ENDBRANCH  54  77
BRANCH  66  87
ATOM     87  C   UNL     1      10.325  -5.701   5.200  1.00  0.00    -0.014 A 
ATOM     88  C   UNL     1      11.694  -5.982   5.358  1.00  0.00     0.010 A 
ATOM     89  C   UNL     1       9.404  -6.766   5.196  1.00  0.00     0.010 A 
ATOM     90  C   UNL     1      12.135  -7.303   5.478  1.00  0.00     0.020 A 
ATOM     91  C   UNL     1       9.838  -8.085   5.344  1.00  0.00     0.020 A 
ATOM     92  C   UNL     1      11.204  -8.347   5.469  1.00  0.00     0.054 A 
BRANCH  92  93
ATOM     93  S   UNL     1      11.797 -10.050   5.665  1.00  0.00     0.124 S 
ATOM     94  O   UNL     1      12.393 -10.316   4.359  1.00  0.00    -0.237 OA
ATOM     95  O   UNL     1      12.739  -9.937   6.775  1.00  0.00    -0.237 OA
ATOM     96  O   UNL     1      10.583 -10.808   5.961  1.00  0.00    -0.744 OA
ENDBRANCH  92  93
ENDBRANCH  66  87
ENDBRANCH  40  41
ENDBRANCH  33  35
ENDBRANCH  32  33
ENDBRANCH  31  32
ENDBRANCH  30  31
ENDBRANCH  29  30
ENDBRANCH  28  29
ENDBRANCH   1  28
TORSDOF 24
