REMARK SMILES O=C(OCCOCCOCCOC(=O)c1ccc(-c2c3nc(c(-c4ccc(S(=O)(=O)[O-])cc4)c4ccc([nH]4)c(-c4ccc(S(=O)(=O)[O-])cc4)c4nc(c(-c5ccc(S(=O)(=O)[O-])cc5)c5ccc2[nH]5)C=C4)C=C3)cc1)C1=Cc2cc(S(F)(F)(F)(F)F)ccc2O[C@@H]1C(F)(F)F
REMARK SMILES IDX 8 1 7 2 6 3 5 4 4 5 3 6 2 7 1 8 75 9 76 10 90 11 77 12 89 13
REMARK SMILES IDX 78 14 88 15 79 16 87 17 86 18 91 19 92 20 93 21 94 22 80 23
REMARK SMILES IDX 81 24 82 25 83 26 84 27 85 28 9 29 10 30 11 31 12 32 13 33
REMARK SMILES IDX 14 34 15 35 16 36 74 37 17 38 73 39 18 40 19 41 20 42 67 43
REMARK SMILES IDX 21 44 72 45 66 46 68 47 22 48 71 49 65 50 64 51 23 53 53 54
REMARK SMILES IDX 34 55 52 56 35 57 38 58 51 59 69 60 36 61 37 62 50 64 70 65
REMARK SMILES IDX 39 66 24 67 25 68 33 69 26 70 32 71 27 72 28 73 29 74 30 75
REMARK SMILES IDX 31 76 54 77 55 78 63 79 56 80 62 81 57 82 58 83 59 84 60 85
REMARK SMILES IDX 61 86 40 87 41 88 49 89 42 90 48 91 43 92 44 93 45 94 46 95
REMARK SMILES IDX 47 96
REMARK H PARENT 68 52 38 63
REMARK Flexibility Score: inf
ROOT
ATOM      1  C   UNL     1       2.561  -0.064   2.554  1.00  0.00     0.188 C 
ENDROOT
BRANCH   1   2
ATOM      2  C   UNL     1       3.067  -0.827   1.341  1.00  0.00     0.188 C 
BRANCH   2   3
ATOM      3  O   UNL     1       4.487  -0.827   1.341  1.00  0.00    -0.376 OA
BRANCH   3   4
ATOM      4  C   UNL     1       4.961   0.511   1.290  1.00  0.00     0.202 C 
BRANCH   4   5
ATOM      5  C   UNL     1       4.454   1.181   0.023  1.00  0.00     0.261 C 
BRANCH   5   6
ATOM      6  O   UNL     1       3.034   1.181   0.023  1.00  0.00    -0.460 OA
BRANCH   6   7
ATOM      7  C   UNL     1       2.324  -0.048   0.070  1.00  0.00     0.338 C 
ATOM      8  O   UNL     1       1.053  -0.048   0.070  1.00  0.00    -0.246 OA
BRANCH   7   9
ATOM      9  C   UNL     1       3.084  -1.364   0.119  1.00  0.00     0.087 C 
ATOM     10  C   UNL     1       4.444  -1.364   0.119  1.00  0.00     0.027 C 
ATOM     11  C   UNL     1       2.324  -2.679   0.168  1.00  0.00     0.316 C 
ATOM     12  C   UNL     1       5.205  -0.048   0.070  1.00  0.00     0.019 A 
ATOM     13  O   UNL     1       3.631   0.864   1.599  1.00  0.00    -0.475 OA
ATOM     14  C   UNL     1       6.281   0.070  -0.794  1.00  0.00     0.036 A 
ATOM     15  C   UNL     1       4.831   0.962   0.846  1.00  0.00     0.128 A 
ATOM     16  C   UNL     1       7.085   1.209  -0.556  1.00  0.00     0.107 A 
ATOM     17  C   UNL     1       5.594   2.101   0.928  1.00  0.00     0.048 A 
ATOM     18  C   UNL     1       6.705   2.261   0.146  1.00  0.00     0.028 A 
BRANCH  11  19
ATOM     19  C   UNL     1       2.691  -3.429   1.438  1.00  0.00     0.430 C 
ATOM     20  F   UNL     1       2.370  -2.691   2.497  1.00  0.00    -0.167 F 
ATOM     21  F   UNL     1       2.026  -4.580   1.482  1.00  0.00    -0.167 F 
ATOM     22  F   UNL     1       3.999  -3.672   1.448  1.00  0.00    -0.167 F 
ENDBRANCH  11  19
BRANCH  16  23
ATOM     23  S   UNL     1       8.752   1.226  -1.261  1.00  0.00     0.310 S 
ATOM     24  F   UNL     1       9.427   1.228   0.174  1.00  0.00    -0.094 F 
ATOM     25  F   UNL     1       8.739   2.799  -1.182  1.00  0.00    -0.094 F 
ATOM     26  F   UNL     1      10.184   1.240  -1.867  1.00  0.00    -0.094 F 
ATOM     27  F   UNL     1       8.802  -0.352  -1.202  1.00  0.00    -0.094 F 
ATOM     28  F   UNL     1       7.345   1.194  -0.542  1.00  0.00    -0.094 F 
ENDBRANCH  16  23
ENDBRANCH   7   9
ENDBRANCH   6   7
ENDBRANCH   5   6
ENDBRANCH   4   5
ENDBRANCH   3   4
ENDBRANCH   2   3
ENDBRANCH   1   2
BRANCH   1  29
ATOM     29  O   UNL     1       3.034   1.274   2.504  1.00  0.00    -0.376 OA
BRANCH  29  30
ATOM     30  C   UNL     1       4.454   1.274   2.504  1.00  0.00     0.202 C 
BRANCH  30  31
ATOM     31  C   UNL     1       4.961   0.604   3.771  1.00  0.00     0.261 C 
BRANCH  31  32
ATOM     32  O   UNL     1       4.487  -0.734   3.821  1.00  0.00    -0.460 OA
BRANCH  32  33
ATOM     33  C   UNL     1       3.091  -0.993   3.831  1.00  0.00     0.338 C 
ATOM     34  O   UNL     1       2.265  -0.028   3.795  1.00  0.00    -0.246 OA
BRANCH  33  35
ATOM     35  C   UNL     1       2.585  -2.425   3.885  1.00  0.00     0.060 A 
ATOM     36  C   UNL     1       1.558  -2.797   3.033  1.00  0.00     0.016 A 
ATOM     37  C   UNL     1       3.128  -3.293   4.730  1.00  0.00     0.016 A 
ATOM     38  C   UNL     1       0.972  -4.045   3.352  1.00  0.00     0.010 A 
ATOM     39  C   UNL     1       2.584  -4.545   4.892  1.00  0.00     0.010 A 
ATOM     40  C   UNL     1       1.531  -4.959   4.126  1.00  0.00    -0.014 A 
BRANCH  40  41
ATOM     41  C   UNL     1       1.029  -6.393   4.161  1.00  0.00     0.031 A 
ATOM     42  C   UNL     1       0.572  -6.896   5.381  1.00  0.00     0.074 A 
ATOM     43  C   UNL     1       1.053  -7.120   2.984  1.00  0.00     0.049 A 
ATOM     44  N   UNL     1       0.063  -8.106   5.622  1.00  0.00    -0.248 NA
ATOM     45  C   UNL     1       0.578  -6.137   6.640  1.00  0.00     0.031 C 
ATOM     46  C   UNL     1       1.504  -6.617   1.748  1.00  0.00     0.029 A 
ATOM     47  N   UNL     1       0.658  -8.425   2.788  1.00  0.00    -0.354 N 
ATOM     48  C   UNL     1      -0.281  -8.213   6.907  1.00  0.00     0.074 A 
ATOM     49  C   UNL     1       0.051  -6.950   7.582  1.00  0.00     0.031 C 
ATOM     50  C   UNL     1       1.394  -7.607   0.824  1.00  0.00     0.029 A 
ATOM     51  C   UNL     1       0.872  -8.746   1.466  1.00  0.00     0.049 A 
ATOM     52  H   UNL     1       0.287  -9.025   3.475  1.00  0.00     0.167 HD
ATOM     53  C   UNL     1      -0.860  -9.312   7.542  1.00  0.00     0.031 A 
ATOM     54  C   UNL     1       0.633  -9.958   0.837  1.00  0.00     0.031 A 
ATOM     55  C   UNL     1      -1.139 -10.510   6.903  1.00  0.00     0.049 A 
ATOM     56  C   UNL     1       0.108 -11.078   1.486  1.00  0.00     0.074 A 
ATOM     57  C   UNL     1      -1.730 -11.626   7.527  1.00  0.00     0.029 A 
ATOM     58  N   UNL     1      -0.902 -10.839   5.587  1.00  0.00    -0.354 N 
ATOM     59  N   UNL     1      -0.273 -11.171   2.761  1.00  0.00    -0.248 NA
ATOM     60  C   UNL     1      -0.119 -12.376   0.838  1.00  0.00     0.031 C 
ATOM     61  C   UNL     1      -1.839 -12.617   6.602  1.00  0.00     0.029 A 
ATOM     62  C   UNL     1      -1.318 -12.136   5.386  1.00  0.00     0.049 A 
ATOM     63  H   UNL     1      -0.505 -10.248   4.907  1.00  0.00     0.167 HD
ATOM     64  C   UNL     1      -0.743 -12.395   3.012  1.00  0.00     0.074 A 
ATOM     65  C   UNL     1      -0.644 -13.190   1.780  1.00  0.00     0.031 C 
ATOM     66  C   UNL     1      -1.254 -12.879   4.217  1.00  0.00     0.031 A 
BRANCH  53  67
ATOM     67  C   UNL     1      -1.204  -9.190   9.018  1.00  0.00    -0.014 A 
ATOM     68  C   UNL     1      -2.084  -8.203   9.430  1.00  0.00     0.010 A 
ATOM     69  C   UNL     1      -0.642 -10.020   9.889  1.00  0.00     0.010 A 
ATOM     70  C   UNL     1      -2.086  -7.985  10.828  1.00  0.00     0.020 A 
ATOM     71  C   UNL     1      -0.798  -9.826  11.240  1.00  0.00     0.020 A 
ATOM     72  C   UNL     1      -1.607  -8.833  11.720  1.00  0.00     0.054 A 
BRANCH  72  73
ATOM     73  S   UNL     1      -1.998  -8.689  13.481  1.00  0.00     0.124 S 
ATOM     74  O   UNL     1      -1.515  -7.333  14.001  1.00  0.00    -0.237 OA
ATOM     75  O   UNL     1      -3.512  -8.802  13.678  1.00  0.00    -0.237 OA
ATOM     76  O   UNL     1      -1.216  -9.941  14.343  1.00  0.00    -0.744 OA
ENDBRANCH  72  73
ENDBRANCH  53  67
BRANCH  54  77
ATOM     77  C   UNL     1       0.962 -10.075  -0.642  1.00  0.00    -0.014 A 
ATOM     78  C   UNL     1      -0.051 -10.370  -1.540  1.00  0.00     0.010 A 
ATOM     79  C   UNL     1       2.209  -9.877  -1.052  1.00  0.00     0.010 A 
ATOM     80  C   UNL     1       0.411 -10.722  -2.830  1.00  0.00     0.020 A 
ATOM     81  C   UNL     1       2.561 -10.111  -2.360  1.00  0.00     0.020 A 
ATOM     82  C   UNL     1       1.622 -10.464  -3.288  1.00  0.00     0.054 A 
BRANCH  82  83
ATOM     83  S   UNL     1       2.017 -10.570  -5.052  1.00  0.00     0.124 S 
ATOM     84  O   UNL     1       1.758 -11.995  -5.547  1.00  0.00    -0.237 OA
ATOM     85  O   UNL     1       1.137  -9.591  -5.832  1.00  0.00    -0.237 OA
ATOM     86  O   UNL     1       3.663 -10.174  -5.292  1.00  0.00    -0.744 OA
ENDBRANCH  82  83
ENDBRANCH  54  77
BRANCH  66  87
ATOM     87  C   UNL     1      -1.772 -14.308   4.250  1.00  0.00    -0.014 A 
ATOM     88  C   UNL     1      -0.894 -15.337   3.952  1.00  0.00     0.010 A 
ATOM     89  C   UNL     1      -3.039 -14.552   4.565  1.00  0.00     0.010 A 
ATOM     90  C   UNL     1      -1.527 -16.583   3.729  1.00  0.00     0.020 A 
ATOM     91  C   UNL     1      -3.555 -15.821   4.454  1.00  0.00     0.020 A 
ATOM     92  C   UNL     1      -2.758 -16.876   4.106  1.00  0.00     0.054 A 
BRANCH  92  93
ATOM     93  S   UNL     1      -3.359 -18.582   4.159  1.00  0.00     0.124 S 
ATOM     94  O   UNL     1      -3.271 -19.198   2.760  1.00  0.00    -0.237 OA
ATOM     95  O   UNL     1      -2.499 -19.396   5.129  1.00  0.00    -0.237 OA
ATOM     96  O   UNL     1      -4.985 -18.598   4.687  1.00  0.00    -0.744 OA
ENDBRANCH  92  93
ENDBRANCH  66  87
ENDBRANCH  40  41
ENDBRANCH  33  35
ENDBRANCH  32  33
ENDBRANCH  31  32
ENDBRANCH  30  31
ENDBRANCH  29  30
ENDBRANCH   1  29
TORSDOF 22
