REMARK SMILES C[C@H]([NH3+])c1ccc(F)cc1OCC(C)(C)C(=O)OCCOCCOCCOC(=O)c1ccc(-c2c3nc(c(-c4ccc(S(=O)(=O)[O-])cc4)c4ccc([nH]4)c(-c4ccc(S(=O)(=O)[O-])cc4)c4nc(c(-c5ccc(S(=O)(=O)[O-])cc5)c5ccc2[nH]5)C=C4)C=C3)cc1
REMARK SMILES IDX 22 1 21 2 20 3 19 4 18 5 16 6 17 7 13 8 14 9 15 10 12 11
REMARK SMILES IDX 11 12 10 13 4 14 5 15 6 16 9 17 7 18 8 19 2 20 1 21 3 22
REMARK SMILES IDX 23 26 24 27 25 28 26 29 27 30 28 31 29 32 30 33 31 34 89 35
REMARK SMILES IDX 32 36 88 37 33 38 34 39 35 40 82 41 36 42 87 43 81 44 83 45
REMARK SMILES IDX 37 46 86 47 80 48 79 49 38 51 68 52 49 53 67 54 50 55 53 56
REMARK SMILES IDX 66 57 84 58 51 59 52 60 65 62 85 63 54 64 39 65 40 66 48 67
REMARK SMILES IDX 41 68 47 69 42 70 43 71 44 72 45 73 46 74 69 75 70 76 78 77
REMARK SMILES IDX 71 78 77 79 72 80 73 81 74 82 75 83 76 84 55 85 56 86 64 87
REMARK SMILES IDX 57 88 63 89 58 90 59 91 60 92 61 93 62 94
REMARK H PARENT 3 23 3 24 3 25 83 50 53 61
REMARK Flexibility Score: inf
ROOT
ATOM      1  C   UNL     1       0.592   3.780   5.435  1.00  0.00     0.188 C 
ENDROOT
BRANCH   1   2
ATOM      2  O   UNL     1       0.538   3.036   6.628  1.00  0.00    -0.376 OA
BRANCH   2   3
ATOM      3  C   UNL     1      -0.242   1.855   6.640  1.00  0.00     0.202 C 
BRANCH   3   4
ATOM      4  C   UNL     1      -0.350   0.861   5.463  1.00  0.00     0.261 C 
BRANCH   4   5
ATOM      5  O   UNL     1       0.467   1.046   4.301  1.00  0.00    -0.463 OA
BRANCH   5   6
ATOM      6  C   UNL     1      -0.177   1.538   3.206  1.00  0.00     0.315 C 
ATOM      7  O   UNL     1      -1.334   1.938   3.236  1.00  0.00    -0.251 OA
BRANCH   6   8
ATOM      8  C   UNL     1       0.653   1.433   1.917  1.00  0.00     0.096 C 
ATOM      9  C   UNL     1       0.281   0.036   1.400  1.00  0.00     0.027 C 
ATOM     10  C   UNL     1       2.198   1.417   2.060  1.00  0.00     0.027 C 
BRANCH   8  11
ATOM     11  C   UNL     1       0.342   2.705   1.063  1.00  0.00     0.247 C 
BRANCH  11  12
ATOM     12  O   UNL     1      -0.969   2.970   0.599  1.00  0.00    -0.492 OA
BRANCH  12  13
ATOM     13  C   UNL     1      -1.690   2.103  -0.155  1.00  0.00     0.131 A 
ATOM     14  C   UNL     1      -1.247   1.247  -1.183  1.00  0.00     0.051 A 
ATOM     15  C   UNL     1      -2.216   0.414  -1.792  1.00  0.00     0.017 A 
ATOM     16  C   UNL     1      -3.557   0.430  -1.401  1.00  0.00     0.040 A 
ATOM     17  C   UNL     1      -3.054   2.156   0.186  1.00  0.00     0.086 A 
ATOM     18  C   UNL     1      -3.967   1.315  -0.423  1.00  0.00     0.126 A 
ATOM     19  F   UNL     1      -5.254   1.345  -0.054  1.00  0.00    -0.207 F 
BRANCH  14  20
ATOM     20  C   UNL     1       0.185   1.189  -1.689  1.00  0.00     0.212 C 
ATOM     21  C   UNL     1       0.490   2.259  -2.728  1.00  0.00     0.081 C 
BRANCH  20  22
ATOM     22  N   UNL     1       0.567  -0.141  -2.197  1.00  0.00    -0.351 N 
ATOM     23  H   UNL     1       0.010  -0.362  -3.023  1.00  0.00     0.345 HD
ATOM     24  H   UNL     1       0.397  -0.842  -1.476  1.00  0.00     0.345 HD
ATOM     25  H   UNL     1       1.556  -0.139  -2.444  1.00  0.00     0.345 HD
ENDBRANCH  20  22
ENDBRANCH  14  20
ENDBRANCH  12  13
ENDBRANCH  11  12
ENDBRANCH   8  11
ENDBRANCH   6   8
ENDBRANCH   5   6
ENDBRANCH   4   5
ENDBRANCH   3   4
ENDBRANCH   2   3
ENDBRANCH   1   2
BRANCH   1  26
ATOM     26  C   UNL     1       1.869   3.482   4.654  1.00  0.00     0.188 C 
BRANCH  26  27
ATOM     27  O   UNL     1       2.803   2.526   5.117  1.00  0.00    -0.376 OA
BRANCH  27  28
ATOM     28  C   UNL     1       3.324   2.648   6.431  1.00  0.00     0.202 C 
BRANCH  28  29
ATOM     29  C   UNL     1       3.611   4.014   7.098  1.00  0.00     0.261 C 
BRANCH  29  30
ATOM     30  O   UNL     1       3.071   5.196   6.489  1.00  0.00    -0.460 OA
BRANCH  30  31
ATOM     31  C   UNL     1       3.843   5.802   5.546  1.00  0.00     0.338 C 
ATOM     32  O   UNL     1       4.956   5.473   5.194  1.00  0.00    -0.246 OA
BRANCH  31  33
ATOM     33  C   UNL     1       2.983   6.785   4.827  1.00  0.00     0.060 A 
ATOM     34  C   UNL     1       2.775   6.620   3.446  1.00  0.00     0.016 A 
ATOM     35  C   UNL     1       2.326   7.805   5.514  1.00  0.00     0.016 A 
ATOM     36  C   UNL     1       1.897   7.461   2.756  1.00  0.00     0.010 A 
ATOM     37  C   UNL     1       1.484   8.675   4.811  1.00  0.00     0.010 A 
ATOM     38  C   UNL     1       1.271   8.516   3.429  1.00  0.00    -0.014 A 
BRANCH  38  39
ATOM     39  C   UNL     1       0.511   9.548   2.678  1.00  0.00     0.031 A 
ATOM     40  C   UNL     1       1.209  10.831   2.315  1.00  0.00     0.074 A 
ATOM     41  C   UNL     1      -0.779   9.370   2.341  1.00  0.00     0.049 A 
ATOM     42  N   UNL     1       0.721  11.916   1.775  1.00  0.00    -0.248 NA
ATOM     43  C   UNL     1       2.651  10.894   2.604  1.00  0.00     0.031 C 
ATOM     44  C   UNL     1      -1.558   8.154   2.569  1.00  0.00     0.029 A 
ATOM     45  N   UNL     1      -1.669  10.232   1.744  1.00  0.00    -0.354 N 
ATOM     46  C   UNL     1       1.790  12.799   1.671  1.00  0.00     0.074 A 
ATOM     47  C   UNL     1       2.948  12.127   2.220  1.00  0.00     0.031 C 
ATOM     48  C   UNL     1      -2.817   8.357   2.139  1.00  0.00     0.029 A 
ATOM     49  C   UNL     1      -2.945   9.729   1.648  1.00  0.00     0.049 A 
ATOM     50  H   UNL     1      -1.416  11.125   1.417  1.00  0.00     0.167 HD
ATOM     51  C   UNL     1       1.806  14.056   1.167  1.00  0.00     0.031 A 
ATOM     52  C   UNL     1      -4.091  10.316   1.247  1.00  0.00     0.031 A 
ATOM     53  C   UNL     1       0.649  14.734   0.643  1.00  0.00     0.049 A 
ATOM     54  C   UNL     1      -4.071  11.757   0.795  1.00  0.00     0.074 A 
ATOM     55  C   UNL     1       0.572  16.005   0.101  1.00  0.00     0.029 A 
ATOM     56  N   UNL     1      -0.633  14.208   0.611  1.00  0.00    -0.354 N 
ATOM     57  N   UNL     1      -3.051  12.574   0.682  1.00  0.00    -0.248 NA
ATOM     58  C   UNL     1      -5.362  12.354   0.418  1.00  0.00     0.031 C 
ATOM     59  C   UNL     1      -0.768  16.274  -0.195  1.00  0.00     0.029 A 
ATOM     60  C   UNL     1      -1.515  15.144   0.096  1.00  0.00     0.049 A 
ATOM     61  H   UNL     1      -0.880  13.303   0.909  1.00  0.00     0.167 HD
ATOM     62  C   UNL     1      -3.574  13.772   0.201  1.00  0.00     0.074 A 
ATOM     63  C   UNL     1      -4.996  13.567   0.025  1.00  0.00     0.031 C 
ATOM     64  C   UNL     1      -2.933  14.937  -0.069  1.00  0.00     0.031 A 
BRANCH  51  65
ATOM     65  C   UNL     1       3.114  14.801   1.201  1.00  0.00    -0.014 A 
ATOM     66  C   UNL     1       4.183  14.443   0.360  1.00  0.00     0.010 A 
ATOM     67  C   UNL     1       3.260  15.905   2.061  1.00  0.00     0.010 A 
ATOM     68  C   UNL     1       5.386  15.154   0.405  1.00  0.00     0.020 A 
ATOM     69  C   UNL     1       4.450  16.637   2.087  1.00  0.00     0.020 A 
ATOM     70  C   UNL     1       5.512  16.246   1.270  1.00  0.00     0.054 A 
BRANCH  70  71
ATOM     71  S   UNL     1       7.077  17.162   1.289  1.00  0.00     0.124 S 
ATOM     72  O   UNL     1       7.976  16.208   1.932  1.00  0.00    -0.237 OA
ATOM     73  O   UNL     1       7.325  17.400  -0.131  1.00  0.00    -0.237 OA
ATOM     74  O   UNL     1       6.771  18.356   2.074  1.00  0.00    -0.744 OA
ENDBRANCH  70  71
ENDBRANCH  51  65
BRANCH  52  75
ATOM     75  C   UNL     1      -5.376   9.561   1.295  1.00  0.00    -0.014 A 
ATOM     76  C   UNL     1      -6.053   9.217   0.111  1.00  0.00     0.010 A 
ATOM     77  C   UNL     1      -5.939   9.196   2.532  1.00  0.00     0.010 A 
ATOM     78  C   UNL     1      -7.275   8.538   0.164  1.00  0.00     0.020 A 
ATOM     79  C   UNL     1      -7.145   8.491   2.588  1.00  0.00     0.020 A 
ATOM     80  C   UNL     1      -7.811   8.176   1.403  1.00  0.00     0.054 A 
BRANCH  80  81
ATOM     81  S   UNL     1      -9.375   7.257   1.446  1.00  0.00     0.124 S 
ATOM     82  O   UNL     1     -10.341   8.281   1.061  1.00  0.00    -0.237 OA
ATOM     83  O   UNL     1      -9.147   6.202   0.462  1.00  0.00    -0.237 OA
ATOM     84  O   UNL     1      -9.467   6.800   2.831  1.00  0.00    -0.744 OA
ENDBRANCH  80  81
ENDBRANCH  52  75
BRANCH  64  85
ATOM     85  C   UNL     1      -3.754  16.083  -0.606  1.00  0.00    -0.014 A 
ATOM     86  C   UNL     1      -4.664  16.775   0.213  1.00  0.00     0.010 A 
ATOM     87  C   UNL     1      -3.566  16.515  -1.932  1.00  0.00     0.010 A 
ATOM     88  C   UNL     1      -5.389  17.859  -0.291  1.00  0.00     0.020 A 
ATOM     89  C   UNL     1      -4.267  17.617  -2.432  1.00  0.00     0.020 A 
ATOM     90  C   UNL     1      -5.184  18.275  -1.611  1.00  0.00     0.054 A 
BRANCH  90  91
ATOM     91  S   UNL     1      -6.102  19.715  -2.224  1.00  0.00     0.124 S 
ATOM     92  O   UNL     1      -7.458  19.186  -2.341  1.00  0.00    -0.237 OA
ATOM     93  O   UNL     1      -5.901  20.698  -1.163  1.00  0.00    -0.237 OA
ATOM     94  O   UNL     1      -5.447  20.031  -3.491  1.00  0.00    -0.744 OA
ENDBRANCH  90  91
ENDBRANCH  64  85
ENDBRANCH  38  39
ENDBRANCH  31  33
ENDBRANCH  30  31
ENDBRANCH  29  30
ENDBRANCH  28  29
ENDBRANCH  27  28
ENDBRANCH  26  27
ENDBRANCH   1  26
TORSDOF 25
