REMARK SMILES C[C@@H](NC(=O)[C@H]1CC=CC[C@@H]1C(=O)OCCOCCOCCOC(=O)c1ccc(-c2c3nc(c(-c4ccc(S(=O)(=O)[O-])cc4)c4ccc([nH]4)c(-c4ccc(S(=O)(=O)[O-])cc4)c4nc(c(-c5ccc(S(=O)(=O)[O-])cc5)c5ccc2[nH]5)C=C4)C=C3)cc1)c1ccc(-n2ccnc2)cc1
REMARK SMILES IDX 18 1 17 2 16 3 15 4 14 5 12 6 13 7 11 8 6 9 7 10 8 11 10 12
REMARK SMILES IDX 9 13 4 14 3 15 5 17 2 18 1 19 86 20 87 21 96 22 88 23 95 24
REMARK SMILES IDX 89 25 90 26 91 27 94 28 92 29 93 30 19 31 20 32 21 33 22 34
REMARK SMILES IDX 23 35 24 36 25 37 26 38 27 39 85 40 28 41 84 42 29 43 30 44
REMARK SMILES IDX 31 45 78 46 32 47 83 48 77 49 79 50 33 51 82 52 76 53 75 54
REMARK SMILES IDX 34 56 64 57 45 58 63 59 46 60 49 61 62 62 80 63 47 64 48 65
REMARK SMILES IDX 61 67 81 68 50 69 35 70 36 71 44 72 37 73 43 74 38 75 39 76
REMARK SMILES IDX 40 77 41 78 42 79 65 80 66 81 74 82 67 83 73 84 68 85 69 86
REMARK SMILES IDX 70 87 71 88 72 89 51 90 52 91 60 92 53 93 59 94 54 95 55 96
REMARK SMILES IDX 56 97 57 98 58 99
REMARK H PARENT 3 16 79 55 49 66
REMARK Flexibility Score: inf
ROOT
ATOM      1  C   UNL     1      -5.069  -0.364   2.004  1.00  0.00     0.188 C 
ENDROOT
BRANCH   1   2
ATOM      2  O   UNL     1      -5.691  -1.325   1.151  1.00  0.00    -0.376 OA
BRANCH   2   3
ATOM      3  C   UNL     1      -5.980  -2.623   1.634  1.00  0.00     0.202 C 
BRANCH   3   4
ATOM      4  C   UNL     1      -4.865  -3.696   1.482  1.00  0.00     0.261 C 
BRANCH   4   5
ATOM      5  O   UNL     1      -3.515  -3.385   1.911  1.00  0.00    -0.463 OA
BRANCH   5   6
ATOM      6  C   UNL     1      -2.933  -2.470   1.106  1.00  0.00     0.310 C 
ATOM      7  O   UNL     1      -3.527  -1.915   0.206  1.00  0.00    -0.252 OA
BRANCH   6   8
ATOM      8  C   UNL     1      -1.498  -2.104   1.319  1.00  0.00     0.115 C 
ATOM      9  C   UNL     1      -0.536  -2.898   2.137  1.00  0.00     0.097 C 
ATOM     10  C   UNL     1      -0.417  -2.330   3.572  1.00  0.00     0.041 C 
ATOM     11  C   UNL     1      -0.238  -0.843   3.611  1.00  0.00    -0.030 C 
ATOM     12  C   UNL     1      -1.231  -0.590   1.342  1.00  0.00     0.043 C 
ATOM     13  C   UNL     1      -0.564  -0.069   2.573  1.00  0.00    -0.030 C 
BRANCH   9  14
ATOM     14  C   UNL     1       0.820  -2.993   1.385  1.00  0.00     0.224 C 
ATOM     15  N   UNL     1       1.019  -2.918   0.027  1.00  0.00    -0.349 N 
ATOM     16  H   UNL     1       1.641  -3.636  -0.233  1.00  0.00     0.164 HD
ATOM     17  O   UNL     1       1.817  -3.356   2.029  1.00  0.00    -0.275 OA
BRANCH  15  18
ATOM     18  C   UNL     1       0.635  -2.135  -1.238  1.00  0.00     0.109 C 
ATOM     19  C   UNL     1       1.440  -0.821  -1.266  1.00  0.00     0.036 C 
BRANCH  18  20
ATOM     20  C   UNL     1      -0.818  -2.030  -1.763  1.00  0.00    -0.026 A 
ATOM     21  C   UNL     1      -1.453  -0.791  -2.014  1.00  0.00     0.008 A 
ATOM     22  C   UNL     1      -1.595  -3.179  -2.006  1.00  0.00     0.008 A 
ATOM     23  C   UNL     1      -2.824  -0.694  -2.345  1.00  0.00     0.027 A 
ATOM     24  C   UNL     1      -2.974  -3.092  -2.329  1.00  0.00     0.027 A 
ATOM     25  C   UNL     1      -3.619  -1.844  -2.424  1.00  0.00     0.046 A 
BRANCH  25  26
ATOM     26  N   UNL     1      -5.055  -1.736  -2.344  1.00  0.00    -0.306 N 
ATOM     27  C   UNL     1      -5.966  -2.754  -2.109  1.00  0.00     0.113 A 
ATOM     28  C   UNL     1      -5.822  -0.583  -2.343  1.00  0.00     0.204 A 
ATOM     29  C   UNL     1      -7.189  -2.150  -1.923  1.00  0.00     0.131 A 
ATOM     30  N   UNL     1      -7.101  -0.806  -2.116  1.00  0.00    -0.245 NA
ENDBRANCH  25  26
ENDBRANCH  18  20
ENDBRANCH  15  18
ENDBRANCH   9  14
ENDBRANCH   6   8
ENDBRANCH   5   6
ENDBRANCH   4   5
ENDBRANCH   3   4
ENDBRANCH   2   3
ENDBRANCH   1   2
BRANCH   1  31
ATOM     31  C   UNL     1      -4.285  -0.839   3.242  1.00  0.00     0.188 C 
BRANCH  31  32
ATOM     32  O   UNL     1      -5.009  -1.754   4.028  1.00  0.00    -0.376 OA
BRANCH  32  33
ATOM     33  C   UNL     1      -5.707  -1.222   5.134  1.00  0.00     0.202 C 
BRANCH  33  34
ATOM     34  C   UNL     1      -6.439   0.139   5.050  1.00  0.00     0.261 C 
BRANCH  34  35
ATOM     35  O   UNL     1      -5.838   1.233   4.318  1.00  0.00    -0.460 OA
BRANCH  35  36
ATOM     36  C   UNL     1      -4.777   1.884   4.838  1.00  0.00     0.338 C 
ATOM     37  O   UNL     1      -4.256   1.654   5.923  1.00  0.00    -0.246 OA
BRANCH  36  38
ATOM     38  C   UNL     1      -4.185   2.770   3.796  1.00  0.00     0.060 A 
ATOM     39  C   UNL     1      -3.002   2.379   3.154  1.00  0.00     0.016 A 
ATOM     40  C   UNL     1      -4.722   4.024   3.514  1.00  0.00     0.016 A 
ATOM     41  C   UNL     1      -2.333   3.229   2.268  1.00  0.00     0.010 A 
ATOM     42  C   UNL     1      -4.031   4.897   2.653  1.00  0.00     0.010 A 
ATOM     43  C   UNL     1      -2.808   4.523   2.059  1.00  0.00    -0.014 A 
BRANCH  43  44
ATOM     44  C   UNL     1      -1.898   5.548   1.472  1.00  0.00     0.031 A 
ATOM     45  C   UNL     1      -1.259   6.538   2.413  1.00  0.00     0.074 A 
ATOM     46  C   UNL     1      -1.567   5.579   0.168  1.00  0.00     0.049 A 
ATOM     47  N   UNL     1      -0.594   7.633   2.152  1.00  0.00    -0.248 NA
ATOM     48  C   UNL     1      -1.395   6.242   3.849  1.00  0.00     0.031 C 
ATOM     49  C   UNL     1      -1.970   4.600  -0.838  1.00  0.00     0.029 A 
ATOM     50  N   UNL     1      -0.812   6.491  -0.534  1.00  0.00    -0.354 N 
ATOM     51  C   UNL     1      -0.284   8.188   3.390  1.00  0.00     0.074 A 
ATOM     52  C   UNL     1      -0.833   7.308   4.398  1.00  0.00     0.031 C 
ATOM     53  C   UNL     1      -1.482   4.977  -2.033  1.00  0.00     0.029 A 
ATOM     54  C   UNL     1      -0.793   6.260  -1.890  1.00  0.00     0.049 A 
ATOM     55  H   UNL     1      -0.331   7.236  -0.107  1.00  0.00     0.167 HD
ATOM     56  C   UNL     1       0.383   9.335   3.663  1.00  0.00     0.031 A 
ATOM     57  C   UNL     1      -0.331   7.022  -2.904  1.00  0.00     0.031 A 
ATOM     58  C   UNL     1       0.928  10.204   2.654  1.00  0.00     0.049 A 
ATOM     59  C   UNL     1       0.305   8.355  -2.599  1.00  0.00     0.074 A 
ATOM     60  C   UNL     1       1.597  11.403   2.818  1.00  0.00     0.029 A 
ATOM     61  N   UNL     1       0.865   9.965   1.289  1.00  0.00    -0.354 N 
ATOM     62  N   UNL     1       0.527   8.916  -1.433  1.00  0.00    -0.248 NA
ATOM     63  C   UNL     1       0.747   9.162  -3.746  1.00  0.00     0.031 C 
ATOM     64  C   UNL     1       1.878  11.922   1.550  1.00  0.00     0.029 A 
ATOM     65  C   UNL     1       1.456  11.009   0.597  1.00  0.00     0.049 A 
ATOM     66  H   UNL     1       0.459   9.170   0.873  1.00  0.00     0.167 HD
ATOM     67  C   UNL     1       1.152  10.130  -1.704  1.00  0.00     0.074 A 
ATOM     68  C   UNL     1       1.287  10.215  -3.144  1.00  0.00     0.031 C 
ATOM     69  C   UNL     1       1.579  11.085  -0.839  1.00  0.00     0.031 A 
BRANCH  56  70
ATOM     70  C   UNL     1       0.467   9.753   5.110  1.00  0.00    -0.014 A 
ATOM     71  C   UNL     1       1.227   9.036   6.053  1.00  0.00     0.010 A 
ATOM     72  C   UNL     1      -0.264  10.877   5.538  1.00  0.00     0.010 A 
ATOM     73  C   UNL     1       1.196   9.394   7.405  1.00  0.00     0.020 A 
ATOM     74  C   UNL     1      -0.267  11.261   6.881  1.00  0.00     0.020 A 
ATOM     75  C   UNL     1       0.441  10.499   7.811  1.00  0.00     0.054 A 
BRANCH  75  76
ATOM     76  S   UNL     1       0.393  10.924   9.574  1.00  0.00     0.124 S 
ATOM     77  O   UNL     1      -0.426   9.845  10.121  1.00  0.00    -0.237 OA
ATOM     78  O   UNL     1       1.804  10.893   9.948  1.00  0.00    -0.237 OA
ATOM     79  O   UNL     1      -0.226  12.247   9.596  1.00  0.00    -0.744 OA
ENDBRANCH  75  76
ENDBRANCH  56  70
BRANCH  57  80
ATOM     80  C   UNL     1      -0.521   6.568  -4.312  1.00  0.00    -0.014 A 
ATOM     81  C   UNL     1       0.575   6.194  -5.109  1.00  0.00     0.010 A 
ATOM     82  C   UNL     1      -1.818   6.480  -4.855  1.00  0.00     0.010 A 
ATOM     83  C   UNL     1       0.376   5.724  -6.413  1.00  0.00     0.020 A 
ATOM     84  C   UNL     1      -2.023   5.982  -6.145  1.00  0.00     0.020 A 
ATOM     85  C   UNL     1      -0.923   5.606  -6.916  1.00  0.00     0.054 A 
BRANCH  85  86
ATOM     86  S   UNL     1      -1.160   4.890  -8.567  1.00  0.00     0.124 S 
ATOM     87  O   UNL     1      -0.640   5.942  -9.435  1.00  0.00    -0.237 OA
ATOM     88  O   UNL     1      -0.357   3.672  -8.496  1.00  0.00    -0.237 OA
ATOM     89  O   UNL     1      -2.603   4.672  -8.642  1.00  0.00    -0.744 OA
ENDBRANCH  85  86
ENDBRANCH  57  80
BRANCH  69  90
ATOM     90  C   UNL     1       2.273  12.295  -1.415  1.00  0.00    -0.014 A 
ATOM     91  C   UNL     1       1.569  13.274  -2.137  1.00  0.00     0.010 A 
ATOM     92  C   UNL     1       3.646  12.485  -1.167  1.00  0.00     0.010 A 
ATOM     93  C   UNL     1       2.231  14.406  -2.626  1.00  0.00     0.020 A 
ATOM     94  C   UNL     1       4.304  13.630  -1.625  1.00  0.00     0.020 A 
ATOM     95  C   UNL     1       3.594  14.577  -2.364  1.00  0.00     0.054 A 
BRANCH  95  96
ATOM     96  S   UNL     1       4.419  16.076  -2.969  1.00  0.00     0.124 S 
ATOM     97  O   UNL     1       4.469  15.836  -4.408  1.00  0.00    -0.237 OA
ATOM     98  O   UNL     1       3.511  17.136  -2.539  1.00  0.00    -0.237 OA
ATOM     99  O   UNL     1       5.713  16.058  -2.290  1.00  0.00    -0.744 OA
ENDBRANCH  95  96
ENDBRANCH  69  90
ENDBRANCH  43  44
ENDBRANCH  36  38
ENDBRANCH  35  36
ENDBRANCH  34  35
ENDBRANCH  33  34
ENDBRANCH  32  33
ENDBRANCH  31  32
ENDBRANCH   1  31
TORSDOF 24
