REMARK SMILES CC1(C)[C@H](O)CC[C@]2(C)[C@@H]1CC[C@]1(C)Oc3oc(C(=O)OCCOCCOCCOC(=O)c4ccc(-c5c6nc(c(-c7ccc(S(=O)(=O)[O-])cc7)c7ccc([nH]7)c(-c7ccc(S(=O)(=O)[O-])cc7)c7nc(c(-c8ccc(S(=O)(=O)[O-])cc8)c8ccc5[nH]8)C=C7)C=C6)cc4)cc(=O)c3C[C@H]21
REMARK SMILES IDX 26 1 25 2 24 3 23 4 22 5 21 6 19 7 20 8 18 9 1 10 2 11 3 12
REMARK SMILES IDX 4 13 10 14 6 15 8 16 11 17 7 18 9 19 98 20 12 21 13 22 97 23
REMARK SMILES IDX 14 24 15 25 96 26 16 27 94 28 17 29 93 30 95 31 5 32 27 34
REMARK SMILES IDX 28 35 29 36 30 37 31 38 32 39 33 40 34 41 92 42 35 43 91 44
REMARK SMILES IDX 36 45 37 46 38 47 85 48 39 49 90 50 84 51 86 52 40 53 89 54
REMARK SMILES IDX 83 55 82 56 41 58 71 59 52 60 70 61 53 62 56 63 69 64 87 65
REMARK SMILES IDX 54 66 55 67 68 69 88 70 57 71 42 72 43 73 51 74 44 75 50 76
REMARK SMILES IDX 45 77 46 78 47 79 48 80 49 81 72 82 73 83 81 84 74 85 80 86
REMARK SMILES IDX 75 87 76 88 77 89 78 90 79 91 58 92 59 93 67 94 60 95 66 96
REMARK SMILES IDX 61 97 62 98 63 99 64 100 65 101
REMARK H PARENT 5 33 86 57 56 68
REMARK Flexibility Score: inf
ROOT
ATOM      1  C   UNL     1       7.440   8.883   0.338  1.00  0.00     0.188 C 
ENDROOT
BRANCH   1   2
ATOM      2  C   UNL     1       7.661   9.843   1.527  1.00  0.00     0.188 C 
BRANCH   2   3
ATOM      3  O   UNL     1       8.830  10.631   1.591  1.00  0.00    -0.376 OA
BRANCH   3   4
ATOM      4  C   UNL     1      10.107  10.027   1.679  1.00  0.00     0.202 C 
BRANCH   4   5
ATOM      5  C   UNL     1      10.360   8.708   2.425  1.00  0.00     0.261 C 
BRANCH   5   6
ATOM      6  O   UNL     1       9.400   7.673   2.189  1.00  0.00    -0.457 OA
BRANCH   6   7
ATOM      7  C   UNL     1       8.640   7.295   3.257  1.00  0.00     0.374 C 
ATOM      8  O   UNL     1       8.729   7.725   4.394  1.00  0.00    -0.242 OA
BRANCH   7   9
ATOM      9  C   UNL     1       7.583   6.350   2.808  1.00  0.00     0.219 A 
ATOM     10  C   UNL     1       0.985   0.980   0.128  1.00  0.00     0.014 C 
ATOM     11  C   UNL     1       0.670   1.262   1.631  1.00  0.00    -0.006 C 
ATOM     12  C   UNL     1      -0.844   1.565   1.691  1.00  0.00     0.014 C 
ATOM     13  C   UNL     1       0.971  -0.065   2.385  1.00  0.00     0.120 C 
ATOM     14  C   UNL     1       1.582   2.478   2.108  1.00  0.00     0.004 C 
ATOM     15  C   UNL     1       2.467  -0.383   2.549  1.00  0.00     0.033 C 
ATOM     16  C   UNL     1       2.727   2.126   3.128  1.00  0.00    -0.022 C 
ATOM     17  C   UNL     1       0.890   3.815   2.448  1.00  0.00     0.009 C 
ATOM     18  C   UNL     1       3.397   0.840   2.580  1.00  0.00     0.010 C 
ATOM     19  C   UNL     1       2.311   1.824   4.593  1.00  0.00     0.012 C 
ATOM     20  C   UNL     1       3.730   3.345   3.196  1.00  0.00     0.044 C 
ATOM     21  C   UNL     1       1.896   4.990   2.539  1.00  0.00     0.049 C 
ATOM     22  C   UNL     1       3.072   4.734   3.512  1.00  0.00     0.113 C 
ATOM     23  C   UNL     1       4.585   3.490   1.918  1.00  0.00     0.055 C 
ATOM     24  C   UNL     1       2.528   4.882   4.949  1.00  0.00     0.057 C 
ATOM     25  O   UNL     1       4.035   5.830   3.443  1.00  0.00    -0.458 OA
ATOM     26  C   UNL     1       5.562   4.585   2.121  1.00  0.00     0.081 A 
ATOM     27  C   UNL     1       5.295   5.631   2.912  1.00  0.00     0.292 A 
ATOM     28  C   UNL     1       6.898   4.445   1.514  1.00  0.00     0.192 A 
ATOM     29  O   UNL     1       6.283   6.551   3.261  1.00  0.00    -0.418 OA
ATOM     30  C   UNL     1       7.931   5.381   1.956  1.00  0.00     0.107 A 
ATOM     31  O   UNL     1       7.161   3.576   0.692  1.00  0.00    -0.289 OA
BRANCH  13  32
ATOM     32  O   UNL     1       0.317  -0.134   3.653  1.00  0.00    -0.393 OA
ATOM     33  H   UNL     1       0.680   0.547   4.241  1.00  0.00     0.210 HD
ENDBRANCH  13  32
ENDBRANCH   7   9
ENDBRANCH   6   7
ENDBRANCH   5   6
ENDBRANCH   4   5
ENDBRANCH   3   4
ENDBRANCH   2   3
ENDBRANCH   1   2
BRANCH   1  34
ATOM     34  O   UNL     1       8.423   8.757  -0.665  1.00  0.00    -0.376 OA
BRANCH  34  35
ATOM     35  C   UNL     1       8.728   9.871  -1.486  1.00  0.00     0.202 C 
BRANCH  35  36
ATOM     36  C   UNL     1       7.714  10.964  -1.872  1.00  0.00     0.261 C 
BRANCH  36  37
ATOM     37  O   UNL     1       6.756  11.347  -0.878  1.00  0.00    -0.460 OA
BRANCH  37  38
ATOM     38  C   UNL     1       5.471  11.005  -1.139  1.00  0.00     0.338 C 
ATOM     39  O   UNL     1       5.048  10.400  -2.116  1.00  0.00    -0.246 OA
BRANCH  38  40
ATOM     40  C   UNL     1       4.642  11.328   0.034  1.00  0.00     0.060 A 
ATOM     41  C   UNL     1       4.192  10.290   0.865  1.00  0.00     0.016 A 
ATOM     42  C   UNL     1       4.289  12.651   0.294  1.00  0.00     0.016 A 
ATOM     43  C   UNL     1       3.400  10.578   1.974  1.00  0.00     0.010 A 
ATOM     44  C   UNL     1       3.456  12.933   1.379  1.00  0.00     0.010 A 
ATOM     45  C   UNL     1       2.994  11.897   2.211  1.00  0.00    -0.014 A 
BRANCH  45  46
ATOM     46  C   UNL     1       1.925  12.165   3.197  1.00  0.00     0.031 A 
ATOM     47  C   UNL     1       0.502  12.161   2.714  1.00  0.00     0.074 A 
ATOM     48  C   UNL     1       2.205  12.397   4.491  1.00  0.00     0.049 A 
ATOM     49  N   UNL     1      -0.595  12.414   3.377  1.00  0.00    -0.248 NA
ATOM     50  C   UNL     1       0.286  11.823   1.296  1.00  0.00     0.031 C 
ATOM     51  C   UNL     1       3.538  12.367   5.089  1.00  0.00     0.029 A 
ATOM     52  N   UNL     1       1.372  12.708   5.537  1.00  0.00    -0.354 N 
ATOM     53  C   UNL     1      -1.628  12.266   2.461  1.00  0.00     0.074 A 
ATOM     54  C   UNL     1      -1.030  11.922   1.190  1.00  0.00     0.031 C 
ATOM     55  C   UNL     1       3.434  12.658   6.398  1.00  0.00     0.029 A 
ATOM     56  C   UNL     1       2.032  12.924   6.723  1.00  0.00     0.049 A 
ATOM     57  H   UNL     1       0.394  12.770   5.446  1.00  0.00     0.167 HD
ATOM     58  C   UNL     1      -2.958  12.403   2.662  1.00  0.00     0.031 A 
ATOM     59  C   UNL     1       1.562  13.310   7.926  1.00  0.00     0.031 A 
ATOM     60  C   UNL     1      -3.549  12.765   3.919  1.00  0.00     0.049 A 
ATOM     61  C   UNL     1       0.085  13.548   8.105  1.00  0.00     0.074 A 
ATOM     62  C   UNL     1      -4.889  12.924   4.219  1.00  0.00     0.029 A 
ATOM     63  N   UNL     1      -2.840  13.032   5.079  1.00  0.00    -0.354 N 
ATOM     64  N   UNL     1      -0.882  13.404   7.229  1.00  0.00    -0.248 NA
ATOM     65  C   UNL     1      -0.367  13.999   9.430  1.00  0.00     0.031 C 
ATOM     66  C   UNL     1      -4.989  13.341   5.548  1.00  0.00     0.029 A 
ATOM     67  C   UNL     1      -3.715  13.381   6.092  1.00  0.00     0.049 A 
ATOM     68  H   UNL     1      -1.861  12.981   5.169  1.00  0.00     0.167 HD
ATOM     69  C   UNL     1      -2.056  13.723   7.903  1.00  0.00     0.074 A 
ATOM     70  C   UNL     1      -1.682  14.068   9.259  1.00  0.00     0.031 C 
ATOM     71  C   UNL     1      -3.329  13.722   7.438  1.00  0.00     0.031 A 
BRANCH  58  72
ATOM     72  C   UNL     1      -3.870  12.182   1.490  1.00  0.00    -0.014 A 
ATOM     73  C   UNL     1      -4.138  10.884   1.020  1.00  0.00     0.010 A 
ATOM     74  C   UNL     1      -4.527  13.278   0.903  1.00  0.00     0.010 A 
ATOM     75  C   UNL     1      -5.044  10.688  -0.024  1.00  0.00     0.020 A 
ATOM     76  C   UNL     1      -5.449  13.084  -0.127  1.00  0.00     0.020 A 
ATOM     77  C   UNL     1      -5.701  11.789  -0.584  1.00  0.00     0.054 A 
BRANCH  77  78
ATOM     78  S   UNL     1      -6.901  11.493  -1.911  1.00  0.00     0.124 S 
ATOM     79  O   UNL     1      -6.079  10.836  -2.926  1.00  0.00    -0.237 OA
ATOM     80  O   UNL     1      -7.888  10.641  -1.255  1.00  0.00    -0.237 OA
ATOM     81  O   UNL     1      -7.367  12.831  -2.265  1.00  0.00    -0.744 OA
ENDBRANCH  77  78
ENDBRANCH  58  72
BRANCH  59  82
ATOM     82  C   UNL     1       2.512  13.498   9.056  1.00  0.00    -0.014 A 
ATOM     83  C   UNL     1       2.569  12.563  10.103  1.00  0.00     0.010 A 
ATOM     84  C   UNL     1       3.399  14.591   9.064  1.00  0.00     0.010 A 
ATOM     85  C   UNL     1       3.504  12.710  11.133  1.00  0.00     0.020 A 
ATOM     86  C   UNL     1       4.348  14.730  10.081  1.00  0.00     0.020 A 
ATOM     87  C   UNL     1       4.398  13.784  11.107  1.00  0.00     0.054 A 
BRANCH  87  88
ATOM     88  S   UNL     1       5.644  13.910  12.420  1.00  0.00     0.124 S 
ATOM     89  O   UNL     1       4.820  13.988  13.623  1.00  0.00    -0.237 OA
ATOM     90  O   UNL     1       6.396  12.670  12.248  1.00  0.00    -0.237 OA
ATOM     91  O   UNL     1       6.376  15.130  12.086  1.00  0.00    -0.744 OA
ENDBRANCH  87  88
ENDBRANCH  59  82
BRANCH  71  92
ATOM     92  C   UNL     1      -4.440  14.079   8.389  1.00  0.00    -0.014 A 
ATOM     93  C   UNL     1      -4.695  15.416   8.735  1.00  0.00     0.010 A 
ATOM     94  C   UNL     1      -5.326  13.074   8.822  1.00  0.00     0.010 A 
ATOM     95  C   UNL     1      -5.820  15.743   9.498  1.00  0.00     0.020 A 
ATOM     96  C   UNL     1      -6.463  13.400   9.566  1.00  0.00     0.020 A 
ATOM     97  C   UNL     1      -6.704  14.734   9.896  1.00  0.00     0.054 A 
BRANCH  97  98
ATOM     98  S   UNL     1      -8.190  15.201  10.825  1.00  0.00     0.124 S 
ATOM     99  O   UNL     1      -7.626  15.839  12.011  1.00  0.00    -0.237 OA
ATOM    100  O   UNL     1      -8.873  16.095   9.895  1.00  0.00    -0.237 OA
ATOM    101  O   UNL     1      -8.864  13.927  11.070  1.00  0.00    -0.744 OA
ENDBRANCH  97  98
ENDBRANCH  71  92
ENDBRANCH  45  46
ENDBRANCH  38  40
ENDBRANCH  37  38
ENDBRANCH  36  37
ENDBRANCH  35  36
ENDBRANCH  34  35
ENDBRANCH   1  34
TORSDOF 21
