REMARK SMILES O=C(OCCOCCOCCOC(=O)[C@H]1CC[C@@H](CNC(=O)N2CCO[C@@H]3CCC[C@H]32)O1)c1ccc(-c2c3nc(c(-c4ccc(S(=O)(=O)[O-])cc4)c4ccc([nH]4)c(-c4ccc(S(=O)(=O)[O-])cc4)c4nc(c(-c5ccc(S(=O)(=O)[O-])cc5)c5ccc2[nH]5)C=C4)C=C3)cc1
REMARK SMILES IDX 7 1 6 2 5 3 4 4 3 5 2 6 1 7 33 8 34 9 92 10 35 11 91 12
REMARK SMILES IDX 36 13 37 14 38 15 85 16 39 17 90 18 84 19 86 20 40 21 89 22
REMARK SMILES IDX 83 23 82 24 41 26 71 27 52 28 70 29 53 30 56 31 69 32 87 33
REMARK SMILES IDX 54 34 55 35 68 37 88 38 57 39 42 40 43 41 51 42 44 43 50 44
REMARK SMILES IDX 45 45 46 46 47 47 48 48 49 49 72 50 73 51 81 52 74 53 80 54
REMARK SMILES IDX 75 55 76 56 77 57 78 58 79 59 58 60 59 61 67 62 60 63 66 64
REMARK SMILES IDX 61 65 62 66 63 67 64 68 65 69 8 70 9 71 10 72 11 73 12 74
REMARK SMILES IDX 13 75 14 76 15 77 16 78 32 79 17 80 18 81 19 82 20 83 21 84
REMARK SMILES IDX 22 86 23 87 24 88 31 89 25 90 27 91 30 92 26 93 28 94 29 95
REMARK H PARENT 86 25 56 36 20 85
REMARK Flexibility Score: inf
ROOT
ATOM      1  C   UNL     1       0.428   2.101  -0.259  1.00  0.00     0.188 C 
ENDROOT
BRANCH   1   2
ATOM      2  O   UNL     1       0.808   0.732  -0.389  1.00  0.00    -0.376 OA
BRANCH   2   3
ATOM      3  C   UNL     1       1.113   0.023   0.811  1.00  0.00     0.202 C 
BRANCH   3   4
ATOM      4  C   UNL     1       1.988   0.672   1.903  1.00  0.00     0.261 C 
BRANCH   4   5
ATOM      5  O   UNL     1       2.440   2.014   1.679  1.00  0.00    -0.460 OA
BRANCH   5   6
ATOM      6  C   UNL     1       3.211   2.453   0.670  1.00  0.00     0.338 C 
ATOM      7  O   UNL     1       3.117   3.584   0.198  1.00  0.00    -0.246 OA
BRANCH   6   8
ATOM      8  C   UNL     1       4.332   1.698   0.184  1.00  0.00     0.060 A 
ATOM      9  C   UNL     1       4.140   0.490  -0.464  1.00  0.00     0.016 A 
ATOM     10  C   UNL     1       5.540   2.414   0.114  1.00  0.00     0.016 A 
ATOM     11  C   UNL     1       5.197  -0.064  -1.127  1.00  0.00     0.010 A 
ATOM     12  C   UNL     1       6.567   1.916  -0.650  1.00  0.00     0.010 A 
ATOM     13  C   UNL     1       6.383   0.670  -1.247  1.00  0.00    -0.014 A 
BRANCH  13  14
ATOM     14  C   UNL     1       7.455   0.032  -1.987  1.00  0.00     0.031 A 
ATOM     15  C   UNL     1       8.524  -0.606  -1.179  1.00  0.00     0.074 A 
ATOM     16  C   UNL     1       7.270  -0.104  -3.309  1.00  0.00     0.049 A 
ATOM     17  N   UNL     1       9.477  -1.392  -1.575  1.00  0.00    -0.248 NA
ATOM     18  C   UNL     1       8.504  -0.355   0.277  1.00  0.00     0.031 C 
ATOM     19  C   UNL     1       6.137   0.455  -4.065  1.00  0.00     0.029 A 
ATOM     20  N   UNL     1       7.965  -0.820  -4.232  1.00  0.00    -0.354 N 
ATOM     21  C   UNL     1      10.175  -1.723  -0.424  1.00  0.00     0.074 A 
ATOM     22  C   UNL     1       9.556  -1.043   0.685  1.00  0.00     0.031 C 
ATOM     23  C   UNL     1       6.178  -0.011  -5.322  1.00  0.00     0.029 A 
ATOM     24  C   UNL     1       7.373  -0.827  -5.472  1.00  0.00     0.049 A 
ATOM     25  H   UNL     1       8.808  -1.287  -4.032  1.00  0.00     0.167 HD
ATOM     26  C   UNL     1      11.250  -2.532  -0.332  1.00  0.00     0.031 A 
ATOM     27  C   UNL     1       7.787  -1.431  -6.598  1.00  0.00     0.031 A 
ATOM     28  C   UNL     1      11.832  -3.136  -1.496  1.00  0.00     0.049 A 
ATOM     29  C   UNL     1       9.050  -2.237  -6.481  1.00  0.00     0.074 A 
ATOM     30  C   UNL     1      12.977  -3.894  -1.600  1.00  0.00     0.029 A 
ATOM     31  N   UNL     1      11.294  -3.025  -2.777  1.00  0.00    -0.354 N 
ATOM     32  N   UNL     1       9.748  -2.510  -5.399  1.00  0.00    -0.248 NA
ATOM     33  C   UNL     1       9.593  -2.800  -7.716  1.00  0.00     0.031 C 
ATOM     34  C   UNL     1      13.165  -4.186  -2.956  1.00  0.00     0.029 A 
ATOM     35  C   UNL     1      12.098  -3.675  -3.687  1.00  0.00     0.049 A 
ATOM     36  H   UNL     1      10.460  -2.550  -2.999  1.00  0.00     0.167 HD
ATOM     37  C   UNL     1      10.819  -3.281  -5.820  1.00  0.00     0.074 A 
ATOM     38  C   UNL     1      10.650  -3.456  -7.255  1.00  0.00     0.031 C 
ATOM     39  C   UNL     1      11.854  -3.792  -5.107  1.00  0.00     0.031 A 
BRANCH  26  40
ATOM     40  C   UNL     1      11.875  -2.676   1.025  1.00  0.00    -0.014 A 
ATOM     41  C   UNL     1      11.233  -3.374   2.066  1.00  0.00     0.010 A 
ATOM     42  C   UNL     1      13.095  -2.029   1.287  1.00  0.00     0.010 A 
ATOM     43  C   UNL     1      11.781  -3.389   3.352  1.00  0.00     0.020 A 
ATOM     44  C   UNL     1      13.660  -2.063   2.565  1.00  0.00     0.020 A 
ATOM     45  C   UNL     1      12.991  -2.730   3.593  1.00  0.00     0.054 A 
BRANCH  45  46
ATOM     46  S   UNL     1      13.686  -2.770   5.268  1.00  0.00     0.124 S 
ATOM     47  O   UNL     1      12.769  -1.897   5.997  1.00  0.00    -0.237 OA
ATOM     48  O   UNL     1      13.609  -4.188   5.610  1.00  0.00    -0.237 OA
ATOM     49  O   UNL     1      15.038  -2.245   5.095  1.00  0.00    -0.744 OA
ENDBRANCH  45  46
ENDBRANCH  26  40
BRANCH  27  50
ATOM     50  C   UNL     1       7.055  -1.230  -7.878  1.00  0.00    -0.014 A 
ATOM     51  C   UNL     1       6.455  -2.300  -8.561  1.00  0.00     0.010 A 
ATOM     52  C   UNL     1       6.934   0.068  -8.415  1.00  0.00     0.010 A 
ATOM     53  C   UNL     1       5.769  -2.079  -9.763  1.00  0.00     0.020 A 
ATOM     54  C   UNL     1       6.224   0.299  -9.595  1.00  0.00     0.020 A 
ATOM     55  C   UNL     1       5.659  -0.780 -10.272  1.00  0.00     0.054 A 
BRANCH  55  56
ATOM     56  S   UNL     1       4.749  -0.512 -11.819  1.00  0.00     0.124 S 
ATOM     57  O   UNL     1       5.648  -1.103 -12.805  1.00  0.00    -0.237 OA
ATOM     58  O   UNL     1       3.504  -1.236 -11.580  1.00  0.00    -0.237 OA
ATOM     59  O   UNL     1       4.613   0.942 -11.887  1.00  0.00    -0.744 OA
ENDBRANCH  55  56
ENDBRANCH  27  50
BRANCH  39  60
ATOM     60  C   UNL     1      12.849  -4.600  -5.882  1.00  0.00    -0.014 A 
ATOM     61  C   UNL     1      13.764  -3.980  -6.749  1.00  0.00     0.010 A 
ATOM     62  C   UNL     1      12.909  -5.989  -5.673  1.00  0.00     0.010 A 
ATOM     63  C   UNL     1      14.710  -4.748  -7.423  1.00  0.00     0.020 A 
ATOM     64  C   UNL     1      13.877  -6.753  -6.318  1.00  0.00     0.020 A 
ATOM     65  C   UNL     1      14.763  -6.128  -7.199  1.00  0.00     0.054 A 
BRANCH  65  66
ATOM     66  S   UNL     1      16.040  -7.093  -8.042  1.00  0.00     0.124 S 
ATOM     67  O   UNL     1      15.541  -7.120  -9.414  1.00  0.00    -0.237 OA
ATOM     68  O   UNL     1      17.241  -6.291  -7.823  1.00  0.00    -0.237 OA
ATOM     69  O   UNL     1      16.019  -8.377  -7.345  1.00  0.00    -0.744 OA
ENDBRANCH  65  66
ENDBRANCH  39  60
ENDBRANCH  13  14
ENDBRANCH   6   8
ENDBRANCH   5   6
ENDBRANCH   4   5
ENDBRANCH   3   4
ENDBRANCH   2   3
ENDBRANCH   1   2
BRANCH   1  70
ATOM     70  C   UNL     1      -0.663   2.658  -1.174  1.00  0.00     0.188 C 
BRANCH  70  71
ATOM     71  O   UNL     1      -1.840   1.895  -1.364  1.00  0.00    -0.376 OA
BRANCH  71  72
ATOM     72  C   UNL     1      -1.653   0.549  -1.782  1.00  0.00     0.202 C 
BRANCH  72  73
ATOM     73  C   UNL     1      -0.898   0.282  -3.099  1.00  0.00     0.261 C 
BRANCH  73  74
ATOM     74  O   UNL     1       0.400   0.895  -3.209  1.00  0.00    -0.461 OA
BRANCH  74  75
ATOM     75  C   UNL     1       0.533   1.853  -4.176  1.00  0.00     0.335 C 
ATOM     76  O   UNL     1      -0.366   2.199  -4.935  1.00  0.00    -0.249 OA
BRANCH  75  77
ATOM     77  C   UNL     1       1.945   2.471  -4.167  1.00  0.00     0.228 C 
ATOM     78  C   UNL     1       2.161   3.328  -5.417  1.00  0.00     0.047 C 
ATOM     79  O   UNL     1       2.193   3.341  -3.036  1.00  0.00    -0.361 OA
ATOM     80  C   UNL     1       1.933   4.732  -4.887  1.00  0.00     0.037 C 
ATOM     81  C   UNL     1       2.627   4.617  -3.541  1.00  0.00     0.138 C 
BRANCH  81  82
ATOM     82  C   UNL     1       2.475   5.822  -2.578  1.00  0.00     0.149 C 
BRANCH  82  83
ATOM     83  N   UNL     1       1.420   5.759  -1.572  1.00  0.00    -0.335 N 
ATOM     84  C   UNL     1       1.497   5.902  -0.210  1.00  0.00     0.317 C 
ATOM     85  H   UNL     1       0.516   5.589  -1.924  1.00  0.00     0.165 HD
ATOM     86  O   UNL     1       0.542   5.521   0.467  1.00  0.00    -0.249 OA
BRANCH  84  87
ATOM     87  N   UNL     1       2.614   6.477   0.343  1.00  0.00    -0.317 N 
ATOM     88  C   UNL     1       3.210   7.711  -0.181  1.00  0.00     0.150 C 
ATOM     89  C   UNL     1       3.158   6.136   1.667  1.00  0.00     0.116 C 
ATOM     90  C   UNL     1       3.209   8.837   0.882  1.00  0.00     0.182 C 
ATOM     91  C   UNL     1       3.023   7.309   2.634  1.00  0.00     0.141 C 
ATOM     92  C   UNL     1       2.725   4.943   2.524  1.00  0.00     0.028 C 
ATOM     93  O   UNL     1       3.764   8.428   2.150  1.00  0.00    -0.374 OA
ATOM     94  C   UNL     1       3.575   6.718   3.925  1.00  0.00     0.034 C 
ATOM     95  C   UNL     1       2.877   5.368   3.986  1.00  0.00     0.005 C 
ENDBRANCH  84  87
ENDBRANCH  82  83
ENDBRANCH  81  82
ENDBRANCH  75  77
ENDBRANCH  74  75
ENDBRANCH  73  74
ENDBRANCH  72  73
ENDBRANCH  71  72
ENDBRANCH  70  71
ENDBRANCH   1  70
TORSDOF 23
