REMARK SMILES CC(C)=C1[C@H]2CC[C@@H]1[C@H](C(=O)NNC(=O)c1ccoc1C)[C@H]2C(=O)OCCOCCOCCOC(=O)c1ccc(-c2c3nc(c(-c4ccc(S(=O)(=O)[O-])cc4)c4ccc([nH]4)c(-c4ccc(S(=O)(=O)[O-])cc4)c4nc(c(-c5ccc(S(=O)(=O)[O-])cc5)c5ccc2[nH]5)C=C4)C=C3)cc1
REMARK SMILES IDX 29 1 28 2 27 3 26 4 25 5 23 6 24 7 22 8 1 9 2 10 3 11 4 12
REMARK SMILES IDX 5 13 8 14 6 15 7 16 9 17 10 18 11 19 12 20 13 22 14 23 15 25
REMARK SMILES IDX 16 26 17 27 20 28 18 29 19 30 21 31 30 32 31 33 32 34 33 35
REMARK SMILES IDX 34 36 35 37 36 38 37 39 38 40 96 41 39 42 95 43 40 44 41 45
REMARK SMILES IDX 42 46 89 47 43 48 94 49 88 50 90 51 44 52 93 53 87 54 86 55
REMARK SMILES IDX 45 57 75 58 56 59 74 60 57 61 60 62 73 63 91 64 58 65 59 66
REMARK SMILES IDX 72 68 92 69 61 70 46 71 47 72 55 73 48 74 54 75 49 76 50 77
REMARK SMILES IDX 51 78 52 79 53 80 76 81 77 82 85 83 78 84 84 85 79 86 80 87
REMARK SMILES IDX 81 88 82 89 83 90 62 91 63 92 71 93 64 94 70 95 65 96 66 97
REMARK SMILES IDX 67 98 68 99 69 100
REMARK H PARENT 12 21 13 24 90 56 60 67
REMARK Flexibility Score: inf
ROOT
ATOM      1  C   UNL     1       2.057  -0.468  -6.707  1.00  0.00     0.188 C 
ENDROOT
BRANCH   1   2
ATOM      2  O   UNL     1       2.754  -1.700  -6.742  1.00  0.00    -0.376 OA
BRANCH   2   3
ATOM      3  C   UNL     1       3.030  -2.339  -5.501  1.00  0.00     0.202 C 
BRANCH   3   4
ATOM      4  C   UNL     1       3.520  -1.492  -4.319  1.00  0.00     0.261 C 
BRANCH   4   5
ATOM      5  O   UNL     1       2.608  -0.439  -3.936  1.00  0.00    -0.463 OA
BRANCH   5   6
ATOM      6  C   UNL     1       3.177   0.779  -3.818  1.00  0.00     0.310 C 
ATOM      7  O   UNL     1       4.392   0.965  -3.892  1.00  0.00    -0.252 OA
BRANCH   6   8
ATOM      8  C   UNL     1       2.231   1.976  -3.745  1.00  0.00     0.119 C 
ATOM      9  C   UNL     1       1.430   0.540   0.501  1.00  0.00     0.039 C 
ATOM     10  C   UNL     1       0.909   0.620  -0.900  1.00  0.00    -0.077 C 
ATOM     11  C   UNL     1       0.004  -0.510  -1.330  1.00  0.00     0.039 C 
ATOM     12  C   UNL     1       1.193   1.640  -1.726  1.00  0.00    -0.064 C 
ATOM     13  C   UNL     1       0.825   1.771  -3.168  1.00  0.00     0.030 C 
ATOM     14  C   UNL     1       1.879   2.987  -1.571  1.00  0.00     0.029 C 
ATOM     15  C   UNL     1       0.036   3.098  -3.108  1.00  0.00     0.009 C 
ATOM     16  C   UNL     1       0.645   3.835  -1.902  1.00  0.00     0.009 C 
ATOM     17  C   UNL     1       2.900   2.966  -2.746  1.00  0.00     0.102 C 
BRANCH  17  18
ATOM     18  C   UNL     1       3.248   4.311  -3.397  1.00  0.00     0.243 C 
ATOM     19  O   UNL     1       2.964   5.385  -2.864  1.00  0.00    -0.273 OA
ATOM     20  N   UNL     1       3.948   4.356  -4.582  1.00  0.00    -0.267 N 
ATOM     21  H   UNL     1       3.907   5.195  -5.095  1.00  0.00     0.191 HD
BRANCH  20  22
ATOM     22  N   UNL     1       4.710   3.317  -5.121  1.00  0.00    -0.263 N 
ATOM     23  C   UNL     1       5.485   3.387  -6.267  1.00  0.00     0.273 C 
ATOM     24  H   UNL     1       4.695   2.457  -4.643  1.00  0.00     0.191 HD
ATOM     25  O   UNL     1       5.846   2.337  -6.798  1.00  0.00    -0.267 OA
BRANCH  23  26
ATOM     26  C   UNL     1       5.858   4.681  -6.813  1.00  0.00     0.082 A 
ATOM     27  C   UNL     1       6.000   5.014  -8.194  1.00  0.00     0.056 A 
ATOM     28  C   UNL     1       6.299   5.801  -6.124  1.00  0.00     0.113 A 
ATOM     29  C   UNL     1       6.444   6.313  -8.249  1.00  0.00     0.196 A 
ATOM     30  O   UNL     1       6.607   6.804  -6.995  1.00  0.00    -0.469 OA
ATOM     31  C   UNL     1       6.556   6.111  -4.700  1.00  0.00     0.088 C 
ENDBRANCH  23  26
ENDBRANCH  20  22
ENDBRANCH  17  18
ENDBRANCH   6   8
ENDBRANCH   5   6
ENDBRANCH   4   5
ENDBRANCH   3   4
ENDBRANCH   2   3
ENDBRANCH   1   2
BRANCH   1  32
ATOM     32  C   UNL     1       0.591  -0.533  -6.281  1.00  0.00     0.188 C 
BRANCH  32  33
ATOM     33  O   UNL     1       0.261  -1.112  -5.034  1.00  0.00    -0.376 OA
BRANCH  33  34
ATOM     34  C   UNL     1      -0.442  -2.344  -4.923  1.00  0.00     0.202 C 
BRANCH  34  35
ATOM     35  C   UNL     1      -1.339  -2.947  -6.024  1.00  0.00     0.261 C 
BRANCH  35  36
ATOM     36  O   UNL     1      -1.785  -2.090  -7.073  1.00  0.00    -0.460 OA
BRANCH  36  37
ATOM     37  C   UNL     1      -2.521  -1.013  -6.722  1.00  0.00     0.338 C 
ATOM     38  O   UNL     1      -3.058  -0.820  -5.643  1.00  0.00    -0.246 OA
BRANCH  37  39
ATOM     39  C   UNL     1      -2.313   0.009  -7.784  1.00  0.00     0.060 A 
ATOM     40  C   UNL     1      -2.056   1.327  -7.387  1.00  0.00     0.016 A 
ATOM     41  C   UNL     1      -2.219  -0.343  -9.137  1.00  0.00     0.016 A 
ATOM     42  C   UNL     1      -1.717   2.296  -8.336  1.00  0.00     0.010 A 
ATOM     43  C   UNL     1      -1.897   0.630 -10.088  1.00  0.00     0.010 A 
ATOM     44  C   UNL     1      -1.667   1.961  -9.696  1.00  0.00    -0.014 A 
BRANCH  44  45
ATOM     45  C   UNL     1      -1.588   3.023 -10.730  1.00  0.00     0.031 A 
ATOM     46  C   UNL     1      -2.877   3.489 -11.353  1.00  0.00     0.074 A 
ATOM     47  C   UNL     1      -0.419   3.562 -11.123  1.00  0.00     0.049 A 
ATOM     48  N   UNL     1      -3.070   4.339 -12.327  1.00  0.00    -0.248 NA
ATOM     49  C   UNL     1      -4.114   2.911 -10.801  1.00  0.00     0.031 C 
ATOM     50  C   UNL     1       0.896   3.242 -10.572  1.00  0.00     0.029 A 
ATOM     51  N   UNL     1      -0.157   4.495 -12.098  1.00  0.00    -0.354 N 
ATOM     52  C   UNL     1      -4.446   4.389 -12.513  1.00  0.00     0.074 A 
ATOM     53  C   UNL     1      -5.037   3.464 -11.571  1.00  0.00     0.031 C 
ATOM     54  C   UNL     1       1.829   3.959 -11.226  1.00  0.00     0.029 A 
ATOM     55  C   UNL     1       1.183   4.757 -12.268  1.00  0.00     0.049 A 
ATOM     56  H   UNL     1      -0.862   4.935 -12.625  1.00  0.00     0.167 HD
ATOM     57  C   UNL     1      -5.159   5.137 -13.387  1.00  0.00     0.031 A 
ATOM     58  C   UNL     1       1.815   5.529 -13.178  1.00  0.00     0.031 A 
ATOM     59  C   UNL     1      -4.574   6.040 -14.341  1.00  0.00     0.049 A 
ATOM     60  C   UNL     1       1.006   6.283 -14.207  1.00  0.00     0.074 A 
ATOM     61  C   UNL     1      -5.216   6.849 -15.262  1.00  0.00     0.029 A 
ATOM     62  N   UNL     1      -3.213   6.244 -14.508  1.00  0.00    -0.354 N 
ATOM     63  N   UNL     1      -0.297   6.341 -14.354  1.00  0.00    -0.248 NA
ATOM     64  C   UNL     1       1.756   7.078 -15.191  1.00  0.00     0.031 C 
ATOM     65  C   UNL     1      -4.241   7.492 -16.031  1.00  0.00     0.029 A 
ATOM     66  C   UNL     1      -2.994   7.141 -15.540  1.00  0.00     0.049 A 
ATOM     67  H   UNL     1      -2.508   5.816 -13.972  1.00  0.00     0.167 HD
ATOM     68  C   UNL     1      -0.520   7.200 -15.428  1.00  0.00     0.074 A 
ATOM     69  C   UNL     1       0.778   7.650 -15.882  1.00  0.00     0.031 C 
ATOM     70  C   UNL     1      -1.696   7.582 -15.986  1.00  0.00     0.031 A 
BRANCH  57  71
ATOM     71  C   UNL     1      -6.655   4.973 -13.378  1.00  0.00    -0.014 A 
ATOM     72  C   UNL     1      -7.436   5.443 -12.307  1.00  0.00     0.010 A 
ATOM     73  C   UNL     1      -7.292   4.362 -14.474  1.00  0.00     0.010 A 
ATOM     74  C   UNL     1      -8.822   5.269 -12.315  1.00  0.00     0.020 A 
ATOM     75  C   UNL     1      -8.680   4.215 -14.500  1.00  0.00     0.020 A 
ATOM     76  C   UNL     1      -9.435   4.655 -13.411  1.00  0.00     0.054 A 
BRANCH  76  77
ATOM     77  S   UNL     1     -11.239   4.465 -13.403  1.00  0.00     0.124 S 
ATOM     78  O   UNL     1     -11.428   3.433 -12.387  1.00  0.00    -0.237 OA
ATOM     79  O   UNL     1     -11.699   5.801 -13.035  1.00  0.00    -0.237 OA
ATOM     80  O   UNL     1     -11.551   4.055 -14.770  1.00  0.00    -0.744 OA
ENDBRANCH  76  77
ENDBRANCH  57  71
BRANCH  58  81
ATOM     81  C   UNL     1       3.303   5.615 -13.182  1.00  0.00    -0.014 A 
ATOM     82  C   UNL     1       3.953   6.819 -12.856  1.00  0.00     0.010 A 
ATOM     83  C   UNL     1       4.080   4.495 -13.533  1.00  0.00     0.010 A 
ATOM     84  C   UNL     1       5.348   6.904 -12.892  1.00  0.00     0.020 A 
ATOM     85  C   UNL     1       5.476   4.567 -13.539  1.00  0.00     0.020 A 
ATOM     86  C   UNL     1       6.100   5.775 -13.226  1.00  0.00     0.054 A 
BRANCH  86  87
ATOM     87  S   UNL     1       7.910   5.896 -13.190  1.00  0.00     0.124 S 
ATOM     88  O   UNL     1       8.181   6.744 -14.346  1.00  0.00    -0.237 OA
ATOM     89  O   UNL     1       8.149   6.506 -11.884  1.00  0.00    -0.237 OA
ATOM     90  O   UNL     1       8.348   4.508 -13.313  1.00  0.00    -0.744 OA
ENDBRANCH  86  87
ENDBRANCH  58  81
BRANCH  70  91
ATOM     91  C   UNL     1      -1.647   8.564 -17.131  1.00  0.00    -0.014 A 
ATOM     92  C   UNL     1      -1.170   8.188 -18.399  1.00  0.00     0.010 A 
ATOM     93  C   UNL     1      -2.149   9.866 -16.949  1.00  0.00     0.010 A 
ATOM     94  C   UNL     1      -1.169   9.105 -19.455  1.00  0.00     0.020 A 
ATOM     95  C   UNL     1      -2.179  10.776 -18.010  1.00  0.00     0.020 A 
ATOM     96  C   UNL     1      -1.676  10.393 -19.254  1.00  0.00     0.054 A 
BRANCH  96  97
ATOM     97  S   UNL     1      -1.706  11.548 -20.653  1.00  0.00     0.124 S 
ATOM     98  O   UNL     1      -0.290  11.869 -20.814  1.00  0.00    -0.237 OA
ATOM     99  O   UNL     1      -2.293  10.742 -21.721  1.00  0.00    -0.237 OA
ATOM    100  O   UNL     1      -2.543  12.647 -20.178  1.00  0.00    -0.744 OA
ENDBRANCH  96  97
ENDBRANCH  70  91
ENDBRANCH  44  45
ENDBRANCH  37  39
ENDBRANCH  36  37
ENDBRANCH  35  36
ENDBRANCH  34  35
ENDBRANCH  33  34
ENDBRANCH  32  33
ENDBRANCH   1  32
TORSDOF 23
