REMARK SMILES CCOC(=O)c1c(NC(=O)[C@@H]2[C@@H](C(=O)OCCOCCOCCOC(=O)c3ccc(-c4c5nc(c(-c6ccc(S(=O)(=O)[O-])cc6)c6ccc([nH]6)c(-c6ccc(S(=O)(=O)[O-])cc6)c6nc(c(-c7ccc(S(=O)(=O)[O-])cc7)c7ccc4[nH]7)C=C6)C=C5)cc3)[C@@H]3C=C[C@H]2CC3)sc2c1CCC2
REMARK SMILES IDX 19 1 18 2 17 3 16 4 15 5 13 6 14 7 12 8 11 9 90 10 87 11
REMARK SMILES IDX 89 12 91 13 88 14 92 15 9 16 8 17 10 19 7 20 6 21 95 22
REMARK SMILES IDX 93 23 94 24 96 25 98 26 97 27 4 28 5 29 3 30 2 31 1 32 20 33
REMARK SMILES IDX 21 34 22 35 23 36 24 37 25 38 26 39 27 40 28 41 86 42 29 43
REMARK SMILES IDX 85 44 30 45 31 46 32 47 79 48 33 49 84 50 78 51 80 52 34 53
REMARK SMILES IDX 83 54 77 55 76 56 35 58 65 59 46 60 64 61 47 62 50 63 63 64
REMARK SMILES IDX 81 65 48 66 49 67 62 69 82 70 51 71 36 72 37 73 45 74 38 75
REMARK SMILES IDX 44 76 39 77 40 78 41 79 42 80 43 81 66 82 67 83 75 84 68 85
REMARK SMILES IDX 74 86 69 87 70 88 71 89 72 90 73 91 52 92 53 93 61 94 54 95
REMARK SMILES IDX 60 96 55 97 56 98 57 99 58 100 59 101
REMARK H PARENT 8 18 80 57 50 68
REMARK Flexibility Score: inf
ROOT
ATOM      1  C   UNL     1       8.325   8.726   1.326  1.00  0.00     0.188 C 
ENDROOT
BRANCH   1   2
ATOM      2  O   UNL     1       8.653   7.948   2.473  1.00  0.00    -0.376 OA
BRANCH   2   3
ATOM      3  C   UNL     1       9.398   6.769   2.247  1.00  0.00     0.202 C 
BRANCH   3   4
ATOM      4  C   UNL     1       8.594   5.567   1.725  1.00  0.00     0.261 C 
BRANCH   4   5
ATOM      5  O   UNL     1       7.612   5.841   0.697  1.00  0.00    -0.463 OA
BRANCH   5   6
ATOM      6  C   UNL     1       6.369   6.185   1.121  1.00  0.00     0.310 C 
ATOM      7  O   UNL     1       6.076   6.362   2.299  1.00  0.00    -0.252 OA
BRANCH   6   8
ATOM      8  C   UNL     1       5.313   6.256   0.019  1.00  0.00     0.119 C 
ATOM      9  C   UNL     1       5.568   5.433  -1.265  1.00  0.00     0.100 C 
ATOM     10  C   UNL     1       5.207   6.300  -2.514  1.00  0.00     0.025 C 
ATOM     11  C   UNL     1       4.776   7.684  -0.346  1.00  0.00     0.026 C 
ATOM     12  C   UNL     1       3.792   6.815  -2.378  1.00  0.00    -0.027 C 
ATOM     13  C   UNL     1       6.099   7.577  -2.489  1.00  0.00     0.009 C 
ATOM     14  C   UNL     1       3.570   7.541  -1.265  1.00  0.00    -0.027 C 
ATOM     15  C   UNL     1       5.706   8.460  -1.282  1.00  0.00     0.009 C 
BRANCH   9  16
ATOM     16  C   UNL     1       5.047   3.968  -1.385  1.00  0.00     0.229 C 
ATOM     17  N   UNL     1       4.152   3.314  -0.578  1.00  0.00    -0.317 N 
ATOM     18  H   UNL     1       4.208   2.332  -0.622  1.00  0.00     0.170 HD
ATOM     19  O   UNL     1       5.592   3.254  -2.247  1.00  0.00    -0.274 OA
BRANCH  17  20
ATOM     20  C   UNL     1       3.192   3.789   0.283  1.00  0.00     0.110 A 
ATOM     21  C   UNL     1       2.534   3.248   1.389  1.00  0.00     0.098 A 
ATOM     22  C   UNL     1       2.005   4.344   2.143  1.00  0.00    -0.017 A 
ATOM     23  S   UNL     1       2.196   5.103  -0.212  1.00  0.00    -0.122 S 
ATOM     24  C   UNL     1       2.030   5.492   1.402  1.00  0.00     0.011 A 
ATOM     25  C   UNL     1       1.406   4.618   3.474  1.00  0.00     0.038 C 
ATOM     26  C   UNL     1       1.672   6.721   2.125  1.00  0.00     0.047 C 
ATOM     27  C   UNL     1       0.904   6.104   3.325  1.00  0.00     0.010 C 
BRANCH  21  28
ATOM     28  C   UNL     1       2.413   1.839   1.660  1.00  0.00     0.341 C 
ATOM     29  O   UNL     1       3.319   1.022   1.519  1.00  0.00    -0.246 OA
BRANCH  28  30
ATOM     30  O   UNL     1       1.100   1.537   1.851  1.00  0.00    -0.462 OA
BRANCH  30  31
ATOM     31  C   UNL     1       0.685   0.195   1.573  1.00  0.00     0.230 C 
ATOM     32  C   UNL     1       0.871  -0.169   0.106  1.00  0.00     0.049 C 
ENDBRANCH  30  31
ENDBRANCH  28  30
ENDBRANCH  21  28
ENDBRANCH  17  20
ENDBRANCH   9  16
ENDBRANCH   6   8
ENDBRANCH   5   6
ENDBRANCH   4   5
ENDBRANCH   3   4
ENDBRANCH   2   3
ENDBRANCH   1   2
BRANCH   1  33
ATOM     33  C   UNL     1       8.991   8.388  -0.022  1.00  0.00     0.188 C 
BRANCH  33  34
ATOM     34  O   UNL     1      10.374   8.744  -0.052  1.00  0.00    -0.376 OA
BRANCH  34  35
ATOM     35  C   UNL     1      10.715   9.409  -1.274  1.00  0.00     0.202 C 
BRANCH  35  36
ATOM     36  C   UNL     1      10.628  10.919  -1.103  1.00  0.00     0.261 C 
BRANCH  36  37
ATOM     37  O   UNL     1       9.459  11.322  -0.395  1.00  0.00    -0.460 OA
BRANCH  37  38
ATOM     38  C   UNL     1       8.262  11.280  -1.017  1.00  0.00     0.338 C 
ATOM     39  O   UNL     1       8.029  10.849  -2.131  1.00  0.00    -0.246 OA
BRANCH  38  40
ATOM     40  C   UNL     1       7.300  11.968  -0.130  1.00  0.00     0.060 A 
ATOM     41  C   UNL     1       6.132  12.439  -0.731  1.00  0.00     0.016 A 
ATOM     42  C   UNL     1       7.776  12.495   1.081  1.00  0.00     0.016 A 
ATOM     43  C   UNL     1       5.662  13.669  -0.327  1.00  0.00     0.010 A 
ATOM     44  C   UNL     1       7.349  13.742   1.444  1.00  0.00     0.010 A 
ATOM     45  C   UNL     1       6.385  14.355   0.650  1.00  0.00    -0.014 A 
BRANCH  45  46
ATOM     46  C   UNL     1       6.252  15.793   0.723  1.00  0.00     0.031 A 
ATOM     47  C   UNL     1       5.271  16.273   1.704  1.00  0.00     0.074 A 
ATOM     48  C   UNL     1       7.103  16.596   0.056  1.00  0.00     0.049 A 
ATOM     49  N   UNL     1       4.130  16.828   1.472  1.00  0.00    -0.248 NA
ATOM     50  C   UNL     1       5.517  15.941   3.116  1.00  0.00     0.031 C 
ATOM     51  C   UNL     1       8.324  16.201  -0.661  1.00  0.00     0.029 A 
ATOM     52  N   UNL     1       7.132  17.954  -0.006  1.00  0.00    -0.354 N 
ATOM     53  C   UNL     1       3.613  17.114   2.728  1.00  0.00     0.074 A 
ATOM     54  C   UNL     1       4.370  16.329   3.668  1.00  0.00     0.031 C 
ATOM     55  C   UNL     1       9.078  17.300  -0.886  1.00  0.00     0.029 A 
ATOM     56  C   UNL     1       8.346  18.472  -0.436  1.00  0.00     0.049 A 
ATOM     57  H   UNL     1       6.362  18.519   0.233  1.00  0.00     0.167 HD
ATOM     58  C   UNL     1       2.822  18.198   2.946  1.00  0.00     0.031 A 
ATOM     59  C   UNL     1       8.752  19.762  -0.342  1.00  0.00     0.031 A 
ATOM     60  C   UNL     1       2.355  18.779   1.714  1.00  0.00     0.049 A 
ATOM     61  C   UNL     1       7.549  20.600  -0.117  1.00  0.00     0.074 A 
ATOM     62  C   UNL     1       1.577  18.345   0.661  1.00  0.00     0.029 A 
ATOM     63  N   UNL     1       3.022  19.900   1.274  1.00  0.00    -0.354 N 
ATOM     64  N   UNL     1       6.615  20.777  -1.010  1.00  0.00    -0.248 NA
ATOM     65  C   UNL     1       7.161  20.924   1.249  1.00  0.00     0.031 C 
ATOM     66  C   UNL     1       2.091  19.006  -0.491  1.00  0.00     0.029 A 
ATOM     67  C   UNL     1       3.144  19.832  -0.090  1.00  0.00     0.049 A 
ATOM     68  H   UNL     1       3.356  20.630   1.844  1.00  0.00     0.167 HD
ATOM     69  C   UNL     1       5.430  20.820  -0.288  1.00  0.00     0.074 A 
ATOM     70  C   UNL     1       5.839  21.046   1.093  1.00  0.00     0.031 C 
ATOM     71  C   UNL     1       4.259  20.381  -0.839  1.00  0.00     0.031 A 
BRANCH  58  72
ATOM     72  C   UNL     1       2.842  18.978   4.239  1.00  0.00    -0.014 A 
ATOM     73  C   UNL     1       1.935  20.043   4.397  1.00  0.00     0.010 A 
ATOM     74  C   UNL     1       3.890  18.887   5.180  1.00  0.00     0.010 A 
ATOM     75  C   UNL     1       2.124  21.012   5.391  1.00  0.00     0.020 A 
ATOM     76  C   UNL     1       4.057  19.814   6.206  1.00  0.00     0.020 A 
ATOM     77  C   UNL     1       3.199  20.899   6.274  1.00  0.00     0.054 A 
BRANCH  77  78
ATOM     78  S   UNL     1       3.535  22.231   7.448  1.00  0.00     0.124 S 
ATOM     79  O   UNL     1       3.961  23.307   6.559  1.00  0.00    -0.237 OA
ATOM     80  O   UNL     1       2.238  22.412   8.093  1.00  0.00    -0.237 OA
ATOM     81  O   UNL     1       4.580  21.674   8.305  1.00  0.00    -0.744 OA
ENDBRANCH  77  78
ENDBRANCH  58  72
BRANCH  59  82
ATOM     82  C   UNL     1      10.137  20.255  -0.153  1.00  0.00    -0.014 A 
ATOM     83  C   UNL     1      10.484  21.592  -0.412  1.00  0.00     0.010 A 
ATOM     84  C   UNL     1      11.084  19.449   0.516  1.00  0.00     0.010 A 
ATOM     85  C   UNL     1      11.717  22.113   0.019  1.00  0.00     0.020 A 
ATOM     86  C   UNL     1      12.317  19.956   0.937  1.00  0.00     0.020 A 
ATOM     87  C   UNL     1      12.620  21.294   0.704  1.00  0.00     0.054 A 
BRANCH  87  88
ATOM     88  S   UNL     1      14.144  22.010   1.387  1.00  0.00     0.124 S 
ATOM     89  O   UNL     1      14.922  22.290   0.184  1.00  0.00    -0.237 OA
ATOM     90  O   UNL     1      13.650  23.179   2.108  1.00  0.00    -0.237 OA
ATOM     91  O   UNL     1      14.676  20.943   2.234  1.00  0.00    -0.744 OA
ENDBRANCH  87  88
ENDBRANCH  59  82
BRANCH  71  92
ATOM     92  C   UNL     1       4.213  20.204  -2.339  1.00  0.00    -0.014 A 
ATOM     93  C   UNL     1       5.008  19.269  -3.030  1.00  0.00     0.010 A 
ATOM     94  C   UNL     1       3.231  20.911  -3.055  1.00  0.00     0.010 A 
ATOM     95  C   UNL     1       4.841  19.067  -4.407  1.00  0.00     0.020 A 
ATOM     96  C   UNL     1       3.048  20.701  -4.424  1.00  0.00     0.020 A 
ATOM     97  C   UNL     1       3.860  19.785  -5.096  1.00  0.00     0.054 A 
BRANCH  97  98
ATOM     98  S   UNL     1       3.608  19.471  -6.865  1.00  0.00     0.124 S 
ATOM     99  O   UNL     1       4.793  20.075  -7.467  1.00  0.00    -0.237 OA
ATOM    100  O   UNL     1       3.542  18.013  -6.931  1.00  0.00    -0.237 OA
ATOM    101  O   UNL     1       2.348  20.151  -7.163  1.00  0.00    -0.744 OA
ENDBRANCH  97  98
ENDBRANCH  71  92
ENDBRANCH  45  46
ENDBRANCH  38  40
ENDBRANCH  37  38
ENDBRANCH  36  37
ENDBRANCH  35  36
ENDBRANCH  34  35
ENDBRANCH  33  34
ENDBRANCH   1  33
TORSDOF 25
