REMARK SMILES O=C(Nc1ccc(O)cc1C(=O)OCCOCCOCCOC(=O)c1ccc(-c2c3nc(c(-c4ccc(S(=O)(=O)[O-])cc4)c4ccc([nH]4)c(-c4ccc(S(=O)(=O)[O-])cc4)c4nc(c(-c5ccc(S(=O)(=O)[O-])cc5)c5ccc2[nH]5)C=C4)C=C3)cc1)c1ccc(Br)nc1
REMARK SMILES IDX 18 1 17 2 16 3 15 4 14 5 13 6 11 7 12 8 10 9 4 10 5 11 6 12
REMARK SMILES IDX 9 13 7 14 3 15 1 16 2 17 85 19 86 20 91 21 87 22 90 23 88 24
REMARK SMILES IDX 89 25 8 26 19 28 20 29 21 30 22 31 23 32 24 33 25 34 26 35
REMARK SMILES IDX 84 36 27 37 83 38 28 39 29 40 30 41 77 42 31 43 82 44 76 45
REMARK SMILES IDX 78 46 32 47 81 48 75 49 74 50 33 52 63 53 44 54 62 55 45 56
REMARK SMILES IDX 48 57 61 58 79 59 46 60 47 61 60 63 80 64 49 65 34 66 35 67
REMARK SMILES IDX 43 68 36 69 42 70 37 71 38 72 39 73 40 74 41 75 64 76 65 77
REMARK SMILES IDX 73 78 66 79 72 80 67 81 68 82 69 83 70 84 71 85 50 86 51 87
REMARK SMILES IDX 59 88 52 89 58 90 53 91 54 92 55 93 56 94 57 95
REMARK H PARENT 3 18 8 27 78 51 48 62
REMARK Flexibility Score: inf
ROOT
ATOM      1  C   UNL     1       4.107  -0.726  -3.863  1.00  0.00     0.188 C 
ENDROOT
BRANCH   1   2
ATOM      2  C   UNL     1       4.609  -2.014  -4.541  1.00  0.00     0.188 C 
BRANCH   2   3
ATOM      3  O   UNL     1       3.675  -2.817  -5.255  1.00  0.00    -0.376 OA
BRANCH   3   4
ATOM      4  C   UNL     1       2.500  -3.270  -4.586  1.00  0.00     0.202 C 
BRANCH   4   5
ATOM      5  C   UNL     1       2.662  -3.960  -3.228  1.00  0.00     0.261 C 
BRANCH   5   6
ATOM      6  O   UNL     1       3.192  -3.069  -2.227  1.00  0.00    -0.460 OA
BRANCH   6   7
ATOM      7  C   UNL     1       4.153  -3.605  -1.437  1.00  0.00     0.340 C 
ATOM      8  O   UNL     1       4.468  -4.784  -1.388  1.00  0.00    -0.246 OA
BRANCH   7   9
ATOM      9  C   UNL     1       4.905  -2.550  -0.717  1.00  0.00     0.087 A 
ATOM     10  C   UNL     1       4.325  -1.450  -0.051  1.00  0.00     0.056 A 
ATOM     11  C   UNL     1       5.173  -0.640   0.721  1.00  0.00     0.031 A 
ATOM     12  C   UNL     1       6.562  -0.788   0.683  1.00  0.00     0.048 A 
ATOM     13  C   UNL     1       6.303  -2.698  -0.751  1.00  0.00     0.064 A 
ATOM     14  C   UNL     1       7.117  -1.792  -0.090  1.00  0.00     0.116 A 
BRANCH  10  15
ATOM     15  N   UNL     1       2.939  -1.185  -0.166  1.00  0.00    -0.321 N 
ATOM     16  O   UNL     1       0.957  -0.132   0.147  1.00  0.00    -0.269 OA
ATOM     17  C   UNL     1       2.184  -0.062   0.110  1.00  0.00     0.257 C 
ATOM     18  H   UNL     1       2.414  -1.945  -0.506  1.00  0.00     0.170 HD
BRANCH  17  19
ATOM     19  C   UNL     1       2.801   1.258   0.328  1.00  0.00     0.058 A 
ATOM     20  C   UNL     1       2.472   2.001   1.462  1.00  0.00     0.018 A 
ATOM     21  C   UNL     1       3.712   1.798  -0.570  1.00  0.00     0.126 A 
ATOM     22  C   UNL     1       3.127   3.211   1.696  1.00  0.00     0.037 A 
ATOM     23  N   UNL     1       4.373   2.962  -0.356  1.00  0.00    -0.249 NA
ATOM     24  C   UNL     1       4.074   3.639   0.774  1.00  0.00     0.106 A 
ATOM     25  Br  UNL     1       5.028   5.240   1.122  1.00  0.00    -0.029 Br
ENDBRANCH  17  19
ENDBRANCH  10  15
BRANCH  14  26
ATOM     26  O   UNL     1       8.463  -1.933  -0.218  1.00  0.00    -0.508 OA
ATOM     27  H   UNL     1       9.040  -1.336   0.216  1.00  0.00     0.293 HD
ENDBRANCH  14  26
ENDBRANCH   7   9
ENDBRANCH   6   7
ENDBRANCH   5   6
ENDBRANCH   4   5
ENDBRANCH   3   4
ENDBRANCH   2   3
ENDBRANCH   1   2
BRANCH   1  28
ATOM     28  O   UNL     1       2.728  -0.470  -3.967  1.00  0.00    -0.376 OA
BRANCH  28  29
ATOM     29  C   UNL     1       2.202   0.265  -5.059  1.00  0.00     0.202 C 
BRANCH  29  30
ATOM     30  C   UNL     1       2.915   0.542  -6.398  1.00  0.00     0.261 C 
BRANCH  30  31
ATOM     31  O   UNL     1       4.316   0.293  -6.489  1.00  0.00    -0.460 OA
BRANCH  31  32
ATOM     32  C   UNL     1       5.131   1.332  -6.193  1.00  0.00     0.338 C 
ATOM     33  O   UNL     1       4.803   2.431  -5.785  1.00  0.00    -0.246 OA
BRANCH  32  34
ATOM     34  C   UNL     1       6.521   0.842  -6.271  1.00  0.00     0.060 A 
ATOM     35  C   UNL     1       7.313   0.874  -5.117  1.00  0.00     0.016 A 
ATOM     36  C   UNL     1       7.036   0.354  -7.476  1.00  0.00     0.016 A 
ATOM     37  C   UNL     1       8.637   0.439  -5.172  1.00  0.00     0.010 A 
ATOM     38  C   UNL     1       8.368  -0.061  -7.533  1.00  0.00     0.010 A 
ATOM     39  C   UNL     1       9.182   0.004  -6.388  1.00  0.00    -0.014 A 
BRANCH  39  40
ATOM     40  C   UNL     1      10.641  -0.225  -6.506  1.00  0.00     0.031 A 
ATOM     41  C   UNL     1      11.506   0.901  -7.004  1.00  0.00     0.074 A 
ATOM     42  C   UNL     1      11.190  -1.408  -6.178  1.00  0.00     0.049 A 
ATOM     43  N   UNL     1      12.796   0.924  -7.215  1.00  0.00    -0.248 NA
ATOM     44  C   UNL     1      10.823   2.172  -7.303  1.00  0.00     0.031 C 
ATOM     45  C   UNL     1      10.465  -2.562  -5.649  1.00  0.00     0.029 A 
ATOM     46  N   UNL     1      12.493  -1.832  -6.250  1.00  0.00    -0.354 N 
ATOM     47  C   UNL     1      13.079   2.203  -7.678  1.00  0.00     0.074 A 
ATOM     48  C   UNL     1      11.826   2.923  -7.735  1.00  0.00     0.031 C 
ATOM     49  C   UNL     1      11.336  -3.570  -5.452  1.00  0.00     0.029 A 
ATOM     50  C   UNL     1      12.670  -3.140  -5.868  1.00  0.00     0.049 A 
ATOM     51  H   UNL     1      13.232  -1.254  -6.548  1.00  0.00     0.167 HD
ATOM     52  C   UNL     1      14.276   2.732  -8.024  1.00  0.00     0.031 A 
ATOM     53  C   UNL     1      13.778  -3.907  -5.872  1.00  0.00     0.031 A 
ATOM     54  C   UNL     1      15.520   2.013  -7.984  1.00  0.00     0.049 A 
ATOM     55  C   UNL     1      15.086  -3.317  -6.336  1.00  0.00     0.074 A 
ATOM     56  C   UNL     1      16.788   2.472  -8.291  1.00  0.00     0.029 A 
ATOM     57  N   UNL     1      15.650   0.680  -7.627  1.00  0.00    -0.354 N 
ATOM     58  N   UNL     1      15.345  -2.092  -6.730  1.00  0.00    -0.248 NA
ATOM     59  C   UNL     1      16.252  -4.213  -6.351  1.00  0.00     0.031 C 
ATOM     60  C   UNL     1      17.680   1.401  -8.170  1.00  0.00     0.029 A 
ATOM     61  C   UNL     1      16.974   0.290  -7.735  1.00  0.00     0.049 A 
ATOM     62  H   UNL     1      14.911   0.097  -7.339  1.00  0.00     0.167 HD
ATOM     63  C   UNL     1      16.708  -2.064  -7.009  1.00  0.00     0.074 A 
ATOM     64  C   UNL     1      17.220  -3.390  -6.732  1.00  0.00     0.031 C 
ATOM     65  C   UNL     1      17.469  -1.032  -7.450  1.00  0.00     0.031 A 
BRANCH  52  66
ATOM     66  C   UNL     1      14.288   4.153  -8.516  1.00  0.00    -0.014 A 
ATOM     67  C   UNL     1      14.112   5.231  -7.630  1.00  0.00     0.010 A 
ATOM     68  C   UNL     1      14.515   4.413  -9.879  1.00  0.00     0.010 A 
ATOM     69  C   UNL     1      14.130   6.545  -8.106  1.00  0.00     0.020 A 
ATOM     70  C   UNL     1      14.557   5.726 -10.355  1.00  0.00     0.020 A 
ATOM     71  C   UNL     1      14.349   6.784  -9.466  1.00  0.00     0.054 A 
BRANCH  71  72
ATOM     72  S   UNL     1      14.394   8.499 -10.054  1.00  0.00     0.124 S 
ATOM     73  O   UNL     1      12.980   8.864 -10.025  1.00  0.00    -0.237 OA
ATOM     74  O   UNL     1      15.234   9.159  -9.057  1.00  0.00    -0.237 OA
ATOM     75  O   UNL     1      14.982   8.393 -11.387  1.00  0.00    -0.744 OA
ENDBRANCH  71  72
ENDBRANCH  52  66
BRANCH  53  76
ATOM     76  C   UNL     1      13.708  -5.330  -5.440  1.00  0.00    -0.014 A 
ATOM     77  C   UNL     1      14.315  -5.744  -4.242  1.00  0.00     0.010 A 
ATOM     78  C   UNL     1      13.053  -6.284  -6.240  1.00  0.00     0.010 A 
ATOM     79  C   UNL     1      14.291  -7.090  -3.864  1.00  0.00     0.020 A 
ATOM     80  C   UNL     1      13.005  -7.626  -5.853  1.00  0.00     0.020 A 
ATOM     81  C   UNL     1      13.638  -8.024  -4.674  1.00  0.00     0.054 A 
BRANCH  81  82
ATOM     82  S   UNL     1      13.592  -9.761  -4.151  1.00  0.00     0.124 S 
ATOM     83  O   UNL     1      14.947 -10.206  -4.461  1.00  0.00    -0.237 OA
ATOM     84  O   UNL     1      13.270  -9.656  -2.729  1.00  0.00    -0.237 OA
ATOM     85  O   UNL     1      12.536 -10.338  -4.979  1.00  0.00    -0.744 OA
ENDBRANCH  81  82
ENDBRANCH  53  76
BRANCH  65  86
ATOM     86  C   UNL     1      18.944  -1.277  -7.623  1.00  0.00    -0.014 A 
ATOM     87  C   UNL     1      19.438  -2.034  -8.700  1.00  0.00     0.010 A 
ATOM     88  C   UNL     1      19.853  -0.686  -6.726  1.00  0.00     0.010 A 
ATOM     89  C   UNL     1      20.814  -2.218  -8.861  1.00  0.00     0.020 A 
ATOM     90  C   UNL     1      21.230  -0.847  -6.898  1.00  0.00     0.020 A 
ATOM     91  C   UNL     1      21.702  -1.624  -7.957  1.00  0.00     0.054 A 
BRANCH  91  92
ATOM     92  S   UNL     1      23.486  -1.836  -8.213  1.00  0.00     0.124 S 
ATOM     93  O   UNL     1      23.699  -3.204  -7.749  1.00  0.00    -0.237 OA
ATOM     94  O   UNL     1      23.632  -1.631  -9.652  1.00  0.00    -0.237 OA
ATOM     95  O   UNL     1      24.081  -0.794  -7.379  1.00  0.00    -0.744 OA
ENDBRANCH  91  92
ENDBRANCH  65  86
ENDBRANCH  39  40
ENDBRANCH  32  34
ENDBRANCH  31  32
ENDBRANCH  30  31
ENDBRANCH  29  30
ENDBRANCH  28  29
ENDBRANCH   1  28
TORSDOF 23
