REMARK SMILES O=C(/C=C/c1ccc(O)cc1)NC[C@@H]1CC[C@H](C(=O)OCCOCCOCCOC(=O)c2ccc(-c3c4nc(c(-c5ccc(S(=O)(=O)[O-])cc5)c5ccc([nH]5)c(-c5ccc(S(=O)(=O)[O-])cc5)c5nc(c(-c6ccc(S(=O)(=O)[O-])cc6)c6ccc3[nH]6)C=C5)C=C4)cc2)O1
REMARK SMILES IDX 24 1 23 2 22 3 21 4 20 5 18 6 19 7 17 8 14 9 15 10 92 11
REMARK SMILES IDX 16 12 13 13 12 14 1 15 2 16 3 18 4 19 5 20 6 21 11 22 7 23
REMARK SMILES IDX 10 24 8 25 9 26 25 28 26 29 27 30 28 31 29 32 30 33 31 34
REMARK SMILES IDX 32 35 33 36 91 37 34 38 90 39 35 40 36 41 37 42 84 43 38 44
REMARK SMILES IDX 89 45 83 46 85 47 39 48 88 49 82 50 81 51 40 53 70 54 51 55
REMARK SMILES IDX 69 56 52 57 55 58 68 59 86 60 53 61 54 62 67 64 87 65 56 66
REMARK SMILES IDX 41 67 42 68 50 69 43 70 49 71 44 72 45 73 46 74 47 75 48 76
REMARK SMILES IDX 71 77 72 78 80 79 73 80 79 81 74 82 75 83 76 84 77 85 78 86
REMARK SMILES IDX 57 87 58 88 66 89 59 90 65 91 60 92 61 93 62 94 63 95 64 96
REMARK H PARENT 12 17 9 27 85 52 55 63
REMARK Flexibility Score: inf
ROOT
ATOM      1  C   UNL     1      -1.290   4.770  -3.724  1.00  0.00     0.188 C 
ENDROOT
BRANCH   1   2
ATOM      2  O   UNL     1      -2.361   4.609  -2.803  1.00  0.00    -0.376 OA
BRANCH   2   3
ATOM      3  C   UNL     1      -2.134   3.722  -1.703  1.00  0.00     0.202 C 
BRANCH   3   4
ATOM      4  C   UNL     1      -1.511   2.350  -2.015  1.00  0.00     0.261 C 
BRANCH   4   5
ATOM      5  O   UNL     1      -0.184   2.430  -2.588  1.00  0.00    -0.461 OA
BRANCH   5   6
ATOM      6  C   UNL     1       0.054   1.610  -3.645  1.00  0.00     0.335 C 
ATOM      7  O   UNL     1      -0.751   0.784  -4.066  1.00  0.00    -0.249 OA
BRANCH   6   8
ATOM      8  C   UNL     1       1.421   1.836  -4.323  1.00  0.00     0.228 C 
ATOM      9  C   UNL     1       2.945   0.363  -3.364  1.00  0.00     0.138 C 
ATOM     10  C   UNL     1       3.131   1.724  -2.700  1.00  0.00     0.037 C 
ATOM     11  O   UNL     1       2.074   0.562  -4.494  1.00  0.00    -0.361 OA
ATOM     12  C   UNL     1       2.481   2.685  -3.654  1.00  0.00     0.047 C 
BRANCH   9  13
ATOM     13  C   UNL     1       2.361  -0.710  -2.427  1.00  0.00     0.148 C 
BRANCH  13  14
ATOM     14  N   UNL     1       2.973  -0.693  -1.110  1.00  0.00    -0.350 N 
ATOM     15  O   UNL     1       1.116   0.108  -0.013  1.00  0.00    -0.270 OA
ATOM     16  C   UNL     1       2.303  -0.195  -0.022  1.00  0.00     0.244 C 
ATOM     17  H   UNL     1       3.885  -1.045  -0.996  1.00  0.00     0.163 HD
BRANCH  16  18
ATOM     18  C   UNL     1       3.097  -0.036   1.220  1.00  0.00     0.072 C 
ATOM     19  C   UNL     1       4.425   0.145   1.278  1.00  0.00     0.014 C 
BRANCH  19  20
ATOM     20  C   UNL     1       5.143   0.344   2.545  1.00  0.00    -0.025 A 
ATOM     21  C   UNL     1       4.802  -0.366   3.705  1.00  0.00     0.012 A 
ATOM     22  C   UNL     1       6.233   1.223   2.586  1.00  0.00     0.012 A 
ATOM     23  C   UNL     1       5.520  -0.187   4.890  1.00  0.00     0.047 A 
ATOM     24  C   UNL     1       6.954   1.403   3.770  1.00  0.00     0.047 A 
ATOM     25  C   UNL     1       6.592   0.698   4.911  1.00  0.00     0.115 A 
BRANCH  25  26
ATOM     26  O   UNL     1       7.323   0.898   6.043  1.00  0.00    -0.508 OA
ATOM     27  H   UNL     1       7.105   0.437   6.830  1.00  0.00     0.293 HD
ENDBRANCH  25  26
ENDBRANCH  19  20
ENDBRANCH  16  18
ENDBRANCH  13  14
ENDBRANCH   9  13
ENDBRANCH   6   8
ENDBRANCH   5   6
ENDBRANCH   4   5
ENDBRANCH   3   4
ENDBRANCH   2   3
ENDBRANCH   1   2
BRANCH   1  28
ATOM     28  C   UNL     1      -0.011   5.394  -3.157  1.00  0.00     0.188 C 
BRANCH  28  29
ATOM     29  O   UNL     1       0.268   5.041  -1.820  1.00  0.00    -0.376 OA
BRANCH  29  30
ATOM     30  C   UNL     1       0.645   6.015  -0.854  1.00  0.00     0.202 C 
BRANCH  30  31
ATOM     31  C   UNL     1       0.143   7.478  -0.874  1.00  0.00     0.261 C 
BRANCH  31  32
ATOM     32  O   UNL     1       0.138   8.185  -2.124  1.00  0.00    -0.460 OA
BRANCH  32  33
ATOM     33  C   UNL     1       1.310   8.299  -2.793  1.00  0.00     0.338 C 
ATOM     34  O   UNL     1       2.420   8.045  -2.354  1.00  0.00    -0.246 OA
BRANCH  33  35
ATOM     35  C   UNL     1       0.981   8.485  -4.236  1.00  0.00     0.060 A 
ATOM     36  C   UNL     1       1.609   7.646  -5.170  1.00  0.00     0.016 A 
ATOM     37  C   UNL     1      -0.015   9.370  -4.660  1.00  0.00     0.016 A 
ATOM     38  C   UNL     1       1.265   7.708  -6.525  1.00  0.00     0.010 A 
ATOM     39  C   UNL     1      -0.342   9.449  -6.020  1.00  0.00     0.010 A 
ATOM     40  C   UNL     1       0.314   8.638  -6.965  1.00  0.00    -0.014 A 
BRANCH  40  41
ATOM     41  C   UNL     1       0.145   8.919  -8.416  1.00  0.00     0.031 A 
ATOM     42  C   UNL     1       0.883  10.099  -8.993  1.00  0.00     0.074 A 
ATOM     43  C   UNL     1      -0.643   8.172  -9.211  1.00  0.00     0.049 A 
ATOM     44  N   UNL     1       0.817  10.618 -10.191  1.00  0.00    -0.248 NA
ATOM     45  C   UNL     1       1.820  10.787  -8.088  1.00  0.00     0.031 C 
ATOM     46  C   UNL     1      -1.366   6.968  -8.804  1.00  0.00     0.029 A 
ATOM     47  N   UNL     1      -0.978   8.333 -10.535  1.00  0.00    -0.354 N 
ATOM     48  C   UNL     1       1.686  11.703 -10.179  1.00  0.00     0.074 A 
ATOM     49  C   UNL     1       2.253  11.780  -8.851  1.00  0.00     0.031 C 
ATOM     50  C   UNL     1      -2.074   6.510  -9.853  1.00  0.00     0.029 A 
ATOM     51  C   UNL     1      -1.893   7.412 -10.992  1.00  0.00     0.049 A 
ATOM     52  H   UNL     1      -0.599   9.041 -11.104  1.00  0.00     0.167 HD
ATOM     53  C   UNL     1       1.986  12.562 -11.182  1.00  0.00     0.031 A 
ATOM     54  C   UNL     1      -2.536   7.326 -12.176  1.00  0.00     0.031 A 
ATOM     55  C   UNL     1       1.410  12.498 -12.498  1.00  0.00     0.049 A 
ATOM     56  C   UNL     1      -2.264   8.355 -13.248  1.00  0.00     0.074 A 
ATOM     57  C   UNL     1       1.663  13.317 -13.585  1.00  0.00     0.029 A 
ATOM     58  N   UNL     1       0.458  11.576 -12.903  1.00  0.00    -0.354 N 
ATOM     59  N   UNL     1      -1.422   9.362 -13.232  1.00  0.00    -0.248 NA
ATOM     60  C   UNL     1      -3.031   8.237 -14.498  1.00  0.00     0.031 C 
ATOM     61  C   UNL     1       0.813  12.933 -14.626  1.00  0.00     0.029 A 
ATOM     62  C   UNL     1       0.084  11.829 -14.212  1.00  0.00     0.049 A 
ATOM     63  H   UNL     1       0.100  10.850 -12.343  1.00  0.00     0.167 HD
ATOM     64  C   UNL     1      -1.542   9.979 -14.475  1.00  0.00     0.074 A 
ATOM     65  C   UNL     1      -2.524   9.225 -15.224  1.00  0.00     0.031 C 
ATOM     66  C   UNL     1      -0.894  11.071 -14.952  1.00  0.00     0.031 A 
BRANCH  53  67
ATOM     67  C   UNL     1       2.950  13.677 -10.876  1.00  0.00    -0.014 A 
ATOM     68  C   UNL     1       4.318  13.426 -10.666  1.00  0.00     0.010 A 
ATOM     69  C   UNL     1       2.483  15.004 -10.835  1.00  0.00     0.010 A 
ATOM     70  C   UNL     1       5.193  14.477 -10.383  1.00  0.00     0.020 A 
ATOM     71  C   UNL     1       3.361  16.061 -10.582  1.00  0.00     0.020 A 
ATOM     72  C   UNL     1       4.708  15.788 -10.342  1.00  0.00     0.054 A 
BRANCH  72  73
ATOM     73  S   UNL     1       5.873  17.134  -9.994  1.00  0.00     0.124 S 
ATOM     74  O   UNL     1       6.170  16.917  -8.580  1.00  0.00    -0.237 OA
ATOM     75  O   UNL     1       6.970  16.853 -10.917  1.00  0.00    -0.237 OA
ATOM     76  O   UNL     1       5.107  18.342 -10.290  1.00  0.00    -0.744 OA
ENDBRANCH  72  73
ENDBRANCH  53  67
BRANCH  54  77
ATOM     77  C   UNL     1      -3.541   6.247 -12.407  1.00  0.00    -0.014 A 
ATOM     78  C   UNL     1      -3.304   5.232 -13.351  1.00  0.00     0.010 A 
ATOM     79  C   UNL     1      -4.753   6.241 -11.692  1.00  0.00     0.010 A 
ATOM     80  C   UNL     1      -4.264   4.241 -13.584  1.00  0.00     0.020 A 
ATOM     81  C   UNL     1      -5.702   5.235 -11.900  1.00  0.00     0.020 A 
ATOM     82  C   UNL     1      -5.455   4.246 -12.853  1.00  0.00     0.054 A 
BRANCH  82  83
ATOM     83  S   UNL     1      -6.662   2.920 -13.137  1.00  0.00     0.124 S 
ATOM     84  O   UNL     1      -7.181   3.258 -14.458  1.00  0.00    -0.237 OA
ATOM     85  O   UNL     1      -5.831   1.721 -13.070  1.00  0.00    -0.237 OA
ATOM     86  O   UNL     1      -7.608   3.077 -12.034  1.00  0.00    -0.744 OA
ENDBRANCH  82  83
ENDBRANCH  54  77
BRANCH  66  87
ATOM     87  C   UNL     1      -1.193  11.514 -16.362  1.00  0.00    -0.014 A 
ATOM     88  C   UNL     1      -2.413  12.131 -16.691  1.00  0.00     0.010 A 
ATOM     89  C   UNL     1      -0.199  11.394 -17.352  1.00  0.00     0.010 A 
ATOM     90  C   UNL     1      -2.638  12.606 -17.987  1.00  0.00     0.020 A 
ATOM     91  C   UNL     1      -0.409  11.893 -18.640  1.00  0.00     0.020 A 
ATOM     92  C   UNL     1      -1.632  12.491 -18.952  1.00  0.00     0.054 A 
BRANCH  92  93
ATOM     93  S   UNL     1      -1.924  13.181 -20.604  1.00  0.00     0.124 S 
ATOM     94  O   UNL     1      -2.907  12.253 -21.154  1.00  0.00    -0.237 OA
ATOM     95  O   UNL     1      -2.423  14.522 -20.306  1.00  0.00    -0.237 OA
ATOM     96  O   UNL     1      -0.607  13.140 -21.237  1.00  0.00    -0.744 OA
ENDBRANCH  92  93
ENDBRANCH  66  87
ENDBRANCH  40  41
ENDBRANCH  33  35
ENDBRANCH  32  33
ENDBRANCH  31  32
ENDBRANCH  30  31
ENDBRANCH  29  30
ENDBRANCH  28  29
ENDBRANCH   1  28
TORSDOF 25
