REMARK SMILES C[C@@H]([NH2+][C@H]1CCOC2(CCOCC2)C1)C(=O)OCCOCCOCCOC(=O)c1ccc(-c2c3nc(c(-c4ccc(S(=O)(=O)[O-])cc4)c4ccc([nH]4)c(-c4ccc(S(=O)(=O)[O-])cc4)c4nc(c(-c5ccc(S(=O)(=O)[O-])cc5)c5ccc2[nH]5)C=C4)C=C3)cc1
REMARK SMILES IDX 22 1 21 2 20 3 19 4 18 5 17 6 15 7 16 8 2 9 1 10 3 11 4 14
REMARK SMILES IDX 5 15 14 16 6 17 8 18 7 19 9 20 13 21 10 22 12 23 11 24 23 25
REMARK SMILES IDX 24 26 25 27 26 28 27 29 28 30 29 31 30 32 88 33 31 34 87 35
REMARK SMILES IDX 32 36 33 37 34 38 81 39 35 40 86 41 80 42 82 43 36 44 85 45
REMARK SMILES IDX 79 46 78 47 37 49 67 50 48 51 66 52 49 53 52 54 65 55 83 56
REMARK SMILES IDX 50 57 51 58 64 60 84 61 53 62 38 63 39 64 47 65 40 66 46 67
REMARK SMILES IDX 41 68 42 69 43 70 44 71 45 72 68 73 69 74 77 75 70 76 76 77
REMARK SMILES IDX 71 78 72 79 73 80 74 81 75 82 54 83 55 84 63 85 56 86 62 87
REMARK SMILES IDX 57 88 58 89 59 90 60 91 61 92
REMARK H PARENT 3 12 3 13 82 48 52 59
REMARK Flexibility Score: inf
ROOT
ATOM      1  C   UNL     1       3.204   1.786  -4.824  1.00  0.00     0.188 C 
ENDROOT
BRANCH   1   2
ATOM      2  C   UNL     1       2.268   2.421  -3.790  1.00  0.00     0.188 C 
BRANCH   2   3
ATOM      3  O   UNL     1       2.934   3.115  -2.767  1.00  0.00    -0.376 OA
BRANCH   3   4
ATOM      4  C   UNL     1       3.291   2.437  -1.573  1.00  0.00     0.202 C 
BRANCH   4   5
ATOM      5  C   UNL     1       3.394   0.904  -1.386  1.00  0.00     0.261 C 
BRANCH   5   6
ATOM      6  O   UNL     1       3.352   0.052  -2.541  1.00  0.00    -0.459 OA
BRANCH   6   7
ATOM      7  C   UNL     1       2.153  -0.559  -2.745  1.00  0.00     0.364 C 
ATOM      8  O   UNL     1       1.193  -0.319  -2.015  1.00  0.00    -0.245 OA
BRANCH   7   9
ATOM      9  C   UNL     1       2.053  -1.381  -4.081  1.00  0.00     0.290 C 
ATOM     10  C   UNL     1       3.382  -1.724  -4.764  1.00  0.00     0.088 C 
BRANCH   9  11
ATOM     11  N   UNL     1       1.263  -2.644  -3.963  1.00  0.00    -0.332 N 
ATOM     12  H   UNL     1       1.842  -3.345  -3.501  1.00  0.00     0.347 HD
ATOM     13  H   UNL     1       1.000  -2.920  -4.909  1.00  0.00     0.347 HD
BRANCH  11  14
ATOM     14  C   UNL     1       0.021  -2.493  -3.200  1.00  0.00     0.188 C 
ATOM     15  C   UNL     1      -0.977  -1.479  -3.776  1.00  0.00     0.093 C 
ATOM     16  C   UNL     1      -0.692  -3.825  -2.996  1.00  0.00     0.100 C 
ATOM     17  C   UNL     1      -2.165  -1.346  -2.835  1.00  0.00     0.167 C 
ATOM     18  C   UNL     1      -1.865  -3.609  -2.014  1.00  0.00     0.078 C 
ATOM     19  O   UNL     1      -2.753  -2.615  -2.558  1.00  0.00    -0.374 OA
ATOM     20  C   UNL     1      -1.385  -3.227  -0.591  1.00  0.00     0.064 C 
ATOM     21  C   UNL     1      -2.681  -4.905  -1.911  1.00  0.00     0.064 C 
ATOM     22  C   UNL     1      -2.548  -3.189   0.389  1.00  0.00     0.163 C 
ATOM     23  C   UNL     1      -3.775  -4.766  -0.859  1.00  0.00     0.163 C 
ATOM     24  O   UNL     1      -3.207  -4.454   0.414  1.00  0.00    -0.381 OA
ENDBRANCH  11  14
ENDBRANCH   9  11
ENDBRANCH   7   9
ENDBRANCH   6   7
ENDBRANCH   5   6
ENDBRANCH   4   5
ENDBRANCH   3   4
ENDBRANCH   2   3
ENDBRANCH   1   2
BRANCH   1  25
ATOM     25  O   UNL     1       4.561   1.508  -4.541  1.00  0.00    -0.376 OA
BRANCH  25  26
ATOM     26  C   UNL     1       5.435   2.571  -4.190  1.00  0.00     0.202 C 
BRANCH  26  27
ATOM     27  C   UNL     1       5.434   3.940  -4.903  1.00  0.00     0.261 C 
BRANCH  27  28
ATOM     28  O   UNL     1       4.206   4.381  -5.489  1.00  0.00    -0.460 OA
BRANCH  28  29
ATOM     29  C   UNL     1       4.069   4.122  -6.816  1.00  0.00     0.338 C 
ATOM     30  O   UNL     1       4.876   3.571  -7.548  1.00  0.00    -0.246 OA
BRANCH  29  31
ATOM     31  C   UNL     1       2.661   4.385  -7.185  1.00  0.00     0.060 A 
ATOM     32  C   UNL     1       1.853   3.319  -7.621  1.00  0.00     0.016 A 
ATOM     33  C   UNL     1       2.139   5.670  -7.071  1.00  0.00     0.016 A 
ATOM     34  C   UNL     1       0.514   3.534  -7.938  1.00  0.00     0.010 A 
ATOM     35  C   UNL     1       0.812   5.893  -7.434  1.00  0.00     0.010 A 
ATOM     36  C   UNL     1       0.003   4.833  -7.888  1.00  0.00    -0.014 A 
BRANCH  36  37
ATOM     37  C   UNL     1      -1.293   5.161  -8.522  1.00  0.00     0.031 A 
ATOM     38  C   UNL     1      -1.261   5.728  -9.911  1.00  0.00     0.074 A 
ATOM     39  C   UNL     1      -2.454   5.041  -7.860  1.00  0.00     0.049 A 
ATOM     40  N   UNL     1      -2.211   6.305 -10.595  1.00  0.00    -0.248 NA
ATOM     41  C   UNL     1       0.033   5.651 -10.611  1.00  0.00     0.031 C 
ATOM     42  C   UNL     1      -2.619   4.452  -6.533  1.00  0.00     0.029 A 
ATOM     43  N   UNL     1      -3.715   5.457  -8.209  1.00  0.00    -0.354 N 
ATOM     44  C   UNL     1      -1.622   6.700 -11.789  1.00  0.00     0.074 A 
ATOM     45  C   UNL     1      -0.232   6.305 -11.730  1.00  0.00     0.031 C 
ATOM     46  C   UNL     1      -3.904   4.585  -6.159  1.00  0.00     0.029 A 
ATOM     47  C   UNL     1      -4.633   5.316  -7.197  1.00  0.00     0.049 A 
ATOM     48  H   UNL     1      -3.939   5.821  -9.096  1.00  0.00     0.167 HD
ATOM     49  C   UNL     1      -2.187   7.350 -12.834  1.00  0.00     0.031 A 
ATOM     50  C   UNL     1      -5.897   5.774  -7.095  1.00  0.00     0.031 A 
ATOM     51  C   UNL     1      -3.563   7.765 -12.864  1.00  0.00     0.049 A 
ATOM     52  C   UNL     1      -6.496   6.557  -8.236  1.00  0.00     0.074 A 
ATOM     53  C   UNL     1      -4.244   8.409 -13.880  1.00  0.00     0.029 A 
ATOM     54  N   UNL     1      -4.463   7.594 -11.822  1.00  0.00    -0.354 N 
ATOM     55  N   UNL     1      -5.941   6.913  -9.371  1.00  0.00    -0.248 NA
ATOM     56  C   UNL     1      -7.890   6.995  -8.085  1.00  0.00     0.031 C 
ATOM     57  C   UNL     1      -5.535   8.692 -13.426  1.00  0.00     0.029 A 
ATOM     58  C   UNL     1      -5.686   8.149 -12.158  1.00  0.00     0.049 A 
ATOM     59  H   UNL     1      -4.263   7.144 -10.969  1.00  0.00     0.167 HD
ATOM     60  C   UNL     1      -6.929   7.588 -10.083  1.00  0.00     0.074 A 
ATOM     61  C   UNL     1      -8.114   7.590  -9.250  1.00  0.00     0.031 C 
ATOM     62  C   UNL     1      -6.861   8.143 -11.320  1.00  0.00     0.031 A 
BRANCH  49  63
ATOM     63  C   UNL     1      -1.285   7.714 -13.984  1.00  0.00    -0.014 A 
ATOM     64  C   UNL     1      -0.706   6.733 -14.810  1.00  0.00     0.010 A 
ATOM     65  C   UNL     1      -0.996   9.069 -14.228  1.00  0.00     0.010 A 
ATOM     66  C   UNL     1       0.200   7.097 -15.810  1.00  0.00     0.020 A 
ATOM     67  C   UNL     1      -0.121   9.440 -15.251  1.00  0.00     0.020 A 
ATOM     68  C   UNL     1       0.493   8.448 -16.018  1.00  0.00     0.054 A 
BRANCH  68  69
ATOM     69  S   UNL     1       1.692   8.890 -17.303  1.00  0.00     0.124 S 
ATOM     70  O   UNL     1       2.951   8.452 -16.704  1.00  0.00    -0.237 OA
ATOM     71  O   UNL     1       1.237   8.107 -18.449  1.00  0.00    -0.237 OA
ATOM     72  O   UNL     1       1.538  10.337 -17.440  1.00  0.00    -0.744 OA
ENDBRANCH  68  69
ENDBRANCH  49  63
BRANCH  50  73
ATOM     73  C   UNL     1      -6.661   5.526  -5.842  1.00  0.00    -0.014 A 
ATOM     74  C   UNL     1      -7.718   4.601  -5.817  1.00  0.00     0.010 A 
ATOM     75  C   UNL     1      -6.287   6.170  -4.647  1.00  0.00     0.010 A 
ATOM     76  C   UNL     1      -8.378   4.313  -4.618  1.00  0.00     0.020 A 
ATOM     77  C   UNL     1      -6.926   5.866  -3.442  1.00  0.00     0.020 A 
ATOM     78  C   UNL     1      -7.967   4.937  -3.436  1.00  0.00     0.054 A 
BRANCH  78  79
ATOM     79  S   UNL     1      -8.764   4.461  -1.876  1.00  0.00     0.124 S 
ATOM     80  O   UNL     1     -10.094   5.043  -2.023  1.00  0.00    -0.237 OA
ATOM     81  O   UNL     1      -8.702   3.003  -1.927  1.00  0.00    -0.237 OA
ATOM     82  O   UNL     1      -7.918   5.079  -0.857  1.00  0.00    -0.744 OA
ENDBRANCH  78  79
ENDBRANCH  50  73
BRANCH  62  83
ATOM     83  C   UNL     1      -8.114   8.756 -11.892  1.00  0.00    -0.014 A 
ATOM     84  C   UNL     1      -8.621   9.980 -11.423  1.00  0.00     0.010 A 
ATOM     85  C   UNL     1      -8.734   8.138 -12.996  1.00  0.00     0.010 A 
ATOM     86  C   UNL     1      -9.731  10.568 -12.040  1.00  0.00     0.020 A 
ATOM     87  C   UNL     1      -9.823   8.736 -13.633  1.00  0.00     0.020 A 
ATOM     88  C   UNL     1     -10.320   9.945 -13.146  1.00  0.00     0.054 A 
BRANCH  88  89
ATOM     89  S   UNL     1     -11.709  10.767 -13.976  1.00  0.00     0.124 S 
ATOM     90  O   UNL     1     -12.783  10.612 -12.999  1.00  0.00    -0.237 OA
ATOM     91  O   UNL     1     -11.213  12.130 -14.154  1.00  0.00    -0.237 OA
ATOM     92  O   UNL     1     -11.876  10.004 -15.211  1.00  0.00    -0.744 OA
ENDBRANCH  88  89
ENDBRANCH  62  83
ENDBRANCH  36  37
ENDBRANCH  29  31
ENDBRANCH  28  29
ENDBRANCH  27  28
ENDBRANCH  26  27
ENDBRANCH  25  26
ENDBRANCH   1  25
TORSDOF 22
