REMARK SMILES CC(C)c1ccc(NC(=O)C[C@H]2SC[C@@H](C(=O)OCCOCCOCCOC(=O)c3ccc(-c4c5nc(c(-c6ccc(S(=O)(=O)[O-])cc6)c6ccc([nH]6)c(-c6ccc(S(=O)(=O)[O-])cc6)c6nc(c(-c7ccc(S(=O)(=O)[O-])cc7)c7ccc4[nH]7)C=C6)C=C5)cc3)NC2=O)cc1
REMARK SMILES IDX 22 1 21 2 20 3 19 4 18 5 16 6 17 7 15 8 12 9 13 10 91 11
REMARK SMILES IDX 14 12 90 13 92 14 11 16 9 17 8 18 10 20 7 21 4 22 5 23 94 24
REMARK SMILES IDX 6 25 93 26 2 27 1 28 3 29 23 30 24 31 25 32 26 33 27 34
REMARK SMILES IDX 28 35 29 36 30 37 31 38 89 39 32 40 88 41 33 42 34 43 35 44
REMARK SMILES IDX 82 45 36 46 87 47 81 48 83 49 37 50 86 51 80 52 79 53 38 55
REMARK SMILES IDX 68 56 49 57 67 58 50 59 53 60 66 61 84 62 51 63 52 64 65 66
REMARK SMILES IDX 85 67 54 68 39 69 40 70 48 71 41 72 47 73 42 74 43 75 44 76
REMARK SMILES IDX 45 77 46 78 69 79 70 80 78 81 71 82 77 83 72 84 73 85 74 86
REMARK SMILES IDX 75 87 76 88 55 89 56 90 64 91 57 92 63 93 58 94 59 95 60 96
REMARK SMILES IDX 61 97 62 98
REMARK H PARENT 90 15 8 19 83 54 53 65
REMARK Flexibility Score: inf
ROOT
ATOM      1  C   UNL     1      -0.427   5.114   3.680  1.00  0.00     0.188 C 
ENDROOT
BRANCH   1   2
ATOM      2  O   UNL     1       0.555   4.847   4.652  1.00  0.00    -0.376 OA
BRANCH   2   3
ATOM      3  C   UNL     1       1.254   3.618   4.588  1.00  0.00     0.202 C 
BRANCH   3   4
ATOM      4  C   UNL     1       1.145   2.582   3.442  1.00  0.00     0.261 C 
BRANCH   4   5
ATOM      5  O   UNL     1       0.239   2.848   2.350  1.00  0.00    -0.462 OA
BRANCH   5   6
ATOM      6  C   UNL     1      -0.577   1.829   2.006  1.00  0.00     0.329 C 
ATOM      7  O   UNL     1      -0.510   0.713   2.522  1.00  0.00    -0.250 OA
BRANCH   6   8
ATOM      8  C   UNL     1      -1.576   2.096   0.841  1.00  0.00     0.202 C 
ATOM      9  C   UNL     1      -4.167   3.143   2.163  1.00  0.00     0.145 C 
ATOM     10  S   UNL     1      -3.066   4.446   1.443  1.00  0.00    -0.145 SA
ATOM     11  C   UNL     1      -3.472   1.784   2.291  1.00  0.00     0.234 C 
ATOM     12  C   UNL     1      -1.999   3.466   0.338  1.00  0.00     0.107 C 
ATOM     13  N   UNL     1      -2.750   1.321   1.217  1.00  0.00    -0.341 N 
ATOM     14  O   UNL     1      -3.516   1.042   3.265  1.00  0.00    -0.274 OA
ATOM     15  H   UNL     1      -3.013   0.508   0.728  1.00  0.00     0.164 HD
BRANCH   9  16
ATOM     16  C   UNL     1      -4.804   3.728   3.440  1.00  0.00     0.124 C 
BRANCH  16  17
ATOM     17  C   UNL     1      -5.057   2.844   4.654  1.00  0.00     0.226 C 
ATOM     18  N   UNL     1      -5.856   1.736   4.611  1.00  0.00    -0.326 N 
ATOM     19  H   UNL     1      -6.041   1.304   5.476  1.00  0.00     0.169 HD
ATOM     20  O   UNL     1      -4.508   3.134   5.724  1.00  0.00    -0.275 OA
BRANCH  18  21
ATOM     21  C   UNL     1      -6.446   1.140   3.491  1.00  0.00     0.041 A 
ATOM     22  C   UNL     1      -7.076  -0.057   1.017  1.00  0.00    -0.045 A 
ATOM     23  C   UNL     1      -7.407   1.281   1.286  1.00  0.00     0.006 A 
ATOM     24  C   UNL     1      -6.495  -0.803   2.057  1.00  0.00     0.006 A 
ATOM     25  C   UNL     1      -7.107   1.870   2.515  1.00  0.00     0.026 A 
ATOM     26  C   UNL     1      -6.222  -0.223   3.297  1.00  0.00     0.026 A 
BRANCH  22  27
ATOM     27  C   UNL     1      -7.271  -0.680  -0.361  1.00  0.00     0.013 C 
ATOM     28  C   UNL     1      -7.842  -2.103  -0.286  1.00  0.00     0.012 C 
ATOM     29  C   UNL     1      -8.142   0.152  -1.312  1.00  0.00     0.012 C 
ENDBRANCH  22  27
ENDBRANCH  18  21
ENDBRANCH  16  17
ENDBRANCH   9  16
ENDBRANCH   6   8
ENDBRANCH   5   6
ENDBRANCH   4   5
ENDBRANCH   3   4
ENDBRANCH   2   3
ENDBRANCH   1   2
BRANCH   1  30
ATOM     30  C   UNL     1       0.134   5.614   2.335  1.00  0.00     0.188 C 
BRANCH  30  31
ATOM     31  O   UNL     1       1.524   5.573   2.079  1.00  0.00    -0.376 OA
BRANCH  31  32
ATOM     32  C   UNL     1       2.398   6.350   2.877  1.00  0.00     0.202 C 
BRANCH  32  33
ATOM     33  C   UNL     1       2.015   7.718   3.476  1.00  0.00     0.261 C 
BRANCH  33  34
ATOM     34  O   UNL     1       0.652   7.912   3.876  1.00  0.00    -0.460 OA
BRANCH  34  35
ATOM     35  C   UNL     1      -0.079   8.729   3.076  1.00  0.00     0.338 C 
ATOM     36  O   UNL     1       0.306   9.298   2.061  1.00  0.00    -0.246 OA
BRANCH  35  37
ATOM     37  C   UNL     1      -1.496   8.692   3.486  1.00  0.00     0.060 A 
ATOM     38  C   UNL     1      -2.442   8.156   2.600  1.00  0.00     0.016 A 
ATOM     39  C   UNL     1      -1.901   9.229   4.707  1.00  0.00     0.016 A 
ATOM     40  C   UNL     1      -3.797   8.160   2.930  1.00  0.00     0.010 A 
ATOM     41  C   UNL     1      -3.265   9.267   5.020  1.00  0.00     0.010 A 
ATOM     42  C   UNL     1      -4.221   8.753   4.125  1.00  0.00    -0.014 A 
BRANCH  42  43
ATOM     43  C   UNL     1      -5.667   9.000   4.352  1.00  0.00     0.031 A 
ATOM     44  C   UNL     1      -6.240  10.332   3.953  1.00  0.00     0.074 A 
ATOM     45  C   UNL     1      -6.469   8.056   4.878  1.00  0.00     0.049 A 
ATOM     46  N   UNL     1      -7.448  10.800   4.128  1.00  0.00    -0.248 NA
ATOM     47  C   UNL     1      -5.325  11.258   3.266  1.00  0.00     0.031 C 
ATOM     48  C   UNL     1      -6.051   6.710   5.258  1.00  0.00     0.029 A 
ATOM     49  N   UNL     1      -7.808   8.094   5.187  1.00  0.00    -0.354 N 
ATOM     50  C   UNL     1      -7.437  12.081   3.589  1.00  0.00     0.074 A 
ATOM     51  C   UNL     1      -6.098  12.320   3.093  1.00  0.00     0.031 C 
ATOM     52  C   UNL     1      -7.114   6.044   5.741  1.00  0.00     0.029 A 
ATOM     53  C   UNL     1      -8.274   6.935   5.761  1.00  0.00     0.049 A 
ATOM     54  H   UNL     1      -8.379   8.877   5.013  1.00  0.00     0.167 HD
ATOM     55  C   UNL     1      -8.447  12.980   3.519  1.00  0.00     0.031 A 
ATOM     56  C   UNL     1      -9.486   6.640   6.277  1.00  0.00     0.031 A 
ATOM     57  C   UNL     1      -9.768  12.756   4.044  1.00  0.00     0.049 A 
ATOM     58  C   UNL     1     -10.570   7.691   6.272  1.00  0.00     0.074 A 
ATOM     59  C   UNL     1     -10.848  13.621   4.049  1.00  0.00     0.029 A 
ATOM     60  N   UNL     1     -10.188  11.588   4.662  1.00  0.00    -0.354 N 
ATOM     61  N   UNL     1     -10.540   8.908   5.782  1.00  0.00    -0.248 NA
ATOM     62  C   UNL     1     -11.851   7.330   6.899  1.00  0.00     0.031 C 
ATOM     63  C   UNL     1     -11.904  12.997   4.721  1.00  0.00     0.029 A 
ATOM     64  C   UNL     1     -11.506  11.716   5.068  1.00  0.00     0.049 A 
ATOM     65  H   UNL     1      -9.632  10.786   4.793  1.00  0.00     0.167 HD
ATOM     66  C   UNL     1     -11.802   9.448   6.024  1.00  0.00     0.074 A 
ATOM     67  C   UNL     1     -12.576   8.419   6.684  1.00  0.00     0.031 C 
ATOM     68  C   UNL     1     -12.273  10.685   5.726  1.00  0.00     0.031 A 
BRANCH  55  69
ATOM     69  C   UNL     1      -8.142  14.313   2.889  1.00  0.00    -0.014 A 
ATOM     70  C   UNL     1      -7.923  14.432   1.505  1.00  0.00     0.010 A 
ATOM     71  C   UNL     1      -8.102  15.469   3.691  1.00  0.00     0.010 A 
ATOM     72  C   UNL     1      -7.636  15.678   0.939  1.00  0.00     0.020 A 
ATOM     73  C   UNL     1      -7.846  16.720   3.124  1.00  0.00     0.020 A 
ATOM     74  C   UNL     1      -7.598  16.814   1.754  1.00  0.00     0.054 A 
BRANCH  74  75
ATOM     75  S   UNL     1      -7.248  18.419   0.987  1.00  0.00     0.124 S 
ATOM     76  O   UNL     1      -5.835  18.287   0.642  1.00  0.00    -0.237 OA
ATOM     77  O   UNL     1      -8.171  18.441  -0.145  1.00  0.00    -0.237 OA
ATOM     78  O   UNL     1      -7.542  19.382   2.046  1.00  0.00    -0.744 OA
ENDBRANCH  74  75
ENDBRANCH  55  69
BRANCH  56  79
ATOM     79  C   UNL     1      -9.732   5.300   6.883  1.00  0.00    -0.014 A 
ATOM     80  C   UNL     1     -10.636   4.398   6.294  1.00  0.00     0.010 A 
ATOM     81  C   UNL     1      -9.061   4.917   8.060  1.00  0.00     0.010 A 
ATOM     82  C   UNL     1     -10.870   3.146   6.873  1.00  0.00     0.020 A 
ATOM     83  C   UNL     1      -9.266   3.654   8.623  1.00  0.00     0.020 A 
ATOM     84  C   UNL     1     -10.176   2.779   8.030  1.00  0.00     0.054 A 
BRANCH  84  85
ATOM     85  S   UNL     1     -10.450   1.125   8.726  1.00  0.00     0.124 S 
ATOM     86  O   UNL     1     -11.804   1.238   9.259  1.00  0.00    -0.237 OA
ATOM     87  O   UNL     1     -10.300   0.263   7.557  1.00  0.00    -0.237 OA
ATOM     88  O   UNL     1      -9.394   0.993   9.727  1.00  0.00    -0.744 OA
ENDBRANCH  84  85
ENDBRANCH  56  79
BRANCH  68  89
ATOM     89  C   UNL     1     -13.710  10.995   6.069  1.00  0.00    -0.014 A 
ATOM     90  C   UNL     1     -14.130  11.164   7.400  1.00  0.00     0.010 A 
ATOM     91  C   UNL     1     -14.641  11.190   5.031  1.00  0.00     0.010 A 
ATOM     92  C   UNL     1     -15.460  11.491   7.687  1.00  0.00     0.020 A 
ATOM     93  C   UNL     1     -15.963  11.547   5.312  1.00  0.00     0.020 A 
ATOM     94  C   UNL     1     -16.368  11.683   6.640  1.00  0.00     0.054 A 
BRANCH  94  95
ATOM     95  S   UNL     1     -18.075  12.151   7.038  1.00  0.00     0.124 S 
ATOM     96  O   UNL     1     -18.607  10.915   7.604  1.00  0.00    -0.237 OA
ATOM     97  O   UNL     1     -17.893  13.249   7.985  1.00  0.00    -0.237 OA
ATOM     98  O   UNL     1     -18.640  12.537   5.747  1.00  0.00    -0.744 OA
ENDBRANCH  94  95
ENDBRANCH  68  89
ENDBRANCH  42  43
ENDBRANCH  35  37
ENDBRANCH  34  35
ENDBRANCH  33  34
ENDBRANCH  32  33
ENDBRANCH  31  32
ENDBRANCH  30  31
ENDBRANCH   1  30
TORSDOF 24
