REMARK SMILES COc1ccc(C(=O)OCCOCCOCCOC(=O)c2ccc(-c3c4nc(c(-c5ccc(S(=O)(=O)[O-])cc5)c5ccc([nH]5)c(-c5ccc(S(=O)(=O)[O-])cc5)c5nc(c(-c6ccc(S(=O)(=O)[O-])cc6)c6ccc3[nH]6)C=C5)C=C4)cc2)cc1NC(=O)c1ccccc1[N+](=O)[O-]
REMARK SMILES IDX 13 1 12 2 11 3 10 4 9 5 7 6 8 7 6 8 3 9 4 10 82 11 5 12
REMARK SMILES IDX 81 13 2 14 1 15 83 16 84 17 85 19 86 20 87 21 91 22 88 23
REMARK SMILES IDX 90 24 89 25 92 26 93 27 94 28 14 29 15 30 16 31 17 32 18 33
REMARK SMILES IDX 19 34 20 35 21 36 22 37 80 38 23 39 79 40 24 41 25 42 26 43
REMARK SMILES IDX 73 44 27 45 78 46 72 47 74 48 28 49 77 50 71 51 70 52 29 54
REMARK SMILES IDX 59 55 40 56 58 57 41 58 44 59 57 60 75 61 42 62 43 63 56 65
REMARK SMILES IDX 76 66 45 67 30 68 31 69 39 70 32 71 38 72 33 73 34 74 35 75
REMARK SMILES IDX 36 76 37 77 60 78 61 79 69 80 62 81 68 82 63 83 64 84 65 85
REMARK SMILES IDX 66 86 67 87 46 88 47 89 55 90 48 91 54 92 49 93 50 94 51 95
REMARK SMILES IDX 52 96 53 97
REMARK H PARENT 83 18 74 53 44 64
REMARK Flexibility Score: inf
ROOT
ATOM      1  C   UNL     1       1.107  -7.053  -4.455  1.00  0.00     0.188 C 
ENDROOT
BRANCH   1   2
ATOM      2  O   UNL     1       1.470  -7.330  -5.797  1.00  0.00    -0.376 OA
BRANCH   2   3
ATOM      3  C   UNL     1       2.394  -6.486  -6.463  1.00  0.00     0.202 C 
BRANCH   3   4
ATOM      4  C   UNL     1       2.132  -4.980  -6.516  1.00  0.00     0.261 C 
BRANCH   4   5
ATOM      5  O   UNL     1       2.075  -4.373  -5.216  1.00  0.00    -0.460 OA
BRANCH   5   6
ATOM      6  C   UNL     1       0.886  -3.810  -4.880  1.00  0.00     0.338 C 
ATOM      7  O   UNL     1      -0.108  -3.755  -5.586  1.00  0.00    -0.246 OA
BRANCH   6   8
ATOM      8  C   UNL     1       0.908  -3.308  -3.480  1.00  0.00     0.062 A 
ATOM      9  C   UNL     1       0.900  -2.097  -0.988  1.00  0.00     0.142 A 
ATOM     10  C   UNL     1      -0.312  -2.451  -1.585  1.00  0.00     0.049 A 
ATOM     11  C   UNL     1       2.133  -2.391  -1.593  1.00  0.00     0.084 A 
ATOM     12  C   UNL     1      -0.308  -3.012  -2.859  1.00  0.00     0.019 A 
ATOM     13  C   UNL     1       2.113  -3.088  -2.796  1.00  0.00     0.045 A 
BRANCH   9  14
ATOM     14  O   UNL     1       0.867  -1.452   0.225  1.00  0.00    -0.495 OA
ATOM     15  C   UNL     1       0.726  -0.041   0.029  1.00  0.00     0.278 C 
ENDBRANCH   9  14
BRANCH  11  16
ATOM     16  N   UNL     1       3.292  -1.883  -0.969  1.00  0.00    -0.319 N 
ATOM     17  C   UNL     1       4.608  -1.742  -1.340  1.00  0.00     0.262 C 
ATOM     18  H   UNL     1       3.119  -1.555  -0.057  1.00  0.00     0.170 HD
ATOM     19  O   UNL     1       5.408  -1.188  -0.587  1.00  0.00    -0.269 OA
BRANCH  17  20
ATOM     20  C   UNL     1       5.144  -2.313  -2.582  1.00  0.00     0.117 A 
ATOM     21  C   UNL     1       6.009  -3.406  -2.409  1.00  0.00     0.021 A 
ATOM     22  C   UNL     1       4.818  -1.895  -3.876  1.00  0.00     0.282 A 
ATOM     23  C   UNL     1       6.464  -4.125  -3.514  1.00  0.00     0.001 A 
ATOM     24  C   UNL     1       5.255  -2.636  -4.988  1.00  0.00     0.086 A 
ATOM     25  C   UNL     1       6.066  -3.758  -4.798  1.00  0.00     0.007 A 
BRANCH  22  26
ATOM     26  N   UNL     1       3.941  -0.753  -4.108  1.00  0.00     0.063 N 
ATOM     27  O   UNL     1       3.170  -0.824  -5.076  1.00  0.00    -0.258 OA
ATOM     28  O   UNL     1       4.031   0.215  -3.345  1.00  0.00    -0.258 OA
ENDBRANCH  22  26
ENDBRANCH  17  20
ENDBRANCH  11  16
ENDBRANCH   6   8
ENDBRANCH   5   6
ENDBRANCH   4   5
ENDBRANCH   3   4
ENDBRANCH   2   3
ENDBRANCH   1   2
BRANCH   1  29
ATOM     29  C   UNL     1       2.199  -6.813  -3.393  1.00  0.00     0.188 C 
BRANCH  29  30
ATOM     30  O   UNL     1       3.557  -7.026  -3.701  1.00  0.00    -0.376 OA
BRANCH  30  31
ATOM     31  C   UNL     1       4.059  -8.320  -3.974  1.00  0.00     0.202 C 
BRANCH  31  32
ATOM     32  C   UNL     1       3.409  -9.647  -3.542  1.00  0.00     0.261 C 
BRANCH  32  33
ATOM     33  O   UNL     1       2.008  -9.644  -3.276  1.00  0.00    -0.460 OA
BRANCH  33  34
ATOM     34  C   UNL     1       1.665  -9.676  -1.963  1.00  0.00     0.338 C 
ATOM     35  O   UNL     1       2.420  -9.680  -1.007  1.00  0.00    -0.246 OA
BRANCH  34  36
ATOM     36  C   UNL     1       0.204  -9.495  -1.861  1.00  0.00     0.060 A 
ATOM     37  C   UNL     1      -0.283  -8.393  -1.145  1.00  0.00     0.016 A 
ATOM     38  C   UNL     1      -0.674 -10.394  -2.468  1.00  0.00     0.016 A 
ATOM     39  C   UNL     1      -1.658  -8.200  -1.014  1.00  0.00     0.010 A 
ATOM     40  C   UNL     1      -2.051 -10.212  -2.316  1.00  0.00     0.010 A 
ATOM     41  C   UNL     1      -2.547  -9.132  -1.565  1.00  0.00    -0.014 A 
BRANCH  41  42
ATOM     42  C   UNL     1      -3.981  -9.095  -1.190  1.00  0.00     0.031 A 
ATOM     43  C   UNL     1      -4.439  -9.952  -0.042  1.00  0.00     0.074 A 
ATOM     44  C   UNL     1      -4.861  -8.320  -1.848  1.00  0.00     0.049 A 
ATOM     45  N   UNL     1      -5.640 -10.109   0.450  1.00  0.00    -0.248 NA
ATOM     46  C   UNL     1      -3.397 -10.737   0.640  1.00  0.00     0.031 C 
ATOM     47  C   UNL     1      -4.537  -7.406  -2.941  1.00  0.00     0.029 A 
ATOM     48  N   UNL     1      -6.217  -8.185  -1.683  1.00  0.00    -0.354 N 
ATOM     49  C   UNL     1      -5.501 -11.018   1.492  1.00  0.00     0.074 A 
ATOM     50  C   UNL     1      -4.105 -11.396   1.543  1.00  0.00     0.031 C 
ATOM     51  C   UNL     1      -5.667  -6.802  -3.350  1.00  0.00     0.029 A 
ATOM     52  C   UNL     1      -6.796  -7.313  -2.572  1.00  0.00     0.049 A 
ATOM     53  H   UNL     1      -6.727  -8.669  -0.994  1.00  0.00     0.167 HD
ATOM     54  C   UNL     1      -6.449 -11.497   2.333  1.00  0.00     0.031 A 
ATOM     55  C   UNL     1      -8.090  -6.976  -2.746  1.00  0.00     0.031 A 
ATOM     56  C   UNL     1      -7.842 -11.149   2.261  1.00  0.00     0.049 A 
ATOM     57  C   UNL     1      -9.143  -7.597  -1.865  1.00  0.00     0.074 A 
ATOM     58  C   UNL     1      -8.878 -11.571   3.074  1.00  0.00     0.029 A 
ATOM     59  N   UNL     1      -8.397 -10.310   1.306  1.00  0.00    -0.354 N 
ATOM     60  N   UNL     1      -8.996  -8.433  -0.864  1.00  0.00    -0.248 NA
ATOM     61  C   UNL     1     -10.539  -7.224  -2.137  1.00  0.00     0.031 C 
ATOM     62  C   UNL     1     -10.070 -11.034   2.573  1.00  0.00     0.029 A 
ATOM     63  C   UNL     1      -9.767 -10.228   1.487  1.00  0.00     0.049 A 
ATOM     64  H   UNL     1      -7.891  -9.842   0.603  1.00  0.00     0.167 HD
ATOM     65  C   UNL     1     -10.277  -8.662  -0.368  1.00  0.00     0.074 A 
ATOM     66  C   UNL     1     -11.184  -7.873  -1.176  1.00  0.00     0.031 C 
ATOM     67  C   UNL     1     -10.663  -9.446   0.670  1.00  0.00     0.031 A 
BRANCH  54  68
ATOM     68  C   UNL     1      -5.999 -12.499   3.363  1.00  0.00    -0.014 A 
ATOM     69  C   UNL     1      -5.177 -12.123   4.441  1.00  0.00     0.010 A 
ATOM     70  C   UNL     1      -6.382 -13.846   3.231  1.00  0.00     0.010 A 
ATOM     71  C   UNL     1      -4.692 -13.087   5.329  1.00  0.00     0.020 A 
ATOM     72  C   UNL     1      -5.923 -14.808   4.134  1.00  0.00     0.020 A 
ATOM     73  C   UNL     1      -5.057 -14.426   5.161  1.00  0.00     0.054 A 
BRANCH  73  74
ATOM     74  S   UNL     1      -4.386 -15.664   6.303  1.00  0.00     0.124 S 
ATOM     75  O   UNL     1      -3.007 -15.786   5.837  1.00  0.00    -0.237 OA
ATOM     76  O   UNL     1      -4.554 -15.025   7.606  1.00  0.00    -0.237 OA
ATOM     77  O   UNL     1      -5.226 -16.837   6.076  1.00  0.00    -0.744 OA
ENDBRANCH  73  74
ENDBRANCH  54  68
BRANCH  55  78
ATOM     78  C   UNL     1      -8.463  -5.991  -3.797  1.00  0.00    -0.014 A 
ATOM     79  C   UNL     1      -8.890  -4.701  -3.438  1.00  0.00     0.010 A 
ATOM     80  C   UNL     1      -8.371  -6.327  -5.160  1.00  0.00     0.010 A 
ATOM     81  C   UNL     1      -9.216  -3.763  -4.423  1.00  0.00     0.020 A 
ATOM     82  C   UNL     1      -8.674  -5.385  -6.148  1.00  0.00     0.020 A 
ATOM     83  C   UNL     1      -9.098  -4.109  -5.772  1.00  0.00     0.054 A 
BRANCH  83  84
ATOM     84  S   UNL     1      -9.450  -2.848  -7.029  1.00  0.00     0.124 S 
ATOM     85  O   UNL     1     -10.903  -2.734  -6.947  1.00  0.00    -0.237 OA
ATOM     86  O   UNL     1      -8.697  -1.697  -6.538  1.00  0.00    -0.237 OA
ATOM     87  O   UNL     1      -8.937  -3.441  -8.262  1.00  0.00    -0.744 OA
ENDBRANCH  83  84
ENDBRANCH  55  78
BRANCH  67  88
ATOM     88  C   UNL     1     -12.129  -9.470   1.020  1.00  0.00    -0.014 A 
ATOM     89  C   UNL     1     -13.066 -10.133   0.209  1.00  0.00     0.010 A 
ATOM     90  C   UNL     1     -12.564  -8.868   2.216  1.00  0.00     0.010 A 
ATOM     91  C   UNL     1     -14.415 -10.172   0.574  1.00  0.00     0.020 A 
ATOM     92  C   UNL     1     -13.907  -8.928   2.598  1.00  0.00     0.020 A 
ATOM     93  C   UNL     1     -14.827  -9.569   1.767  1.00  0.00     0.054 A 
BRANCH  93  94
ATOM     94  S   UNL     1     -16.575  -9.673   2.243  1.00  0.00     0.124 S 
ATOM     95  O   UNL     1     -17.197  -8.722   1.326  1.00  0.00    -0.237 OA
ATOM     96  O   UNL     1     -16.891 -11.078   2.001  1.00  0.00    -0.237 OA
ATOM     97  O   UNL     1     -16.576  -9.274   3.649  1.00  0.00    -0.744 OA
ENDBRANCH  93  94
ENDBRANCH  67  88
ENDBRANCH  41  42
ENDBRANCH  34  36
ENDBRANCH  33  34
ENDBRANCH  32  33
ENDBRANCH  31  32
ENDBRANCH  30  31
ENDBRANCH  29  30
ENDBRANCH   1  29
TORSDOF 24
