REMARK SMILES C[NH+]1CCC(NC(=O)N[C@@H]2C=C[C@H](C(=O)OCCOCCOCCOC(=O)c3ccc(-c4c5nc(c(-c6ccc(S(=O)(=O)[O-])cc6)c6ccc([nH]6)c(-c6ccc(S(=O)(=O)[O-])cc6)c6nc(c(-c7ccc(S(=O)(=O)[O-])cc7)c7ccc4[nH]7)C=C6)C=C5)cc3)C2)CC1
REMARK SMILES IDX 21 1 20 2 19 3 18 4 17 5 16 6 14 7 15 8 13 9 10 10 11 11
REMARK SMILES IDX 88 12 12 13 9 14 6 15 7 16 8 18 5 20 1 21 2 22 3 23 90 24
REMARK SMILES IDX 4 26 89 27 22 28 23 29 24 30 25 31 26 32 27 33 28 34 29 35
REMARK SMILES IDX 87 36 30 37 86 38 31 39 32 40 33 41 80 42 34 43 85 44 79 45
REMARK SMILES IDX 81 46 35 47 84 48 78 49 77 50 36 52 66 53 47 54 65 55 48 56
REMARK SMILES IDX 51 57 64 58 82 59 49 60 50 61 63 63 83 64 52 65 37 66 38 67
REMARK SMILES IDX 46 68 39 69 45 70 40 71 41 72 42 73 43 74 44 75 67 76 68 77
REMARK SMILES IDX 76 78 69 79 75 80 70 81 71 82 72 83 73 84 74 85 53 86 54 87
REMARK SMILES IDX 62 88 55 89 61 90 56 91 57 92 58 93 59 94 60 95
REMARK H PARENT 6 17 9 19 2 25 81 51 51 62
REMARK Flexibility Score: inf
ROOT
ATOM      1  C   UNL     1      -0.814   3.382  -2.389  1.00  0.00     0.188 C 
ENDROOT
BRANCH   1   2
ATOM      2  C   UNL     1      -0.998   2.840  -3.826  1.00  0.00     0.188 C 
BRANCH   2   3
ATOM      3  O   UNL     1      -2.279   2.860  -4.405  1.00  0.00    -0.376 OA
BRANCH   3   4
ATOM      4  C   UNL     1      -3.301   1.982  -3.979  1.00  0.00     0.202 C 
BRANCH   4   5
ATOM      5  C   UNL     1      -3.095   0.714  -3.133  1.00  0.00     0.261 C 
BRANCH   5   6
ATOM      6  O   UNL     1      -1.947   0.675  -2.286  1.00  0.00    -0.463 OA
BRANCH   6   7
ATOM      7  C   UNL     1      -1.061  -0.344  -2.509  1.00  0.00     0.312 C 
ATOM      8  O   UNL     1      -1.156  -1.171  -3.403  1.00  0.00    -0.252 OA
BRANCH   7   9
ATOM      9  C   UNL     1       0.073  -0.261  -1.494  1.00  0.00     0.124 C 
ATOM     10  C   UNL     1       2.427  -0.213  -2.245  1.00  0.00     0.107 C 
ATOM     11  C   UNL     1       2.036  -1.538  -1.682  1.00  0.00    -0.006 C 
ATOM     12  C   UNL     1       1.205   0.657  -1.966  1.00  0.00     0.048 C 
ATOM     13  C   UNL     1       0.760  -1.574  -1.288  1.00  0.00    -0.014 C 
BRANCH  10  14
ATOM     14  N   UNL     1       2.703  -0.396  -3.649  1.00  0.00    -0.332 N 
ATOM     15  N   UNL     1       5.039  -0.790  -3.814  1.00  0.00    -0.335 N 
ATOM     16  C   UNL     1       3.817  -0.648  -4.358  1.00  0.00     0.315 C 
ATOM     17  H   UNL     1       5.768  -0.861  -4.472  1.00  0.00     0.165 HD
ATOM     18  O   UNL     1       3.693  -0.757  -5.576  1.00  0.00    -0.249 OA
ATOM     19  H   UNL     1       1.899  -0.319  -4.212  1.00  0.00     0.165 HD
BRANCH  15  20
ATOM     20  C   UNL     1       5.471  -0.858  -2.439  1.00  0.00     0.095 C 
ATOM     21  C   UNL     1       6.734  -0.958   1.521  1.00  0.00     0.332 C 
ATOM     22  N   UNL     1       6.888  -0.918   0.064  1.00  0.00    -0.337 N 
ATOM     23  C   UNL     1       6.316   0.339  -0.453  1.00  0.00     0.264 C 
ATOM     24  C   UNL     1       6.318  -2.139  -0.534  1.00  0.00     0.264 C 
ATOM     25  H   UNL     1       7.872  -0.914  -0.203  1.00  0.00     0.347 HD
ATOM     26  C   UNL     1       6.218   0.384  -1.978  1.00  0.00     0.086 C 
ATOM     27  C   UNL     1       6.273  -2.094  -2.069  1.00  0.00     0.086 C 
ENDBRANCH  15  20
ENDBRANCH  10  14
ENDBRANCH   7   9
ENDBRANCH   6   7
ENDBRANCH   5   6
ENDBRANCH   4   5
ENDBRANCH   3   4
ENDBRANCH   2   3
ENDBRANCH   1   2
BRANCH   1  28
ATOM     28  O   UNL     1      -1.804   4.193  -1.779  1.00  0.00    -0.376 OA
BRANCH  28  29
ATOM     29  C   UNL     1      -2.439   5.198  -2.549  1.00  0.00     0.202 C 
BRANCH  29  30
ATOM     30  C   UNL     1      -1.580   6.316  -3.150  1.00  0.00     0.261 C 
BRANCH  30  31
ATOM     31  O   UNL     1      -0.518   5.863  -4.005  1.00  0.00    -0.460 OA
BRANCH  31  32
ATOM     32  C   UNL     1       0.738   6.066  -3.531  1.00  0.00     0.338 C 
ATOM     33  O   UNL     1       1.046   6.566  -2.464  1.00  0.00    -0.246 OA
BRANCH  32  34
ATOM     34  C   UNL     1       1.731   5.447  -4.435  1.00  0.00     0.060 A 
ATOM     35  C   UNL     1       2.624   4.509  -3.899  1.00  0.00     0.016 A 
ATOM     36  C   UNL     1       1.843   5.846  -5.767  1.00  0.00     0.016 A 
ATOM     37  C   UNL     1       3.656   3.993  -4.687  1.00  0.00     0.010 A 
ATOM     38  C   UNL     1       2.890   5.342  -6.549  1.00  0.00     0.010 A 
ATOM     39  C   UNL     1       3.820   4.438  -6.005  1.00  0.00    -0.014 A 
BRANCH  39  40
ATOM     40  C   UNL     1       5.037   4.069  -6.775  1.00  0.00     0.031 A 
ATOM     41  C   UNL     1       6.187   5.037  -6.834  1.00  0.00     0.074 A 
ATOM     42  C   UNL     1       5.119   2.893  -7.423  1.00  0.00     0.049 A 
ATOM     43  N   UNL     1       7.316   4.941  -7.488  1.00  0.00    -0.248 NA
ATOM     44  C   UNL     1       6.044   6.281  -6.060  1.00  0.00     0.031 C 
ATOM     45  C   UNL     1       4.091   1.857  -7.418  1.00  0.00     0.029 A 
ATOM     46  N   UNL     1       6.117   2.373  -8.213  1.00  0.00    -0.354 N 
ATOM     47  C   UNL     1       8.003   6.121  -7.234  1.00  0.00     0.074 A 
ATOM     48  C   UNL     1       7.165   6.919  -6.364  1.00  0.00     0.031 C 
ATOM     49  C   UNL     1       4.510   0.823  -8.167  1.00  0.00     0.029 A 
ATOM     50  C   UNL     1       5.818   1.135  -8.734  1.00  0.00     0.049 A 
ATOM     51  H   UNL     1       6.964   2.841  -8.389  1.00  0.00     0.167 HD
ATOM     52  C   UNL     1       9.215   6.511  -7.694  1.00  0.00     0.031 A 
ATOM     53  C   UNL     1       6.509   0.347  -9.584  1.00  0.00     0.031 A 
ATOM     54  C   UNL     1      10.046   5.721  -8.565  1.00  0.00     0.049 A 
ATOM     55  C   UNL     1       7.846   0.816 -10.098  1.00  0.00     0.074 A 
ATOM     56  C   UNL     1      11.301   6.026  -9.061  1.00  0.00     0.029 A 
ATOM     57  N   UNL     1       9.704   4.479  -9.078  1.00  0.00    -0.354 N 
ATOM     58  N   UNL     1       8.500   1.918  -9.815  1.00  0.00    -0.248 NA
ATOM     59  C   UNL     1       8.542  -0.066 -11.049  1.00  0.00     0.031 C 
ATOM     60  C   UNL     1      11.693   4.997  -9.922  1.00  0.00     0.029 A 
ATOM     61  C   UNL     1      10.711   4.020  -9.911  1.00  0.00     0.049 A 
ATOM     62  H   UNL     1       8.870   3.995  -8.879  1.00  0.00     0.167 HD
ATOM     63  C   UNL     1       9.685   1.855 -10.542  1.00  0.00     0.074 A 
ATOM     64  C   UNL     1       9.673   0.595 -11.255  1.00  0.00     0.031 C 
ATOM     65  C   UNL     1      10.689   2.763 -10.617  1.00  0.00     0.031 A 
BRANCH  52  66
ATOM     66  C   UNL     1       9.700   7.883  -7.310  1.00  0.00    -0.014 A 
ATOM     67  C   UNL     1      10.152   8.166  -6.010  1.00  0.00     0.010 A 
ATOM     68  C   UNL     1       9.758   8.891  -8.291  1.00  0.00     0.010 A 
ATOM     69  C   UNL     1      10.627   9.441  -5.690  1.00  0.00     0.020 A 
ATOM     70  C   UNL     1      10.257  10.159  -7.982  1.00  0.00     0.020 A 
ATOM     71  C   UNL     1      10.677  10.429  -6.678  1.00  0.00     0.054 A 
BRANCH  71  72
ATOM     72  S   UNL     1      11.334  12.063  -6.245  1.00  0.00     0.124 S 
ATOM     73  O   UNL     1      10.258  12.613  -5.424  1.00  0.00    -0.237 OA
ATOM     74  O   UNL     1      12.564  11.734  -5.529  1.00  0.00    -0.237 OA
ATOM     75  O   UNL     1      11.525  12.716  -7.538  1.00  0.00    -0.744 OA
ENDBRANCH  71  72
ENDBRANCH  52  66
BRANCH  53  76
ATOM     76  C   UNL     1       5.938  -0.955 -10.037  1.00  0.00    -0.014 A 
ATOM     77  C   UNL     1       6.538  -2.173  -9.669  1.00  0.00     0.010 A 
ATOM     78  C   UNL     1       4.799  -0.981 -10.861  1.00  0.00     0.010 A 
ATOM     79  C   UNL     1       6.027  -3.388 -10.140  1.00  0.00     0.020 A 
ATOM     80  C   UNL     1       4.266  -2.195 -11.309  1.00  0.00     0.020 A 
ATOM     81  C   UNL     1       4.894  -3.390 -10.960  1.00  0.00     0.054 A 
BRANCH  81  82
ATOM     82  S   UNL     1       4.232  -4.977 -11.541  1.00  0.00     0.124 S 
ATOM     83  O   UNL     1       5.191  -5.344 -12.578  1.00  0.00    -0.237 OA
ATOM     84  O   UNL     1       4.263  -5.800 -10.334  1.00  0.00    -0.237 OA
ATOM     85  O   UNL     1       2.894  -4.636 -12.020  1.00  0.00    -0.744 OA
ENDBRANCH  81  82
ENDBRANCH  53  76
BRANCH  65  86
ATOM     86  C   UNL     1      11.876   2.425 -11.482  1.00  0.00    -0.014 A 
ATOM     87  C   UNL     1      11.784   2.438 -12.885  1.00  0.00     0.010 A 
ATOM     88  C   UNL     1      13.120   2.158 -10.881  1.00  0.00     0.010 A 
ATOM     89  C   UNL     1      12.907   2.164 -13.671  1.00  0.00     0.020 A 
ATOM     90  C   UNL     1      14.252   1.910 -11.663  1.00  0.00     0.020 A 
ATOM     91  C   UNL     1      14.135   1.902 -13.054  1.00  0.00     0.054 A 
BRANCH  91  92
ATOM     92  S   UNL     1      15.589   1.599 -14.096  1.00  0.00     0.124 S 
ATOM     93  O   UNL     1      15.328   0.253 -14.600  1.00  0.00    -0.237 OA
ATOM     94  O   UNL     1      15.504   2.669 -15.087  1.00  0.00    -0.237 OA
ATOM     95  O   UNL     1      16.711   1.708 -13.166  1.00  0.00    -0.744 OA
ENDBRANCH  91  92
ENDBRANCH  65  86
ENDBRANCH  39  40
ENDBRANCH  32  34
ENDBRANCH  31  32
ENDBRANCH  30  31
ENDBRANCH  29  30
ENDBRANCH  28  29
ENDBRANCH   1  28
TORSDOF 22
