REMARK SMILES O=C(CCc1cc2n(n1)CCCN(S(=O)(=O)CCC(F)(F)F)C2)OCCOCCOCCOC(=O)c1ccc(-c2c3nc(c(-c4ccc(S(=O)(=O)[O-])cc4)c4ccc([nH]4)c(-c4ccc(S(=O)(=O)[O-])cc4)c4nc(c(-c5ccc(S(=O)(=O)[O-])cc5)c5ccc2[nH]5)C=C4)C=C3)cc1
REMARK SMILES IDX 26 1 25 2 24 3 2 4 1 5 3 6 4 7 5 8 6 9 9 10 7 11 8 12 23 13
REMARK SMILES IDX 13 14 12 15 14 17 15 18 16 19 17 20 18 21 19 22 20 23 21 24
REMARK SMILES IDX 22 25 10 26 11 27 27 29 28 30 29 31 30 32 31 33 32 34 33 35
REMARK SMILES IDX 34 36 35 37 36 38 37 39 95 40 38 41 94 42 39 43 40 44 41 45
REMARK SMILES IDX 88 46 42 47 93 48 87 49 89 50 43 51 92 52 86 53 85 54 44 56
REMARK SMILES IDX 74 57 55 58 73 59 56 60 59 61 72 62 90 63 57 64 58 65 71 67
REMARK SMILES IDX 91 68 60 69 45 70 46 71 54 72 47 73 53 74 48 75 49 76 50 77
REMARK SMILES IDX 51 78 52 79 75 80 76 81 84 82 77 83 83 84 78 85 79 86 80 87
REMARK SMILES IDX 81 88 82 89 61 90 62 91 70 92 63 93 69 94 64 95 65 96 66 97
REMARK SMILES IDX 67 98 68 99
REMARK H PARENT 89 55 59 66
REMARK Flexibility Score: 90.00
ROOT
ATOM      1  C   UNL     1       4.391  -0.030  -1.233  1.00  0.00     0.202 C 
ENDROOT
BRANCH   1   2
ATOM      2  C   UNL     1       3.644  -0.924  -0.247  1.00  0.00     0.261 C 
BRANCH   2   3
ATOM      3  O   UNL     1       2.367  -0.510   0.265  1.00  0.00    -0.463 OA
BRANCH   3   4
ATOM      4  C   UNL     1       2.149   0.390   1.241  1.00  0.00     0.306 C 
ATOM      5  O   UNL     1       1.148   0.297   1.949  1.00  0.00    -0.252 OA
BRANCH   4   6
ATOM      6  C   UNL     1       3.097   1.544   1.402  1.00  0.00     0.129 C 
BRANCH   6   7
ATOM      7  C   UNL     1       3.856   1.483   2.728  1.00  0.00     0.070 C 
BRANCH   7   8
ATOM      8  C   UNL     1       4.856   0.372   2.765  1.00  0.00     0.063 A 
ATOM      9  C   UNL     1       4.583  -1.015   2.897  1.00  0.00     0.050 A 
ATOM     10  N   UNL     1       6.152   0.594   2.494  1.00  0.00    -0.178 NA
ATOM     11  C   UNL     1       5.700  -1.606   2.345  1.00  0.00     0.054 A 
ATOM     12  N   UNL     1       6.662  -0.642   2.369  1.00  0.00    -0.268 N 
BRANCH  11  13
ATOM     13  C   UNL     1       5.939  -2.917   1.692  1.00  0.00     0.157 C 
BRANCH  13  14
ATOM     14  N   UNL     1       6.800  -3.802   2.507  1.00  0.00    -0.196 NA
BRANCH  14  15
ATOM     15  C   UNL     1       7.621  -3.096   3.524  1.00  0.00     0.104 CG0
ATOM     16  G   UNL     1       8.625  -2.128   2.860  1.00  0.00     0.000 G0
ENDBRANCH  14  15
BRANCH  14  17
ATOM     17  S   UNL     1       5.973  -5.218   2.895  1.00  0.00     0.214 S 
ATOM     18  O   UNL     1       5.030  -4.873   3.954  1.00  0.00    -0.212 OA
ATOM     19  O   UNL     1       5.511  -5.810   1.673  1.00  0.00    -0.212 OA
BRANCH  17  20
ATOM     20  C   UNL     1       7.167  -6.327   3.601  1.00  0.00     0.163 C 
BRANCH  20  21
ATOM     21  C   UNL     1       8.135  -6.961   2.619  1.00  0.00     0.133 C 
BRANCH  21  22
ATOM     22  C   UNL     1       9.119  -6.001   2.000  1.00  0.00     0.390 C 
ATOM     23  F   UNL     1       9.691  -5.224   2.945  1.00  0.00    -0.171 F 
ATOM     24  F   UNL     1      10.115  -6.690   1.398  1.00  0.00    -0.171 F 
ATOM     25  F   UNL     1       8.565  -5.206   1.071  1.00  0.00    -0.171 F 
ENDBRANCH  21  22
ENDBRANCH  20  21
ENDBRANCH  17  20
ENDBRANCH  14  17
ENDBRANCH  13  14
ENDBRANCH  11  13
BRANCH  12  26
ATOM     26  C   UNL     1       8.069  -0.880   2.144  1.00  0.00     0.146 C 
BRANCH  26  27
ATOM     27  C   UNL     1       8.625  -2.128   2.860  1.00  0.00     0.040 CG0
ATOM     28  G   UNL     1       7.621  -3.096   3.524  1.00  0.00     0.000 G0
ENDBRANCH  26  27
ENDBRANCH  12  26
ENDBRANCH   7   8
ENDBRANCH   6   7
ENDBRANCH   4   6
ENDBRANCH   3   4
ENDBRANCH   2   3
ENDBRANCH   1   2
BRANCH   1  29
ATOM     29  O   UNL     1       3.658   0.745  -2.163  1.00  0.00    -0.376 OA
BRANCH  29  30
ATOM     30  C   UNL     1       2.311   0.386  -2.427  1.00  0.00     0.188 C 
BRANCH  30  31
ATOM     31  C   UNL     1       2.006  -1.040  -2.952  1.00  0.00     0.188 C 
BRANCH  31  32
ATOM     32  O   UNL     1       2.986  -2.038  -2.745  1.00  0.00    -0.376 OA
BRANCH  32  33
ATOM     33  C   UNL     1       3.994  -2.401  -3.676  1.00  0.00     0.202 C 
BRANCH  33  34
ATOM     34  C   UNL     1       4.370  -1.609  -4.919  1.00  0.00     0.261 C 
BRANCH  34  35
ATOM     35  O   UNL     1       4.274  -0.215  -4.740  1.00  0.00    -0.460 OA
BRANCH  35  36
ATOM     36  C   UNL     1       3.199   0.319  -5.352  1.00  0.00     0.338 C 
ATOM     37  O   UNL     1       2.299  -0.288  -5.919  1.00  0.00    -0.246 OA
BRANCH  36  38
ATOM     38  C   UNL     1       3.296   1.779  -5.356  1.00  0.00     0.060 A 
ATOM     39  C   UNL     1       2.271   2.401  -6.068  1.00  0.00     0.016 A 
ATOM     40  C   UNL     1       4.561   2.352  -5.174  1.00  0.00     0.016 A 
ATOM     41  C   UNL     1       2.648   3.369  -6.953  1.00  0.00     0.010 A 
ATOM     42  C   UNL     1       4.937   3.323  -6.061  1.00  0.00     0.010 A 
ATOM     43  C   UNL     1       4.006   3.702  -7.021  1.00  0.00    -0.014 A 
BRANCH  43  44
ATOM     44  C   UNL     1       4.417   4.456  -8.174  1.00  0.00     0.031 A 
ATOM     45  C   UNL     1       3.978   5.856  -8.111  1.00  0.00     0.074 A 
ATOM     46  C   UNL     1       5.122   3.909  -9.178  1.00  0.00     0.049 A 
ATOM     47  N   UNL     1       3.040   6.417  -8.793  1.00  0.00    -0.248 NA
ATOM     48  C   UNL     1       4.506   6.660  -7.001  1.00  0.00     0.031 C 
ATOM     49  C   UNL     1       5.836   2.631  -9.223  1.00  0.00     0.029 A 
ATOM     50  N   UNL     1       5.432   4.477 -10.367  1.00  0.00    -0.354 N 
ATOM     51  C   UNL     1       2.982   7.720  -8.323  1.00  0.00     0.074 A 
ATOM     52  C   UNL     1       3.756   7.754  -7.107  1.00  0.00     0.031 C 
ATOM     53  C   UNL     1       6.697   2.649 -10.269  1.00  0.00     0.029 A 
ATOM     54  C   UNL     1       6.479   3.867 -11.035  1.00  0.00     0.049 A 
ATOM     55  H   UNL     1       4.954   5.259 -10.726  1.00  0.00     0.167 HD
ATOM     56  C   UNL     1       2.504   8.736  -9.087  1.00  0.00     0.031 A 
ATOM     57  C   UNL     1       7.165   4.405 -12.074  1.00  0.00     0.031 A 
ATOM     58  C   UNL     1       1.753   8.257 -10.216  1.00  0.00     0.049 A 
ATOM     59  C   UNL     1       6.309   5.479 -12.652  1.00  0.00     0.074 A 
ATOM     60  C   UNL     1       0.582   7.540 -10.359  1.00  0.00     0.029 A 
ATOM     61  N   UNL     1       2.418   8.149 -11.416  1.00  0.00    -0.354 N 
ATOM     62  N   UNL     1       5.169   5.250 -13.244  1.00  0.00    -0.248 NA
ATOM     63  C   UNL     1       6.485   6.839 -12.157  1.00  0.00     0.031 C 
ATOM     64  C   UNL     1       0.811   6.670 -11.463  1.00  0.00     0.029 A 
ATOM     65  C   UNL     1       2.087   6.936 -11.969  1.00  0.00     0.049 A 
ATOM     66  H   UNL     1       3.023   8.820 -11.808  1.00  0.00     0.167 HD
ATOM     67  C   UNL     1       4.335   6.287 -12.843  1.00  0.00     0.074 A 
ATOM     68  C   UNL     1       5.226   7.280 -12.248  1.00  0.00     0.031 C 
ATOM     69  C   UNL     1       2.979   6.129 -12.780  1.00  0.00     0.031 A 
BRANCH  56  70
ATOM     70  C   UNL     1       3.052  10.130  -8.995  1.00  0.00    -0.014 A 
ATOM     71  C   UNL     1       2.429  11.164  -9.714  1.00  0.00     0.010 A 
ATOM     72  C   UNL     1       4.314  10.409  -8.424  1.00  0.00     0.010 A 
ATOM     73  C   UNL     1       3.064  12.400  -9.891  1.00  0.00     0.020 A 
ATOM     74  C   UNL     1       4.932  11.649  -8.552  1.00  0.00     0.020 A 
ATOM     75  C   UNL     1       4.317  12.627  -9.316  1.00  0.00     0.054 A 
BRANCH  75  76
ATOM     76  S   UNL     1       5.180  14.181  -9.643  1.00  0.00     0.124 S 
ATOM     77  O   UNL     1       5.451  14.077 -11.073  1.00  0.00    -0.237 OA
ATOM     78  O   UNL     1       4.184  15.175  -9.254  1.00  0.00    -0.237 OA
ATOM     79  O   UNL     1       6.354  14.110  -8.775  1.00  0.00    -0.744 OA
ENDBRANCH  75  76
ENDBRANCH  56  70
BRANCH  57  80
ATOM     80  C   UNL     1       8.631   4.331 -12.296  1.00  0.00    -0.014 A 
ATOM     81  C   UNL     1       9.201   4.717 -13.522  1.00  0.00     0.010 A 
ATOM     82  C   UNL     1       9.501   4.138 -11.201  1.00  0.00     0.010 A 
ATOM     83  C   UNL     1      10.582   4.954 -13.633  1.00  0.00     0.020 A 
ATOM     84  C   UNL     1      10.878   4.365 -11.306  1.00  0.00     0.020 A 
ATOM     85  C   UNL     1      11.410   4.795 -12.518  1.00  0.00     0.054 A 
BRANCH  85  86
ATOM     86  S   UNL     1      13.162   5.268 -12.625  1.00  0.00     0.124 S 
ATOM     87  O   UNL     1      13.713   4.225 -13.485  1.00  0.00    -0.237 OA
ATOM     88  O   UNL     1      13.094   6.603 -13.213  1.00  0.00    -0.237 OA
ATOM     89  O   UNL     1      13.614   5.229 -11.235  1.00  0.00    -0.744 OA
ENDBRANCH  85  86
ENDBRANCH  57  80
BRANCH  69  90
ATOM     90  C   UNL     1       2.369   4.889 -13.398  1.00  0.00    -0.014 A 
ATOM     91  C   UNL     1       2.618   3.582 -12.930  1.00  0.00     0.010 A 
ATOM     92  C   UNL     1       1.365   5.072 -14.365  1.00  0.00     0.010 A 
ATOM     93  C   UNL     1       1.885   2.491 -13.425  1.00  0.00     0.020 A 
ATOM     94  C   UNL     1       0.622   3.993 -14.850  1.00  0.00     0.020 A 
ATOM     95  C   UNL     1       0.887   2.706 -14.381  1.00  0.00     0.054 A 
BRANCH  95  96
ATOM     96  S   UNL     1      -0.113   1.306 -14.965  1.00  0.00     0.124 S 
ATOM     97  O   UNL     1       0.842   0.546 -15.767  1.00  0.00    -0.237 OA
ATOM     98  O   UNL     1      -0.539   0.668 -13.721  1.00  0.00    -0.237 OA
ATOM     99  O   UNL     1      -1.190   1.940 -15.724  1.00  0.00    -0.744 OA
ENDBRANCH  95  96
ENDBRANCH  69  90
ENDBRANCH  43  44
ENDBRANCH  36  38
ENDBRANCH  35  36
ENDBRANCH  34  35
ENDBRANCH  33  34
ENDBRANCH  32  33
ENDBRANCH  31  32
ENDBRANCH  30  31
ENDBRANCH  29  30
ENDBRANCH   1  29
TORSDOF 26
