REMARK SMILES Cc1c(Br)c(C)c2c(c1Br)O[C@H](C(F)(F)F)C(C(=O)OCCOCCOCCOC(=O)c1ccc(-c3c4nc(c(-c5ccc(S(=O)(=O)[O-])cc5)c5ccc([nH]5)c(-c5ccc(S(=O)(=O)[O-])cc5)c5nc(c(-c6ccc(S(=O)(=O)[O-])cc6)c6ccc3[nH]6)C=C5)C=C4)cc1)=C2
REMARK SMILES IDX 25 1 24 2 23 3 22 4 21 5 20 6 18 7 19 8 17 9 1 10 2 11 3 12
REMARK SMILES IDX 9 13 4 14 5 15 8 16 10 17 6 18 7 19 11 20 92 21 12 22 13 23
REMARK SMILES IDX 14 24 15 25 16 26 26 27 27 28 28 29 29 30 30 31 31 32 32 33
REMARK SMILES IDX 33 34 91 35 34 36 90 37 35 38 36 39 37 40 84 41 38 42 89 43
REMARK SMILES IDX 83 44 85 45 39 46 88 47 82 48 81 49 40 51 70 52 51 53 69 54
REMARK SMILES IDX 52 55 55 56 68 57 86 58 53 59 54 60 67 62 87 63 56 64 41 65
REMARK SMILES IDX 42 66 50 67 43 68 49 69 44 70 45 71 46 72 47 73 48 74 71 75
REMARK SMILES IDX 72 76 80 77 73 78 79 79 74 80 75 81 76 82 77 83 78 84 57 85
REMARK SMILES IDX 58 86 66 87 59 88 65 89 60 90 61 91 62 92 63 93 64 94
REMARK H PARENT 85 50 55 61
REMARK Flexibility Score: inf
ROOT
ATOM      1  C   UNL     1       1.172  -3.395   7.782  1.00  0.00     0.188 C 
ENDROOT
BRANCH   1   2
ATOM      2  C   UNL     1       0.004  -2.774   8.578  1.00  0.00     0.188 C 
BRANCH   2   3
ATOM      3  O   UNL     1      -0.620  -3.487   9.626  1.00  0.00    -0.376 OA
BRANCH   3   4
ATOM      4  C   UNL     1      -1.268  -4.727   9.400  1.00  0.00     0.202 C 
BRANCH   4   5
ATOM      5  C   UNL     1      -2.049  -5.038   8.121  1.00  0.00     0.261 C 
BRANCH   5   6
ATOM      6  O   UNL     1      -1.415  -4.613   6.910  1.00  0.00    -0.460 OA
BRANCH   6   7
ATOM      7  C   UNL     1      -2.132  -3.729   6.176  1.00  0.00     0.338 C 
ATOM      8  O   UNL     1      -3.250  -3.306   6.424  1.00  0.00    -0.246 OA
BRANCH   7   9
ATOM      9  C   UNL     1      -1.313  -3.243   5.053  1.00  0.00     0.087 C 
ATOM     10  C   UNL     1       1.150  -0.032  -0.051  1.00  0.00     0.047 C 
ATOM     11  C   UNL     1       0.602  -0.472   1.286  1.00  0.00    -0.019 A 
ATOM     12  C   UNL     1       0.069   0.448   2.222  1.00  0.00     0.025 A 
ATOM     13  C   UNL     1       0.647  -1.834   1.648  1.00  0.00     0.064 A 
ATOM     14  Br  UNL     1       0.143   2.325   1.827  1.00  0.00    -0.050 Br
ATOM     15  C   UNL     1      -0.508   0.010   3.442  1.00  0.00    -0.026 A 
ATOM     16  C   UNL     1       0.064  -2.289   2.843  1.00  0.00     0.142 A 
ATOM     17  Br  UNL     1       1.506  -3.121   0.513  1.00  0.00    -0.046 Br
ATOM     18  C   UNL     1      -1.080   0.976   4.461  1.00  0.00     0.046 C 
ATOM     19  C   UNL     1      -0.557  -1.382   3.712  1.00  0.00     0.022 A 
ATOM     20  O   UNL     1       0.150  -3.633   3.099  1.00  0.00    -0.474 OA
ATOM     21  C   UNL     1      -1.284  -1.919   4.862  1.00  0.00     0.027 C 
ATOM     22  C   UNL     1      -0.584  -4.226   4.194  1.00  0.00     0.316 C 
BRANCH  22  23
ATOM     23  C   UNL     1      -1.503  -5.319   3.629  1.00  0.00     0.430 C 
ATOM     24  F   UNL     1      -0.814  -6.181   2.841  1.00  0.00    -0.167 F 
ATOM     25  F   UNL     1      -2.063  -6.064   4.612  1.00  0.00    -0.167 F 
ATOM     26  F   UNL     1      -2.508  -4.806   2.886  1.00  0.00    -0.167 F 
ENDBRANCH  22  23
ENDBRANCH   7   9
ENDBRANCH   6   7
ENDBRANCH   5   6
ENDBRANCH   4   5
ENDBRANCH   3   4
ENDBRANCH   2   3
ENDBRANCH   1   2
BRANCH   1  27
ATOM     27  O   UNL     1       1.710  -4.655   8.133  1.00  0.00    -0.376 OA
BRANCH  27  28
ATOM     28  C   UNL     1       2.158  -4.874   9.462  1.00  0.00     0.202 C 
BRANCH  28  29
ATOM     29  C   UNL     1       3.104  -3.888  10.154  1.00  0.00     0.261 C 
BRANCH  29  30
ATOM     30  O   UNL     1       2.669  -2.523  10.116  1.00  0.00    -0.460 OA
BRANCH  30  31
ATOM     31  C   UNL     1       3.490  -1.680   9.440  1.00  0.00     0.338 C 
ATOM     32  O   UNL     1       4.543  -1.956   8.893  1.00  0.00    -0.246 OA
BRANCH  31  33
ATOM     33  C   UNL     1       2.824  -0.375   9.285  1.00  0.00     0.060 A 
ATOM     34  C   UNL     1       2.558   0.080   7.986  1.00  0.00     0.016 A 
ATOM     35  C   UNL     1       2.506   0.409  10.395  1.00  0.00     0.016 A 
ATOM     36  C   UNL     1       1.987   1.335   7.792  1.00  0.00     0.010 A 
ATOM     37  C   UNL     1       1.959   1.680  10.196  1.00  0.00     0.010 A 
ATOM     38  C   UNL     1       1.721   2.157   8.895  1.00  0.00    -0.014 A 
BRANCH  38  39
ATOM     39  C   UNL     1       1.364   3.577   8.676  1.00  0.00     0.031 A 
ATOM     40  C   UNL     1       2.469   4.596   8.629  1.00  0.00     0.074 A 
ATOM     41  C   UNL     1       0.086   3.952   8.488  1.00  0.00     0.049 A 
ATOM     42  N   UNL     1       2.393   5.890   8.467  1.00  0.00    -0.248 NA
ATOM     43  C   UNL     1       3.842   4.083   8.776  1.00  0.00     0.031 C 
ATOM     44  C   UNL     1      -1.065   3.052   8.449  1.00  0.00     0.029 A 
ATOM     45  N   UNL     1      -0.453   5.199   8.294  1.00  0.00    -0.354 N 
ATOM     46  C   UNL     1       3.705   6.347   8.482  1.00  0.00     0.074 A 
ATOM     47  C   UNL     1       4.555   5.197   8.697  1.00  0.00     0.031 C 
ATOM     48  C   UNL     1      -2.178   3.779   8.245  1.00  0.00     0.029 A 
ATOM     49  C   UNL     1      -1.822   5.196   8.174  1.00  0.00     0.049 A 
ATOM     50  H   UNL     1       0.090   6.019   8.245  1.00  0.00     0.167 HD
ATOM     51  C   UNL     1       4.163   7.611   8.323  1.00  0.00     0.031 A 
ATOM     52  C   UNL     1      -2.687   6.221   8.040  1.00  0.00     0.031 A 
ATOM     53  C   UNL     1       3.318   8.760   8.147  1.00  0.00     0.049 A 
ATOM     54  C   UNL     1      -2.161   7.633   7.987  1.00  0.00     0.074 A 
ATOM     55  C   UNL     1       3.688  10.085   8.002  1.00  0.00     0.029 A 
ATOM     56  N   UNL     1       1.933   8.723   8.104  1.00  0.00    -0.354 N 
ATOM     57  N   UNL     1      -0.917   8.051   8.004  1.00  0.00    -0.248 NA
ATOM     58  C   UNL     1      -3.157   8.711   7.895  1.00  0.00     0.031 C 
ATOM     59  C   UNL     1       2.524  10.856   7.922  1.00  0.00     0.029 A 
ATOM     60  C   UNL     1       1.431  10.005   7.958  1.00  0.00     0.049 A 
ATOM     61  H   UNL     1       1.387   7.906   8.167  1.00  0.00     0.167 HD
ATOM     62  C   UNL     1      -0.981   9.437   7.900  1.00  0.00     0.074 A 
ATOM     63  C   UNL     1      -2.384   9.787   7.811  1.00  0.00     0.031 C 
ATOM     64  C   UNL     1       0.032  10.339   7.875  1.00  0.00     0.031 A 
BRANCH  51  65
ATOM     65  C   UNL     1       5.652   7.816   8.364  1.00  0.00    -0.014 A 
ATOM     66  C   UNL     1       6.465   7.415   7.288  1.00  0.00     0.010 A 
ATOM     67  C   UNL     1       6.241   8.451   9.472  1.00  0.00     0.010 A 
ATOM     68  C   UNL     1       7.846   7.619   7.334  1.00  0.00     0.020 A 
ATOM     69  C   UNL     1       7.619   8.678   9.510  1.00  0.00     0.020 A 
ATOM     70  C   UNL     1       8.415   8.248   8.446  1.00  0.00     0.054 A 
BRANCH  70  71
ATOM     71  S   UNL     1      10.207   8.523   8.465  1.00  0.00     0.124 S 
ATOM     72  O   UNL     1      10.718   7.165   8.638  1.00  0.00    -0.237 OA
ATOM     73  O   UNL     1      10.452   9.123   7.156  1.00  0.00    -0.237 OA
ATOM     74  O   UNL     1      10.411   9.413   9.605  1.00  0.00    -0.744 OA
ENDBRANCH  70  71
ENDBRANCH  51  65
BRANCH  52  75
ATOM     75  C   UNL     1      -4.149   5.954   7.959  1.00  0.00    -0.014 A 
ATOM     76  C   UNL     1      -4.845   6.152   6.755  1.00  0.00     0.010 A 
ATOM     77  C   UNL     1      -4.852   5.495   9.089  1.00  0.00     0.010 A 
ATOM     78  C   UNL     1      -6.219   5.904   6.682  1.00  0.00     0.020 A 
ATOM     79  C   UNL     1      -6.221   5.223   9.013  1.00  0.00     0.020 A 
ATOM     80  C   UNL     1      -6.898   5.436   7.811  1.00  0.00     0.054 A 
BRANCH  80  81
ATOM     81  S   UNL     1      -8.669   5.065   7.674  1.00  0.00     0.124 S 
ATOM     82  O   UNL     1      -9.252   6.399   7.570  1.00  0.00    -0.237 OA
ATOM     83  O   UNL     1      -8.725   4.252   6.462  1.00  0.00    -0.237 OA
ATOM     84  O   UNL     1      -8.964   4.347   8.912  1.00  0.00    -0.744 OA
ENDBRANCH  80  81
ENDBRANCH  52  75
BRANCH  64  85
ATOM     85  C   UNL     1      -0.325  11.794   7.721  1.00  0.00    -0.014 A 
ATOM     86  C   UNL     1      -0.877  12.524   8.788  1.00  0.00     0.010 A 
ATOM     87  C   UNL     1      -0.022  12.459   6.519  1.00  0.00     0.010 A 
ATOM     88  C   UNL     1      -1.135  13.891   8.649  1.00  0.00     0.020 A 
ATOM     89  C   UNL     1      -0.255  13.831   6.385  1.00  0.00     0.020 A 
ATOM     90  C   UNL     1      -0.819  14.536   7.449  1.00  0.00     0.054 A 
BRANCH  90  91
ATOM     91  S   UNL     1      -1.106  16.323   7.318  1.00  0.00     0.124 S 
ATOM     92  O   UNL     1      -2.563  16.392   7.244  1.00  0.00    -0.237 OA
ATOM     93  O   UNL     1      -0.515  16.833   8.553  1.00  0.00    -0.237 OA
ATOM     94  O   UNL     1      -0.402  16.700   6.095  1.00  0.00    -0.744 OA
ENDBRANCH  90  91
ENDBRANCH  64  85
ENDBRANCH  38  39
ENDBRANCH  31  33
ENDBRANCH  30  31
ENDBRANCH  29  30
ENDBRANCH  28  29
ENDBRANCH  27  28
ENDBRANCH   1  27
TORSDOF 21
