REMARK SMILES CC(C)(C)OC(=O)[C@]1(C(=O)OCCOCCOCCOC(=O)c2ccc(-c3c4nc(c(-c5ccc(S(=O)(=O)[O-])cc5)c5ccc([nH]5)c(-c5ccc(S(=O)(=O)[O-])cc5)c5nc(c(-c6ccc(S(=O)(=O)[O-])cc6)c6ccc3[nH]6)C=C5)C=C4)cc2)CC=CC[C@@H]1[NH3+]
REMARK SMILES IDX 15 1 14 2 13 3 12 4 11 5 9 6 10 7 8 8 83 9 87 10 84 11 86 12
REMARK SMILES IDX 85 13 6 14 7 15 5 16 2 17 1 18 3 19 4 20 88 21 16 25 17 26
REMARK SMILES IDX 18 27 19 28 20 29 21 30 22 31 23 32 24 33 82 34 25 35 81 36
REMARK SMILES IDX 26 37 27 38 28 39 75 40 29 41 80 42 74 43 76 44 30 45 79 46
REMARK SMILES IDX 73 47 72 48 31 50 61 51 42 52 60 53 43 54 46 55 59 56 77 57
REMARK SMILES IDX 44 58 45 59 58 61 78 62 47 63 32 64 33 65 41 66 34 67 40 68
REMARK SMILES IDX 35 69 36 70 37 71 38 72 39 73 62 74 63 75 71 76 64 77 70 78
REMARK SMILES IDX 65 79 66 80 67 81 68 82 69 83 48 84 49 85 57 86 50 87 56 88
REMARK SMILES IDX 51 89 52 90 53 91 54 92 55 93
REMARK H PARENT 88 22 88 23 88 24 76 49 46 60
REMARK Flexibility Score: inf
ROOT
ATOM      1  C   UNL     1      -0.868   2.235   3.815  1.00  0.00     0.188 C 
ENDROOT
BRANCH   1   2
ATOM      2  O   UNL     1      -0.983   2.311   2.400  1.00  0.00    -0.376 OA
BRANCH   2   3
ATOM      3  C   UNL     1      -1.170   1.116   1.664  1.00  0.00     0.202 C 
BRANCH   3   4
ATOM      4  C   UNL     1      -0.013   0.124   1.683  1.00  0.00     0.261 C 
BRANCH   4   5
ATOM      5  O   UNL     1       0.145  -0.521   2.961  1.00  0.00    -0.462 OA
BRANCH   5   6
ATOM      6  C   UNL     1       1.306  -0.283   3.635  1.00  0.00     0.330 C 
ATOM      7  O   UNL     1       2.094   0.590   3.292  1.00  0.00    -0.251 OA
BRANCH   6   8
ATOM      8  C   UNL     1       1.502  -1.196   4.873  1.00  0.00     0.219 C 
ATOM      9  C   UNL     1       0.705  -2.534   4.668  1.00  0.00     0.064 C 
ATOM     10  C   UNL     1       3.077  -1.384   4.959  1.00  0.00     0.214 C 
ATOM     11  C   UNL     1       1.477  -3.792   4.445  1.00  0.00    -0.029 C 
ATOM     12  C   UNL     1       3.632  -2.804   5.171  1.00  0.00     0.093 C 
ATOM     13  C   UNL     1       2.785  -3.914   4.665  1.00  0.00    -0.025 C 
BRANCH   8  14
ATOM     14  C   UNL     1       0.988  -0.420   6.107  1.00  0.00     0.330 C 
ATOM     15  O   UNL     1       1.188   0.774   6.293  1.00  0.00    -0.251 OA
BRANCH  14  16
ATOM     16  O   UNL     1       0.324  -1.209   6.991  1.00  0.00    -0.459 OA
BRANCH  16  17
ATOM     17  C   UNL     1      -0.059  -0.827   8.347  1.00  0.00     0.104 C 
ATOM     18  C   UNL     1      -1.231  -1.752   8.703  1.00  0.00     0.056 C 
ATOM     19  C   UNL     1      -0.539   0.610   8.540  1.00  0.00     0.056 C 
ATOM     20  C   UNL     1       1.133  -1.111   9.259  1.00  0.00     0.056 C 
ENDBRANCH  16  17
ENDBRANCH  14  16
ENDBRANCH   8  14
BRANCH  10  21
ATOM     21  N   UNL     1       3.812  -0.503   5.890  1.00  0.00    -0.353 N 
ATOM     22  H   UNL     1       3.625  -0.791   6.851  1.00  0.00     0.344 HD
ATOM     23  H   UNL     1       3.506   0.461   5.759  1.00  0.00     0.344 HD
ATOM     24  H   UNL     1       4.812  -0.570   5.703  1.00  0.00     0.344 HD
ENDBRANCH  10  21
ENDBRANCH   6   8
ENDBRANCH   5   6
ENDBRANCH   4   5
ENDBRANCH   3   4
ENDBRANCH   2   3
ENDBRANCH   1   2
BRANCH   1  25
ATOM     25  C   UNL     1      -1.799   1.276   4.589  1.00  0.00     0.188 C 
BRANCH  25  26
ATOM     26  O   UNL     1      -3.111   1.046   4.091  1.00  0.00    -0.376 OA
BRANCH  26  27
ATOM     27  C   UNL     1      -3.880   2.194   3.746  1.00  0.00     0.202 C 
BRANCH  27  28
ATOM     28  C   UNL     1      -4.188   3.140   4.908  1.00  0.00     0.261 C 
BRANCH  28  29
ATOM     29  O   UNL     1      -3.010   3.874   5.294  1.00  0.00    -0.460 OA
BRANCH  29  30
ATOM     30  C   UNL     1      -2.833   4.048   6.622  1.00  0.00     0.338 C 
ATOM     31  O   UNL     1      -3.605   3.728   7.517  1.00  0.00    -0.246 OA
BRANCH  30  32
ATOM     32  C   UNL     1      -1.496   4.609   6.878  1.00  0.00     0.060 A 
ATOM     33  C   UNL     1      -0.415   3.740   7.033  1.00  0.00     0.016 A 
ATOM     34  C   UNL     1      -1.326   5.973   7.095  1.00  0.00     0.016 A 
ATOM     35  C   UNL     1       0.826   4.208   7.460  1.00  0.00     0.010 A 
ATOM     36  C   UNL     1      -0.071   6.452   7.490  1.00  0.00     0.010 A 
ATOM     37  C   UNL     1       1.007   5.570   7.704  1.00  0.00    -0.014 A 
BRANCH  37  38
ATOM     38  C   UNL     1       2.291   6.074   8.251  1.00  0.00     0.031 A 
ATOM     39  C   UNL     1       2.337   6.599   9.659  1.00  0.00     0.074 A 
ATOM     40  C   UNL     1       3.410   6.064   7.503  1.00  0.00     0.049 A 
ATOM     41  N   UNL     1       3.274   7.289  10.254  1.00  0.00    -0.248 NA
ATOM     42  C   UNL     1       1.173   6.302  10.510  1.00  0.00     0.031 C 
ATOM     43  C   UNL     1       3.536   5.479   6.168  1.00  0.00     0.029 A 
ATOM     44  N   UNL     1       4.655   6.584   7.759  1.00  0.00    -0.354 N 
ATOM     45  C   UNL     1       2.798   7.547  11.534  1.00  0.00     0.074 A 
ATOM     46  C   UNL     1       1.492   6.931  11.633  1.00  0.00     0.031 C 
ATOM     47  C   UNL     1       4.782   5.692   5.713  1.00  0.00     0.029 A 
ATOM     48  C   UNL     1       5.514   6.493   6.689  1.00  0.00     0.049 A 
ATOM     49  H   UNL     1       4.908   6.983   8.623  1.00  0.00     0.167 HD
ATOM     50  C   UNL     1       3.393   8.248  12.528  1.00  0.00     0.031 A 
ATOM     51  C   UNL     1       6.726   7.049   6.489  1.00  0.00     0.031 A 
ATOM     52  C   UNL     1       4.695   8.851  12.421  1.00  0.00     0.049 A 
ATOM     53  C   UNL     1       7.315   7.930   7.558  1.00  0.00     0.074 A 
ATOM     54  C   UNL     1       5.383   9.588  13.369  1.00  0.00     0.029 A 
ATOM     55  N   UNL     1       5.503   8.790  11.296  1.00  0.00    -0.354 N 
ATOM     56  N   UNL     1       6.837   8.217   8.746  1.00  0.00    -0.248 NA
ATOM     57  C   UNL     1       8.596   8.582   7.250  1.00  0.00     0.031 C 
ATOM     58  C   UNL     1       6.585  10.020  12.797  1.00  0.00     0.029 A 
ATOM     59  C   UNL     1       6.669   9.506  11.512  1.00  0.00     0.049 A 
ATOM     60  H   UNL     1       5.282   8.309  10.467  1.00  0.00     0.167 HD
ATOM     61  C   UNL     1       7.763   9.074   9.330  1.00  0.00     0.074 A 
ATOM     62  C   UNL     1       8.838   9.244   8.374  1.00  0.00     0.031 C 
ATOM     63  C   UNL     1       7.725   9.671  10.547  1.00  0.00     0.031 A 
BRANCH  50  64
ATOM     64  C   UNL     1       2.611   8.459  13.796  1.00  0.00    -0.014 A 
ATOM     65  C   UNL     1       2.431   7.426  14.731  1.00  0.00     0.010 A 
ATOM     66  C   UNL     1       2.082   9.734  14.071  1.00  0.00     0.010 A 
ATOM     67  C   UNL     1       1.707   7.657  15.905  1.00  0.00     0.020 A 
ATOM     68  C   UNL     1       1.377   9.974  15.253  1.00  0.00     0.020 A 
ATOM     69  C   UNL     1       1.181   8.929  16.156  1.00  0.00     0.054 A 
BRANCH  69  70
ATOM     70  S   UNL     1       0.264   9.207  17.697  1.00  0.00     0.124 S 
ATOM     71  O   UNL     1      -0.994   8.514  17.427  1.00  0.00    -0.237 OA
ATOM     72  O   UNL     1       1.122   8.582  18.700  1.00  0.00    -0.237 OA
ATOM     73  O   UNL     1       0.166  10.662  17.785  1.00  0.00    -0.744 OA
ENDBRANCH  69  70
ENDBRANCH  50  64
BRANCH  51  74
ATOM     74  C   UNL     1       7.419   6.868   5.184  1.00  0.00    -0.014 A 
ATOM     75  C   UNL     1       8.602   6.115   5.095  1.00  0.00     0.010 A 
ATOM     76  C   UNL     1       6.894   7.457   4.018  1.00  0.00     0.010 A 
ATOM     77  C   UNL     1       9.255   5.967   3.866  1.00  0.00     0.020 A 
ATOM     78  C   UNL     1       7.528   7.288   2.784  1.00  0.00     0.020 A 
ATOM     79  C   UNL     1       8.712   6.554   2.718  1.00  0.00     0.054 A 
BRANCH  79  80
ATOM     80  S   UNL     1       9.550   6.312   1.127  1.00  0.00     0.124 S 
ATOM     81  O   UNL     1      10.687   7.219   1.242  1.00  0.00    -0.237 OA
ATOM     82  O   UNL     1       9.872   4.888   1.149  1.00  0.00    -0.237 OA
ATOM     83  O   UNL     1       8.538   6.699   0.146  1.00  0.00    -0.744 OA
ENDBRANCH  79  80
ENDBRANCH  51  74
BRANCH  63  84
ATOM     84  C   UNL     1       8.885  10.553  10.923  1.00  0.00    -0.014 A 
ATOM     85  C   UNL     1       9.030  11.834  10.363  1.00  0.00     0.010 A 
ATOM     86  C   UNL     1       9.802  10.122  11.898  1.00  0.00     0.010 A 
ATOM     87  C   UNL     1      10.085  12.662  10.757  1.00  0.00     0.020 A 
ATOM     88  C   UNL     1      10.844  10.955  12.313  1.00  0.00     0.020 A 
ATOM     89  C   UNL     1      10.985  12.217  11.732  1.00  0.00     0.054 A 
BRANCH  89  90
ATOM     90  S   UNL     1      12.311  13.332  12.270  1.00  0.00     0.124 S 
ATOM     91  O   UNL     1      13.233  13.276  11.140  1.00  0.00    -0.237 OA
ATOM     92  O   UNL     1      11.611  14.602  12.449  1.00  0.00    -0.237 OA
ATOM     93  O   UNL     1      12.799  12.719  13.504  1.00  0.00    -0.744 OA
ENDBRANCH  89  90
ENDBRANCH  63  84
ENDBRANCH  37  38
ENDBRANCH  30  32
ENDBRANCH  29  30
ENDBRANCH  28  29
ENDBRANCH  27  28
ENDBRANCH  26  27
ENDBRANCH  25  26
ENDBRANCH   1  25
TORSDOF 24
