REMARK SMILES O=C(Nc1ccccc1C(=O)OCCOCCOCCOC(=O)c1ccc(-c2c3nc(c(-c4ccc(S(=O)(=O)[O-])cc4)c4ccc([nH]4)c(-c4ccc(S(=O)(=O)[O-])cc4)c4nc(c(-c5ccc(S(=O)(=O)[O-])cc5)c5ccc2[nH]5)C=C4)C=C3)cc1)c1ccc2c(c1)C(=O)N(Cc1ccccc1)C2=O
REMARK SMILES IDX 16 1 15 2 14 3 13 4 12 5 10 6 11 7 9 8 4 9 5 10 6 11 8 12
REMARK SMILES IDX 7 13 3 14 1 15 2 16 84 18 85 19 89 20 86 21 88 22 87 23
REMARK SMILES IDX 90 24 100 25 91 26 92 27 101 28 93 29 94 30 95 31 99 32
REMARK SMILES IDX 96 33 98 34 97 35 17 36 18 37 19 38 20 39 21 40 22 41 23 42
REMARK SMILES IDX 24 43 25 44 83 45 26 46 82 47 27 48 28 49 29 50 76 51 30 52
REMARK SMILES IDX 81 53 75 54 77 55 31 56 80 57 74 58 73 59 32 61 62 62 43 63
REMARK SMILES IDX 61 64 44 65 47 66 60 67 78 68 45 69 46 70 59 72 79 73 48 74
REMARK SMILES IDX 33 75 34 76 42 77 35 78 41 79 36 80 37 81 38 82 39 83 40 84
REMARK SMILES IDX 63 85 64 86 72 87 65 88 71 89 66 90 67 91 68 92 69 93 70 94
REMARK SMILES IDX 49 95 50 96 58 97 51 98 57 99 52 100 53 101 54 102 55 103
REMARK SMILES IDX 56 104
REMARK H PARENT 3 17 77 60 47 71
REMARK Flexibility Score: inf
ROOT
ATOM      1  C   UNL     1       4.605   2.649   3.297  1.00  0.00     0.188 C 
ENDROOT
BRANCH   1   2
ATOM      2  O   UNL     1       3.540   3.586   3.297  1.00  0.00    -0.376 OA
BRANCH   2   3
ATOM      3  C   UNL     1       2.807   3.687   2.083  1.00  0.00     0.202 C 
BRANCH   3   4
ATOM      4  C   UNL     1       2.248   2.406   1.459  1.00  0.00     0.261 C 
BRANCH   4   5
ATOM      5  O   UNL     1       3.160   1.371   1.010  1.00  0.00    -0.460 OA
BRANCH   5   6
ATOM      6  C   UNL     1       4.258   1.620   0.261  1.00  0.00     0.340 C 
ATOM      7  O   UNL     1       4.659   2.704  -0.121  1.00  0.00    -0.246 OA
BRANCH   6   8
ATOM      8  C   UNL     1       5.007   0.344   0.128  1.00  0.00     0.083 A 
ATOM      9  C   UNL     1       4.404  -0.886  -0.182  1.00  0.00     0.056 A 
ATOM     10  C   UNL     1       5.090  -2.063   0.180  1.00  0.00     0.027 A 
ATOM     11  C   UNL     1       6.385  -2.027   0.703  1.00  0.00     0.002 A 
ATOM     12  C   UNL     1       6.338   0.376   0.597  1.00  0.00     0.018 A 
ATOM     13  C   UNL     1       7.027  -0.808   0.871  1.00  0.00     0.001 A 
BRANCH   9  14
ATOM     14  N   UNL     1       3.165  -1.116  -0.822  1.00  0.00    -0.321 N 
ATOM     15  O   UNL     1       1.264  -0.846  -1.993  1.00  0.00    -0.269 OA
ATOM     16  C   UNL     1       2.360  -0.390  -1.666  1.00  0.00     0.255 C 
ATOM     17  H   UNL     1       2.792  -2.003  -0.615  1.00  0.00     0.170 HD
BRANCH  16  18
ATOM     18  C   UNL     1       2.736   0.922  -2.216  1.00  0.00     0.041 A 
ATOM     19  C   UNL     1       3.824   1.123  -3.091  1.00  0.00     0.015 A 
ATOM     20  C   UNL     1       1.948   1.995  -1.798  1.00  0.00     0.028 A 
ATOM     21  C   UNL     1       4.174   2.429  -3.495  1.00  0.00     0.015 A 
ATOM     22  C   UNL     1       2.403   3.263  -2.092  1.00  0.00     0.054 A 
ATOM     23  C   UNL     1       3.470   3.487  -2.936  1.00  0.00     0.053 A 
ATOM     24  C   UNL     1       1.988   4.544  -1.534  1.00  0.00     0.261 C 
ATOM     25  C   UNL     1       3.627   4.945  -3.030  1.00  0.00     0.261 C 
ATOM     26  O   UNL     1       1.075   4.670  -0.735  1.00  0.00    -0.269 OA
ATOM     27  N   UNL     1       2.789   5.495  -2.091  1.00  0.00    -0.270 N 
ATOM     28  O   UNL     1       4.291   5.498  -3.884  1.00  0.00    -0.269 OA
BRANCH  27  29
ATOM     29  C   UNL     1       2.554   6.914  -1.912  1.00  0.00     0.164 C 
BRANCH  29  30
ATOM     30  C   UNL     1       3.035   7.562  -0.627  1.00  0.00    -0.028 A 
ATOM     31  C   UNL     1       3.968   6.999   0.253  1.00  0.00     0.005 A 
ATOM     32  C   UNL     1       2.538   8.847  -0.327  1.00  0.00     0.005 A 
ATOM     33  C   UNL     1       4.368   7.691   1.406  1.00  0.00     0.000 A 
ATOM     34  C   UNL     1       2.944   9.540   0.816  1.00  0.00     0.000 A 
ATOM     35  C   UNL     1       3.859   8.959   1.686  1.00  0.00     0.000 A 
ENDBRANCH  29  30
ENDBRANCH  27  29
ENDBRANCH  16  18
ENDBRANCH   9  14
ENDBRANCH   6   8
ENDBRANCH   5   6
ENDBRANCH   4   5
ENDBRANCH   3   4
ENDBRANCH   2   3
ENDBRANCH   1   2
BRANCH   1  36
ATOM     36  C   UNL     1       4.160   1.254   3.771  1.00  0.00     0.188 C 
BRANCH  36  37
ATOM     37  O   UNL     1       2.754   1.138   3.917  1.00  0.00    -0.376 OA
BRANCH  37  38
ATOM     38  C   UNL     1       2.161   1.458   5.168  1.00  0.00     0.202 C 
BRANCH  38  39
ATOM     39  C   UNL     1       2.525   2.736   5.953  1.00  0.00     0.261 C 
BRANCH  39  40
ATOM     40  O   UNL     1       3.914   3.056   6.113  1.00  0.00    -0.460 OA
BRANCH  40  41
ATOM     41  C   UNL     1       4.719   2.184   6.753  1.00  0.00     0.338 C 
ATOM     42  O   UNL     1       4.389   1.148   7.299  1.00  0.00    -0.246 OA
BRANCH  41  43
ATOM     43  C   UNL     1       6.114   2.579   6.421  1.00  0.00     0.060 A 
ATOM     44  C   UNL     1       6.968   1.618   5.859  1.00  0.00     0.016 A 
ATOM     45  C   UNL     1       6.540   3.905   6.553  1.00  0.00     0.016 A 
ATOM     46  C   UNL     1       8.255   1.973   5.454  1.00  0.00     0.010 A 
ATOM     47  C   UNL     1       7.843   4.253   6.187  1.00  0.00     0.010 A 
ATOM     48  C   UNL     1       8.717   3.278   5.674  1.00  0.00    -0.014 A 
BRANCH  48  49
ATOM     49  C   UNL     1      10.178   3.526   5.678  1.00  0.00     0.031 A 
ATOM     50  C   UNL     1      10.899   3.313   6.982  1.00  0.00     0.074 A 
ATOM     51  C   UNL     1      10.855   3.896   4.577  1.00  0.00     0.049 A 
ATOM     52  N   UNL     1      12.163   3.471   7.270  1.00  0.00    -0.248 NA
ATOM     53  C   UNL     1      10.074   2.854   8.115  1.00  0.00     0.031 C 
ATOM     54  C   UNL     1      10.283   4.086   3.246  1.00  0.00     0.029 A 
ATOM     55  N   UNL     1      12.189   4.183   4.417  1.00  0.00    -0.354 N 
ATOM     56  C   UNL     1      12.284   3.132   8.613  1.00  0.00     0.074 A 
ATOM     57  C   UNL     1      10.964   2.789   9.091  1.00  0.00     0.031 C 
ATOM     58  C   UNL     1      11.261   4.474   2.405  1.00  0.00     0.029 A 
ATOM     59  C   UNL     1      12.518   4.587   3.145  1.00  0.00     0.049 A 
ATOM     60  H   UNL     1      12.847   4.106   5.144  1.00  0.00     0.167 HD
ATOM     61  C   UNL     1      13.394   3.105   9.385  1.00  0.00     0.031 A 
ATOM     62  C   UNL     1      13.695   5.020   2.647  1.00  0.00     0.031 A 
ATOM     63  C   UNL     1      14.699   3.485   8.923  1.00  0.00     0.049 A 
ATOM     64  C   UNL     1      14.905   5.072   3.548  1.00  0.00     0.074 A 
ATOM     65  C   UNL     1      15.888   3.505   9.627  1.00  0.00     0.029 A 
ATOM     66  N   UNL     1      14.981   3.930   7.640  1.00  0.00    -0.354 N 
ATOM     67  N   UNL     1      15.011   4.727   4.810  1.00  0.00    -0.248 NA
ATOM     68  C   UNL     1      16.157   5.564   2.954  1.00  0.00     0.031 C 
ATOM     69  C   UNL     1      16.881   4.015   8.784  1.00  0.00     0.029 A 
ATOM     70  C   UNL     1      16.322   4.250   7.537  1.00  0.00     0.049 A 
ATOM     71  H   UNL     1      14.324   4.006   6.911  1.00  0.00     0.167 HD
ATOM     72  C   UNL     1      16.345   4.936   5.152  1.00  0.00     0.074 A 
ATOM     73  C   UNL     1      17.009   5.425   3.961  1.00  0.00     0.031 C 
ATOM     74  C   UNL     1      16.965   4.737   6.343  1.00  0.00     0.031 A 
BRANCH  61  75
ATOM     75  C   UNL     1      13.218   2.692  10.820  1.00  0.00    -0.014 A 
ATOM     76  C   UNL     1      12.916   1.361  11.164  1.00  0.00     0.010 A 
ATOM     77  C   UNL     1      13.348   3.651  11.840  1.00  0.00     0.010 A 
ATOM     78  C   UNL     1      12.703   1.007  12.498  1.00  0.00     0.020 A 
ATOM     79  C   UNL     1      13.164   3.295  13.178  1.00  0.00     0.020 A 
ATOM     80  C   UNL     1      12.824   1.978  13.496  1.00  0.00     0.054 A 
BRANCH  80  81
ATOM     81  S   UNL     1      12.550   1.490  15.221  1.00  0.00     0.124 S 
ATOM     82  O   UNL     1      11.100   1.315  15.257  1.00  0.00    -0.237 OA
ATOM     83  O   UNL     1      13.333   0.262  15.335  1.00  0.00    -0.237 OA
ATOM     84  O   UNL     1      13.059   2.624  15.988  1.00  0.00    -0.744 OA
ENDBRANCH  80  81
ENDBRANCH  61  75
BRANCH  62  85
ATOM     85  C   UNL     1      13.785   5.462   1.227  1.00  0.00    -0.014 A 
ATOM     86  C   UNL     1      14.507   4.711   0.283  1.00  0.00     0.010 A 
ATOM     87  C   UNL     1      13.143   6.643   0.812  1.00  0.00     0.010 A 
ATOM     88  C   UNL     1      14.592   5.137  -1.047  1.00  0.00     0.020 A 
ATOM     89  C   UNL     1      13.204   7.059  -0.522  1.00  0.00     0.020 A 
ATOM     90  C   UNL     1      13.935   6.306  -1.442  1.00  0.00     0.054 A 
BRANCH  90  91
ATOM     91  S   UNL     1      14.008   6.803  -3.186  1.00  0.00     0.124 S 
ATOM     92  O   UNL     1      15.387   7.262  -3.314  1.00  0.00    -0.237 OA
ATOM     93  O   UNL     1      13.688   5.558  -3.880  1.00  0.00    -0.237 OA
ATOM     94  O   UNL     1      12.988   7.844  -3.288  1.00  0.00    -0.744 OA
ENDBRANCH  90  91
ENDBRANCH  62  85
BRANCH  74  95
ATOM     95  C   UNL     1      18.445   5.010   6.415  1.00  0.00    -0.014 A 
ATOM     96  C   UNL     1      18.951   6.321   6.403  1.00  0.00     0.010 A 
ATOM     97  C   UNL     1      19.339   3.933   6.573  1.00  0.00     0.010 A 
ATOM     98  C   UNL     1      20.325   6.550   6.517  1.00  0.00     0.020 A 
ATOM     99  C   UNL     1      20.710   4.159   6.716  1.00  0.00     0.020 A 
ATOM    100  C   UNL     1      21.196   5.466   6.674  1.00  0.00     0.054 A 
BRANCH 100 101
ATOM    101  S   UNL     1      22.970   5.791   6.867  1.00  0.00     0.124 S 
ATOM    102  O   UNL     1      23.359   6.169   5.511  1.00  0.00    -0.237 OA
ATOM    103  O   UNL     1      22.994   6.870   7.852  1.00  0.00    -0.237 OA
ATOM    104  O   UNL     1      23.507   4.516   7.336  1.00  0.00    -0.744 OA
ENDBRANCH 100 101
ENDBRANCH  74  95
ENDBRANCH  48  49
ENDBRANCH  41  43
ENDBRANCH  40  41
ENDBRANCH  39  40
ENDBRANCH  38  39
ENDBRANCH  37  38
ENDBRANCH  36  37
ENDBRANCH   1  36
TORSDOF 24
