REMARK SMILES CN(c1ccc(C(=O)OCCOCCOCCOC(=O)c2ccc(-c3c4nc(c(-c5ccc(S(=O)(=O)[O-])cc5)c5ccc([nH]5)c(-c5ccc(S(=O)(=O)[O-])cc5)c5nc(c(-c6ccc(S(=O)(=O)[O-])cc6)c6ccc3[nH]6)C=C5)C=C4)cc2)c(F)c1F)[C@H]1C[C@H]2CC[C@@H](C1)[NH2+]2
REMARK SMILES IDX 14 1 13 2 12 3 11 4 10 5 9 6 7 7 8 8 6 9 3 10 4 11 83 12
REMARK SMILES IDX 5 13 81 14 84 15 82 16 2 17 1 18 85 19 86 20 91 21 87 22
REMARK SMILES IDX 90 23 88 24 92 25 89 26 15 29 16 30 17 31 18 32 19 33 20 34
REMARK SMILES IDX 21 35 22 36 80 37 23 38 79 39 24 40 25 41 26 42 73 43 27 44
REMARK SMILES IDX 78 45 72 46 74 47 28 48 77 49 71 50 70 51 29 53 59 54 40 55
REMARK SMILES IDX 58 56 41 57 44 58 57 59 75 60 42 61 43 62 56 64 76 65 45 66
REMARK SMILES IDX 30 67 31 68 39 69 32 70 38 71 33 72 34 73 35 74 36 75 37 76
REMARK SMILES IDX 60 77 61 78 69 79 62 80 68 81 63 82 64 83 65 84 66 85 67 86
REMARK SMILES IDX 46 87 47 88 55 89 48 90 54 91 49 92 50 93 51 94 52 95 53 96
REMARK H PARENT 92 27 92 28 74 52 44 63
REMARK Flexibility Score: inf
ROOT
ATOM      1  C   UNL     1      -1.527   5.880   3.294  1.00  0.00     0.188 C 
ENDROOT
BRANCH   1   2
ATOM      2  C   UNL     1      -3.013   6.051   2.919  1.00  0.00     0.188 C 
BRANCH   2   3
ATOM      3  O   UNL     1      -3.893   6.755   3.779  1.00  0.00    -0.376 OA
BRANCH   3   4
ATOM      4  C   UNL     1      -4.005   6.348   5.136  1.00  0.00     0.202 C 
BRANCH   4   5
ATOM      5  C   UNL     1      -4.337   4.887   5.445  1.00  0.00     0.261 C 
BRANCH   5   6
ATOM      6  O   UNL     1      -3.345   3.999   4.912  1.00  0.00    -0.460 OA
BRANCH   6   7
ATOM      7  C   UNL     1      -3.797   2.916   4.243  1.00  0.00     0.341 C 
ATOM      8  O   UNL     1      -4.962   2.561   4.146  1.00  0.00    -0.246 OA
BRANCH   7   9
ATOM      9  C   UNL     1      -2.698   2.258   3.502  1.00  0.00     0.099 A 
ATOM     10  C   UNL     1      -0.662   0.947   2.045  1.00  0.00     0.076 A 
ATOM     11  C   UNL     1      -2.006   0.822   1.668  1.00  0.00     0.030 A 
ATOM     12  C   UNL     1      -0.363   1.852   3.066  1.00  0.00     0.182 A 
ATOM     13  C   UNL     1      -3.016   1.483   2.378  1.00  0.00     0.021 A 
ATOM     14  C   UNL     1      -1.361   2.424   3.845  1.00  0.00     0.175 A 
ATOM     15  F   UNL     1       0.915   2.173   3.317  1.00  0.00    -0.201 F 
ATOM     16  F   UNL     1      -0.993   3.126   4.927  1.00  0.00    -0.203 F 
BRANCH  10  17
ATOM     17  N   UNL     1       0.325   0.168   1.471  1.00  0.00    -0.369 N 
ATOM     18  C   UNL     1       0.672   0.462   0.085  1.00  0.00     0.144 C 
BRANCH  17  19
ATOM     19  C   UNL     1       0.757  -1.133   2.048  1.00  0.00     0.093 C 
ATOM     20  C   UNL     1       2.175  -1.046   2.655  1.00  0.00     0.090 C 
ATOM     21  C   UNL     1      -0.270  -1.877   2.933  1.00  0.00     0.090 C 
ATOM     22  C   UNL     1       2.272  -1.318   4.164  1.00  0.00     0.184 C 
ATOM     23  C   UNL     1       0.115  -2.037   4.411  1.00  0.00     0.184 C 
ATOM     24  C   UNL     1       1.614  -0.258   5.035  1.00  0.00     0.071 C 
ATOM     25  N   UNL     1       1.498  -2.515   4.512  1.00  0.00    -0.341 N 
ATOM     26  C   UNL     1       0.175  -0.732   5.194  1.00  0.00     0.071 C 
ATOM     27  H   UNL     1       1.712  -2.830   5.458  1.00  0.00     0.346 HD
ATOM     28  H   UNL     1       1.696  -3.317   3.913  1.00  0.00     0.346 HD
ENDBRANCH  17  19
ENDBRANCH  10  17
ENDBRANCH   7   9
ENDBRANCH   6   7
ENDBRANCH   5   6
ENDBRANCH   4   5
ENDBRANCH   3   4
ENDBRANCH   2   3
ENDBRANCH   1   2
BRANCH   1  29
ATOM     29  O   UNL     1      -0.989   6.448   4.465  1.00  0.00    -0.376 OA
BRANCH  29  30
ATOM     30  C   UNL     1      -0.910   7.854   4.608  1.00  0.00     0.202 C 
BRANCH  30  31
ATOM     31  C   UNL     1      -0.641   8.803   3.430  1.00  0.00     0.261 C 
BRANCH  31  32
ATOM     32  O   UNL     1      -1.286   8.478   2.193  1.00  0.00    -0.460 OA
BRANCH  32  33
ATOM     33  C   UNL     1      -0.448   8.111   1.188  1.00  0.00     0.338 C 
ATOM     34  O   UNL     1       0.768   8.039   1.230  1.00  0.00    -0.246 OA
BRANCH  33  35
ATOM     35  C   UNL     1      -1.244   7.611   0.051  1.00  0.00     0.060 A 
ATOM     36  C   UNL     1      -1.073   6.280  -0.357  1.00  0.00     0.016 A 
ATOM     37  C   UNL     1      -2.121   8.456  -0.627  1.00  0.00     0.016 A 
ATOM     38  C   UNL     1      -1.768   5.795  -1.465  1.00  0.00     0.010 A 
ATOM     39  C   UNL     1      -2.797   7.975  -1.751  1.00  0.00     0.010 A 
ATOM     40  C   UNL     1      -2.604   6.652  -2.191  1.00  0.00    -0.014 A 
BRANCH  40  41
ATOM     41  C   UNL     1      -3.146   6.236  -3.507  1.00  0.00     0.031 A 
ATOM     42  C   UNL     1      -2.411   6.657  -4.750  1.00  0.00     0.074 A 
ATOM     43  C   UNL     1      -4.282   5.522  -3.603  1.00  0.00     0.049 A 
ATOM     44  N   UNL     1      -2.747   6.502  -6.004  1.00  0.00    -0.248 NA
ATOM     45  C   UNL     1      -1.127   7.352  -4.550  1.00  0.00     0.031 C 
ATOM     46  C   UNL     1      -5.066   5.019  -2.476  1.00  0.00     0.029 A 
ATOM     47  N   UNL     1      -4.985   5.117  -4.711  1.00  0.00    -0.354 N 
ATOM     48  C   UNL     1      -1.728   7.092  -6.742  1.00  0.00     0.074 A 
ATOM     49  C   UNL     1      -0.770   7.622  -5.796  1.00  0.00     0.031 C 
ATOM     50  C   UNL     1      -6.156   4.390  -2.952  1.00  0.00     0.029 A 
ATOM     51  C   UNL     1      -6.166   4.481  -4.411  1.00  0.00     0.049 A 
ATOM     52  H   UNL     1      -4.672   5.267  -5.632  1.00  0.00     0.167 HD
ATOM     53  C   UNL     1      -1.603   7.189  -8.086  1.00  0.00     0.031 A 
ATOM     54  C   UNL     1      -7.157   4.052  -5.220  1.00  0.00     0.031 A 
ATOM     55  C   UNL     1      -2.564   6.678  -9.026  1.00  0.00     0.049 A 
ATOM     56  C   UNL     1      -7.031   4.237  -6.712  1.00  0.00     0.074 A 
ATOM     57  C   UNL     1      -2.514   6.711 -10.409  1.00  0.00     0.029 A 
ATOM     58  N   UNL     1      -3.754   6.056  -8.682  1.00  0.00    -0.354 N 
ATOM     59  N   UNL     1      -6.046   4.767  -7.398  1.00  0.00    -0.248 NA
ATOM     60  C   UNL     1      -8.149   3.760  -7.539  1.00  0.00     0.031 C 
ATOM     61  C   UNL     1      -3.700   6.159 -10.901  1.00  0.00     0.029 A 
ATOM     62  C   UNL     1      -4.460   5.725  -9.826  1.00  0.00     0.049 A 
ATOM     63  H   UNL     1      -4.052   5.876  -7.762  1.00  0.00     0.167 HD
ATOM     64  C   UNL     1      -6.414   4.661  -8.736  1.00  0.00     0.074 A 
ATOM     65  C   UNL     1      -7.705   4.006  -8.765  1.00  0.00     0.031 C 
ATOM     66  C   UNL     1      -5.742   5.066  -9.842  1.00  0.00     0.031 A 
BRANCH  53  67
ATOM     67  C   UNL     1      -0.396   7.910  -8.622  1.00  0.00    -0.014 A 
ATOM     68  C   UNL     1       0.885   7.335  -8.559  1.00  0.00     0.010 A 
ATOM     69  C   UNL     1      -0.555   9.166  -9.236  1.00  0.00     0.010 A 
ATOM     70  C   UNL     1       1.991   8.017  -9.073  1.00  0.00     0.020 A 
ATOM     71  C   UNL     1       0.544   9.839  -9.775  1.00  0.00     0.020 A 
ATOM     72  C   UNL     1       1.813   9.266  -9.677  1.00  0.00     0.054 A 
BRANCH  72  73
ATOM     73  S   UNL     1       3.262  10.114 -10.363  1.00  0.00     0.124 S 
ATOM     74  O   UNL     1       3.959  10.544  -9.153  1.00  0.00    -0.237 OA
ATOM     75  O   UNL     1       3.921   9.057 -11.125  1.00  0.00    -0.237 OA
ATOM     76  O   UNL     1       2.687  11.191 -11.165  1.00  0.00    -0.744 OA
ENDBRANCH  72  73
ENDBRANCH  53  67
BRANCH  54  77
ATOM     77  C   UNL     1      -8.380   3.432  -4.638  1.00  0.00    -0.014 A 
ATOM     78  C   UNL     1      -8.652   2.065  -4.828  1.00  0.00     0.010 A 
ATOM     79  C   UNL     1      -9.290   4.213  -3.902  1.00  0.00     0.010 A 
ATOM     80  C   UNL     1      -9.820   1.497  -4.311  1.00  0.00     0.020 A 
ATOM     81  C   UNL     1     -10.444   3.642  -3.359  1.00  0.00     0.020 A 
ATOM     82  C   UNL     1     -10.708   2.289  -3.578  1.00  0.00     0.054 A 
BRANCH  82  83
ATOM     83  S   UNL     1     -12.195   1.519  -2.879  1.00  0.00     0.124 S 
ATOM     84  O   UNL     1     -13.025   1.331  -4.064  1.00  0.00    -0.237 OA
ATOM     85  O   UNL     1     -11.664   0.299  -2.277  1.00  0.00    -0.237 OA
ATOM     86  O   UNL     1     -12.679   2.515  -1.926  1.00  0.00    -0.744 OA
ENDBRANCH  82  83
ENDBRANCH  54  77
BRANCH  66  87
ATOM     87  C   UNL     1      -6.359   4.777 -11.186  1.00  0.00    -0.014 A 
ATOM     88  C   UNL     1      -7.475   5.495 -11.650  1.00  0.00     0.010 A 
ATOM     89  C   UNL     1      -5.762   3.821 -12.029  1.00  0.00     0.010 A 
ATOM     90  C   UNL     1      -7.997   5.245 -12.923  1.00  0.00     0.020 A 
ATOM     91  C   UNL     1      -6.264   3.587 -13.311  1.00  0.00     0.020 A 
ATOM     92  C   UNL     1      -7.387   4.293 -13.746  1.00  0.00     0.054 A 
BRANCH  92  93
ATOM     93  S   UNL     1      -8.050   4.024 -15.414  1.00  0.00     0.124 S 
ATOM     94  O   UNL     1      -9.279   3.287 -15.138  1.00  0.00    -0.237 OA
ATOM     95  O   UNL     1      -8.231   5.386 -15.910  1.00  0.00    -0.237 OA
ATOM     96  O   UNL     1      -7.001   3.258 -16.084  1.00  0.00    -0.744 OA
ENDBRANCH  92  93
ENDBRANCH  66  87
ENDBRANCH  40  41
ENDBRANCH  33  35
ENDBRANCH  32  33
ENDBRANCH  31  32
ENDBRANCH  30  31
ENDBRANCH  29  30
ENDBRANCH   1  29
TORSDOF 22
