REMARK SMILES N#C[C@H]1CN(c2cc(C(=O)OCCOCCOCCOC(=O)c3ccc(-c4c5nc(c(-c6ccc(S(=O)(=O)[O-])cc6)c6ccc([nH]6)c(-c6ccc(S(=O)(=O)[O-])cc6)c6nc(c(-c7ccc(S(=O)(=O)[O-])cc7)c7ccc4[nH]7)C=C6)C=C5)cc3)c(N)cc2F)CCO1
REMARK SMILES IDX 16 1 15 2 14 3 13 4 12 5 11 6 9 7 10 8 8 9 6 10 7 11 86 12
REMARK SMILES IDX 85 13 87 14 83 15 5 16 3 17 4 18 90 19 89 20 88 21 2 22 1 23
REMARK SMILES IDX 84 24 17 27 18 28 19 29 20 30 21 31 22 32 23 33 24 34 82 35
REMARK SMILES IDX 25 36 81 37 26 38 27 39 28 40 75 41 29 42 80 43 74 44 76 45
REMARK SMILES IDX 30 46 79 47 73 48 72 49 31 51 61 52 42 53 60 54 43 55 46 56
REMARK SMILES IDX 59 57 77 58 44 59 45 60 58 62 78 63 47 64 32 65 33 66 41 67
REMARK SMILES IDX 34 68 40 69 35 70 36 71 37 72 38 73 39 74 62 75 63 76 71 77
REMARK SMILES IDX 64 78 70 79 65 80 66 81 67 82 68 83 69 84 48 85 49 86 57 87
REMARK SMILES IDX 50 88 56 89 51 90 52 91 53 92 54 93 55 94
REMARK H PARENT 84 25 84 26 76 50 46 61
REMARK Flexibility Score: inf
ROOT
ATOM      1  C   UNL     1       2.412   5.997  -3.578  1.00  0.00     0.188 C 
ENDROOT
BRANCH   1   2
ATOM      2  C   UNL     1       3.945   6.157  -3.618  1.00  0.00     0.188 C 
BRANCH   2   3
ATOM      3  O   UNL     1       4.488   7.296  -4.252  1.00  0.00    -0.376 OA
BRANCH   3   4
ATOM      4  C   UNL     1       4.317   7.500  -5.645  1.00  0.00     0.202 C 
BRANCH   4   5
ATOM      5  C   UNL     1       4.040   6.382  -6.673  1.00  0.00     0.261 C 
BRANCH   5   6
ATOM      6  O   UNL     1       3.303   5.241  -6.220  1.00  0.00    -0.460 OA
BRANCH   6   7
ATOM      7  C   UNL     1       4.014   4.088  -6.087  1.00  0.00     0.340 C 
ATOM      8  O   UNL     1       5.194   3.942  -6.358  1.00  0.00    -0.246 OA
BRANCH   7   9
ATOM      9  C   UNL     1       3.213   3.059  -5.369  1.00  0.00     0.085 A 
ATOM     10  C   UNL     1       3.251   1.298  -3.667  1.00  0.00     0.074 A 
ATOM     11  C   UNL     1       3.887   2.327  -4.366  1.00  0.00     0.047 A 
ATOM     12  C   UNL     1       1.928   1.007  -4.023  1.00  0.00     0.148 A 
ATOM     13  C   UNL     1       1.237   1.750  -4.981  1.00  0.00     0.067 A 
ATOM     14  F   UNL     1       1.287  -0.009  -3.423  1.00  0.00    -0.205 F 
ATOM     15  C   UNL     1       1.847   2.831  -5.623  1.00  0.00     0.049 A 
BRANCH  10  16
ATOM     16  N   UNL     1       3.921   0.563  -2.719  1.00  0.00    -0.363 N 
ATOM     17  C   UNL     1       3.773   0.011  -0.311  1.00  0.00     0.240 C 
ATOM     18  C   UNL     1       4.219   1.056  -1.366  1.00  0.00     0.164 C 
ATOM     19  O   UNL     1       4.309  -1.298  -0.608  1.00  0.00    -0.360 OA
ATOM     20  C   UNL     1       3.863  -1.745  -1.899  1.00  0.00     0.183 C 
ATOM     21  C   UNL     1       4.342  -0.807  -3.015  1.00  0.00     0.145 C 
BRANCH  17  22
ATOM     22  C   UNL     1       4.171   0.441   1.038  1.00  0.00     0.096 C 
ATOM     23  N   UNL     1       4.416   0.824   2.108  1.00  0.00    -0.195 NA
ENDBRANCH  17  22
ENDBRANCH  10  16
BRANCH  15  24
ATOM     24  N   UNL     1       1.118   3.541  -6.579  1.00  0.00    -0.398 N 
ATOM     25  H   UNL     1       1.529   4.305  -7.043  1.00  0.00     0.156 HD
ATOM     26  H   UNL     1       0.193   3.277  -6.788  1.00  0.00     0.156 HD
ENDBRANCH  15  24
ENDBRANCH   7   9
ENDBRANCH   6   7
ENDBRANCH   5   6
ENDBRANCH   4   5
ENDBRANCH   3   4
ENDBRANCH   2   3
ENDBRANCH   1   2
BRANCH   1  27
ATOM     27  O   UNL     1       1.671   6.839  -4.429  1.00  0.00    -0.376 OA
BRANCH  27  28
ATOM     28  C   UNL     1       1.392   8.169  -4.024  1.00  0.00     0.202 C 
BRANCH  28  29
ATOM     29  C   UNL     1       1.859   8.852  -2.714  1.00  0.00     0.261 C 
BRANCH  29  30
ATOM     30  O   UNL     1       2.773   8.170  -1.849  1.00  0.00    -0.460 OA
BRANCH  30  31
ATOM     31  C   UNL     1       2.226   7.566  -0.764  1.00  0.00     0.338 C 
ATOM     32  O   UNL     1       1.043   7.516  -0.477  1.00  0.00    -0.246 OA
BRANCH  31  33
ATOM     33  C   UNL     1       3.264   6.772  -0.071  1.00  0.00     0.060 A 
ATOM     34  C   UNL     1       3.174   5.375  -0.115  1.00  0.00     0.016 A 
ATOM     35  C   UNL     1       4.281   7.390   0.659  1.00  0.00     0.016 A 
ATOM     36  C   UNL     1       4.089   4.595   0.588  1.00  0.00     0.010 A 
ATOM     37  C   UNL     1       5.191   6.600   1.376  1.00  0.00     0.010 A 
ATOM     38  C   UNL     1       5.087   5.197   1.363  1.00  0.00    -0.014 A 
BRANCH  38  39
ATOM     39  C   UNL     1       5.908   4.343   2.261  1.00  0.00     0.031 A 
ATOM     40  C   UNL     1       5.565   4.280   3.726  1.00  0.00     0.074 A 
ATOM     41  C   UNL     1       6.894   3.571   1.768  1.00  0.00     0.049 A 
ATOM     42  N   UNL     1       6.136   3.599   4.687  1.00  0.00    -0.248 NA
ATOM     43  C   UNL     1       4.430   5.106   4.167  1.00  0.00     0.031 C 
ATOM     44  C   UNL     1       7.285   3.490   0.361  1.00  0.00     0.029 A 
ATOM     45  N   UNL     1       7.737   2.691   2.402  1.00  0.00    -0.354 N 
ATOM     46  C   UNL     1       5.427   3.906   5.843  1.00  0.00     0.074 A 
ATOM     47  C   UNL     1       4.422   4.879   5.472  1.00  0.00     0.031 C 
ATOM     48  C   UNL     1       8.283   2.597   0.238  1.00  0.00     0.029 A 
ATOM     49  C   UNL     1       8.630   2.076   1.560  1.00  0.00     0.049 A 
ATOM     50  H   UNL     1       7.703   2.518   3.370  1.00  0.00     0.167 HD
ATOM     51  C   UNL     1       5.589   3.417   7.097  1.00  0.00     0.031 A 
ATOM     52  C   UNL     1       9.626   1.205   1.824  1.00  0.00     0.031 A 
ATOM     53  C   UNL     1       6.600   2.457   7.464  1.00  0.00     0.049 A 
ATOM     54  C   UNL     1       9.854   0.752   3.244  1.00  0.00     0.074 A 
ATOM     55  C   UNL     1       6.852   1.905   8.708  1.00  0.00     0.029 A 
ATOM     56  N   UNL     1       7.529   1.907   6.591  1.00  0.00    -0.354 N 
ATOM     57  N   UNL     1       9.183   1.056   4.330  1.00  0.00    -0.248 NA
ATOM     58  C   UNL     1      10.974  -0.172   3.470  1.00  0.00     0.031 C 
ATOM     59  C   UNL     1       7.983   1.088   8.605  1.00  0.00     0.029 A 
ATOM     60  C   UNL     1       8.385   1.060   7.279  1.00  0.00     0.049 A 
ATOM     61  H   UNL     1       7.573   2.091   5.625  1.00  0.00     0.167 HD
ATOM     62  C   UNL     1       9.779   0.336   5.361  1.00  0.00     0.074 A 
ATOM     63  C   UNL     1      10.850  -0.435   4.763  1.00  0.00     0.031 C 
ATOM     64  C   UNL     1       9.466   0.313   6.682  1.00  0.00     0.031 A 
BRANCH  51  65
ATOM     65  C   UNL     1       4.685   3.961   8.176  1.00  0.00    -0.014 A 
ATOM     66  C   UNL     1       3.302   3.696   8.187  1.00  0.00     0.010 A 
ATOM     67  C   UNL     1       5.234   4.744   9.208  1.00  0.00     0.010 A 
ATOM     68  C   UNL     1       2.482   4.248   9.176  1.00  0.00     0.020 A 
ATOM     69  C   UNL     1       4.424   5.266  10.220  1.00  0.00     0.020 A 
ATOM     70  C   UNL     1       3.048   5.033  10.185  1.00  0.00     0.054 A 
BRANCH  70  71
ATOM     71  S   UNL     1       1.961   5.734  11.457  1.00  0.00     0.124 S 
ATOM     72  O   UNL     1       1.209   6.729  10.697  1.00  0.00    -0.237 OA
ATOM     73  O   UNL     1       1.195   4.572  11.898  1.00  0.00    -0.237 OA
ATOM     74  O   UNL     1       2.888   6.279  12.446  1.00  0.00    -0.744 OA
ENDBRANCH  70  71
ENDBRANCH  51  65
BRANCH  52  75
ATOM     75  C   UNL     1      10.498   0.714   0.719  1.00  0.00    -0.014 A 
ATOM     76  C   UNL     1      10.481  -0.638   0.332  1.00  0.00     0.010 A 
ATOM     77  C   UNL     1      11.355   1.604   0.045  1.00  0.00     0.010 A 
ATOM     78  C   UNL     1      11.307  -1.090  -0.702  1.00  0.00     0.020 A 
ATOM     79  C   UNL     1      12.156   1.163  -1.012  1.00  0.00     0.020 A 
ATOM     80  C   UNL     1      12.131  -0.184  -1.375  1.00  0.00     0.054 A 
BRANCH  80  81
ATOM     81  S   UNL     1      13.134  -0.781  -2.764  1.00  0.00     0.124 S 
ATOM     82  O   UNL     1      14.118  -1.623  -2.092  1.00  0.00    -0.237 OA
ATOM     83  O   UNL     1      12.147  -1.486  -3.579  1.00  0.00    -0.237 OA
ATOM     84  O   UNL     1      13.661   0.445  -3.359  1.00  0.00    -0.744 OA
ENDBRANCH  80  81
ENDBRANCH  52  75
BRANCH  64  85
ATOM     85  C   UNL     1      10.282  -0.599   7.569  1.00  0.00    -0.014 A 
ATOM     86  C   UNL     1      11.649  -0.365   7.810  1.00  0.00     0.010 A 
ATOM     87  C   UNL     1       9.667  -1.708   8.180  1.00  0.00     0.010 A 
ATOM     88  C   UNL     1      12.396  -1.256   8.586  1.00  0.00     0.020 A 
ATOM     89  C   UNL     1      10.401  -2.579   8.991  1.00  0.00     0.020 A 
ATOM     90  C   UNL     1      11.768  -2.361   9.167  1.00  0.00     0.054 A 
BRANCH  90  91
ATOM     91  S   UNL     1      12.762  -3.505  10.164  1.00  0.00     0.124 S 
ATOM     92  O   UNL     1      13.579  -4.164   9.149  1.00  0.00    -0.237 OA
ATOM     93  O   UNL     1      13.481  -2.605  11.062  1.00  0.00    -0.237 OA
ATOM     94  O   UNL     1      11.767  -4.358  10.812  1.00  0.00    -0.744 OA
ENDBRANCH  90  91
ENDBRANCH  64  85
ENDBRANCH  38  39
ENDBRANCH  31  33
ENDBRANCH  30  31
ENDBRANCH  29  30
ENDBRANCH  28  29
ENDBRANCH  27  28
ENDBRANCH   1  27
TORSDOF 23
