REMARK SMILES O=C(OCCOCCOCCOC(=O)[C@@H]1CCCN1S(=O)(=O)c1ccc2c3c(cccc13)C(=O)N2)c1ccc(-c2c3nc(c(-c4ccc(S(=O)(=O)[O-])cc4)c4ccc([nH]4)c(-c4ccc(S(=O)(=O)[O-])cc4)c4nc(c(-c5ccc(S(=O)(=O)[O-])cc5)c5ccc2[nH]5)C=C4)C=C3)cc1
REMARK SMILES IDX 7 1 6 2 5 3 4 4 3 5 2 6 1 7 36 8 37 9 95 10 38 11 94 12
REMARK SMILES IDX 39 13 40 14 41 15 88 16 42 17 93 18 87 19 89 20 43 21 92 22
REMARK SMILES IDX 86 23 85 24 44 26 74 27 55 28 73 29 56 30 59 31 72 32 90 33
REMARK SMILES IDX 57 34 58 35 71 37 91 38 60 39 45 40 46 41 54 42 47 43 53 44
REMARK SMILES IDX 48 45 49 46 50 47 51 48 52 49 75 50 76 51 84 52 77 53 83 54
REMARK SMILES IDX 78 55 79 56 80 57 81 58 82 59 61 60 62 61 70 62 63 63 69 64
REMARK SMILES IDX 64 65 65 66 66 67 67 68 68 69 8 70 9 71 10 72 11 73 12 74
REMARK SMILES IDX 13 75 14 76 15 77 16 78 19 79 17 80 18 81 20 82 21 83 22 84
REMARK SMILES IDX 23 85 24 86 32 87 25 88 27 89 31 90 26 91 28 92 30 93 35 94
REMARK SMILES IDX 29 95 33 96 34 98
REMARK H PARENT 89 25 59 36 35 97
REMARK Flexibility Score: inf
ROOT
ATOM      1  C   UNL     1       3.849  -1.165  -0.111  1.00  0.00     0.188 C 
ENDROOT
BRANCH   1   2
ATOM      2  O   UNL     1       5.071  -0.685   0.459  1.00  0.00    -0.376 OA
BRANCH   2   3
ATOM      3  C   UNL     1       5.005  -0.220   1.803  1.00  0.00     0.202 C 
BRANCH   3   4
ATOM      4  C   UNL     1       4.507   1.223   1.930  1.00  0.00     0.261 C 
BRANCH   4   5
ATOM      5  O   UNL     1       3.213   1.361   1.323  1.00  0.00    -0.460 OA
BRANCH   5   6
ATOM      6  C   UNL     1       3.001   2.376   0.448  1.00  0.00     0.338 C 
ATOM      7  O   UNL     1       2.210   3.278   0.691  1.00  0.00    -0.246 OA
BRANCH   6   8
ATOM      8  C   UNL     1       3.516   2.162  -0.941  1.00  0.00     0.060 A 
ATOM      9  C   UNL     1       4.816   1.731  -1.222  1.00  0.00     0.016 A 
ATOM     10  C   UNL     1       2.671   2.485  -2.016  1.00  0.00     0.016 A 
ATOM     11  C   UNL     1       5.274   1.636  -2.534  1.00  0.00     0.010 A 
ATOM     12  C   UNL     1       3.147   2.456  -3.335  1.00  0.00     0.010 A 
ATOM     13  C   UNL     1       4.472   2.083  -3.588  1.00  0.00    -0.014 A 
BRANCH  13  14
ATOM     14  C   UNL     1       5.167   2.476  -4.838  1.00  0.00     0.031 A 
ATOM     15  C   UNL     1       6.064   3.684  -4.757  1.00  0.00     0.074 A 
ATOM     16  C   UNL     1       5.120   1.742  -5.963  1.00  0.00     0.049 A 
ATOM     17  N   UNL     1       6.966   4.094  -5.605  1.00  0.00    -0.248 NA
ATOM     18  C   UNL     1       5.986   4.491  -3.523  1.00  0.00     0.031 C 
ATOM     19  C   UNL     1       4.366   0.509  -6.133  1.00  0.00     0.029 A 
ATOM     20  N   UNL     1       5.745   1.914  -7.171  1.00  0.00    -0.354 N 
ATOM     21  C   UNL     1       7.627   5.132  -4.964  1.00  0.00     0.074 A 
ATOM     22  C   UNL     1       7.011   5.315  -3.672  1.00  0.00     0.031 C 
ATOM     23  C   UNL     1       4.569   0.023  -7.369  1.00  0.00     0.029 A 
ATOM     24  C   UNL     1       5.453   0.933  -8.090  1.00  0.00     0.049 A 
ATOM     25  H   UNL     1       6.346   2.669  -7.363  1.00  0.00     0.167 HD
ATOM     26  C   UNL     1       8.657   5.875  -5.419  1.00  0.00     0.031 A 
ATOM     27  C   UNL     1       5.848   0.799  -9.371  1.00  0.00     0.031 A 
ATOM     28  C   UNL     1       9.142   5.816  -6.764  1.00  0.00     0.049 A 
ATOM     29  C   UNL     1       6.782   1.828  -9.945  1.00  0.00     0.074 A 
ATOM     30  C   UNL     1      10.080   6.624  -7.376  1.00  0.00     0.029 A 
ATOM     31  N   UNL     1       8.676   4.931  -7.723  1.00  0.00    -0.354 N 
ATOM     32  N   UNL     1       7.405   2.803  -9.325  1.00  0.00    -0.248 NA
ATOM     33  C   UNL     1       7.058   1.751 -11.385  1.00  0.00     0.031 C 
ATOM     34  C   UNL     1      10.133   6.270  -8.728  1.00  0.00     0.029 A 
ATOM     35  C   UNL     1       9.269   5.205  -8.939  1.00  0.00     0.049 A 
ATOM     36  H   UNL     1       8.021   4.214  -7.561  1.00  0.00     0.167 HD
ATOM     37  C   UNL     1       8.165   3.442 -10.296  1.00  0.00     0.074 A 
ATOM     38  C   UNL     1       7.924   2.745 -11.544  1.00  0.00     0.031 C 
ATOM     39  C   UNL     1       8.996   4.503 -10.165  1.00  0.00     0.031 A 
BRANCH  26  40
ATOM     40  C   UNL     1       9.272   6.853  -4.467  1.00  0.00    -0.014 A 
ATOM     41  C   UNL     1      10.267   6.429  -3.570  1.00  0.00     0.010 A 
ATOM     42  C   UNL     1       8.882   8.202  -4.487  1.00  0.00     0.010 A 
ATOM     43  C   UNL     1      10.873   7.347  -2.709  1.00  0.00     0.020 A 
ATOM     44  C   UNL     1       9.489   9.123  -3.631  1.00  0.00     0.020 A 
ATOM     45  C   UNL     1      10.485   8.690  -2.751  1.00  0.00     0.054 A 
BRANCH  45  46
ATOM     46  S   UNL     1      11.317   9.862  -1.647  1.00  0.00     0.124 S 
ATOM     47  O   UNL     1      11.012   9.311  -0.328  1.00  0.00    -0.237 OA
ATOM     48  O   UNL     1      12.711   9.751  -2.068  1.00  0.00    -0.237 OA
ATOM     49  O   UNL     1      10.674  11.139  -1.946  1.00  0.00    -0.744 OA
ENDBRANCH  45  46
ENDBRANCH  26  40
BRANCH  27  50
ATOM     50  C   UNL     1       5.332  -0.315 -10.211  1.00  0.00    -0.014 A 
ATOM     51  C   UNL     1       6.180  -1.352 -10.636  1.00  0.00     0.010 A 
ATOM     52  C   UNL     1       3.983  -0.327 -10.615  1.00  0.00     0.010 A 
ATOM     53  C   UNL     1       5.692  -2.374 -11.457  1.00  0.00     0.020 A 
ATOM     54  C   UNL     1       3.487  -1.356 -11.420  1.00  0.00     0.020 A 
ATOM     55  C   UNL     1       4.347  -2.371 -11.841  1.00  0.00     0.054 A 
BRANCH  55  56
ATOM     56  S   UNL     1       3.738  -3.716 -12.896  1.00  0.00     0.124 S 
ATOM     57  O   UNL     1       4.537  -3.546 -14.105  1.00  0.00    -0.237 OA
ATOM     58  O   UNL     1       4.045  -4.897 -12.093  1.00  0.00    -0.237 OA
ATOM     59  O   UNL     1       2.314  -3.420 -13.041  1.00  0.00    -0.744 OA
ENDBRANCH  55  56
ENDBRANCH  27  50
BRANCH  39  60
ATOM     60  C   UNL     1       9.717   4.975 -11.392  1.00  0.00    -0.014 A 
ATOM     61  C   UNL     1       9.060   5.759 -12.354  1.00  0.00     0.010 A 
ATOM     62  C   UNL     1      11.092   4.715 -11.525  1.00  0.00     0.010 A 
ATOM     63  C   UNL     1       9.771   6.272 -13.440  1.00  0.00     0.020 A 
ATOM     64  C   UNL     1      11.810   5.244 -12.598  1.00  0.00     0.020 A 
ATOM     65  C   UNL     1      11.143   6.018 -13.550  1.00  0.00     0.054 A 
BRANCH  65  66
ATOM     66  S   UNL     1      12.049   6.750 -14.938  1.00  0.00     0.124 S 
ATOM     67  O   UNL     1      11.453   6.070 -16.085  1.00  0.00    -0.237 OA
ATOM     68  O   UNL     1      11.726   8.169 -14.811  1.00  0.00    -0.237 OA
ATOM     69  O   UNL     1      13.442   6.405 -14.666  1.00  0.00    -0.744 OA
ENDBRANCH  65  66
ENDBRANCH  39  60
ENDBRANCH  13  14
ENDBRANCH   6   8
ENDBRANCH   5   6
ENDBRANCH   4   5
ENDBRANCH   3   4
ENDBRANCH   2   3
ENDBRANCH   1   2
BRANCH   1  70
ATOM     70  C   UNL     1       3.317  -2.440   0.528  1.00  0.00     0.188 C 
BRANCH  70  71
ATOM     71  O   UNL     1       4.131  -3.615   0.511  1.00  0.00    -0.376 OA
BRANCH  71  72
ATOM     72  C   UNL     1       5.281  -3.651  -0.332  1.00  0.00     0.202 C 
BRANCH  72  73
ATOM     73  C   UNL     1       5.018  -4.178  -1.747  1.00  0.00     0.261 C 
BRANCH  73  74
ATOM     74  O   UNL     1       4.040  -3.392  -2.454  1.00  0.00    -0.462 OA
BRANCH  74  75
ATOM     75  C   UNL     1       3.257  -4.085  -3.332  1.00  0.00     0.324 C 
ATOM     76  O   UNL     1       3.369  -5.287  -3.549  1.00  0.00    -0.250 OA
BRANCH  75  77
ATOM     77  C   UNL     1       2.227  -3.225  -4.013  1.00  0.00     0.183 C 
ATOM     78  C   UNL     1       2.284  -1.727  -3.749  1.00  0.00     0.034 C 
ATOM     79  N   UNL     1       0.751  -3.521  -4.001  1.00  0.00    -0.184 NA
ATOM     80  C   UNL     1       1.189  -1.207  -4.670  1.00  0.00     0.019 C 
ATOM     81  C   UNL     1       0.193  -2.366  -4.817  1.00  0.00     0.103 C 
BRANCH  79  82
ATOM     82  S   UNL     1      -0.137  -3.702  -2.536  1.00  0.00     0.244 S 
ATOM     83  O   UNL     1       0.226  -2.596  -1.671  1.00  0.00    -0.207 OA
ATOM     84  O   UNL     1      -1.522  -3.855  -2.932  1.00  0.00    -0.207 OA
BRANCH  82  85
ATOM     85  C   UNL     1       0.360  -5.186  -1.677  1.00  0.00     0.090 A 
ATOM     86  C   UNL     1       1.621  -5.131  -1.045  1.00  0.00     0.024 A 
ATOM     87  C   UNL     1      -0.529  -6.260  -1.355  1.00  0.00     0.005 A 
ATOM     88  C   UNL     1       2.128  -6.130  -0.204  1.00  0.00     0.028 A 
ATOM     89  C   UNL     1      -0.004  -7.193  -0.497  1.00  0.00     0.019 A 
ATOM     90  C   UNL     1      -1.882  -6.520  -1.702  1.00  0.00     0.010 A 
ATOM     91  C   UNL     1       1.260  -7.159   0.049  1.00  0.00     0.050 A 
ATOM     92  C   UNL     1      -0.659  -8.287   0.050  1.00  0.00     0.050 A 
ATOM     93  C   UNL     1      -2.587  -7.620  -1.163  1.00  0.00     0.002 A 
ATOM     94  N   UNL     1       1.397  -8.242   0.890  1.00  0.00    -0.321 N 
ATOM     95  C   UNL     1      -1.989  -8.524  -0.272  1.00  0.00     0.014 A 
ATOM     96  C   UNL     1       0.226  -9.001   0.953  1.00  0.00     0.256 C 
ATOM     97  H   UNL     1       2.220  -8.454   1.387  1.00  0.00     0.170 HD
ATOM     98  O   UNL     1       0.079  -9.995   1.649  1.00  0.00    -0.269 OA
ENDBRANCH  82  85
ENDBRANCH  79  82
ENDBRANCH  75  77
ENDBRANCH  74  75
ENDBRANCH  73  74
ENDBRANCH  72  73
ENDBRANCH  71  72
ENDBRANCH  70  71
ENDBRANCH   1  70
TORSDOF 22
