REMARK SMILES Nc1nccc(N2CCC[C@@](Cc3ccc(F)cc3F)(C(=O)OCCOCCOCCOC(=O)c3ccc(-c4c5nc(c(-c6ccc(S(=O)(=O)[O-])cc6)c6ccc([nH]6)c(-c6ccc(S(=O)(=O)[O-])cc6)c6nc(c(-c7ccc(S(=O)(=O)[O-])cc7)c7ccc4[nH]7)C=C6)C=C5)cc3)C2)n1
REMARK SMILES IDX 28 1 27 2 26 3 25 4 24 5 23 6 21 7 22 8 11 9 7 10 8 11 95 12
REMARK SMILES IDX 9 13 10 14 6 15 2 16 3 17 96 18 4 19 5 20 1 21 12 24 13 25
REMARK SMILES IDX 14 26 19 27 15 28 18 29 20 30 16 31 17 32 29 33 30 34 31 35
REMARK SMILES IDX 32 36 33 37 34 38 35 39 36 40 94 41 37 42 93 43 38 44 39 45
REMARK SMILES IDX 40 46 87 47 41 48 92 49 86 50 88 51 42 52 91 53 85 54 84 55
REMARK SMILES IDX 43 57 73 58 54 59 72 60 55 61 58 62 71 63 89 64 56 65 57 66
REMARK SMILES IDX 70 68 90 69 59 70 44 71 45 72 53 73 46 74 52 75 47 76 48 77
REMARK SMILES IDX 49 78 50 79 51 80 74 81 75 82 83 83 76 84 82 85 77 86 78 87
REMARK SMILES IDX 79 88 80 89 81 90 60 91 61 92 69 93 62 94 68 95 63 96 64 97
REMARK SMILES IDX 65 98 66 99 67 100
REMARK H PARENT 1 22 1 23 88 56 58 67
REMARK Flexibility Score: inf
ROOT
ATOM      1  C   UNL     1       1.729  -7.023  -2.070  1.00  0.00     0.188 C 
ENDROOT
BRANCH   1   2
ATOM      2  C   UNL     1       0.653  -6.747  -3.121  1.00  0.00     0.188 C 
BRANCH   2   3
ATOM      3  O   UNL     1       0.860  -7.221  -4.442  1.00  0.00    -0.376 OA
BRANCH   3   4
ATOM      4  C   UNL     1       2.147  -7.085  -5.033  1.00  0.00     0.202 C 
BRANCH   4   5
ATOM      5  C   UNL     1       2.836  -5.712  -5.008  1.00  0.00     0.261 C 
BRANCH   5   6
ATOM      6  O   UNL     1       3.189  -5.189  -3.702  1.00  0.00    -0.463 OA
BRANCH   6   7
ATOM      7  C   UNL     1       2.659  -3.975  -3.403  1.00  0.00     0.314 C 
ATOM      8  O   UNL     1       1.883  -3.389  -4.155  1.00  0.00    -0.252 OA
BRANCH   7   9
ATOM      9  C   UNL     1       3.165  -3.317  -2.108  1.00  0.00     0.090 C 
ATOM     10  N   UNL     1       2.168  -2.084  -0.240  1.00  0.00    -0.355 N 
ATOM     11  C   UNL     1       2.710  -2.888   0.838  1.00  0.00     0.118 C 
ATOM     12  C   UNL     1       1.853  -2.779  -1.478  1.00  0.00     0.137 C 
ATOM     13  C   UNL     1       4.031  -3.484   0.340  1.00  0.00     0.023 C 
ATOM     14  C   UNL     1       3.882  -4.186  -1.029  1.00  0.00     0.023 C 
BRANCH  10  15
ATOM     15  C   UNL     1       1.318  -1.031   0.072  1.00  0.00     0.134 A 
ATOM     16  C   UNL     1      -0.774  -0.103   0.128  1.00  0.00     0.221 A 
ATOM     17  N   UNL     1      -0.303   1.135   0.307  1.00  0.00    -0.222 NA
ATOM     18  N   UNL     1      -0.012  -1.197  -0.004  1.00  0.00    -0.196 NA
ATOM     19  C   UNL     1       1.029   1.263   0.381  1.00  0.00     0.119 A 
ATOM     20  C   UNL     1       1.891   0.204   0.290  1.00  0.00     0.067 A 
BRANCH  16  21
ATOM     21  N   UNL     1      -2.127  -0.245   0.053  1.00  0.00    -0.368 N 
ATOM     22  H   UNL     1      -2.711   0.542   0.147  1.00  0.00     0.159 HD
ATOM     23  H   UNL     1      -2.521  -1.135  -0.095  1.00  0.00     0.159 HD
ENDBRANCH  16  21
ENDBRANCH  10  15
BRANCH   9  24
ATOM     24  C   UNL     1       4.079  -2.130  -2.564  1.00  0.00     0.059 C 
BRANCH  24  25
ATOM     25  C   UNL     1       5.410  -2.583  -3.138  1.00  0.00    -0.011 A 
ATOM     26  C   UNL     1       5.484  -3.139  -4.425  1.00  0.00     0.010 A 
ATOM     27  C   UNL     1       6.573  -2.556  -2.358  1.00  0.00     0.129 A 
ATOM     28  C   UNL     1       6.661  -3.745  -4.864  1.00  0.00     0.040 A 
ATOM     29  C   UNL     1       7.755  -3.140  -2.796  1.00  0.00     0.078 A 
ATOM     30  F   UNL     1       6.553  -1.998  -1.140  1.00  0.00    -0.207 F 
ATOM     31  C   UNL     1       7.780  -3.751  -4.040  1.00  0.00     0.126 A 
ATOM     32  F   UNL     1       8.898  -4.361  -4.453  1.00  0.00    -0.207 F 
ENDBRANCH  24  25
ENDBRANCH   9  24
ENDBRANCH   7   9
ENDBRANCH   6   7
ENDBRANCH   5   6
ENDBRANCH   4   5
ENDBRANCH   3   4
ENDBRANCH   2   3
ENDBRANCH   1   2
BRANCH   1  33
ATOM     33  O   UNL     1       2.825  -7.797  -2.510  1.00  0.00    -0.376 OA
BRANCH  33  34
ATOM     34  C   UNL     1       3.113  -9.000  -1.812  1.00  0.00     0.202 C 
BRANCH  34  35
ATOM     35  C   UNL     1       1.990 -10.049  -1.805  1.00  0.00     0.261 C 
BRANCH  35  36
ATOM     36  O   UNL     1       0.776  -9.636  -1.152  1.00  0.00    -0.460 OA
BRANCH  36  37
ATOM     37  C   UNL     1       0.863  -9.301   0.160  1.00  0.00     0.338 C 
ATOM     38  O   UNL     1       1.835  -9.433   0.884  1.00  0.00    -0.246 OA
BRANCH  37  39
ATOM     39  C   UNL     1      -0.325  -8.471   0.479  1.00  0.00     0.060 A 
ATOM     40  C   UNL     1      -0.128  -7.218   1.081  1.00  0.00     0.016 A 
ATOM     41  C   UNL     1      -1.607  -8.878   0.105  1.00  0.00     0.016 A 
ATOM     42  C   UNL     1      -1.219  -6.383   1.335  1.00  0.00     0.010 A 
ATOM     43  C   UNL     1      -2.699  -8.053   0.381  1.00  0.00     0.010 A 
ATOM     44  C   UNL     1      -2.514  -6.815   1.025  1.00  0.00    -0.014 A 
BRANCH  44  45
ATOM     45  C   UNL     1      -3.689  -6.095   1.574  1.00  0.00     0.031 A 
ATOM     46  C   UNL     1      -4.270  -6.591   2.872  1.00  0.00     0.074 A 
ATOM     47  C   UNL     1      -4.236  -5.036   0.951  1.00  0.00     0.049 A 
ATOM     48  N   UNL     1      -5.316  -6.165   3.531  1.00  0.00    -0.248 NA
ATOM     49  C   UNL     1      -3.576  -7.724   3.507  1.00  0.00     0.031 C 
ATOM     50  C   UNL     1      -3.748  -4.426  -0.284  1.00  0.00     0.029 A 
ATOM     51  N   UNL     1      -5.341  -4.289   1.281  1.00  0.00    -0.354 N 
ATOM     52  C   UNL     1      -5.411  -6.983   4.651  1.00  0.00     0.074 A 
ATOM     53  C   UNL     1      -4.335  -7.946   4.569  1.00  0.00     0.031 C 
ATOM     54  C   UNL     1      -4.556  -3.401  -0.613  1.00  0.00     0.029 A 
ATOM     55  C   UNL     1      -5.634  -3.301   0.372  1.00  0.00     0.049 A 
ATOM     56  H   UNL     1      -5.874  -4.447   2.094  1.00  0.00     0.167 HD
ATOM     57  C   UNL     1      -6.311  -6.940   5.660  1.00  0.00     0.031 A 
ATOM     58  C   UNL     1      -6.663  -2.429   0.332  1.00  0.00     0.031 A 
ATOM     59  C   UNL     1      -7.394  -5.998   5.737  1.00  0.00     0.049 A 
ATOM     60  C   UNL     1      -7.705  -2.456   1.424  1.00  0.00     0.074 A 
ATOM     61  C   UNL     1      -8.344  -5.860   6.733  1.00  0.00     0.029 A 
ATOM     62  N   UNL     1      -7.681  -5.044   4.773  1.00  0.00    -0.354 N 
ATOM     63  N   UNL     1      -7.763  -3.212   2.495  1.00  0.00    -0.248 NA
ATOM     64  C   UNL     1      -8.822  -1.507   1.299  1.00  0.00     0.031 C 
ATOM     65  C   UNL     1      -9.244  -4.864   6.341  1.00  0.00     0.029 A 
ATOM     66  C   UNL     1      -8.816  -4.338   5.133  1.00  0.00     0.049 A 
ATOM     67  H   UNL     1      -7.157  -4.892   3.954  1.00  0.00     0.167 HD
ATOM     68  C   UNL     1      -8.901  -2.805   3.188  1.00  0.00     0.074 A 
ATOM     69  C   UNL     1      -9.497  -1.732   2.419  1.00  0.00     0.031 C 
ATOM     70  C   UNL     1      -9.403  -3.273   4.358  1.00  0.00     0.031 A 
BRANCH  57  71
ATOM     71  C   UNL     1      -6.186  -7.981   6.740  1.00  0.00    -0.014 A 
ATOM     72  C   UNL     1      -5.130  -7.950   7.669  1.00  0.00     0.010 A 
ATOM     73  C   UNL     1      -7.151  -9.000   6.832  1.00  0.00     0.010 A 
ATOM     74  C   UNL     1      -5.019  -8.945   8.644  1.00  0.00     0.020 A 
ATOM     75  C   UNL     1      -7.059  -9.980   7.824  1.00  0.00     0.020 A 
ATOM     76  C   UNL     1      -5.982  -9.956   8.711  1.00  0.00     0.054 A 
BRANCH  76  77
ATOM     77  S   UNL     1      -5.819 -11.229   9.993  1.00  0.00     0.124 S 
ATOM     78  O   UNL     1      -4.700 -12.021   9.488  1.00  0.00    -0.237 OA
ATOM     79  O   UNL     1      -5.542 -10.443  11.192  1.00  0.00    -0.237 OA
ATOM     80  O   UNL     1      -7.115 -11.903   9.979  1.00  0.00    -0.744 OA
ENDBRANCH  76  77
ENDBRANCH  57  71
BRANCH  58  81
ATOM     81  C   UNL     1      -6.774  -1.454  -0.788  1.00  0.00    -0.014 A 
ATOM     82  C   UNL     1      -6.589  -0.079  -0.559  1.00  0.00     0.010 A 
ATOM     83  C   UNL     1      -7.084  -1.893  -2.088  1.00  0.00     0.010 A 
ATOM     84  C   UNL     1      -6.727   0.839  -1.605  1.00  0.00     0.020 A 
ATOM     85  C   UNL     1      -7.197  -0.981  -3.142  1.00  0.00     0.020 A 
ATOM     86  C   UNL     1      -7.028   0.382  -2.891  1.00  0.00     0.054 A 
BRANCH  86  87
ATOM     87  S   UNL     1      -7.157   1.587  -4.241  1.00  0.00     0.124 S 
ATOM     88  O   UNL     1      -8.427   2.241  -3.945  1.00  0.00    -0.237 OA
ATOM     89  O   UNL     1      -5.963   2.405  -4.047  1.00  0.00    -0.237 OA
ATOM     90  O   UNL     1      -7.146   0.756  -5.443  1.00  0.00    -0.744 OA
ENDBRANCH  86  87
ENDBRANCH  58  81
BRANCH  70  91
ATOM     91  C   UNL     1     -10.639  -2.607   4.907  1.00  0.00    -0.014 A 
ATOM     92  C   UNL     1     -11.899  -2.792   4.310  1.00  0.00     0.010 A 
ATOM     93  C   UNL     1     -10.546  -1.830   6.077  1.00  0.00     0.010 A 
ATOM     94  C   UNL     1     -13.035  -2.183   4.852  1.00  0.00     0.020 A 
ATOM     95  C   UNL     1     -11.683  -1.244   6.639  1.00  0.00     0.020 A 
ATOM     96  C   UNL     1     -12.919  -1.412   6.013  1.00  0.00     0.054 A 
BRANCH  96  97
ATOM     97  S   UNL     1     -14.414  -0.663   6.719  1.00  0.00     0.124 S 
ATOM     98  O   UNL     1     -14.679   0.427   5.784  1.00  0.00    -0.237 OA
ATOM     99  O   UNL     1     -15.372  -1.766   6.687  1.00  0.00    -0.237 OA
ATOM    100  O   UNL     1     -13.996  -0.249   8.057  1.00  0.00    -0.744 OA
ENDBRANCH  96  97
ENDBRANCH  70  91
ENDBRANCH  44  45
ENDBRANCH  37  39
ENDBRANCH  36  37
ENDBRANCH  35  36
ENDBRANCH  34  35
ENDBRANCH  33  34
ENDBRANCH   1  33
TORSDOF 24
