REMARK SMILES O=C(CC[N@@H+]1C[C@@H](c2ccccc2)[C@@H]2[C@H]1[C@H]1CC[N@H+]2CC1)OCCOCCOCCOC(=O)c1ccc(-c2c3nc(c(-c4ccc(S(=O)(=O)[O-])cc4)c4ccc([nH]4)c(-c4ccc(S(=O)(=O)[O-])cc4)c4nc(c(-c5ccc(S(=O)(=O)[O-])cc5)c5ccc2[nH]5)C=C4)C=C3)cc1
REMARK SMILES IDX 26 1 25 2 24 3 23 4 22 5 2 6 1 7 3 8 4 9 5 10 6 11 15 12
REMARK SMILES IDX 7 14 14 15 16 16 19 17 17 18 21 19 18 20 20 21 8 23 9 24
REMARK SMILES IDX 13 25 10 26 12 27 11 28 27 29 28 30 29 31 30 32 31 33 32 34
REMARK SMILES IDX 33 35 34 36 35 37 93 38 36 39 92 40 37 41 38 42 39 43 86 44
REMARK SMILES IDX 40 45 91 46 85 47 87 48 41 49 90 50 84 51 83 52 42 54 72 55
REMARK SMILES IDX 53 56 71 57 54 58 57 59 70 60 88 61 55 62 56 63 69 65 89 66
REMARK SMILES IDX 58 67 43 68 44 69 52 70 45 71 51 72 46 73 47 74 48 75 49 76
REMARK SMILES IDX 50 77 73 78 74 79 82 80 75 81 81 82 76 83 77 84 78 85 79 86
REMARK SMILES IDX 80 87 59 88 60 89 68 90 61 91 67 92 62 93 63 94 64 95 65 96
REMARK SMILES IDX 66 97
REMARK H PARENT 5 13 19 22 87 53 57 64
REMARK Flexibility Score: inf
ROOT
ATOM      1  C   UNL     1       2.632   2.043   0.368  1.00  0.00     0.188 C 
ENDROOT
BRANCH   1   2
ATOM      2  O   UNL     1       4.037   1.913   0.325  1.00  0.00    -0.376 OA
BRANCH   2   3
ATOM      3  C   UNL     1       4.587   0.718  -0.205  1.00  0.00     0.202 C 
BRANCH   3   4
ATOM      4  C   UNL     1       3.788  -0.014  -1.276  1.00  0.00     0.261 C 
BRANCH   4   5
ATOM      5  O   UNL     1       2.518  -0.642  -0.955  1.00  0.00    -0.463 OA
BRANCH   5   6
ATOM      6  C   UNL     1       2.140  -1.424   0.078  1.00  0.00     0.311 C 
ATOM      7  O   UNL     1       1.175  -2.175  -0.058  1.00  0.00    -0.252 OA
BRANCH   6   8
ATOM      8  C   UNL     1       2.810  -1.295   1.414  1.00  0.00     0.184 C 
BRANCH   8   9
ATOM      9  C   UNL     1       3.897  -2.317   1.698  1.00  0.00     0.274 C 
BRANCH   9  10
ATOM     10  N   UNL     1       5.004  -2.311   0.721  1.00  0.00    -0.326 N 
ATOM     11  C   UNL     1       4.758  -3.296  -0.389  1.00  0.00     0.277 C 
ATOM     12  C   UNL     1       6.314  -2.603   1.372  1.00  0.00     0.247 C 
ATOM     13  H   UNL     1       5.043  -1.372   0.324  1.00  0.00     0.348 HD
ATOM     14  C   UNL     1       6.050  -3.933  -0.975  1.00  0.00     0.139 C 
ATOM     15  C   UNL     1       7.019  -3.889   0.222  1.00  0.00     0.256 C 
ATOM     16  C   UNL     1       7.546  -1.220   1.511  1.00  0.00     0.065 C 
ATOM     17  N   UNL     1       8.627  -3.873   0.094  1.00  0.00    -0.327 N 
ATOM     18  C   UNL     1       7.726  -1.749   0.236  1.00  0.00     0.071 C 
ATOM     19  C   UNL     1       9.326  -1.187   1.063  1.00  0.00     0.071 C 
ATOM     20  C   UNL     1       8.494  -3.189   1.285  1.00  0.00     0.263 C 
ATOM     21  C   UNL     1       9.667  -2.636  -0.147  1.00  0.00     0.263 C 
ATOM     22  H   UNL     1       8.928  -4.693  -0.431  1.00  0.00     0.348 HD
BRANCH  14  23
ATOM     23  C   UNL     1       6.601  -3.501  -2.333  1.00  0.00    -0.033 A 
ATOM     24  C   UNL     1       6.706  -2.179  -2.791  1.00  0.00     0.004 A 
ATOM     25  C   UNL     1       7.119  -4.505  -3.170  1.00  0.00     0.004 A 
ATOM     26  C   UNL     1       7.373  -1.863  -3.980  1.00  0.00     0.000 A 
ATOM     27  C   UNL     1       7.751  -4.198  -4.379  1.00  0.00     0.000 A 
ATOM     28  C   UNL     1       7.900  -2.874  -4.773  1.00  0.00     0.000 A 
ENDBRANCH  14  23
ENDBRANCH   9  10
ENDBRANCH   8   9
ENDBRANCH   6   8
ENDBRANCH   5   6
ENDBRANCH   4   5
ENDBRANCH   3   4
ENDBRANCH   2   3
ENDBRANCH   1   2
BRANCH   1  29
ATOM     29  C   UNL     1       2.022   2.949  -0.708  1.00  0.00     0.188 C 
BRANCH  29  30
ATOM     30  O   UNL     1       2.813   3.348  -1.816  1.00  0.00    -0.376 OA
BRANCH  30  31
ATOM     31  C   UNL     1       4.105   3.900  -1.588  1.00  0.00     0.202 C 
BRANCH  31  32
ATOM     32  C   UNL     1       4.313   5.006  -0.536  1.00  0.00     0.261 C 
BRANCH  32  33
ATOM     33  O   UNL     1       3.954   4.668   0.818  1.00  0.00    -0.460 OA
BRANCH  33  34
ATOM     34  C   UNL     1       2.894   5.330   1.335  1.00  0.00     0.338 C 
ATOM     35  O   UNL     1       2.204   6.170   0.763  1.00  0.00    -0.246 OA
BRANCH  34  36
ATOM     36  C   UNL     1       2.540   4.801   2.667  1.00  0.00     0.060 A 
ATOM     37  C   UNL     1       1.283   4.200   2.840  1.00  0.00     0.016 A 
ATOM     38  C   UNL     1       3.390   4.973   3.760  1.00  0.00     0.016 A 
ATOM     39  C   UNL     1       0.867   3.780   4.104  1.00  0.00     0.010 A 
ATOM     40  C   UNL     1       2.955   4.590   5.035  1.00  0.00     0.010 A 
ATOM     41  C   UNL     1       1.679   4.021   5.218  1.00  0.00    -0.014 A 
BRANCH  41  42
ATOM     42  C   UNL     1       1.112   3.885   6.584  1.00  0.00     0.031 A 
ATOM     43  C   UNL     1       0.550   5.115   7.248  1.00  0.00     0.074 A 
ATOM     44  C   UNL     1       1.076   2.701   7.223  1.00  0.00     0.049 A 
ATOM     45  N   UNL     1       0.054   5.257   8.450  1.00  0.00    -0.248 NA
ATOM     46  C   UNL     1       0.551   6.350   6.446  1.00  0.00     0.031 C 
ATOM     47  C   UNL     1       1.533   1.426   6.674  1.00  0.00     0.029 A 
ATOM     48  N   UNL     1       0.640   2.387   8.488  1.00  0.00    -0.354 N 
ATOM     49  C   UNL     1      -0.302   6.597   8.554  1.00  0.00     0.074 A 
ATOM     50  C   UNL     1       0.054   7.229   7.303  1.00  0.00     0.031 C 
ATOM     51  C   UNL     1       1.369   0.469   7.605  1.00  0.00     0.029 A 
ATOM     52  C   UNL     1       0.828   1.068   8.825  1.00  0.00     0.049 A 
ATOM     53  H   UNL     1       0.230   3.045   9.095  1.00  0.00     0.167 HD
ATOM     54  C   UNL     1      -0.874   7.244   9.597  1.00  0.00     0.031 A 
ATOM     55  C   UNL     1       0.615   0.423   9.991  1.00  0.00     0.031 A 
ATOM     56  C   UNL     1      -1.212   6.620  10.848  1.00  0.00     0.049 A 
ATOM     57  C   UNL     1       0.051   1.182  11.167  1.00  0.00     0.074 A 
ATOM     58  C   UNL     1      -1.810   7.190  11.958  1.00  0.00     0.029 A 
ATOM     59  N   UNL     1      -0.972   5.290  11.161  1.00  0.00    -0.354 N 
ATOM     60  N   UNL     1      -0.303   2.443  11.244  1.00  0.00    -0.248 NA
ATOM     61  C   UNL     1      -0.150   0.426  12.413  1.00  0.00     0.031 C 
ATOM     62  C   UNL     1      -1.870   6.223  12.966  1.00  0.00     0.029 A 
ATOM     63  C   UNL     1      -1.379   5.030  12.459  1.00  0.00     0.049 A 
ATOM     64  H   UNL     1      -0.572   4.630  10.551  1.00  0.00     0.167 HD
ATOM     65  C   UNL     1      -0.796   2.623  12.533  1.00  0.00     0.074 A 
ATOM     66  C   UNL     1      -0.706   1.339  13.198  1.00  0.00     0.031 C 
ATOM     67  C   UNL     1      -1.284   3.748  13.113  1.00  0.00     0.031 A 
BRANCH  54  68
ATOM     68  C   UNL     1      -1.129   8.721   9.444  1.00  0.00    -0.014 A 
ATOM     69  C   UNL     1      -2.126   9.209   8.580  1.00  0.00     0.010 A 
ATOM     70  C   UNL     1      -0.381   9.635  10.210  1.00  0.00     0.010 A 
ATOM     71  C   UNL     1      -2.344  10.584   8.457  1.00  0.00     0.020 A 
ATOM     72  C   UNL     1      -0.617  11.008  10.113  1.00  0.00     0.020 A 
ATOM     73  C   UNL     1      -1.588  11.475   9.225  1.00  0.00     0.054 A 
BRANCH  73  74
ATOM     74  S   UNL     1      -1.912  13.252   9.066  1.00  0.00     0.124 S 
ATOM     75  O   UNL     1      -1.377  13.539   7.737  1.00  0.00    -0.237 OA
ATOM     76  O   UNL     1      -3.366  13.323   9.186  1.00  0.00    -0.237 OA
ATOM     77  O   UNL     1      -1.168  13.842  10.176  1.00  0.00    -0.744 OA
ENDBRANCH  73  74
ENDBRANCH  54  68
BRANCH  55  78
ATOM     78  C   UNL     1       0.962  -1.020  10.118  1.00  0.00    -0.014 A 
ATOM     79  C   UNL     1      -0.041  -1.994  10.270  1.00  0.00     0.010 A 
ATOM     80  C   UNL     1       2.309  -1.428  10.090  1.00  0.00     0.010 A 
ATOM     81  C   UNL     1       0.296  -3.345  10.401  1.00  0.00     0.020 A 
ATOM     82  C   UNL     1       2.648  -2.780  10.191  1.00  0.00     0.020 A 
ATOM     83  C   UNL     1       1.639  -3.730  10.354  1.00  0.00     0.054 A 
BRANCH  83  84
ATOM     84  S   UNL     1       2.049  -5.495  10.458  1.00  0.00     0.124 S 
ATOM     85  O   UNL     1       1.772  -5.790  11.860  1.00  0.00    -0.237 OA
ATOM     86  O   UNL     1       1.129  -6.088   9.491  1.00  0.00    -0.237 OA
ATOM     87  O   UNL     1       3.458  -5.541  10.074  1.00  0.00    -0.744 OA
ENDBRANCH  83  84
ENDBRANCH  55  78
BRANCH  67  88
ATOM     88  C   UNL     1      -1.801   3.645  14.526  1.00  0.00    -0.014 A 
ATOM     89  C   UNL     1      -0.931   3.468  15.616  1.00  0.00     0.010 A 
ATOM     90  C   UNL     1      -3.180   3.794  14.770  1.00  0.00     0.010 A 
ATOM     91  C   UNL     1      -1.433   3.410  16.920  1.00  0.00     0.020 A 
ATOM     92  C   UNL     1      -3.682   3.768  16.074  1.00  0.00     0.020 A 
ATOM     93  C   UNL     1      -2.806   3.561  17.140  1.00  0.00     0.054 A 
BRANCH  93  94
ATOM     94  S   UNL     1      -3.427   3.526  18.845  1.00  0.00     0.124 S 
ATOM     95  O   UNL     1      -3.288   2.114  19.190  1.00  0.00    -0.237 OA
ATOM     96  O   UNL     1      -2.515   4.434  19.536  1.00  0.00    -0.237 OA
ATOM     97  O   UNL     1      -4.802   4.005  18.725  1.00  0.00    -0.744 OA
ENDBRANCH  93  94
ENDBRANCH  67  88
ENDBRANCH  41  42
ENDBRANCH  34  36
ENDBRANCH  33  34
ENDBRANCH  32  33
ENDBRANCH  31  32
ENDBRANCH  30  31
ENDBRANCH  29  30
ENDBRANCH   1  29
TORSDOF 23
