REMARK SMILES O=C(OCCOCCOCCOC(=O)[C@@H]1CCCC[C@H]1C(=O)Nc1ccc(NC(=O)c2ccco2)cc1)c1ccc(-c2c3nc(c(-c4ccc(S(=O)(=O)[O-])cc4)c4ccc([nH]4)c(-c4ccc(S(=O)(=O)[O-])cc4)c4nc(c(-c5ccc(S(=O)(=O)[O-])cc5)c5ccc2[nH]5)C=C4)C=C3)cc1
REMARK SMILES IDX 8 1 7 2 6 3 5 4 4 5 3 6 2 7 1 8 38 9 39 10 97 11 40 12 96 13
REMARK SMILES IDX 41 14 42 15 43 16 90 17 44 18 95 19 89 20 91 21 45 22 94 23
REMARK SMILES IDX 88 24 87 25 46 27 76 28 57 29 75 30 58 31 61 32 74 33 92 34
REMARK SMILES IDX 59 35 60 36 73 38 93 39 62 40 47 41 48 42 56 43 49 44 55 45
REMARK SMILES IDX 50 46 51 47 52 48 53 49 54 50 77 51 78 52 86 53 79 54 85 55
REMARK SMILES IDX 80 56 81 57 82 58 83 59 84 60 63 61 64 62 72 63 65 64 71 65
REMARK SMILES IDX 66 66 67 67 68 68 69 69 70 70 9 71 10 72 11 73 12 74 13 75
REMARK SMILES IDX 14 76 15 77 16 78 20 79 17 80 19 81 18 82 21 83 22 84 23 85
REMARK SMILES IDX 24 87 25 88 37 89 26 90 36 91 27 92 28 93 29 94 30 96 31 97
REMARK SMILES IDX 32 98 35 99 33 100 34 101
REMARK H PARENT 91 26 61 37 23 86 28 95
REMARK Flexibility Score: inf
ROOT
ATOM      1  C   UNL     1       1.884  -0.702   2.957  1.00  0.00     0.188 C 
ENDROOT
BRANCH   1   2
ATOM      2  C   UNL     1       2.575   0.266   1.994  1.00  0.00     0.188 C 
BRANCH   2   3
ATOM      3  O   UNL     1       3.920  -0.141   1.700  1.00  0.00    -0.376 OA
BRANCH   3   4
ATOM      4  C   UNL     1       4.815   0.964   1.529  1.00  0.00     0.202 C 
BRANCH   4   5
ATOM      5  C   UNL     1       4.808   1.585   0.125  1.00  0.00     0.261 C 
BRANCH   5   6
ATOM      6  O   UNL     1       3.562   1.391  -0.557  1.00  0.00    -0.460 OA
BRANCH   6   7
ATOM      7  C   UNL     1       3.227   0.363  -1.375  1.00  0.00     0.338 C 
ATOM      8  O   UNL     1       2.086   0.335  -1.837  1.00  0.00    -0.246 OA
BRANCH   7   9
ATOM      9  C   UNL     1       4.176  -0.720  -1.786  1.00  0.00     0.060 A 
ATOM     10  C   UNL     1       5.239  -1.226  -1.028  1.00  0.00     0.016 A 
ATOM     11  C   UNL     1       3.899  -1.348  -3.003  1.00  0.00     0.016 A 
ATOM     12  C   UNL     1       6.056  -2.270  -1.491  1.00  0.00     0.010 A 
ATOM     13  C   UNL     1       4.642  -2.457  -3.416  1.00  0.00     0.010 A 
ATOM     14  C   UNL     1       5.748  -2.922  -2.678  1.00  0.00    -0.014 A 
BRANCH  14  15
ATOM     15  C   UNL     1       6.542  -4.053  -3.238  1.00  0.00     0.031 A 
ATOM     16  C   UNL     1       7.010  -3.917  -4.656  1.00  0.00     0.074 A 
ATOM     17  C   UNL     1       6.719  -5.225  -2.590  1.00  0.00     0.049 A 
ATOM     18  N   UNL     1       7.392  -4.841  -5.490  1.00  0.00    -0.248 NA
ATOM     19  C   UNL     1       7.068  -2.545  -5.196  1.00  0.00     0.031 C 
ATOM     20  C   UNL     1       6.504  -5.485  -1.172  1.00  0.00     0.029 A 
ATOM     21  N   UNL     1       6.980  -6.481  -3.099  1.00  0.00    -0.354 N 
ATOM     22  C   UNL     1       7.763  -4.161  -6.639  1.00  0.00     0.074 A 
ATOM     23  C   UNL     1       7.451  -2.765  -6.443  1.00  0.00     0.031 C 
ATOM     24  C   UNL     1       6.386  -6.809  -0.968  1.00  0.00     0.029 A 
ATOM     25  C   UNL     1       6.561  -7.483  -2.241  1.00  0.00     0.049 A 
ATOM     26  H   UNL     1       7.413  -6.644  -3.969  1.00  0.00     0.167 HD
ATOM     27  C   UNL     1       8.386  -4.656  -7.731  1.00  0.00     0.031 A 
ATOM     28  C   UNL     1       6.270  -8.775  -2.489  1.00  0.00     0.031 A 
ATOM     29  C   UNL     1       8.701  -6.045  -7.887  1.00  0.00     0.049 A 
ATOM     30  C   UNL     1       6.710  -9.337  -3.805  1.00  0.00     0.074 A 
ATOM     31  C   UNL     1       9.421  -6.667  -8.888  1.00  0.00     0.029 A 
ATOM     32  N   UNL     1       8.290  -7.036  -7.007  1.00  0.00    -0.354 N 
ATOM     33  N   UNL     1       7.210  -8.696  -4.833  1.00  0.00    -0.248 NA
ATOM     34  C   UNL     1       6.655 -10.795  -3.961  1.00  0.00     0.031 C 
ATOM     35  C   UNL     1       9.383  -8.046  -8.649  1.00  0.00     0.029 A 
ATOM     36  C   UNL     1       8.665  -8.275  -7.485  1.00  0.00     0.049 A 
ATOM     37  H   UNL     1       7.803  -6.878  -6.166  1.00  0.00     0.167 HD
ATOM     38  C   UNL     1       7.641  -9.679  -5.710  1.00  0.00     0.074 A 
ATOM     39  C   UNL     1       7.279 -10.954  -5.121  1.00  0.00     0.031 C 
ATOM     40  C   UNL     1       8.320  -9.531  -6.871  1.00  0.00     0.031 A 
BRANCH  27  41
ATOM     41  C   UNL     1       8.794  -3.673  -8.786  1.00  0.00    -0.014 A 
ATOM     42  C   UNL     1       9.831  -2.755  -8.534  1.00  0.00     0.010 A 
ATOM     43  C   UNL     1       8.144  -3.656 -10.030  1.00  0.00     0.010 A 
ATOM     44  C   UNL     1      10.191  -1.814  -9.498  1.00  0.00     0.020 A 
ATOM     45  C   UNL     1       8.520  -2.730 -11.008  1.00  0.00     0.020 A 
ATOM     46  C   UNL     1       9.533  -1.808 -10.730  1.00  0.00     0.054 A 
BRANCH  46  47
ATOM     47  S   UNL     1      10.057  -0.604 -11.979  1.00  0.00     0.124 S 
ATOM     48  O   UNL     1       9.509   0.641 -11.447  1.00  0.00    -0.237 OA
ATOM     49  O   UNL     1      11.513  -0.716 -11.938  1.00  0.00    -0.237 OA
ATOM     50  O   UNL     1       9.433  -1.085 -13.209  1.00  0.00    -0.744 OA
ENDBRANCH  46  47
ENDBRANCH  27  41
BRANCH  28  51
ATOM     51  C   UNL     1       5.513  -9.615  -1.519  1.00  0.00    -0.014 A 
ATOM     52  C   UNL     1       6.155 -10.539  -0.679  1.00  0.00     0.010 A 
ATOM     53  C   UNL     1       4.106  -9.546  -1.500  1.00  0.00     0.010 A 
ATOM     54  C   UNL     1       5.405 -11.402   0.132  1.00  0.00     0.020 A 
ATOM     55  C   UNL     1       3.353 -10.393  -0.678  1.00  0.00     0.020 A 
ATOM     56  C   UNL     1       4.008 -11.330   0.121  1.00  0.00     0.054 A 
BRANCH  56  57
ATOM     57  S   UNL     1       3.059 -12.479   1.161  1.00  0.00     0.124 S 
ATOM     58  O   UNL     1       3.271 -13.751   0.478  1.00  0.00    -0.237 OA
ATOM     59  O   UNL     1       3.712 -12.339   2.459  1.00  0.00    -0.237 OA
ATOM     60  O   UNL     1       1.697 -11.953   1.095  1.00  0.00    -0.744 OA
ENDBRANCH  56  57
ENDBRANCH  28  51
BRANCH  40  61
ATOM     61  C   UNL     1       8.786 -10.780  -7.550  1.00  0.00    -0.014 A 
ATOM     62  C   UNL     1       7.890 -11.592  -8.261  1.00  0.00     0.010 A 
ATOM     63  C   UNL     1      10.155 -11.102  -7.525  1.00  0.00     0.010 A 
ATOM     64  C   UNL     1       8.357 -12.722  -8.932  1.00  0.00     0.020 A 
ATOM     65  C   UNL     1      10.628 -12.215  -8.217  1.00  0.00     0.020 A 
ATOM     66  C   UNL     1       9.723 -13.023  -8.909  1.00  0.00     0.054 A 
BRANCH  66  67
ATOM     67  S   UNL     1      10.314 -14.453  -9.850  1.00  0.00     0.124 S 
ATOM     68  O   UNL     1       9.909 -15.565  -8.995  1.00  0.00    -0.237 OA
ATOM     69  O   UNL     1       9.586 -14.330 -11.111  1.00  0.00    -0.237 OA
ATOM     70  O   UNL     1      11.755 -14.231  -9.946  1.00  0.00    -0.744 OA
ENDBRANCH  66  67
ENDBRANCH  40  61
ENDBRANCH  14  15
ENDBRANCH   7   9
ENDBRANCH   6   7
ENDBRANCH   5   6
ENDBRANCH   4   5
ENDBRANCH   3   4
ENDBRANCH   2   3
ENDBRANCH   1   2
BRANCH   1  71
ATOM     71  O   UNL     1       2.356  -0.681   4.308  1.00  0.00    -0.376 OA
BRANCH  71  72
ATOM     72  C   UNL     1       3.707  -1.079   4.529  1.00  0.00     0.202 C 
BRANCH  72  73
ATOM     73  C   UNL     1       4.015  -2.579   4.455  1.00  0.00     0.261 C 
BRANCH  73  74
ATOM     74  O   UNL     1       3.425  -3.231   3.326  1.00  0.00    -0.463 OA
BRANCH  74  75
ATOM     75  C   UNL     1       2.360  -4.052   3.579  1.00  0.00     0.309 C 
ATOM     76  O   UNL     1       1.870  -4.257   4.677  1.00  0.00    -0.252 OA
BRANCH  75  77
ATOM     77  C   UNL     1       1.873  -4.664   2.267  1.00  0.00     0.111 C 
ATOM     78  C   UNL     1       0.394  -5.024   2.317  1.00  0.00     0.016 C 
ATOM     79  C   UNL     1       2.825  -5.822   1.892  1.00  0.00     0.093 C 
ATOM     80  C   UNL     1       0.005  -5.904   1.140  1.00  0.00     0.001 C 
ATOM     81  C   UNL     1       2.261  -7.037   1.150  1.00  0.00     0.014 C 
ATOM     82  C   UNL     1       0.753  -7.221   1.224  1.00  0.00     0.001 C 
BRANCH  79  83
ATOM     83  C   UNL     1       3.992  -5.167   1.164  1.00  0.00     0.228 C 
ATOM     84  O   UNL     1       5.114  -5.137   1.677  1.00  0.00    -0.274 OA
ATOM     85  N   UNL     1       3.740  -4.389   0.063  1.00  0.00    -0.326 N 
ATOM     86  H   UNL     1       4.223  -3.532   0.035  1.00  0.00     0.169 HD
BRANCH  85  87
ATOM     87  C   UNL     1       2.897  -4.635  -1.030  1.00  0.00     0.041 A 
ATOM     88  C   UNL     1       3.209  -5.657  -1.917  1.00  0.00     0.028 A 
ATOM     89  C   UNL     1       1.993  -3.659  -1.427  1.00  0.00     0.028 A 
ATOM     90  C   UNL     1       2.700  -5.671  -3.217  1.00  0.00     0.028 A 
ATOM     91  C   UNL     1       1.420  -3.717  -2.705  1.00  0.00     0.028 A 
ATOM     92  C   UNL     1       1.820  -4.687  -3.639  1.00  0.00     0.041 A 
BRANCH  92  93
ATOM     93  N   UNL     1       1.317  -4.545  -4.941  1.00  0.00    -0.319 N 
ATOM     94  C   UNL     1       1.649  -5.046  -6.184  1.00  0.00     0.291 C 
ATOM     95  H   UNL     1       0.540  -3.943  -4.976  1.00  0.00     0.170 HD
ATOM     96  O   UNL     1       0.951  -4.630  -7.117  1.00  0.00    -0.265 OA
BRANCH  94  97
ATOM     97  C   UNL     1       2.774  -5.920  -6.409  1.00  0.00     0.191 A 
ATOM     98  C   UNL     1       3.005  -7.257  -6.140  1.00  0.00     0.056 A 
ATOM     99  O   UNL     1       3.815  -5.427  -7.152  1.00  0.00    -0.459 OA
ATOM    100  C   UNL     1       4.277  -7.571  -6.679  1.00  0.00     0.043 A 
ATOM    101  C   UNL     1       4.714  -6.432  -7.310  1.00  0.00     0.196 A 
ENDBRANCH  94  97
ENDBRANCH  92  93
ENDBRANCH  85  87
ENDBRANCH  79  83
ENDBRANCH  75  77
ENDBRANCH  74  75
ENDBRANCH  73  74
ENDBRANCH  72  73
ENDBRANCH  71  72
ENDBRANCH   1  71
TORSDOF 24
