REMARK SMILES O=C(N[C@@H](Cc1ccccc1)C(=O)N[C@@H](CS)C(=O)N[C@@H](CO)C(=O)OCCOCCOCCOC(=O)c1ccc(-c2c3nc(c(-c4ccc(S(=O)(=O)[O-])cc4)c4ccc([nH]4)c(-c4ccc(S(=O)(=O)[O-])cc4)c4nc(c(-c5ccc(S(=O)(=O)[O-])cc5)c5ccc2[nH]5)C=C4)C=C3)cc1)c1ccc(F)cc1
REMARK SMILES IDX 29 1 28 2 27 3 26 4 24 5 25 6 21 7 20 8 18 9 19 10 15 12
REMARK SMILES IDX 14 13 12 14 13 15 4 17 3 18 1 19 2 20 98 22 99 23 104 24
REMARK SMILES IDX 100 25 103 26 101 27 102 28 5 29 6 30 7 31 11 32 8 33 10 34
REMARK SMILES IDX 9 35 16 36 17 37 22 39 23 40 30 42 31 43 32 44 33 45 34 46
REMARK SMILES IDX 35 47 36 48 37 49 38 50 39 51 97 52 40 53 96 54 41 55 42 56
REMARK SMILES IDX 43 57 90 58 44 59 95 60 89 61 91 62 45 63 94 64 88 65 87 66
REMARK SMILES IDX 46 68 76 69 57 70 75 71 58 72 61 73 74 74 92 75 59 76 60 77
REMARK SMILES IDX 73 79 93 80 62 81 47 82 48 83 56 84 49 85 55 86 50 87 51 88
REMARK SMILES IDX 52 89 53 90 54 91 77 92 78 93 86 94 79 95 85 96 80 97 81 98
REMARK SMILES IDX 82 99 83 100 84 101 63 102 64 103 72 104 65 105 71 106
REMARK SMILES IDX 66 107 67 108 68 109 69 110 70 111
REMARK H PARENT 20 11 14 16 3 21 17 38 23 41 91 67 61 78
REMARK Flexibility Score: inf
ROOT
ATOM      1  O   UNL     1       1.680   9.415  -1.497  1.00  0.00    -0.376 OA
ENDROOT
BRANCH   1   2
ATOM      2  C   UNL     1       2.673  10.393  -1.751  1.00  0.00     0.202 C 
BRANCH   2   3
ATOM      3  C   UNL     1       4.023  10.182  -1.063  1.00  0.00     0.261 C 
BRANCH   3   4
ATOM      4  O   UNL     1       4.482   8.818  -1.088  1.00  0.00    -0.462 OA
BRANCH   4   5
ATOM      5  C   UNL     1       4.979   8.331   0.088  1.00  0.00     0.331 C 
ATOM      6  O   UNL     1       5.064   8.972   1.129  1.00  0.00    -0.250 OA
BRANCH   5   7
ATOM      7  C   UNL     1       5.576   6.913  -0.071  1.00  0.00     0.218 C 
BRANCH   7   8
ATOM      8  N   UNL     1       5.155   6.244  -1.310  1.00  0.00    -0.339 N 
ATOM      9  C   UNL     1       4.235   5.271  -1.530  1.00  0.00     0.244 C 
ATOM     10  O   UNL     1       3.584   5.384  -2.573  1.00  0.00    -0.273 OA
ATOM     11  H   UNL     1       5.621   6.554  -2.120  1.00  0.00     0.164 HD
BRANCH   9  12
ATOM     12  C   UNL     1       3.887   4.117  -0.571  1.00  0.00     0.181 C 
BRANCH  12  13
ATOM     13  N   UNL     1       5.019   3.530   0.135  1.00  0.00    -0.342 N 
ATOM     14  C   UNL     1       5.570   2.287   0.005  1.00  0.00     0.243 C 
ATOM     15  O   UNL     1       6.713   2.155   0.462  1.00  0.00    -0.273 OA
ATOM     16  H   UNL     1       5.448   4.113   0.801  1.00  0.00     0.164 HD
BRANCH  14  17
ATOM     17  C   UNL     1       4.910   1.101  -0.759  1.00  0.00     0.176 C 
BRANCH  17  18
ATOM     18  N   UNL     1       3.454   0.980  -0.642  1.00  0.00    -0.340 N 
ATOM     19  O   UNL     1       1.469   0.084  -0.150  1.00  0.00    -0.269 OA
ATOM     20  C   UNL     1       2.688   0.021  -0.029  1.00  0.00     0.251 C 
ATOM     21  H   UNL     1       2.944   1.703  -1.073  1.00  0.00     0.164 HD
BRANCH  20  22
ATOM     22  C   UNL     1       3.311  -1.129   0.665  1.00  0.00     0.040 A 
ATOM     23  C   UNL     1       4.296  -0.963   1.646  1.00  0.00     0.017 A 
ATOM     24  C   UNL     1       2.904  -2.417   0.289  1.00  0.00     0.017 A 
ATOM     25  C   UNL     1       4.946  -2.083   2.169  1.00  0.00     0.040 A 
ATOM     26  C   UNL     1       3.544  -3.535   0.828  1.00  0.00     0.040 A 
ATOM     27  C   UNL     1       4.574  -3.356   1.746  1.00  0.00     0.123 A 
ATOM     28  F   UNL     1       5.224  -4.425   2.225  1.00  0.00    -0.207 F 
ENDBRANCH  20  22
ENDBRANCH  17  18
BRANCH  17  29
ATOM     29  C   UNL     1       5.423   0.909  -2.197  1.00  0.00     0.070 C 
BRANCH  29  30
ATOM     30  C   UNL     1       5.102   1.972  -3.216  1.00  0.00    -0.045 A 
ATOM     31  C   UNL     1       6.058   2.950  -3.532  1.00  0.00     0.004 A 
ATOM     32  C   UNL     1       3.885   1.962  -3.911  1.00  0.00     0.004 A 
ATOM     33  C   UNL     1       5.804   3.892  -4.530  1.00  0.00     0.000 A 
ATOM     34  C   UNL     1       3.631   2.910  -4.904  1.00  0.00     0.000 A 
ATOM     35  C   UNL     1       4.590   3.873  -5.214  1.00  0.00     0.000 A 
ENDBRANCH  29  30
ENDBRANCH  17  29
ENDBRANCH  14  17
ENDBRANCH  12  13
BRANCH  12  36
ATOM     36  C   UNL     1       2.639   4.369   0.286  1.00  0.00     0.101 C 
BRANCH  36  37
ATOM     37  S   UNL     1       2.789   5.606   1.605  1.00  0.00    -0.177 SA
ATOM     38  H   UNL     1       3.702   5.184   2.520  1.00  0.00     0.102 HD
ENDBRANCH  36  37
ENDBRANCH  12  36
ENDBRANCH   9  12
ENDBRANCH   7   8
BRANCH   7  39
ATOM     39  C   UNL     1       7.100   7.074  -0.027  1.00  0.00     0.193 C 
BRANCH  39  40
ATOM     40  O   UNL     1       7.602   7.650  -1.236  1.00  0.00    -0.394 OA
ATOM     41  H   UNL     1       7.389   7.070  -1.983  1.00  0.00     0.210 HD
ENDBRANCH  39  40
ENDBRANCH   7  39
ENDBRANCH   5   7
ENDBRANCH   4   5
ENDBRANCH   3   4
ENDBRANCH   2   3
ENDBRANCH   1   2
BRANCH   1  42
ATOM     42  C   UNL     1       1.842   8.120  -2.074  1.00  0.00     0.188 C 
BRANCH  42  43
ATOM     43  C   UNL     1       2.628   7.962  -3.388  1.00  0.00     0.188 C 
BRANCH  43  44
ATOM     44  O   UNL     1       2.381   9.000  -4.332  1.00  0.00    -0.376 OA
BRANCH  44  45
ATOM     45  C   UNL     1       1.985   8.523  -5.612  1.00  0.00     0.202 C 
BRANCH  45  46
ATOM     46  C   UNL     1       0.460   8.436  -5.686  1.00  0.00     0.261 C 
BRANCH  46  47
ATOM     47  O   UNL     1      -0.122   7.528  -4.729  1.00  0.00    -0.460 OA
BRANCH  47  48
ATOM     48  C   UNL     1       0.089   6.216  -4.958  1.00  0.00     0.338 C 
ATOM     49  O   UNL     1       0.718   5.732  -5.894  1.00  0.00    -0.246 OA
BRANCH  48  50
ATOM     50  C   UNL     1      -0.454   5.422  -3.838  1.00  0.00     0.060 A 
ATOM     51  C   UNL     1       0.392   4.514  -3.193  1.00  0.00     0.016 A 
ATOM     52  C   UNL     1      -1.803   5.500  -3.481  1.00  0.00     0.016 A 
ATOM     53  C   UNL     1      -0.117   3.645  -2.225  1.00  0.00     0.010 A 
ATOM     54  C   UNL     1      -2.314   4.622  -2.514  1.00  0.00     0.010 A 
ATOM     55  C   UNL     1      -1.480   3.666  -1.905  1.00  0.00    -0.014 A 
BRANCH  55  56
ATOM     56  C   UNL     1      -2.061   2.546  -1.117  1.00  0.00     0.031 A 
ATOM     57  C   UNL     1      -2.679   1.395  -1.871  1.00  0.00     0.074 A 
ATOM     58  C   UNL     1      -2.000   2.506   0.228  1.00  0.00     0.049 A 
ATOM     59  N   UNL     1      -3.304   0.340  -1.415  1.00  0.00    -0.248 NA
ATOM     60  C   UNL     1      -2.577   1.444  -3.340  1.00  0.00     0.031 C 
ATOM     61  C   UNL     1      -1.363   3.507   1.083  1.00  0.00     0.029 A 
ATOM     62  N   UNL     1      -2.484   1.571   1.112  1.00  0.00    -0.354 N 
ATOM     63  C   UNL     1      -3.682  -0.389  -2.536  1.00  0.00     0.074 A 
ATOM     64  C   UNL     1      -3.229   0.348  -3.696  1.00  0.00     0.031 C 
ATOM     65  C   UNL     1      -1.494   3.128   2.368  1.00  0.00     0.029 A 
ATOM     66  C   UNL     1      -2.259   1.883   2.432  1.00  0.00     0.049 A 
ATOM     67  H   UNL     1      -2.950   0.752   0.825  1.00  0.00     0.167 HD
ATOM     68  C   UNL     1      -4.348  -1.565  -2.600  1.00  0.00     0.031 A 
ATOM     69  C   UNL     1      -2.648   1.250   3.559  1.00  0.00     0.031 A 
ATOM     70  C   UNL     1      -4.795  -2.308  -1.454  1.00  0.00     0.049 A 
ATOM     71  C   UNL     1      -3.455  -0.025   3.459  1.00  0.00     0.074 A 
ATOM     72  C   UNL     1      -5.501  -3.499  -1.424  1.00  0.00     0.029 A 
ATOM     73  N   UNL     1      -4.576  -1.939  -0.137  1.00  0.00    -0.354 N 
ATOM     74  N   UNL     1      -3.829  -0.688   2.390  1.00  0.00    -0.248 NA
ATOM     75  C   UNL     1      -3.893  -0.638   4.724  1.00  0.00     0.031 C 
ATOM     76  C   UNL     1      -5.749  -3.826  -0.087  1.00  0.00     0.029 A 
ATOM     77  C   UNL     1      -5.145  -2.871   0.714  1.00  0.00     0.049 A 
ATOM     78  H   UNL     1      -4.087  -1.134   0.151  1.00  0.00     0.167 HD
ATOM     79  C   UNL     1      -4.506  -1.813   2.857  1.00  0.00     0.074 A 
ATOM     80  C   UNL     1      -4.484  -1.747   4.301  1.00  0.00     0.031 C 
ATOM     81  C   UNL     1      -5.093  -2.812   2.151  1.00  0.00     0.031 A 
BRANCH  68  82
ATOM     82  C   UNL     1      -4.682  -2.102  -3.964  1.00  0.00    -0.014 A 
ATOM     83  C   UNL     1      -3.700  -2.691  -4.780  1.00  0.00     0.010 A 
ATOM     84  C   UNL     1      -6.015  -2.060  -4.412  1.00  0.00     0.010 A 
ATOM     85  C   UNL     1      -4.044  -3.210  -6.031  1.00  0.00     0.020 A 
ATOM     86  C   UNL     1      -6.366  -2.600  -5.651  1.00  0.00     0.020 A 
ATOM     87  C   UNL     1      -5.376  -3.162  -6.458  1.00  0.00     0.054 A 
BRANCH  87  88
ATOM     88  S   UNL     1      -5.802  -3.882  -8.067  1.00  0.00     0.124 S 
ATOM     89  O   UNL     1      -5.244  -2.901  -8.994  1.00  0.00    -0.237 OA
ATOM     90  O   UNL     1      -5.119  -5.173  -8.031  1.00  0.00    -0.237 OA
ATOM     91  O   UNL     1      -7.261  -3.953  -8.040  1.00  0.00    -0.744 OA
ENDBRANCH  87  88
ENDBRANCH  68  82
BRANCH  69  92
ATOM     92  C   UNL     1      -2.336   1.823   4.902  1.00  0.00    -0.014 A 
ATOM     93  C   UNL     1      -1.497   1.143   5.803  1.00  0.00     0.010 A 
ATOM     94  C   UNL     1      -2.946   3.022   5.315  1.00  0.00     0.010 A 
ATOM     95  C   UNL     1      -1.312   1.625   7.104  1.00  0.00     0.020 A 
ATOM     96  C   UNL     1      -2.737   3.525   6.602  1.00  0.00     0.020 A 
ATOM     97  C   UNL     1      -1.939   2.810   7.497  1.00  0.00     0.054 A 
BRANCH  97  98
ATOM     98  S   UNL     1      -1.689   3.421   9.188  1.00  0.00     0.124 S 
ATOM     99  O   UNL     1      -2.532   2.517   9.964  1.00  0.00    -0.237 OA
ATOM    100  O   UNL     1      -0.249   3.259   9.373  1.00  0.00    -0.237 OA
ATOM    101  O   UNL     1      -2.149   4.806   9.122  1.00  0.00    -0.744 OA
ENDBRANCH  97  98
ENDBRANCH  69  92
BRANCH  81 102
ATOM    102  C   UNL     1      -5.696  -3.959   2.920  1.00  0.00    -0.014 A 
ATOM    103  C   UNL     1      -6.889  -3.815   3.649  1.00  0.00     0.010 A 
ATOM    104  C   UNL     1      -5.081  -5.224   2.859  1.00  0.00     0.010 A 
ATOM    105  C   UNL     1      -7.436  -4.906   4.333  1.00  0.00     0.020 A 
ATOM    106  C   UNL     1      -5.639  -6.323   3.517  1.00  0.00     0.020 A 
ATOM    107  C   UNL     1      -6.805  -6.153   4.265  1.00  0.00     0.054 A 
BRANCH 107 108
ATOM    108  S   UNL     1      -7.551  -7.562   5.131  1.00  0.00     0.124 S 
ATOM    109  O   UNL     1      -7.212  -7.278   6.522  1.00  0.00    -0.237 OA
ATOM    110  O   UNL     1      -8.966  -7.438   4.791  1.00  0.00    -0.237 OA
ATOM    111  O   UNL     1      -6.877  -8.722   4.550  1.00  0.00    -0.744 OA
ENDBRANCH 107 108
ENDBRANCH  81 102
ENDBRANCH  55  56
ENDBRANCH  48  50
ENDBRANCH  47  48
ENDBRANCH  46  47
ENDBRANCH  45  46
ENDBRANCH  44  45
ENDBRANCH  43  44
ENDBRANCH  42  43
ENDBRANCH   1  42
TORSDOF 32
