REMARK SMILES [NH3+][C@]1(C(=O)OCCOCCOCCOC(=O)c2ccc(-c3c4nc(c(-c5ccc(S(=O)(=O)[O-])cc5)c5ccc([nH]5)c(-c5ccc(S(=O)(=O)[O-])cc5)c5nc(c(-c6ccc(S(=O)(=O)[O-])cc6)c6ccc3[nH]6)C=C5)C=C4)cc2)CCC[C@H]1CC[NH+]1CCCCC1
REMARK SMILES IDX 9 1 8 2 7 3 6 4 5 5 3 6 4 7 2 8 77 9 80 10 78 11 79 12 1 13
REMARK SMILES IDX 81 17 82 18 83 19 84 20 88 21 85 23 87 24 86 25 10 26 11 27
REMARK SMILES IDX 12 28 13 29 14 30 15 31 16 32 17 33 18 34 76 35 19 36 75 37
REMARK SMILES IDX 20 38 21 39 22 40 69 41 23 42 74 43 68 44 70 45 24 46 73 47
REMARK SMILES IDX 67 48 66 49 25 51 55 52 36 53 54 54 37 55 40 56 53 57 71 58
REMARK SMILES IDX 38 59 39 60 52 62 72 63 41 64 26 65 27 66 35 67 28 68 34 69
REMARK SMILES IDX 29 70 30 71 31 72 32 73 33 74 56 75 57 76 65 77 58 78 64 79
REMARK SMILES IDX 59 80 60 81 61 82 62 83 63 84 42 85 43 86 51 87 44 88 50 89
REMARK SMILES IDX 45 90 46 91 47 92 48 93 49 94
REMARK H PARENT 1 14 1 15 1 16 83 22 70 50 40 61
REMARK Flexibility Score: inf
ROOT
ATOM      1  C   UNL     1       1.326  -1.240   2.416  1.00  0.00     0.188 C 
ENDROOT
BRANCH   1   2
ATOM      2  O   UNL     1       2.340  -2.191   2.120  1.00  0.00    -0.376 OA
BRANCH   2   3
ATOM      3  C   UNL     1       3.121  -2.002   0.942  1.00  0.00     0.202 C 
BRANCH   3   4
ATOM      4  C   UNL     1       2.328  -1.783  -0.340  1.00  0.00     0.261 C 
BRANCH   4   5
ATOM      5  O   UNL     1       1.914  -0.403  -0.426  1.00  0.00    -0.459 OA
BRANCH   5   6
ATOM      6  C   UNL     1       0.750  -0.186  -1.062  1.00  0.00     0.368 C 
ATOM      7  O   UNL     1       0.049  -1.093  -1.513  1.00  0.00    -0.245 OA
BRANCH   6   8
ATOM      8  C   UNL     1       0.308   1.298  -1.177  1.00  0.00     0.195 C 
ATOM      9  C   UNL     1      -0.962   1.435  -0.298  1.00  0.00     0.081 C 
ATOM     10  C   UNL     1       1.142   2.583  -0.842  1.00  0.00     0.068 C 
ATOM     11  C   UNL     1      -1.249   2.922  -0.240  1.00  0.00     0.008 C 
ATOM     12  C   UNL     1       0.133   3.523  -0.093  1.00  0.00     0.011 C 
BRANCH   8  13
ATOM     13  N   UNL     1      -0.116   1.455  -2.613  1.00  0.00    -0.343 N 
ATOM     14  H   UNL     1      -0.425   2.414  -2.773  1.00  0.00     0.345 HD
ATOM     15  H   UNL     1      -0.883   0.813  -2.813  1.00  0.00     0.345 HD
ATOM     16  H   UNL     1       0.672   1.244  -3.225  1.00  0.00     0.345 HD
ENDBRANCH   8  13
BRANCH  10  17
ATOM     17  C   UNL     1       2.468   2.693  -0.055  1.00  0.00     0.072 C 
BRANCH  17  18
ATOM     18  C   UNL     1       3.772   1.970  -0.421  1.00  0.00     0.262 C 
BRANCH  18  19
ATOM     19  N   UNL     1       4.312   2.004  -1.781  1.00  0.00    -0.335 N 
ATOM     20  C   UNL     1       3.877   0.858  -2.576  1.00  0.00     0.262 C 
ATOM     21  C   UNL     1       4.168   3.286  -2.465  1.00  0.00     0.262 C 
ATOM     22  H   UNL     1       5.322   1.911  -1.671  1.00  0.00     0.348 HD
ATOM     23  C   UNL     1       4.575   0.809  -3.932  1.00  0.00     0.062 C 
ATOM     24  C   UNL     1       4.854   3.283  -3.832  1.00  0.00     0.062 C 
ATOM     25  C   UNL     1       4.374   2.115  -4.686  1.00  0.00     0.012 C 
ENDBRANCH  18  19
ENDBRANCH  17  18
ENDBRANCH  10  17
ENDBRANCH   6   8
ENDBRANCH   5   6
ENDBRANCH   4   5
ENDBRANCH   3   4
ENDBRANCH   2   3
ENDBRANCH   1   2
BRANCH   1  26
ATOM     26  C   UNL     1       1.706   0.247   2.461  1.00  0.00     0.188 C 
BRANCH  26  27
ATOM     27  O   UNL     1       3.062   0.639   2.598  1.00  0.00    -0.376 OA
BRANCH  27  28
ATOM     28  C   UNL     1       3.832   0.061   3.643  1.00  0.00     0.202 C 
BRANCH  28  29
ATOM     29  C   UNL     1       3.463   0.478   5.065  1.00  0.00     0.261 C 
BRANCH  29  30
ATOM     30  O   UNL     1       2.144   0.037   5.416  1.00  0.00    -0.460 OA
BRANCH  30  31
ATOM     31  C   UNL     1       1.239   1.025   5.624  1.00  0.00     0.338 C 
ATOM     32  O   UNL     1       1.446   2.227   5.633  1.00  0.00    -0.246 OA
BRANCH  31  33
ATOM     33  C   UNL     1      -0.115   0.437   5.609  1.00  0.00     0.060 A 
ATOM     34  C   UNL     1      -1.090   1.062   4.819  1.00  0.00     0.016 A 
ATOM     35  C   UNL     1      -0.423  -0.709   6.346  1.00  0.00     0.016 A 
ATOM     36  C   UNL     1      -2.389   0.564   4.793  1.00  0.00     0.010 A 
ATOM     37  C   UNL     1      -1.730  -1.197   6.333  1.00  0.00     0.010 A 
ATOM     38  C   UNL     1      -2.723  -0.542   5.584  1.00  0.00    -0.014 A 
BRANCH  38  39
ATOM     39  C   UNL     1      -4.148  -0.888   5.777  1.00  0.00     0.031 A 
ATOM     40  C   UNL     1      -4.854  -0.344   6.988  1.00  0.00     0.074 A 
ATOM     41  C   UNL     1      -4.807  -1.639   4.877  1.00  0.00     0.049 A 
ATOM     42  N   UNL     1      -6.095  -0.504   7.365  1.00  0.00    -0.248 NA
ATOM     43  C   UNL     1      -4.051   0.493   7.895  1.00  0.00     0.031 C 
ATOM     44  C   UNL     1      -4.234  -2.188   3.649  1.00  0.00     0.029 A 
ATOM     45  N   UNL     1      -6.109  -2.069   4.865  1.00  0.00    -0.354 N 
ATOM     46  C   UNL     1      -6.221   0.208   8.552  1.00  0.00     0.074 A 
ATOM     47  C   UNL     1      -4.925   0.774   8.849  1.00  0.00     0.031 C 
ATOM     48  C   UNL     1      -5.184  -2.887   3.002  1.00  0.00     0.029 A 
ATOM     49  C   UNL     1      -6.418  -2.856   3.783  1.00  0.00     0.049 A 
ATOM     50  H   UNL     1      -6.760  -1.835   5.566  1.00  0.00     0.167 HD
ATOM     51  C   UNL     1      -7.321   0.381   9.322  1.00  0.00     0.031 A 
ATOM     52  C   UNL     1      -7.566  -3.488   3.469  1.00  0.00     0.031 A 
ATOM     53  C   UNL     1      -8.602  -0.207   9.036  1.00  0.00     0.049 A 
ATOM     54  C   UNL     1      -8.759  -3.333   4.377  1.00  0.00     0.074 A 
ATOM     55  C   UNL     1      -9.781  -0.095   9.750  1.00  0.00     0.029 A 
ATOM     56  N   UNL     1      -8.868  -1.028   7.949  1.00  0.00    -0.354 N 
ATOM     57  N   UNL     1      -8.871  -2.638   5.486  1.00  0.00    -0.248 NA
ATOM     58  C   UNL     1      -9.986  -4.036   3.981  1.00  0.00     0.031 C 
ATOM     59  C   UNL     1     -10.747  -0.891   9.124  1.00  0.00     0.029 A 
ATOM     60  C   UNL     1     -10.187  -1.448   7.985  1.00  0.00     0.049 A 
ATOM     61  H   UNL     1      -8.216  -1.275   7.255  1.00  0.00     0.167 HD
ATOM     62  C   UNL     1     -10.189  -2.799   5.903  1.00  0.00     0.074 A 
ATOM     63  C   UNL     1     -10.837  -3.640   4.917  1.00  0.00     0.031 C 
ATOM     64  C   UNL     1     -10.810  -2.297   7.001  1.00  0.00     0.031 A 
BRANCH  51  65
ATOM     65  C   UNL     1      -7.166   1.210  10.569  1.00  0.00    -0.014 A 
ATOM     66  C   UNL     1      -6.977   2.602  10.500  1.00  0.00     0.010 A 
ATOM     67  C   UNL     1      -7.226   0.589  11.829  1.00  0.00     0.010 A 
ATOM     68  C   UNL     1      -6.813   3.353  11.668  1.00  0.00     0.020 A 
ATOM     69  C   UNL     1      -7.090   1.339  13.000  1.00  0.00     0.020 A 
ATOM     70  C   UNL     1      -6.868   2.715  12.911  1.00  0.00     0.054 A 
BRANCH  70  71
ATOM     71  S   UNL     1      -6.673   3.716  14.411  1.00  0.00     0.124 S 
ATOM     72  O   UNL     1      -5.247   4.030  14.380  1.00  0.00    -0.237 OA
ATOM     73  O   UNL     1      -7.570   4.841  14.164  1.00  0.00    -0.237 OA
ATOM     74  O   UNL     1      -7.088   2.816  15.485  1.00  0.00    -0.744 OA
ENDBRANCH  70  71
ENDBRANCH  51  65
BRANCH  52  75
ATOM     75  C   UNL     1      -7.645  -4.330   2.244  1.00  0.00    -0.014 A 
ATOM     76  C   UNL     1      -8.433  -3.936   1.149  1.00  0.00     0.010 A 
ATOM     77  C   UNL     1      -6.932  -5.542   2.171  1.00  0.00     0.010 A 
ATOM     78  C   UNL     1      -8.523  -4.745   0.012  1.00  0.00     0.020 A 
ATOM     79  C   UNL     1      -6.997  -6.340   1.025  1.00  0.00     0.020 A 
ATOM     80  C   UNL     1      -7.803  -5.942  -0.043  1.00  0.00     0.054 A 
BRANCH  80  81
ATOM     81  S   UNL     1      -7.898  -6.953  -1.547  1.00  0.00     0.124 S 
ATOM     82  O   UNL     1      -9.236  -7.526  -1.444  1.00  0.00    -0.237 OA
ATOM     83  O   UNL     1      -7.713  -5.962  -2.604  1.00  0.00    -0.237 OA
ATOM     84  O   UNL     1      -6.796  -7.900  -1.391  1.00  0.00    -0.744 OA
ENDBRANCH  80  81
ENDBRANCH  52  75
BRANCH  64  85
ATOM     85  C   UNL     1     -12.273  -2.617   7.168  1.00  0.00    -0.014 A 
ATOM     86  C   UNL     1     -12.707  -3.917   7.484  1.00  0.00     0.010 A 
ATOM     87  C   UNL     1     -13.227  -1.594   7.017  1.00  0.00     0.010 A 
ATOM     88  C   UNL     1     -14.072  -4.200   7.584  1.00  0.00     0.020 A 
ATOM     89  C   UNL     1     -14.591  -1.866   7.150  1.00  0.00     0.020 A 
ATOM     90  C   UNL     1     -15.006  -3.174   7.407  1.00  0.00     0.054 A 
BRANCH  90  91
ATOM     91  S   UNL     1     -16.772  -3.565   7.535  1.00  0.00     0.124 S 
ATOM     92  O   UNL     1     -17.024  -4.244   6.267  1.00  0.00    -0.237 OA
ATOM     93  O   UNL     1     -16.830  -4.411   8.724  1.00  0.00    -0.237 OA
ATOM     94  O   UNL     1     -17.406  -2.256   7.678  1.00  0.00    -0.744 OA
ENDBRANCH  90  91
ENDBRANCH  64  85
ENDBRANCH  38  39
ENDBRANCH  31  33
ENDBRANCH  30  31
ENDBRANCH  29  30
ENDBRANCH  28  29
ENDBRANCH  27  28
ENDBRANCH  26  27
ENDBRANCH   1  26
TORSDOF 24
