REMARK SMILES O=C(OCCOCCOCCOC(=O)[C@H]1CN(C(=O)C[C@H]2NC(=O)c3ccccc32)C[C@@H]1c1ccc(F)cc1)c1ccc(-c2c3nc(c(-c4ccc(S(=O)(=O)[O-])cc4)c4ccc([nH]4)c(-c4ccc(S(=O)(=O)[O-])cc4)c4nc(c(-c5ccc(S(=O)(=O)[O-])cc5)c5ccc2[nH]5)C=C4)C=C3)cc1
REMARK SMILES IDX 7 1 6 2 5 3 4 4 3 5 2 6 1 7 40 8 41 9 99 10 42 11 98 12
REMARK SMILES IDX 43 13 44 14 45 15 92 16 46 17 97 18 91 19 93 20 47 21 96 22
REMARK SMILES IDX 90 23 89 24 48 26 78 27 59 28 77 29 60 30 63 31 76 32 94 33
REMARK SMILES IDX 61 34 62 35 75 37 95 38 64 39 49 40 50 41 58 42 51 43 57 44
REMARK SMILES IDX 52 45 53 46 54 47 55 48 56 49 79 50 80 51 88 52 81 53 87 54
REMARK SMILES IDX 82 55 83 56 84 57 85 58 86 59 65 60 66 61 74 62 67 63 73 64
REMARK SMILES IDX 68 65 69 66 70 67 71 68 72 69 8 70 9 71 10 72 11 73 12 74
REMARK SMILES IDX 13 75 14 76 15 77 16 78 32 79 17 80 31 81 33 82 34 83 39 84
REMARK SMILES IDX 35 85 38 86 36 87 37 88 18 89 19 90 20 91 21 92 22 93 30 94
REMARK SMILES IDX 23 95 25 97 29 98 24 99 26 100 28 101 27 102
REMARK H PARENT 93 25 63 36 22 96
REMARK Flexibility Score: inf
ROOT
ATOM      1  C   UNL     1       0.651  -1.022   7.705  1.00  0.00     0.188 C 
ENDROOT
BRANCH   1   2
ATOM      2  O   UNL     1       1.895  -1.718   7.680  1.00  0.00    -0.376 OA
BRANCH   2   3
ATOM      3  C   UNL     1       3.006  -1.025   8.257  1.00  0.00     0.202 C 
BRANCH   3   4
ATOM      4  C   UNL     1       3.345   0.374   7.705  1.00  0.00     0.261 C 
BRANCH   4   5
ATOM      5  O   UNL     1       2.343   0.974   6.863  1.00  0.00    -0.460 OA
BRANCH   5   6
ATOM      6  C   UNL     1       2.168   0.890   5.523  1.00  0.00     0.338 C 
ATOM      7  O   UNL     1       1.303   1.587   4.995  1.00  0.00    -0.246 OA
BRANCH   6   8
ATOM      8  C   UNL     1       2.949  -0.028   4.650  1.00  0.00     0.060 A 
ATOM      9  C   UNL     1       3.445  -1.263   5.059  1.00  0.00     0.016 A 
ATOM     10  C   UNL     1       3.087   0.320   3.298  1.00  0.00     0.016 A 
ATOM     11  C   UNL     1       4.158  -2.086   4.204  1.00  0.00     0.010 A 
ATOM     12  C   UNL     1       3.746  -0.532   2.406  1.00  0.00     0.010 A 
ATOM     13  C   UNL     1       4.309  -1.725   2.871  1.00  0.00    -0.014 A 
BRANCH  13  14
ATOM     14  C   UNL     1       5.121  -2.606   2.016  1.00  0.00     0.031 A 
ATOM     15  C   UNL     1       6.501  -2.168   1.669  1.00  0.00     0.074 A 
ATOM     16  C   UNL     1       4.638  -3.809   1.656  1.00  0.00     0.049 A 
ATOM     17  N   UNL     1       7.384  -2.785   0.940  1.00  0.00    -0.248 NA
ATOM     18  C   UNL     1       6.947  -0.868   2.201  1.00  0.00     0.031 C 
ATOM     19  C   UNL     1       3.318  -4.299   2.035  1.00  0.00     0.029 A 
ATOM     20  N   UNL     1       5.172  -4.846   0.941  1.00  0.00    -0.354 N 
ATOM     21  C   UNL     1       8.464  -1.922   0.865  1.00  0.00     0.074 A 
ATOM     22  C   UNL     1       8.144  -0.750   1.646  1.00  0.00     0.031 C 
ATOM     23  C   UNL     1       3.152  -5.547   1.578  1.00  0.00     0.029 A 
ATOM     24  C   UNL     1       4.343  -5.944   0.849  1.00  0.00     0.049 A 
ATOM     25  H   UNL     1       6.066  -4.811   0.530  1.00  0.00     0.167 HD
ATOM     26  C   UNL     1       9.600  -2.098   0.159  1.00  0.00     0.031 A 
ATOM     27  C   UNL     1       4.531  -7.136   0.247  1.00  0.00     0.031 A 
ATOM     28  C   UNL     1       9.869  -3.284  -0.604  1.00  0.00     0.049 A 
ATOM     29  C   UNL     1       5.837  -7.306  -0.483  1.00  0.00     0.074 A 
ATOM     30  C   UNL     1      10.962  -3.563  -1.400  1.00  0.00     0.029 A 
ATOM     31  N   UNL     1       9.029  -4.390  -0.663  1.00  0.00    -0.354 N 
ATOM     32  N   UNL     1       6.859  -6.482  -0.532  1.00  0.00    -0.248 NA
ATOM     33  C   UNL     1       6.013  -8.538  -1.259  1.00  0.00     0.031 C 
ATOM     34  C   UNL     1      10.749  -4.808  -1.998  1.00  0.00     0.029 A 
ATOM     35  C   UNL     1       9.560  -5.336  -1.517  1.00  0.00     0.049 A 
ATOM     36  H   UNL     1       8.182  -4.484  -0.169  1.00  0.00     0.167 HD
ATOM     37  C   UNL     1       7.792  -7.091  -1.356  1.00  0.00     0.074 A 
ATOM     38  C   UNL     1       7.249  -8.388  -1.711  1.00  0.00     0.031 C 
ATOM     39  C   UNL     1       8.968  -6.612  -1.827  1.00  0.00     0.031 A 
BRANCH  26  40
ATOM     40  C   UNL     1      10.557  -0.947   0.091  1.00  0.00    -0.014 A 
ATOM     41  C   UNL     1      11.363  -0.581   1.182  1.00  0.00     0.010 A 
ATOM     42  C   UNL     1      10.665  -0.235  -1.117  1.00  0.00     0.010 A 
ATOM     43  C   UNL     1      12.262   0.481   1.062  1.00  0.00     0.020 A 
ATOM     44  C   UNL     1      11.580   0.809  -1.249  1.00  0.00     0.020 A 
ATOM     45  C   UNL     1      12.373   1.161  -0.156  1.00  0.00     0.054 A 
BRANCH  45  46
ATOM     46  S   UNL     1      13.610   2.477  -0.307  1.00  0.00     0.124 S 
ATOM     47  O   UNL     1      13.045   3.523   0.541  1.00  0.00    -0.237 OA
ATOM     48  O   UNL     1      14.817   1.836   0.206  1.00  0.00    -0.237 OA
ATOM     49  O   UNL     1      13.626   2.777  -1.737  1.00  0.00    -0.744 OA
ENDBRANCH  45  46
ENDBRANCH  26  40
BRANCH  27  50
ATOM     50  C   UNL     1       3.502  -8.225   0.285  1.00  0.00    -0.014 A 
ATOM     51  C   UNL     1       3.848  -9.520   0.709  1.00  0.00     0.010 A 
ATOM     52  C   UNL     1       2.171  -8.003  -0.119  1.00  0.00     0.010 A 
ATOM     53  C   UNL     1       2.913 -10.559   0.707  1.00  0.00     0.020 A 
ATOM     54  C   UNL     1       1.211  -9.023  -0.062  1.00  0.00     0.020 A 
ATOM     55  C   UNL     1       1.595 -10.301   0.337  1.00  0.00     0.054 A 
BRANCH  55  56
ATOM     56  S   UNL     1       0.398 -11.660   0.407  1.00  0.00     0.124 S 
ATOM     57  O   UNL     1       0.877 -12.542  -0.652  1.00  0.00    -0.237 OA
ATOM     58  O   UNL     1       0.576 -12.154   1.770  1.00  0.00    -0.237 OA
ATOM     59  O   UNL     1      -0.880 -11.003   0.144  1.00  0.00    -0.744 OA
ENDBRANCH  55  56
ENDBRANCH  27  50
BRANCH  39  60
ATOM     60  C   UNL     1       9.707  -7.496  -2.788  1.00  0.00    -0.014 A 
ATOM     61  C   UNL     1       9.207  -7.711  -4.085  1.00  0.00     0.010 A 
ATOM     62  C   UNL     1      10.933  -8.067  -2.409  1.00  0.00     0.010 A 
ATOM     63  C   UNL     1       9.907  -8.516  -4.980  1.00  0.00     0.020 A 
ATOM     64  C   UNL     1      11.655  -8.841  -3.316  1.00  0.00     0.020 A 
ATOM     65  C   UNL     1      11.130  -9.071  -4.590  1.00  0.00     0.054 A 
BRANCH  65  66
ATOM     66  S   UNL     1      12.047 -10.063  -5.795  1.00  0.00     0.124 S 
ATOM     67  O   UNL     1      11.238 -11.277  -5.866  1.00  0.00    -0.237 OA
ATOM     68  O   UNL     1      12.024  -9.219  -6.986  1.00  0.00    -0.237 OA
ATOM     69  O   UNL     1      13.362 -10.227  -5.179  1.00  0.00    -0.744 OA
ENDBRANCH  65  66
ENDBRANCH  39  60
ENDBRANCH  13  14
ENDBRANCH   6   8
ENDBRANCH   5   6
ENDBRANCH   4   5
ENDBRANCH   3   4
ENDBRANCH   2   3
ENDBRANCH   1   2
BRANCH   1  70
ATOM     70  C   UNL     1      -0.557  -1.940   7.873  1.00  0.00     0.188 C 
BRANCH  70  71
ATOM     71  O   UNL     1      -0.639  -2.718   9.062  1.00  0.00    -0.376 OA
BRANCH  71  72
ATOM     72  C   UNL     1       0.522  -3.421   9.489  1.00  0.00     0.202 C 
BRANCH  72  73
ATOM     73  C   UNL     1       1.015  -4.614   8.655  1.00  0.00     0.261 C 
BRANCH  73  74
ATOM     74  O   UNL     1       1.053  -4.402   7.241  1.00  0.00    -0.463 OA
BRANCH  74  75
ATOM     75  C   UNL     1      -0.079  -4.771   6.572  1.00  0.00     0.311 C 
ATOM     76  O   UNL     1      -1.099  -5.195   7.096  1.00  0.00    -0.252 OA
BRANCH  75  77
ATOM     77  C   UNL     1       0.113  -4.539   5.085  1.00  0.00     0.128 C 
ATOM     78  C   UNL     1       1.028  -5.649   4.623  1.00  0.00     0.135 C 
ATOM     79  C   UNL     1      -1.181  -4.798   4.281  1.00  0.00     0.055 C 
ATOM     80  N   UNL     1       0.151  -6.791   4.537  1.00  0.00    -0.341 N 
ATOM     81  C   UNL     1      -1.215  -6.354   4.236  1.00  0.00     0.128 C 
BRANCH  79  82
ATOM     82  C   UNL     1      -1.282  -4.169   2.888  1.00  0.00    -0.042 A 
ATOM     83  C   UNL     1      -2.456  -4.386   2.139  1.00  0.00     0.007 A 
ATOM     84  C   UNL     1      -0.288  -3.362   2.310  1.00  0.00     0.007 A 
ATOM     85  C   UNL     1      -2.603  -3.865   0.850  1.00  0.00     0.039 A 
ATOM     86  C   UNL     1      -0.422  -2.861   1.009  1.00  0.00     0.039 A 
ATOM     87  C   UNL     1      -1.578  -3.119   0.289  1.00  0.00     0.123 A 
ATOM     88  F   UNL     1      -1.712  -2.630  -0.950  1.00  0.00    -0.207 F 
ENDBRANCH  79  82
BRANCH  80  89
ATOM     89  C   UNL     1       0.415  -8.075   4.965  1.00  0.00     0.225 C 
ATOM     90  O   UNL     1      -0.489  -8.901   5.092  1.00  0.00    -0.275 OA
BRANCH  89  91
ATOM     91  C   UNL     1       1.837  -8.428   5.382  1.00  0.00     0.130 C 
BRANCH  91  92
ATOM     92  C   UNL     1       2.817  -8.393   4.212  1.00  0.00     0.123 C 
ATOM     93  N   UNL     1       3.771  -7.288   4.310  1.00  0.00    -0.345 N 
ATOM     94  C   UNL     1       3.758  -9.566   4.147  1.00  0.00    -0.012 A 
ATOM     95  C   UNL     1       5.082  -7.674   4.205  1.00  0.00     0.252 C 
ATOM     96  H   UNL     1       3.495  -6.352   4.439  1.00  0.00     0.164 HD
ATOM     97  C   UNL     1       5.082  -9.125   4.072  1.00  0.00     0.045 A 
ATOM     98  C   UNL     1       3.479 -10.917   4.036  1.00  0.00     0.007 A 
ATOM     99  O   UNL     1       6.055  -6.941   4.231  1.00  0.00    -0.269 OA
ATOM    100  C   UNL     1       6.152  -9.967   3.838  1.00  0.00     0.014 A 
ATOM    101  C   UNL     1       4.548 -11.797   3.818  1.00  0.00     0.000 A 
ATOM    102  C   UNL     1       5.870 -11.326   3.704  1.00  0.00     0.001 A 
ENDBRANCH  91  92
ENDBRANCH  89  91
ENDBRANCH  80  89
ENDBRANCH  75  77
ENDBRANCH  74  75
ENDBRANCH  73  74
ENDBRANCH  72  73
ENDBRANCH  71  72
ENDBRANCH  70  71
ENDBRANCH   1  70
TORSDOF 24
