REMARK SMILES O=C(OCCOCCOCCOC(=O)[C@H]1CC=CC[C@@H]1C(=O)NNc1ccccc1)c1ccc(-c2c3nc(c(-c4ccc(S(=O)(=O)[O-])cc4)c4ccc([nH]4)c(-c4ccc(S(=O)(=O)[O-])cc4)c4nc(c(-c5ccc(S(=O)(=O)[O-])cc5)c5ccc2[nH]5)C=C4)C=C3)cc1
REMARK SMILES IDX 7 1 6 2 5 3 4 4 3 5 2 6 1 7 31 8 32 9 90 10 33 11 89 12
REMARK SMILES IDX 34 13 35 14 36 15 83 16 37 17 88 18 82 19 84 20 38 21 87 22
REMARK SMILES IDX 81 23 80 24 39 26 69 27 50 28 68 29 51 30 54 31 67 32 85 33
REMARK SMILES IDX 52 34 53 35 66 37 86 38 55 39 40 40 41 41 49 42 42 43 48 44
REMARK SMILES IDX 43 45 44 46 45 47 46 48 47 49 70 50 71 51 79 52 72 53 78 54
REMARK SMILES IDX 73 55 74 56 75 57 76 58 77 59 56 60 57 61 65 62 58 63 64 64
REMARK SMILES IDX 59 65 60 66 61 67 62 68 63 69 8 70 9 71 10 72 11 73 12 74
REMARK SMILES IDX 13 75 14 76 15 77 16 78 20 79 17 80 19 81 18 82 21 83 22 84
REMARK SMILES IDX 23 85 24 87 25 89 26 90 30 91 27 92 29 93 28 94
REMARK H PARENT 84 25 54 36 23 86 24 88
REMARK Flexibility Score: inf
ROOT
ATOM      1  C   UNL     1       2.902   0.691  -2.083  1.00  0.00     0.188 C 
ENDROOT
BRANCH   1   2
ATOM      2  O   UNL     1       4.233   0.883  -1.625  1.00  0.00    -0.376 OA
BRANCH   2   3
ATOM      3  C   UNL     1       4.992  -0.265  -1.248  1.00  0.00     0.202 C 
BRANCH   3   4
ATOM      4  C   UNL     1       4.309  -1.454  -0.541  1.00  0.00     0.261 C 
BRANCH   4   5
ATOM      5  O   UNL     1       2.900  -1.335  -0.250  1.00  0.00    -0.460 OA
BRANCH   5   6
ATOM      6  C   UNL     1       2.254  -0.810   0.820  1.00  0.00     0.338 C 
ATOM      7  O   UNL     1       1.047  -0.974   0.940  1.00  0.00    -0.246 OA
BRANCH   6   8
ATOM      8  C   UNL     1       2.962  -0.010   1.847  1.00  0.00     0.060 A 
ATOM      9  C   UNL     1       3.996   0.865   1.544  1.00  0.00     0.016 A 
ATOM     10  C   UNL     1       2.490  -0.048   3.163  1.00  0.00     0.016 A 
ATOM     11  C   UNL     1       4.719   1.497   2.539  1.00  0.00     0.010 A 
ATOM     12  C   UNL     1       3.131   0.693   4.162  1.00  0.00     0.010 A 
ATOM     13  C   UNL     1       4.304   1.403   3.864  1.00  0.00    -0.014 A 
BRANCH  13  14
ATOM     14  C   UNL     1       5.191   1.935   4.922  1.00  0.00     0.031 A 
ATOM     15  C   UNL     1       5.839   0.956   5.860  1.00  0.00     0.074 A 
ATOM     16  C   UNL     1       5.512   3.243   4.950  1.00  0.00     0.049 A 
ATOM     17  N   UNL     1       6.640   1.180   6.866  1.00  0.00    -0.248 NA
ATOM     18  C   UNL     1       5.558  -0.473   5.628  1.00  0.00     0.031 C 
ATOM     19  C   UNL     1       5.035   4.247   3.998  1.00  0.00     0.029 A 
ATOM     20  N   UNL     1       6.338   3.952   5.781  1.00  0.00    -0.354 N 
ATOM     21  C   UNL     1       6.922  -0.069   7.407  1.00  0.00     0.074 A 
ATOM     22  C   UNL     1       6.196  -1.048   6.633  1.00  0.00     0.031 C 
ATOM     23  C   UNL     1       5.590   5.434   4.279  1.00  0.00     0.029 A 
ATOM     24  C   UNL     1       6.416   5.290   5.468  1.00  0.00     0.049 A 
ATOM     25  H   UNL     1       6.829   3.544   6.530  1.00  0.00     0.167 HD
ATOM     26  C   UNL     1       7.718  -0.367   8.459  1.00  0.00     0.031 A 
ATOM     27  C   UNL     1       7.067   6.292   6.087  1.00  0.00     0.031 A 
ATOM     28  C   UNL     1       8.431   0.630   9.207  1.00  0.00     0.049 A 
ATOM     29  C   UNL     1       7.867   5.947   7.311  1.00  0.00     0.074 A 
ATOM     30  C   UNL     1       9.239   0.466  10.315  1.00  0.00     0.029 A 
ATOM     31  N   UNL     1       8.416   1.989   8.913  1.00  0.00    -0.354 N 
ATOM     32  N   UNL     1       8.082   4.767   7.846  1.00  0.00    -0.248 NA
ATOM     33  C   UNL     1       8.507   7.061   8.017  1.00  0.00     0.031 C 
ATOM     34  C   UNL     1       9.664   1.734  10.728  1.00  0.00     0.029 A 
ATOM     35  C   UNL     1       9.180   2.679   9.835  1.00  0.00     0.049 A 
ATOM     36  H   UNL     1       7.934   2.398   8.159  1.00  0.00     0.167 HD
ATOM     37  C   UNL     1       8.905   4.992   8.940  1.00  0.00     0.074 A 
ATOM     38  C   UNL     1       9.162   6.420   8.976  1.00  0.00     0.031 C 
ATOM     39  C   UNL     1       9.407   4.104   9.834  1.00  0.00     0.031 A 
BRANCH  26  40
ATOM     40  C   UNL     1       7.771  -1.808   8.895  1.00  0.00    -0.014 A 
ATOM     41  C   UNL     1       8.398  -2.800   8.118  1.00  0.00     0.010 A 
ATOM     42  C   UNL     1       7.141  -2.181  10.096  1.00  0.00     0.010 A 
ATOM     43  C   UNL     1       8.346  -4.142   8.507  1.00  0.00     0.020 A 
ATOM     44  C   UNL     1       7.112  -3.517  10.504  1.00  0.00     0.020 A 
ATOM     45  C   UNL     1       7.696  -4.492   9.695  1.00  0.00     0.054 A 
BRANCH  45  46
ATOM     46  S   UNL     1       7.630  -6.241  10.172  1.00  0.00     0.124 S 
ATOM     47  O   UNL     1       6.673  -6.780   9.208  1.00  0.00    -0.237 OA
ATOM     48  O   UNL     1       9.013  -6.675   9.992  1.00  0.00    -0.237 OA
ATOM     49  O   UNL     1       7.165  -6.207  11.557  1.00  0.00    -0.744 OA
ENDBRANCH  45  46
ENDBRANCH  26  40
BRANCH  27  50
ATOM     50  C   UNL     1       6.963   7.691   5.582  1.00  0.00    -0.014 A 
ATOM     51  C   UNL     1       8.088   8.360   5.067  1.00  0.00     0.010 A 
ATOM     52  C   UNL     1       5.726   8.364   5.602  1.00  0.00     0.010 A 
ATOM     53  C   UNL     1       7.981   9.676   4.602  1.00  0.00     0.020 A 
ATOM     54  C   UNL     1       5.608   9.667   5.110  1.00  0.00     0.020 A 
ATOM     55  C   UNL     1       6.741  10.321   4.625  1.00  0.00     0.054 A 
BRANCH  55  56
ATOM     56  S   UNL     1       6.620  12.016   3.986  1.00  0.00     0.124 S 
ATOM     57  O   UNL     1       7.321  12.779   5.013  1.00  0.00    -0.237 OA
ATOM     58  O   UNL     1       7.301  11.915   2.697  1.00  0.00    -0.237 OA
ATOM     59  O   UNL     1       5.180  12.251   3.905  1.00  0.00    -0.744 OA
ENDBRANCH  55  56
ENDBRANCH  27  50
BRANCH  39  60
ATOM     60  C   UNL     1      10.318   4.654  10.894  1.00  0.00    -0.014 A 
ATOM     61  C   UNL     1       9.821   5.436  11.950  1.00  0.00     0.010 A 
ATOM     62  C   UNL     1      11.688   4.340  10.849  1.00  0.00     0.010 A 
ATOM     63  C   UNL     1      10.689   5.927  12.926  1.00  0.00     0.020 A 
ATOM     64  C   UNL     1      12.552   4.801  11.841  1.00  0.00     0.020 A 
ATOM     65  C   UNL     1      12.049   5.606  12.864  1.00  0.00     0.054 A 
BRANCH  65  66
ATOM     66  S   UNL     1      13.149   6.223  14.165  1.00  0.00     0.124 S 
ATOM     67  O   UNL     1      13.264   7.637  13.819  1.00  0.00    -0.237 OA
ATOM     68  O   UNL     1      12.399   5.932  15.384  1.00  0.00    -0.237 OA
ATOM     69  O   UNL     1      14.369   5.437  13.988  1.00  0.00    -0.744 OA
ENDBRANCH  65  66
ENDBRANCH  39  60
ENDBRANCH  13  14
ENDBRANCH   6   8
ENDBRANCH   5   6
ENDBRANCH   4   5
ENDBRANCH   3   4
ENDBRANCH   2   3
ENDBRANCH   1   2
BRANCH   1  70
ATOM     70  C   UNL     1       2.332   1.869  -2.882  1.00  0.00     0.188 C 
BRANCH  70  71
ATOM     71  O   UNL     1       3.112   2.385  -3.943  1.00  0.00    -0.376 OA
BRANCH  71  72
ATOM     72  C   UNL     1       4.427   2.803  -3.601  1.00  0.00     0.202 C 
BRANCH  72  73
ATOM     73  C   UNL     1       4.679   3.839  -2.472  1.00  0.00     0.261 C 
BRANCH  73  74
ATOM     74  O   UNL     1       3.815   3.877  -1.304  1.00  0.00    -0.463 OA
BRANCH  74  75
ATOM     75  C   UNL     1       2.952   4.936  -1.298  1.00  0.00     0.310 C 
ATOM     76  O   UNL     1       2.813   5.664  -2.280  1.00  0.00    -0.252 OA
BRANCH  75  77
ATOM     77  C   UNL     1       2.254   5.229   0.053  1.00  0.00     0.116 C 
ATOM     78  C   UNL     1       1.144   6.255  -0.246  1.00  0.00     0.043 C 
ATOM     79  C   UNL     1       1.614   4.055   0.837  1.00  0.00     0.098 C 
ATOM     80  C   UNL     1      -0.011   5.589  -0.951  1.00  0.00    -0.030 C 
ATOM     81  C   UNL     1       0.513   3.350   0.045  1.00  0.00     0.041 C 
ATOM     82  C   UNL     1      -0.265   4.272  -0.854  1.00  0.00    -0.030 C 
BRANCH  79  83
ATOM     83  C   UNL     1       1.207   4.531   2.259  1.00  0.00     0.242 C 
ATOM     84  O   UNL     1       2.072   4.566   3.142  1.00  0.00    -0.273 OA
ATOM     85  N   UNL     1      -0.028   5.016   2.612  1.00  0.00    -0.270 N 
ATOM     86  H   UNL     1      -0.078   5.603   3.401  1.00  0.00     0.191 HD
BRANCH  85  87
ATOM     87  N   UNL     1      -1.202   4.746   1.948  1.00  0.00    -0.299 N 
ATOM     88  H   UNL     1      -1.322   3.868   1.518  1.00  0.00     0.188 HD
BRANCH  87  89
ATOM     89  C   UNL     1      -2.235   5.696   1.870  1.00  0.00     0.054 A 
ATOM     90  C   UNL     1      -3.403   5.325   1.179  1.00  0.00     0.027 A 
ATOM     91  C   UNL     1      -2.151   7.006   2.347  1.00  0.00     0.027 A 
ATOM     92  C   UNL     1      -4.478   6.205   1.026  1.00  0.00     0.002 A 
ATOM     93  C   UNL     1      -3.232   7.890   2.207  1.00  0.00     0.002 A 
ATOM     94  C   UNL     1      -4.396   7.488   1.554  1.00  0.00     0.000 A 
ENDBRANCH  87  89
ENDBRANCH  85  87
ENDBRANCH  79  83
ENDBRANCH  75  77
ENDBRANCH  74  75
ENDBRANCH  73  74
ENDBRANCH  72  73
ENDBRANCH  71  72
ENDBRANCH  70  71
ENDBRANCH   1  70
TORSDOF 23
