REMARK SMILES O=C(Cc1ccc(NC(=O)C2CCCC2)cc1)OCCOCCOCCOC(=O)c1ccc(-c2c3nc(c(-c4ccc(S(=O)(=O)[O-])cc4)c4ccc([nH]4)c(-c4ccc(S(=O)(=O)[O-])cc4)c4nc(c(-c5ccc(S(=O)(=O)[O-])cc5)c5ccc2[nH]5)C=C4)C=C3)cc1
REMARK SMILES IDX 22 1 21 2 20 3 19 4 18 5 2 6 1 7 3 8 4 9 5 10 17 11 6 12
REMARK SMILES IDX 16 13 7 14 8 15 9 16 10 18 11 19 12 20 15 21 13 22 14 23
REMARK SMILES IDX 23 24 24 25 25 26 26 27 27 28 28 29 29 30 30 31 31 32 89 33
REMARK SMILES IDX 32 34 88 35 33 36 34 37 35 38 82 39 36 40 87 41 81 42 83 43
REMARK SMILES IDX 37 44 86 45 80 46 79 47 38 49 68 50 49 51 67 52 50 53 53 54
REMARK SMILES IDX 66 55 84 56 51 57 52 58 65 60 85 61 54 62 39 63 40 64 48 65
REMARK SMILES IDX 41 66 47 67 42 68 43 69 44 70 45 71 46 72 69 73 70 74 78 75
REMARK SMILES IDX 71 76 77 77 72 78 73 79 74 80 75 81 76 82 55 83 56 84 64 85
REMARK SMILES IDX 57 86 63 87 58 88 59 89 60 90 61 91 62 92
REMARK H PARENT 8 17 83 48 53 59
REMARK Flexibility Score: inf
ROOT
ATOM      1  C   UNL     1       3.309   1.031  -1.960  1.00  0.00     0.188 C 
ENDROOT
BRANCH   1   2
ATOM      2  O   UNL     1       4.514   0.338  -1.672  1.00  0.00    -0.376 OA
BRANCH   2   3
ATOM      3  C   UNL     1       4.824   0.195  -0.300  1.00  0.00     0.202 C 
BRANCH   3   4
ATOM      4  C   UNL     1       4.097  -1.010   0.281  1.00  0.00     0.261 C 
BRANCH   4   5
ATOM      5  O   UNL     1       2.651  -0.951   0.235  1.00  0.00    -0.463 OA
BRANCH   5   6
ATOM      6  C   UNL     1       1.802  -0.122   0.881  1.00  0.00     0.310 C 
ATOM      7  O   UNL     1       0.591  -0.295   0.751  1.00  0.00    -0.252 OA
BRANCH   6   8
ATOM      8  C   UNL     1       2.325   1.058   1.675  1.00  0.00     0.158 C 
BRANCH   8   9
ATOM      9  C   UNL     1       3.270   0.719   2.791  1.00  0.00    -0.037 A 
ATOM     10  C   UNL     1       2.999  -0.365   3.626  1.00  0.00     0.006 A 
ATOM     11  C   UNL     1       4.413   1.494   3.033  1.00  0.00     0.006 A 
ATOM     12  C   UNL     1       3.929  -0.754   4.582  1.00  0.00     0.026 A 
ATOM     13  C   UNL     1       5.348   1.092   3.990  1.00  0.00     0.026 A 
ATOM     14  C   UNL     1       5.149  -0.093   4.699  1.00  0.00     0.041 A 
BRANCH  14  15
ATOM     15  N   UNL     1       6.201  -0.573   5.494  1.00  0.00    -0.326 N 
ATOM     16  C   UNL     1       6.591  -1.867   5.744  1.00  0.00     0.227 C 
ATOM     17  H   UNL     1       6.739   0.120   5.939  1.00  0.00     0.169 HD
ATOM     18  O   UNL     1       7.493  -2.062   6.563  1.00  0.00    -0.274 OA
BRANCH  16  19
ATOM     19  C   UNL     1       5.986  -3.014   4.939  1.00  0.00     0.079 C 
ATOM     20  C   UNL     1       6.361  -2.962   3.458  1.00  0.00     0.013 C 
ATOM     21  C   UNL     1       6.483  -4.405   5.322  1.00  0.00     0.013 C 
ATOM     22  C   UNL     1       5.950  -4.333   2.938  1.00  0.00     0.001 C 
ATOM     23  C   UNL     1       6.067  -5.277   4.136  1.00  0.00     0.001 C 
ENDBRANCH  16  19
ENDBRANCH  14  15
ENDBRANCH   8   9
ENDBRANCH   6   8
ENDBRANCH   5   6
ENDBRANCH   4   5
ENDBRANCH   3   4
ENDBRANCH   2   3
ENDBRANCH   1   2
BRANCH   1  24
ATOM     24  C   UNL     1       2.461   0.296  -3.006  1.00  0.00     0.188 C 
BRANCH  24  25
ATOM     25  O   UNL     1       3.088  -0.367  -4.099  1.00  0.00    -0.376 OA
BRANCH  25  26
ATOM     26  C   UNL     1       4.380   0.036  -4.526  1.00  0.00     0.202 C 
BRANCH  26  27
ATOM     27  C   UNL     1       4.481   1.387  -5.244  1.00  0.00     0.261 C 
BRANCH  27  28
ATOM     28  O   UNL     1       4.086   2.523  -4.450  1.00  0.00    -0.460 OA
BRANCH  28  29
ATOM     29  C   UNL     1       2.888   3.072  -4.777  1.00  0.00     0.338 C 
ATOM     30  O   UNL     1       2.146   2.720  -5.676  1.00  0.00    -0.246 OA
BRANCH  29  31
ATOM     31  C   UNL     1       2.492   4.106  -3.788  1.00  0.00     0.060 A 
ATOM     32  C   UNL     1       1.228   3.992  -3.195  1.00  0.00     0.016 A 
ATOM     33  C   UNL     1       3.289   5.222  -3.522  1.00  0.00     0.016 A 
ATOM     34  C   UNL     1       0.733   5.016  -2.382  1.00  0.00     0.010 A 
ATOM     35  C   UNL     1       2.783   6.258  -2.718  1.00  0.00     0.010 A 
ATOM     36  C   UNL     1       1.486   6.180  -2.176  1.00  0.00    -0.014 A 
BRANCH  36  37
ATOM     37  C   UNL     1       0.842   7.370  -1.551  1.00  0.00     0.031 A 
ATOM     38  C   UNL     1       0.283   8.452  -2.443  1.00  0.00     0.074 A 
ATOM     39  C   UNL     1       0.701   7.477  -0.216  1.00  0.00     0.049 A 
ATOM     40  N   UNL     1      -0.318   9.569  -2.116  1.00  0.00    -0.248 NA
ATOM     41  C   UNL     1       0.418   8.245  -3.894  1.00  0.00     0.031 C 
ATOM     42  C   UNL     1       1.147   6.492   0.768  1.00  0.00     0.029 A 
ATOM     43  N   UNL     1       0.137   8.476   0.543  1.00  0.00    -0.354 N 
ATOM     44  C   UNL     1      -0.639  10.193  -3.317  1.00  0.00     0.074 A 
ATOM     45  C   UNL     1      -0.135   9.348  -4.379  1.00  0.00     0.031 C 
ATOM     46  C   UNL     1       0.849   6.940   2.001  1.00  0.00     0.029 A 
ATOM     47  C   UNL     1       0.213   8.254   1.898  1.00  0.00     0.049 A 
ATOM     48  H   UNL     1      -0.284   9.276   0.153  1.00  0.00     0.167 HD
ATOM     49  C   UNL     1      -1.301  11.357  -3.525  1.00  0.00     0.031 A 
ATOM     50  C   UNL     1      -0.167   9.025   2.938  1.00  0.00     0.031 A 
ATOM     51  C   UNL     1      -1.794  12.215  -2.479  1.00  0.00     0.049 A 
ATOM     52  C   UNL     1      -0.829  10.357   2.682  1.00  0.00     0.074 A 
ATOM     53  C   UNL     1      -2.476  13.415  -2.602  1.00  0.00     0.029 A 
ATOM     54  N   UNL     1      -1.657  11.973  -1.122  1.00  0.00    -0.354 N 
ATOM     55  N   UNL     1      -1.139  10.920   1.538  1.00  0.00    -0.248 NA
ATOM     56  C   UNL     1      -1.203  11.152   3.863  1.00  0.00     0.031 C 
ATOM     57  C   UNL     1      -2.705  13.923  -1.319  1.00  0.00     0.029 A 
ATOM     58  C   UNL     1      -2.219  13.011  -0.397  1.00  0.00     0.049 A 
ATOM     59  H   UNL     1      -1.223  11.180  -0.731  1.00  0.00     0.167 HD
ATOM     60  C   UNL     1      -1.766  12.121   1.865  1.00  0.00     0.074 A 
ATOM     61  C   UNL     1      -1.811  12.192   3.309  1.00  0.00     0.031 C 
ATOM     62  C   UNL     1      -2.258  13.079   1.041  1.00  0.00     0.031 A 
BRANCH  49  63
ATOM     63  C   UNL     1      -1.521  11.789  -4.950  1.00  0.00    -0.014 A 
ATOM     64  C   UNL     1      -2.468  11.143  -5.765  1.00  0.00     0.010 A 
ATOM     65  C   UNL     1      -0.821  12.898  -5.460  1.00  0.00     0.010 A 
ATOM     66  C   UNL     1      -2.694  11.583  -7.071  1.00  0.00     0.020 A 
ATOM     67  C   UNL     1      -1.062  13.357  -6.758  1.00  0.00     0.020 A 
ATOM     68  C   UNL     1      -1.991  12.689  -7.559  1.00  0.00     0.054 A 
BRANCH  68  69
ATOM     69  S   UNL     1      -2.339  13.267  -9.243  1.00  0.00     0.124 S 
ATOM     70  O   UNL     1      -1.724  12.219 -10.054  1.00  0.00    -0.237 OA
ATOM     71  O   UNL     1      -3.799  13.308  -9.272  1.00  0.00    -0.237 OA
ATOM     72  O   UNL     1      -1.681  14.570  -9.306  1.00  0.00    -0.744 OA
ENDBRANCH  68  69
ENDBRANCH  49  63
BRANCH  50  73
ATOM     73  C   UNL     1       0.099   8.584   4.337  1.00  0.00    -0.014 A 
ATOM     74  C   UNL     1      -0.957   8.254   5.206  1.00  0.00     0.010 A 
ATOM     75  C   UNL     1       1.419   8.542   4.821  1.00  0.00     0.010 A 
ATOM     76  C   UNL     1      -0.700   7.921   6.540  1.00  0.00     0.020 A 
ATOM     77  C   UNL     1       1.683   8.180   6.144  1.00  0.00     0.020 A 
ATOM     78  C   UNL     1       0.620   7.888   7.001  1.00  0.00     0.054 A 
BRANCH  78  79
ATOM     79  S   UNL     1       0.939   7.425   8.726  1.00  0.00     0.124 S 
ATOM     80  O   UNL     1       0.554   8.638   9.441  1.00  0.00    -0.237 OA
ATOM     81  O   UNL     1       0.061   6.273   8.912  1.00  0.00    -0.237 OA
ATOM     82  O   UNL     1       2.368   7.117   8.735  1.00  0.00    -0.744 OA
ENDBRANCH  78  79
ENDBRANCH  50  73
BRANCH  62  83
ATOM     83  C   UNL     1      -2.920  14.274   1.679  1.00  0.00    -0.014 A 
ATOM     84  C   UNL     1      -2.169  15.244   2.370  1.00  0.00     0.010 A 
ATOM     85  C   UNL     1      -4.312  14.446   1.563  1.00  0.00     0.010 A 
ATOM     86  C   UNL     1      -2.804  16.334   2.972  1.00  0.00     0.020 A 
ATOM     87  C   UNL     1      -4.946  15.550   2.139  1.00  0.00     0.020 A 
ATOM     88  C   UNL     1      -4.190  16.477   2.858  1.00  0.00     0.054 A 
BRANCH  88  89
ATOM     89  S   UNL     1      -4.989  17.908   3.638  1.00  0.00     0.124 S 
ATOM     90  O   UNL     1      -4.964  17.537   5.050  1.00  0.00    -0.237 OA
ATOM     91  O   UNL     1      -4.110  19.013   3.262  1.00  0.00    -0.237 OA
ATOM     92  O   UNL     1      -6.315  17.940   3.025  1.00  0.00    -0.744 OA
ENDBRANCH  88  89
ENDBRANCH  62  83
ENDBRANCH  36  37
ENDBRANCH  29  31
ENDBRANCH  28  29
ENDBRANCH  27  28
ENDBRANCH  26  27
ENDBRANCH  25  26
ENDBRANCH  24  25
ENDBRANCH   1  24
TORSDOF 23
