REMARK SMILES O=C(OCCOCCOCCOC(=O)c1ccc([C@@H]2CC(O)=Nc3c2ncn3-c2cccc(Cl)c2)cc1)c1ccc(-c2c3nc(c(-c4ccc(S(=O)(=O)[O-])cc4)c4ccc([nH]4)c(-c4ccc(S(=O)(=O)[O-])cc4)c4nc(c(-c5ccc(S(=O)(=O)[O-])cc5)c5ccc2[nH]5)C=C4)C=C3)cc1
REMARK SMILES IDX 7 1 6 2 5 3 4 4 3 5 2 6 1 7 38 8 39 9 97 10 40 11 96 12
REMARK SMILES IDX 41 13 42 14 43 15 90 16 44 17 95 18 89 19 91 20 45 21 94 22
REMARK SMILES IDX 88 23 87 24 46 26 76 27 57 28 75 29 58 30 61 31 74 32 92 33
REMARK SMILES IDX 59 34 60 35 73 37 93 38 62 39 47 40 48 41 56 42 49 43 55 44
REMARK SMILES IDX 50 45 51 46 52 47 53 48 54 49 77 50 78 51 86 52 79 53 85 54
REMARK SMILES IDX 80 55 81 56 82 57 83 58 84 59 63 60 64 61 72 62 65 63 71 64
REMARK SMILES IDX 66 65 67 66 68 67 69 68 70 69 8 70 9 71 10 72 11 73 12 74
REMARK SMILES IDX 13 75 14 76 15 77 16 78 37 79 17 80 36 81 18 82 19 83 20 84
REMARK SMILES IDX 25 85 21 86 24 87 26 88 23 89 28 90 27 91 22 92 29 94 30 95
REMARK SMILES IDX 35 96 31 97 33 98 32 99 34 100
REMARK H PARENT 91 25 61 36 22 93
REMARK Flexibility Score: inf
ROOT
ATOM      1  C   UNL     1       3.370  -0.043   1.634  1.00  0.00     0.188 C 
ENDROOT
BRANCH   1   2
ATOM      2  O   UNL     1       4.704   0.362   1.413  1.00  0.00    -0.376 OA
BRANCH   2   3
ATOM      3  C   UNL     1       5.278   0.237   0.127  1.00  0.00     0.202 C 
BRANCH   3   4
ATOM      4  C   UNL     1       4.569   0.815  -1.105  1.00  0.00     0.261 C 
BRANCH   4   5
ATOM      5  O   UNL     1       3.160   1.034  -0.988  1.00  0.00    -0.460 OA
BRANCH   5   6
ATOM      6  C   UNL     1       2.103   0.287  -1.358  1.00  0.00     0.338 C 
ATOM      7  O   UNL     1       1.003   0.835  -1.433  1.00  0.00    -0.246 OA
BRANCH   6   8
ATOM      8  C   UNL     1       2.141  -1.193  -1.521  1.00  0.00     0.060 A 
ATOM      9  C   UNL     1       3.255  -1.959  -1.865  1.00  0.00     0.016 A 
ATOM     10  C   UNL     1       0.896  -1.838  -1.364  1.00  0.00     0.016 A 
ATOM     11  C   UNL     1       3.092  -3.292  -2.223  1.00  0.00     0.010 A 
ATOM     12  C   UNL     1       0.734  -3.172  -1.697  1.00  0.00     0.010 A 
ATOM     13  C   UNL     1       1.818  -3.865  -2.216  1.00  0.00    -0.014 A 
BRANCH  13  14
ATOM     14  C   UNL     1       1.662  -5.184  -2.811  1.00  0.00     0.031 A 
ATOM     15  C   UNL     1       2.390  -6.287  -2.133  1.00  0.00     0.074 A 
ATOM     16  C   UNL     1       0.880  -5.390  -3.890  1.00  0.00     0.049 A 
ATOM     17  N   UNL     1       3.379  -6.983  -2.588  1.00  0.00    -0.248 NA
ATOM     18  C   UNL     1       2.050  -6.569  -0.732  1.00  0.00     0.031 C 
ATOM     19  C   UNL     1      -0.079  -4.466  -4.507  1.00  0.00     0.029 A 
ATOM     20  N   UNL     1       0.706  -6.530  -4.610  1.00  0.00    -0.354 N 
ATOM     21  C   UNL     1       3.668  -7.928  -1.607  1.00  0.00     0.074 A 
ATOM     22  C   UNL     1       2.918  -7.538  -0.438  1.00  0.00     0.031 C 
ATOM     23  C   UNL     1      -0.897  -5.157  -5.333  1.00  0.00     0.029 A 
ATOM     24  C   UNL     1      -0.422  -6.526  -5.421  1.00  0.00     0.049 A 
ATOM     25  H   UNL     1       1.325  -7.294  -4.561  1.00  0.00     0.167 HD
ATOM     26  C   UNL     1       4.343  -9.078  -1.885  1.00  0.00     0.031 A 
ATOM     27  C   UNL     1      -0.963  -7.591  -6.064  1.00  0.00     0.031 A 
ATOM     28  C   UNL     1       5.027  -9.011  -3.148  1.00  0.00     0.049 A 
ATOM     29  C   UNL     1       0.104  -8.614  -6.188  1.00  0.00     0.074 A 
ATOM     30  C   UNL     1       6.040  -8.229  -3.664  1.00  0.00     0.029 A 
ATOM     31  N   UNL     1       4.421  -9.610  -4.227  1.00  0.00    -0.354 N 
ATOM     32  N   UNL     1       1.174  -8.449  -6.916  1.00  0.00    -0.248 NA
ATOM     33  C   UNL     1       0.208  -9.627  -5.149  1.00  0.00     0.031 C 
ATOM     34  C   UNL     1       5.683  -8.020  -5.027  1.00  0.00     0.029 A 
ATOM     35  C   UNL     1       4.509  -8.735  -5.279  1.00  0.00     0.049 A 
ATOM     36  H   UNL     1       4.003 -10.501  -4.242  1.00  0.00     0.167 HD
ATOM     37  C   UNL     1       2.202  -9.014  -6.175  1.00  0.00     0.074 A 
ATOM     38  C   UNL     1       1.533  -9.803  -5.141  1.00  0.00     0.031 C 
ATOM     39  C   UNL     1       3.490  -8.578  -6.296  1.00  0.00     0.031 A 
BRANCH  26  40
ATOM     40  C   UNL     1       4.070 -10.393  -1.198  1.00  0.00    -0.014 A 
ATOM     41  C   UNL     1       4.852 -11.518  -1.536  1.00  0.00     0.010 A 
ATOM     42  C   UNL     1       2.893 -10.631  -0.458  1.00  0.00     0.010 A 
ATOM     43  C   UNL     1       4.430 -12.817  -1.224  1.00  0.00     0.020 A 
ATOM     44  C   UNL     1       2.486 -11.919  -0.105  1.00  0.00     0.020 A 
ATOM     45  C   UNL     1       3.237 -13.007  -0.526  1.00  0.00     0.054 A 
BRANCH  45  46
ATOM     46  S   UNL     1       2.632 -14.690  -0.248  1.00  0.00     0.124 S 
ATOM     47  O   UNL     1       2.350 -15.135  -1.609  1.00  0.00    -0.237 OA
ATOM     48  O   UNL     1       3.774 -15.324   0.405  1.00  0.00    -0.237 OA
ATOM     49  O   UNL     1       1.461 -14.494   0.604  1.00  0.00    -0.744 OA
ENDBRANCH  45  46
ENDBRANCH  26  40
BRANCH  27  50
ATOM     50  C   UNL     1      -2.409  -7.901  -6.208  1.00  0.00    -0.014 A 
ATOM     51  C   UNL     1      -2.863  -8.902  -7.086  1.00  0.00     0.010 A 
ATOM     52  C   UNL     1      -3.331  -7.391  -5.268  1.00  0.00     0.010 A 
ATOM     53  C   UNL     1      -4.171  -9.411  -6.990  1.00  0.00     0.020 A 
ATOM     54  C   UNL     1      -4.636  -7.888  -5.170  1.00  0.00     0.020 A 
ATOM     55  C   UNL     1      -5.044  -8.913  -6.018  1.00  0.00     0.054 A 
BRANCH  55  56
ATOM     56  S   UNL     1      -6.671  -9.691  -5.784  1.00  0.00     0.124 S 
ATOM     57  O   UNL     1      -7.390  -9.274  -6.984  1.00  0.00    -0.237 OA
ATOM     58  O   UNL     1      -6.337 -11.110  -5.708  1.00  0.00    -0.237 OA
ATOM     59  O   UNL     1      -7.157  -9.105  -4.535  1.00  0.00    -0.744 OA
ENDBRANCH  55  56
ENDBRANCH  27  50
BRANCH  39  60
ATOM     60  C   UNL     1       3.842  -7.655  -7.440  1.00  0.00    -0.014 A 
ATOM     61  C   UNL     1       3.323  -6.352  -7.577  1.00  0.00     0.010 A 
ATOM     62  C   UNL     1       4.888  -8.054  -8.291  1.00  0.00     0.010 A 
ATOM     63  C   UNL     1       3.841  -5.474  -8.543  1.00  0.00     0.020 A 
ATOM     64  C   UNL     1       5.418  -7.179  -9.242  1.00  0.00     0.020 A 
ATOM     65  C   UNL     1       4.892  -5.893  -9.365  1.00  0.00     0.054 A 
BRANCH  65  66
ATOM     66  S   UNL     1       5.625  -4.726 -10.548  1.00  0.00     0.124 S 
ATOM     67  O   UNL     1       4.569  -4.578 -11.545  1.00  0.00    -0.237 OA
ATOM     68  O   UNL     1       5.882  -3.546  -9.723  1.00  0.00    -0.237 OA
ATOM     69  O   UNL     1       6.827  -5.414 -11.017  1.00  0.00    -0.744 OA
ENDBRANCH  65  66
ENDBRANCH  39  60
ENDBRANCH  13  14
ENDBRANCH   6   8
ENDBRANCH   5   6
ENDBRANCH   4   5
ENDBRANCH   3   4
ENDBRANCH   2   3
ENDBRANCH   1   2
BRANCH   1  70
ATOM     70  C   UNL     1       2.406   1.126   1.952  1.00  0.00     0.188 C 
BRANCH  70  71
ATOM     71  O   UNL     1       2.880   2.435   2.253  1.00  0.00    -0.376 OA
BRANCH  71  72
ATOM     72  C   UNL     1       4.170   2.616   2.807  1.00  0.00     0.202 C 
BRANCH  72  73
ATOM     73  C   UNL     1       4.470   2.008   4.185  1.00  0.00     0.261 C 
BRANCH  73  74
ATOM     74  O   UNL     1       4.040   0.651   4.386  1.00  0.00    -0.460 OA
BRANCH  74  75
ATOM     75  C   UNL     1       2.943   0.492   5.166  1.00  0.00     0.338 C 
ATOM     76  O   UNL     1       2.293   1.358   5.720  1.00  0.00    -0.246 OA
BRANCH  75  77
ATOM     77  C   UNL     1       2.565  -0.934   5.221  1.00  0.00     0.060 A 
ATOM     78  C   UNL     1       1.407  -1.354   4.560  1.00  0.00     0.016 A 
ATOM     79  C   UNL     1       3.282  -1.825   6.019  1.00  0.00     0.016 A 
ATOM     80  C   UNL     1       0.958  -2.666   4.701  1.00  0.00     0.005 A 
ATOM     81  C   UNL     1       2.805  -3.129   6.193  1.00  0.00     0.005 A 
ATOM     82  C   UNL     1       1.627  -3.561   5.549  1.00  0.00    -0.038 A 
BRANCH  82  83
ATOM     83  C   UNL     1       0.979  -4.907   5.829  1.00  0.00     0.081 C 
ATOM     84  C   UNL     1       0.428  -4.971   7.270  1.00  0.00     0.111 C 
ATOM     85  C   UNL     1       1.983  -5.964   5.574  1.00  0.00     0.093 A 
ATOM     86  C   UNL     1       0.998  -6.081   8.135  1.00  0.00     0.188 C 
ATOM     87  C   UNL     1       2.276  -6.920   6.520  1.00  0.00     0.164 A 
ATOM     88  N   UNL     1       2.717  -6.128   4.434  1.00  0.00    -0.238 NA
ATOM     89  N   UNL     1       1.832  -7.011   7.797  1.00  0.00    -0.198 NA
ATOM     90  N   UNL     1       3.235  -7.724   5.932  1.00  0.00    -0.283 N 
ATOM     91  C   UNL     1       3.483  -7.169   4.691  1.00  0.00     0.206 A 
BRANCH  86  92
ATOM     92  O   UNL     1       0.545  -6.059   9.407  1.00  0.00    -0.496 OA
ATOM     93  H   UNL     1      -0.059  -5.397   9.677  1.00  0.00     0.294 HD
ENDBRANCH  86  92
BRANCH  90  94
ATOM     94  C   UNL     1       3.849  -8.879   6.471  1.00  0.00     0.050 A 
ATOM     95  C   UNL     1       5.200  -9.137   6.212  1.00  0.00     0.027 A 
ATOM     96  C   UNL     1       3.094  -9.770   7.245  1.00  0.00     0.047 A 
ATOM     97  C   UNL     1       5.801 -10.276   6.750  1.00  0.00     0.004 A 
ATOM     98  C   UNL     1       3.694 -10.926   7.736  1.00  0.00     0.043 A 
ATOM     99  C   UNL     1       5.045 -11.178   7.502  1.00  0.00     0.020 A 
ATOM    100  Cl  UNL     1       2.758 -12.063   8.628  1.00  0.00    -0.084 Cl
ENDBRANCH  90  94
ENDBRANCH  82  83
ENDBRANCH  75  77
ENDBRANCH  74  75
ENDBRANCH  73  74
ENDBRANCH  72  73
ENDBRANCH  71  72
ENDBRANCH  70  71
ENDBRANCH   1  70
TORSDOF 23
