REMARK SMILES C[C@H](C(=O)OCCOCCOCCOC(=O)c1ccc(-c2c3nc(c(-c4ccc(S(=O)(=O)[O-])cc4)c4ccc([nH]4)c(-c4ccc(S(=O)(=O)[O-])cc4)c4nc(c(-c5ccc(S(=O)(=O)[O-])cc5)c5ccc2[nH]5)C=C4)C=C3)cc1)[C@@H](C)[NH2+]C[C@@H]1CCCC[C@@H]1CO
REMARK SMILES IDX 8 1 7 2 6 3 5 4 3 5 4 6 2 7 1 8 77 9 78 10 79 11 80 14 81 15
REMARK SMILES IDX 82 16 86 17 83 18 85 19 84 20 87 21 88 22 9 24 10 25 11 26
REMARK SMILES IDX 12 27 13 28 14 29 15 30 16 31 17 32 18 33 76 34 19 35 75 36
REMARK SMILES IDX 20 37 21 38 22 39 69 40 23 41 74 42 68 43 70 44 24 45 73 46
REMARK SMILES IDX 67 47 66 48 25 50 55 51 36 52 54 53 37 54 40 55 53 56 71 57
REMARK SMILES IDX 38 58 39 59 52 61 72 62 41 63 26 64 27 65 35 66 28 67 34 68
REMARK SMILES IDX 29 69 30 70 31 71 32 72 33 73 56 74 57 75 65 76 58 77 64 78
REMARK SMILES IDX 59 79 60 80 61 81 62 82 63 83 42 84 43 85 51 86 44 87 50 88
REMARK SMILES IDX 45 89 46 90 47 91 48 92 49 93
REMARK H PARENT 79 12 79 13 88 23 70 49 40 60
REMARK Flexibility Score: inf
ROOT
ATOM      1  O   UNL     1       2.028  -1.148  -2.588  1.00  0.00    -0.376 OA
ENDROOT
BRANCH   1   2
ATOM      2  C   UNL     1       1.626  -2.179  -1.702  1.00  0.00     0.202 C 
BRANCH   2   3
ATOM      3  C   UNL     1       1.728  -2.007  -0.180  1.00  0.00     0.261 C 
BRANCH   3   4
ATOM      4  O   UNL     1       1.202  -0.772   0.324  1.00  0.00    -0.463 OA
BRANCH   4   5
ATOM      5  C   UNL     1       2.009   0.012   1.101  1.00  0.00     0.314 C 
ATOM      6  O   UNL     1       3.187  -0.223   1.327  1.00  0.00    -0.252 OA
BRANCH   5   7
ATOM      7  C   UNL     1       1.260   1.238   1.662  1.00  0.00     0.154 C 
ATOM      8  C   UNL     1       1.555   2.470   0.806  1.00  0.00     0.026 C 
BRANCH   7   9
ATOM      9  C   UNL     1      -0.246   0.892   1.843  1.00  0.00     0.193 C 
ATOM     10  C   UNL     1      -0.317  -0.213   2.902  1.00  0.00     0.076 C 
BRANCH   9  11
ATOM     11  N   UNL     1      -1.140   1.995   2.210  1.00  0.00    -0.343 N 
ATOM     12  H   UNL     1      -0.758   2.851   1.809  1.00  0.00     0.346 HD
ATOM     13  H   UNL     1      -1.178   1.984   3.229  1.00  0.00     0.346 HD
BRANCH  11  14
ATOM     14  C   UNL     1      -2.547   1.879   1.764  1.00  0.00     0.264 C 
BRANCH  14  15
ATOM     15  C   UNL     1      -3.538   0.796   2.334  1.00  0.00     0.049 C 
ATOM     16  C   UNL     1      -3.380   0.609   3.865  1.00  0.00     0.010 C 
ATOM     17  C   UNL     1      -3.831  -0.482   1.457  1.00  0.00     0.023 C 
ATOM     18  C   UNL     1      -3.758  -0.740   4.473  1.00  0.00     0.001 C 
ATOM     19  C   UNL     1      -4.351  -1.687   2.266  1.00  0.00     0.006 C 
ATOM     20  C   UNL     1      -3.584  -1.929   3.547  1.00  0.00     0.000 C 
BRANCH  17  21
ATOM     21  C   UNL     1      -2.780  -0.879   0.410  1.00  0.00     0.160 C 
BRANCH  21  22
ATOM     22  O   UNL     1      -3.097  -2.125  -0.209  1.00  0.00    -0.396 OA
ATOM     23  H   UNL     1      -3.119  -2.824   0.463  1.00  0.00     0.210 HD
ENDBRANCH  21  22
ENDBRANCH  17  21
ENDBRANCH  14  15
ENDBRANCH  11  14
ENDBRANCH   9  11
ENDBRANCH   7   9
ENDBRANCH   5   7
ENDBRANCH   4   5
ENDBRANCH   3   4
ENDBRANCH   2   3
ENDBRANCH   1   2
BRANCH   1  24
ATOM     24  C   UNL     1       1.694   0.194  -2.286  1.00  0.00     0.188 C 
BRANCH  24  25
ATOM     25  C   UNL     1       0.222   0.571  -2.029  1.00  0.00     0.188 C 
BRANCH  25  26
ATOM     26  O   UNL     1      -0.779  -0.405  -2.181  1.00  0.00    -0.376 OA
BRANCH  26  27
ATOM     27  C   UNL     1      -1.113  -0.899  -3.465  1.00  0.00     0.202 C 
BRANCH  27  28
ATOM     28  C   UNL     1      -0.793  -0.205  -4.806  1.00  0.00     0.261 C 
BRANCH  28  29
ATOM     29  O   UNL     1       0.246   0.775  -4.828  1.00  0.00    -0.460 OA
BRANCH  29  30
ATOM     30  C   UNL     1      -0.168   2.072  -4.837  1.00  0.00     0.338 C 
ATOM     31  O   UNL     1      -1.309   2.478  -4.822  1.00  0.00    -0.246 OA
BRANCH  30  32
ATOM     32  C   UNL     1       1.022   2.930  -4.633  1.00  0.00     0.060 A 
ATOM     33  C   UNL     1       1.097   3.715  -3.472  1.00  0.00     0.016 A 
ATOM     34  C   UNL     1       2.058   2.945  -5.566  1.00  0.00     0.016 A 
ATOM     35  C   UNL     1       2.206   4.530  -3.248  1.00  0.00     0.010 A 
ATOM     36  C   UNL     1       3.155   3.785  -5.355  1.00  0.00     0.010 A 
ATOM     37  C   UNL     1       3.221   4.601  -4.209  1.00  0.00    -0.014 A 
BRANCH  37  38
ATOM     38  C   UNL     1       4.249   5.666  -4.125  1.00  0.00     0.031 A 
ATOM     39  C   UNL     1       4.037   6.919  -4.932  1.00  0.00     0.074 A 
ATOM     40  C   UNL     1       5.344   5.531  -3.356  1.00  0.00     0.049 A 
ATOM     41  N   UNL     1       4.825   7.950  -5.086  1.00  0.00    -0.248 NA
ATOM     42  C   UNL     1       2.764   7.017  -5.666  1.00  0.00     0.031 C 
ATOM     43  C   UNL     1       5.635   4.395  -2.484  1.00  0.00     0.029 A 
ATOM     44  N   UNL     1       6.425   6.364  -3.196  1.00  0.00    -0.354 N 
ATOM     45  C   UNL     1       4.154   8.810  -5.947  1.00  0.00     0.074 A 
ATOM     46  C   UNL     1       2.905   8.172  -6.298  1.00  0.00     0.031 C 
ATOM     47  C   UNL     1       6.825   4.597  -1.888  1.00  0.00     0.029 A 
ATOM     48  C   UNL     1       7.397   5.854  -2.368  1.00  0.00     0.049 A 
ATOM     49  H   UNL     1       6.497   7.243  -3.634  1.00  0.00     0.167 HD
ATOM     50  C   UNL     1       4.543  10.023  -6.406  1.00  0.00     0.031 A 
ATOM     51  C   UNL     1       8.618   6.336  -2.057  1.00  0.00     0.031 A 
ATOM     52  C   UNL     1       5.795  10.646  -6.067  1.00  0.00     0.049 A 
ATOM     53  C   UNL     1       9.067   7.648  -2.652  1.00  0.00     0.074 A 
ATOM     54  C   UNL     1       6.275  11.880  -6.467  1.00  0.00     0.029 A 
ATOM     55  N   UNL     1       6.768  10.080  -5.258  1.00  0.00    -0.354 N 
ATOM     56  N   UNL     1       8.414   8.463  -3.447  1.00  0.00    -0.248 NA
ATOM     57  C   UNL     1      10.420   8.108  -2.303  1.00  0.00     0.031 C 
ATOM     58  C   UNL     1       7.568  12.030  -5.958  1.00  0.00     0.029 A 
ATOM     59  C   UNL     1       7.862  10.925  -5.175  1.00  0.00     0.049 A 
ATOM     60  H   UNL     1       6.693   9.207  -4.809  1.00  0.00     0.167 HD
ATOM     61  C   UNL     1       9.261   9.547  -3.661  1.00  0.00     0.074 A 
ATOM     62  C   UNL     1      10.469   9.289  -2.904  1.00  0.00     0.031 C 
ATOM     63  C   UNL     1       9.057  10.658  -4.413  1.00  0.00     0.031 A 
BRANCH  50  64
ATOM     64  C   UNL     1       3.625  10.733  -7.365  1.00  0.00    -0.014 A 
ATOM     65  C   UNL     1       2.394  11.269  -6.945  1.00  0.00     0.010 A 
ATOM     66  C   UNL     1       4.022  10.902  -8.705  1.00  0.00     0.010 A 
ATOM     67  C   UNL     1       1.563  11.928  -7.855  1.00  0.00     0.020 A 
ATOM     68  C   UNL     1       3.208  11.587  -9.610  1.00  0.00     0.020 A 
ATOM     69  C   UNL     1       1.976  12.083  -9.182  1.00  0.00     0.054 A 
BRANCH  69  70
ATOM     70  S   UNL     1       0.890  12.970 -10.332  1.00  0.00     0.124 S 
ATOM     71  O   UNL     1      -0.210  12.022 -10.500  1.00  0.00    -0.237 OA
ATOM     72  O   UNL     1       0.564  14.185  -9.590  1.00  0.00    -0.237 OA
ATOM     73  O   UNL     1       1.724  13.170 -11.514  1.00  0.00    -0.744 OA
ENDBRANCH  69  70
ENDBRANCH  50  64
BRANCH  51  74
ATOM     74  C   UNL     1       9.521   5.567  -1.153  1.00  0.00    -0.014 A 
ATOM     75  C   UNL     1       9.864   6.070   0.116  1.00  0.00     0.010 A 
ATOM     76  C   UNL     1      10.061   4.335  -1.564  1.00  0.00     0.010 A 
ATOM     77  C   UNL     1      10.744   5.366   0.944  1.00  0.00     0.020 A 
ATOM     78  C   UNL     1      10.916   3.613  -0.726  1.00  0.00     0.020 A 
ATOM     79  C   UNL     1      11.262   4.140   0.519  1.00  0.00     0.054 A 
BRANCH  79  80
ATOM     80  S   UNL     1      12.368   3.226   1.630  1.00  0.00     0.124 S 
ATOM     81  O   UNL     1      13.577   4.043   1.596  1.00  0.00    -0.237 OA
ATOM     82  O   UNL     1      11.630   3.241   2.890  1.00  0.00    -0.237 OA
ATOM     83  O   UNL     1      12.482   1.914   0.997  1.00  0.00    -0.744 OA
ENDBRANCH  79  80
ENDBRANCH  51  74
BRANCH  63  84
ATOM     84  C   UNL     1      10.138  11.710  -4.421  1.00  0.00    -0.014 A 
ATOM     85  C   UNL     1      11.370  11.497  -5.066  1.00  0.00     0.010 A 
ATOM     86  C   UNL     1       9.887  12.960  -3.824  1.00  0.00     0.010 A 
ATOM     87  C   UNL     1      12.341  12.503  -5.084  1.00  0.00     0.020 A 
ATOM     88  C   UNL     1      10.842  13.979  -3.869  1.00  0.00     0.020 A 
ATOM     89  C   UNL     1      12.070  13.739  -4.488  1.00  0.00     0.054 A 
BRANCH  89  90
ATOM     90  S   UNL     1      13.330  15.041  -4.566  1.00  0.00     0.124 S 
ATOM     91  O   UNL     1      14.345  14.540  -3.643  1.00  0.00    -0.237 OA
ATOM     92  O   UNL     1      13.707  15.037  -5.978  1.00  0.00    -0.237 OA
ATOM     93  O   UNL     1      12.621  16.238  -4.120  1.00  0.00    -0.744 OA
ENDBRANCH  89  90
ENDBRANCH  63  84
ENDBRANCH  37  38
ENDBRANCH  30  32
ENDBRANCH  29  30
ENDBRANCH  28  29
ENDBRANCH  27  28
ENDBRANCH  26  27
ENDBRANCH  25  26
ENDBRANCH  24  25
ENDBRANCH   1  24
TORSDOF 26
