REMARK SMILES O=C(OCCOCCOCCOC(=O)[C@H]1C[C@@H]2CCCC[C@H]2N1C(=O)CN1CSCC1=O)c1ccc(-c2c3nc(c(-c4ccc(S(=O)(=O)[O-])cc4)c4ccc([nH]4)c(-c4ccc(S(=O)(=O)[O-])cc4)c4nc(c(-c5ccc(S(=O)(=O)[O-])cc5)c5ccc2[nH]5)C=C4)C=C3)cc1
REMARK SMILES IDX 7 1 6 2 5 3 4 4 3 5 2 6 1 7 33 8 34 9 92 10 35 11 91 12
REMARK SMILES IDX 36 13 37 14 38 15 85 16 39 17 90 18 84 19 86 20 40 21 89 22
REMARK SMILES IDX 83 23 82 24 41 26 71 27 52 28 70 29 53 30 56 31 69 32 87 33
REMARK SMILES IDX 54 34 55 35 68 37 88 38 57 39 42 40 43 41 51 42 44 43 50 44
REMARK SMILES IDX 45 45 46 46 47 47 48 48 49 49 72 50 73 51 81 52 74 53 80 54
REMARK SMILES IDX 75 55 76 56 77 57 78 58 79 59 58 60 59 61 67 62 60 63 66 64
REMARK SMILES IDX 61 65 62 66 63 67 64 68 65 69 8 70 9 71 10 72 11 73 12 74
REMARK SMILES IDX 13 75 14 76 15 77 16 78 23 79 17 80 22 81 18 82 21 83 19 84
REMARK SMILES IDX 20 85 24 86 25 87 26 88 27 89 28 90 31 91 29 92 30 93 32 94
REMARK H PARENT 86 25 56 36
REMARK Flexibility Score: inf
ROOT
ATOM      1  C   UNL     1       2.710   0.489  -1.812  1.00  0.00     0.188 C 
ENDROOT
BRANCH   1   2
ATOM      2  O   UNL     1       4.072   0.765  -1.496  1.00  0.00    -0.376 OA
BRANCH   2   3
ATOM      3  C   UNL     1       4.896  -0.379  -1.252  1.00  0.00     0.202 C 
BRANCH   3   4
ATOM      4  C   UNL     1       4.414  -1.441  -0.236  1.00  0.00     0.261 C 
BRANCH   4   5
ATOM      5  O   UNL     1       3.012  -1.414   0.105  1.00  0.00    -0.460 OA
BRANCH   5   6
ATOM      6  C   UNL     1       2.369  -0.797   1.130  1.00  0.00     0.338 C 
ATOM      7  O   UNL     1       1.199  -1.101   1.359  1.00  0.00    -0.246 OA
BRANCH   6   8
ATOM      8  C   UNL     1       3.014   0.242   1.984  1.00  0.00     0.060 A 
ATOM      9  C   UNL     1       4.138   0.966   1.607  1.00  0.00     0.016 A 
ATOM     10  C   UNL     1       2.429   0.544   3.224  1.00  0.00     0.016 A 
ATOM     11  C   UNL     1       4.785   1.819   2.479  1.00  0.00     0.010 A 
ATOM     12  C   UNL     1       3.028   1.466   4.090  1.00  0.00     0.010 A 
ATOM     13  C   UNL     1       4.252   2.049   3.740  1.00  0.00    -0.014 A 
BRANCH  13  14
ATOM     14  C   UNL     1       5.123   2.731   4.713  1.00  0.00     0.031 A 
ATOM     15  C   UNL     1       5.755   1.893   5.788  1.00  0.00     0.074 A 
ATOM     16  C   UNL     1       5.487   4.010   4.503  1.00  0.00     0.049 A 
ATOM     17  N   UNL     1       6.593   2.244   6.724  1.00  0.00    -0.248 NA
ATOM     18  C   UNL     1       5.412   0.458   5.798  1.00  0.00     0.031 C 
ATOM     19  C   UNL     1       5.030   4.846   3.386  1.00  0.00     0.029 A 
ATOM     20  N   UNL     1       6.364   4.812   5.180  1.00  0.00    -0.354 N 
ATOM     21  C   UNL     1       6.838   1.088   7.457  1.00  0.00     0.074 A 
ATOM     22  C   UNL     1       6.060   0.026   6.867  1.00  0.00     0.031 C 
ATOM     23  C   UNL     1       5.667   6.027   3.434  1.00  0.00     0.029 A 
ATOM     24  C   UNL     1       6.510   6.060   4.623  1.00  0.00     0.049 A 
ATOM     25  H   UNL     1       6.844   4.523   5.990  1.00  0.00     0.167 HD
ATOM     26  C   UNL     1       7.639   0.935   8.536  1.00  0.00     0.031 A 
ATOM     27  C   UNL     1       7.227   7.115   5.052  1.00  0.00     0.031 A 
ATOM     28  C   UNL     1       8.398   2.016   9.100  1.00  0.00     0.049 A 
ATOM     29  C   UNL     1       8.025   6.949   6.317  1.00  0.00     0.074 A 
ATOM     30  C   UNL     1       9.206   2.012  10.220  1.00  0.00     0.029 A 
ATOM     31  N   UNL     1       8.436   3.302   8.576  1.00  0.00    -0.354 N 
ATOM     32  N   UNL     1       8.198   5.869   7.046  1.00  0.00    -0.248 NA
ATOM     33  C   UNL     1       8.719   8.138   6.823  1.00  0.00     0.031 C 
ATOM     34  C   UNL     1       9.679   3.314  10.411  1.00  0.00     0.029 A 
ATOM     35  C   UNL     1       9.232   4.109   9.365  1.00  0.00     0.049 A 
ATOM     36  H   UNL     1       7.966   3.594   7.762  1.00  0.00     0.167 HD
ATOM     37  C   UNL     1       9.044   6.241   8.082  1.00  0.00     0.074 A 
ATOM     38  C   UNL     1       9.361   7.642   7.872  1.00  0.00     0.031 C 
ATOM     39  C   UNL     1       9.521   5.500   9.114  1.00  0.00     0.031 A 
BRANCH  26  40
ATOM     40  C   UNL     1       7.637  -0.409   9.213  1.00  0.00    -0.014 A 
ATOM     41  C   UNL     1       8.208  -1.548   8.616  1.00  0.00     0.010 A 
ATOM     42  C   UNL     1       7.015  -0.537  10.468  1.00  0.00     0.010 A 
ATOM     43  C   UNL     1       8.117  -2.796   9.243  1.00  0.00     0.020 A 
ATOM     44  C   UNL     1       6.948  -1.775  11.112  1.00  0.00     0.020 A 
ATOM     45  C   UNL     1       7.483  -2.901  10.485  1.00  0.00     0.054 A 
BRANCH  45  46
ATOM     46  S   UNL     1       7.383  -4.529  11.280  1.00  0.00     0.124 S 
ATOM     47  O   UNL     1       6.412  -5.218  10.434  1.00  0.00    -0.237 OA
ATOM     48  O   UNL     1       8.757  -5.016  11.182  1.00  0.00    -0.237 OA
ATOM     49  O   UNL     1       6.926  -4.227  12.634  1.00  0.00    -0.744 OA
ENDBRANCH  45  46
ENDBRANCH  26  40
BRANCH  27  50
ATOM     50  C   UNL     1       7.181   8.412   4.318  1.00  0.00    -0.014 A 
ATOM     51  C   UNL     1       8.334   8.952   3.721  1.00  0.00     0.010 A 
ATOM     52  C   UNL     1       5.971   9.125   4.219  1.00  0.00     0.010 A 
ATOM     53  C   UNL     1       8.281  10.185   3.060  1.00  0.00     0.020 A 
ATOM     54  C   UNL     1       5.905  10.340   3.531  1.00  0.00     0.020 A 
ATOM     55  C   UNL     1       7.066  10.870   2.968  1.00  0.00     0.054 A 
BRANCH  55  56
ATOM     56  S   UNL     1       7.016  12.451   2.079  1.00  0.00     0.124 S 
ATOM     57  O   UNL     1       7.754  13.330   2.980  1.00  0.00    -0.237 OA
ATOM     58  O   UNL     1       7.684  12.125   0.822  1.00  0.00    -0.237 OA
ATOM     59  O   UNL     1       5.587  12.732   1.962  1.00  0.00    -0.744 OA
ENDBRANCH  55  56
ENDBRANCH  27  50
BRANCH  39  60
ATOM     60  C   UNL     1      10.478   6.179  10.055  1.00  0.00    -0.014 A 
ATOM     61  C   UNL     1      10.047   7.172  10.952  1.00  0.00     0.010 A 
ATOM     62  C   UNL     1      11.824   5.771  10.069  1.00  0.00     0.010 A 
ATOM     63  C   UNL     1      10.960   7.776  11.818  1.00  0.00     0.020 A 
ATOM     64  C   UNL     1      12.730   6.346  10.959  1.00  0.00     0.020 A 
ATOM     65  C   UNL     1      12.295   7.359  11.816  1.00  0.00     0.054 A 
BRANCH  65  66
ATOM     66  S   UNL     1      13.453   8.135  12.973  1.00  0.00     0.124 S 
ATOM     67  O   UNL     1      13.632   9.457  12.380  1.00  0.00    -0.237 OA
ATOM     68  O   UNL     1      12.713   8.105  14.232  1.00  0.00    -0.237 OA
ATOM     69  O   UNL     1      14.626   7.266  12.925  1.00  0.00    -0.744 OA
ENDBRANCH  65  66
ENDBRANCH  39  60
ENDBRANCH  13  14
ENDBRANCH   6   8
ENDBRANCH   5   6
ENDBRANCH   4   5
ENDBRANCH   3   4
ENDBRANCH   2   3
ENDBRANCH   1   2
BRANCH   1  70
ATOM     70  C   UNL     1       2.079   1.419  -2.845  1.00  0.00     0.188 C 
BRANCH  70  71
ATOM     71  O   UNL     1       2.714   1.520  -4.115  1.00  0.00    -0.376 OA
BRANCH  71  72
ATOM     72  C   UNL     1       4.108   1.804  -4.130  1.00  0.00     0.202 C 
BRANCH  72  73
ATOM     73  C   UNL     1       4.595   3.161  -3.589  1.00  0.00     0.261 C 
BRANCH  73  74
ATOM     74  O   UNL     1       4.136   3.523  -2.275  1.00  0.00    -0.462 OA
BRANCH  74  75
ATOM     75  C   UNL     1       3.089   4.400  -2.236  1.00  0.00     0.328 C 
ATOM     76  O   UNL     1       2.534   4.854  -3.232  1.00  0.00    -0.250 OA
BRANCH  75  77
ATOM     77  C   UNL     1       2.711   4.762  -0.784  1.00  0.00     0.195 C 
ATOM     78  C   UNL     1       3.296   6.141  -0.439  1.00  0.00     0.043 C 
ATOM     79  N   UNL     1       1.241   4.941  -0.633  1.00  0.00    -0.324 N 
ATOM     80  C   UNL     1       2.233   7.060  -1.026  1.00  0.00     0.014 C 
ATOM     81  C   UNL     1       0.935   6.370  -0.582  1.00  0.00     0.089 C 
ATOM     82  C   UNL     1       2.212   8.517  -0.599  1.00  0.00     0.006 C 
ATOM     83  C   UNL     1      -0.209   6.971  -1.395  1.00  0.00     0.025 C 
ATOM     84  C   UNL     1       1.031   9.214  -1.290  1.00  0.00     0.000 C 
ATOM     85  C   UNL     1      -0.299   8.477  -1.105  1.00  0.00     0.002 C 
BRANCH  79  86
ATOM     86  C   UNL     1       0.464   3.920  -0.101  1.00  0.00     0.243 C 
ATOM     87  O   UNL     1       0.982   2.883   0.328  1.00  0.00    -0.273 OA
BRANCH  86  88
ATOM     88  C   UNL     1      -1.077   4.035  -0.116  1.00  0.00     0.220 C 
BRANCH  88  89
ATOM     89  N   UNL     1      -1.858   4.344   1.088  1.00  0.00    -0.323 N 
ATOM     90  C   UNL     1      -2.827   3.389   1.563  1.00  0.00     0.190 C 
ATOM     91  C   UNL     1      -1.907   5.593   1.675  1.00  0.00     0.233 C 
ATOM     92  S   UNL     1      -4.054   4.282   2.526  1.00  0.00    -0.130 SA
ATOM     93  C   UNL     1      -3.031   5.754   2.665  1.00  0.00     0.171 C 
ATOM     94  O   UNL     1      -1.148   6.524   1.429  1.00  0.00    -0.274 OA
ENDBRANCH  88  89
ENDBRANCH  86  88
ENDBRANCH  79  86
ENDBRANCH  75  77
ENDBRANCH  74  75
ENDBRANCH  73  74
ENDBRANCH  72  73
ENDBRANCH  71  72
ENDBRANCH  70  71
ENDBRANCH   1  70
TORSDOF 23
