REMARK SMILES COc1ccccc1NC(=O)[C@H](C)c1nc(CC(=O)OCCOCCOCCOC(=O)c2ccc(-c3c4nc(c(-c5ccc(S(=O)(=O)[O-])cc5)c5ccc([nH]5)c(-c5ccc(S(=O)(=O)[O-])cc5)c5nc(c(-c6ccc(S(=O)(=O)[O-])cc6)c6ccc3[nH]6)C=C5)C=C4)cc2)cs1
REMARK SMILES IDX 24 1 23 2 22 3 21 4 20 5 18 6 19 7 17 8 16 9 14 10 15 11
REMARK SMILES IDX 93 12 92 13 12 14 13 15 10 16 9 17 11 19 8 20 3 21 4 22 5 23
REMARK SMILES IDX 7 24 6 25 2 26 1 27 25 28 26 29 27 30 28 31 29 32 30 33
REMARK SMILES IDX 31 34 32 35 33 36 91 37 34 38 90 39 35 40 36 41 37 42 84 43
REMARK SMILES IDX 38 44 89 45 83 46 85 47 39 48 88 49 82 50 81 51 40 53 70 54
REMARK SMILES IDX 51 55 69 56 52 57 55 58 68 59 86 60 53 61 54 62 67 64 87 65
REMARK SMILES IDX 56 66 41 67 42 68 50 69 43 70 49 71 44 72 45 73 46 74 47 75
REMARK SMILES IDX 48 76 71 77 72 78 80 79 73 80 79 81 74 82 75 83 76 84 77 85
REMARK SMILES IDX 78 86 57 87 58 88 66 89 59 90 65 91 60 92 61 93 62 94 63 95
REMARK SMILES IDX 64 96
REMARK H PARENT 9 18 85 52 55 63
REMARK Flexibility Score: inf
ROOT
ATOM      1  C   UNL     1       0.167   7.006   4.846  1.00  0.00     0.188 C 
ENDROOT
BRANCH   1   2
ATOM      2  O   UNL     1      -0.707   8.053   4.434  1.00  0.00    -0.376 OA
BRANCH   2   3
ATOM      3  C   UNL     1      -0.814   8.362   3.051  1.00  0.00     0.202 C 
BRANCH   3   4
ATOM      4  C   UNL     1       0.459   8.845   2.346  1.00  0.00     0.261 C 
BRANCH   4   5
ATOM      5  O   UNL     1       1.565   7.911   2.365  1.00  0.00    -0.463 OA
BRANCH   5   6
ATOM      6  C   UNL     1       2.736   8.380   2.861  1.00  0.00     0.311 C 
ATOM      7  O   UNL     1       2.889   9.541   3.239  1.00  0.00    -0.252 OA
BRANCH   6   8
ATOM      8  C   UNL     1       3.907   7.427   2.891  1.00  0.00     0.179 C 
BRANCH   8   9
ATOM      9  C   UNL     1       3.727   5.942   2.779  1.00  0.00     0.063 A 
ATOM     10  C   UNL     1       3.995   4.024   1.657  1.00  0.00     0.105 A 
ATOM     11  N   UNL     1       3.821   5.329   1.532  1.00  0.00    -0.245 NA
ATOM     12  S   UNL     1       3.781   3.435   3.269  1.00  0.00    -0.126 S 
ATOM     13  C   UNL     1       3.720   5.048   3.837  1.00  0.00     0.091 A 
BRANCH  10  14
ATOM     14  C   UNL     1       4.583   3.100   0.611  1.00  0.00     0.135 C 
ATOM     15  C   UNL     1       3.666   1.923   0.267  1.00  0.00     0.026 C 
BRANCH  14  16
ATOM     16  C   UNL     1       4.958   3.877  -0.643  1.00  0.00     0.234 C 
ATOM     17  N   UNL     1       5.982   4.777  -0.693  1.00  0.00    -0.322 N 
ATOM     18  H   UNL     1       6.140   5.104  -1.608  1.00  0.00     0.170 HD
ATOM     19  O   UNL     1       4.364   3.679  -1.714  1.00  0.00    -0.274 OA
BRANCH  17  20
ATOM     20  C   UNL     1       6.872   5.358   0.234  1.00  0.00     0.083 A 
ATOM     21  C   UNL     1       7.623   6.461  -0.219  1.00  0.00     0.142 A 
ATOM     22  C   UNL     1       8.515   7.134   0.621  1.00  0.00     0.048 A 
ATOM     23  C   UNL     1       8.656   6.729   1.945  1.00  0.00     0.004 A 
ATOM     24  C   UNL     1       7.066   4.945   1.552  1.00  0.00     0.030 A 
ATOM     25  C   UNL     1       7.937   5.632   2.406  1.00  0.00     0.002 A 
BRANCH  21  26
ATOM     26  O   UNL     1       7.575   6.858  -1.535  1.00  0.00    -0.495 OA
ATOM     27  C   UNL     1       6.460   7.712  -1.798  1.00  0.00     0.278 C 
ENDBRANCH  21  26
ENDBRANCH  17  20
ENDBRANCH  14  16
ENDBRANCH  10  14
ENDBRANCH   8   9
ENDBRANCH   6   8
ENDBRANCH   5   6
ENDBRANCH   4   5
ENDBRANCH   3   4
ENDBRANCH   2   3
ENDBRANCH   1   2
BRANCH   1  28
ATOM     28  C   UNL     1       0.365   5.797   3.923  1.00  0.00     0.188 C 
BRANCH  28  29
ATOM     29  O   UNL     1      -0.738   5.571   3.067  1.00  0.00    -0.376 OA
BRANCH  29  30
ATOM     30  C   UNL     1      -1.219   4.243   3.026  1.00  0.00     0.202 C 
BRANCH  30  31
ATOM     31  C   UNL     1      -2.122   3.945   4.225  1.00  0.00     0.261 C 
BRANCH  31  32
ATOM     32  O   UNL     1      -1.512   4.145   5.515  1.00  0.00    -0.460 OA
BRANCH  32  33
ATOM     33  C   UNL     1      -0.526   3.293   5.863  1.00  0.00     0.338 C 
ATOM     34  O   UNL     1      -0.094   2.359   5.193  1.00  0.00    -0.246 OA
BRANCH  33  35
ATOM     35  C   UNL     1       0.101   3.784   7.107  1.00  0.00     0.060 A 
ATOM     36  C   UNL     1       1.474   4.066   7.118  1.00  0.00     0.016 A 
ATOM     37  C   UNL     1      -0.657   3.946   8.268  1.00  0.00     0.016 A 
ATOM     38  C   UNL     1       2.098   4.482   8.296  1.00  0.00     0.010 A 
ATOM     39  C   UNL     1      -0.028   4.344   9.451  1.00  0.00     0.010 A 
ATOM     40  C   UNL     1       1.358   4.586   9.481  1.00  0.00    -0.014 A 
BRANCH  40  41
ATOM     41  C   UNL     1       2.046   4.771  10.786  1.00  0.00     0.031 A 
ATOM     42  C   UNL     1       2.240   3.570  11.674  1.00  0.00     0.074 A 
ATOM     43  C   UNL     1       2.490   5.978  11.184  1.00  0.00     0.049 A 
ATOM     44  N   UNL     1       2.722   3.504  12.888  1.00  0.00    -0.248 NA
ATOM     45  C   UNL     1       1.833   2.271  11.116  1.00  0.00     0.031 C 
ATOM     46  C   UNL     1       2.413   7.211  10.402  1.00  0.00     0.029 A 
ATOM     47  N   UNL     1       3.085   6.363  12.362  1.00  0.00    -0.354 N 
ATOM     48  C   UNL     1       2.656   2.162  13.248  1.00  0.00     0.074 A 
ATOM     49  C   UNL     1       2.068   1.454  12.132  1.00  0.00     0.031 C 
ATOM     50  C   UNL     1       2.929   8.219  11.128  1.00  0.00     0.029 A 
ATOM     51  C   UNL     1       3.331   7.713  12.440  1.00  0.00     0.049 A 
ATOM     52  H   UNL     1       3.313   5.731  13.081  1.00  0.00     0.167 HD
ATOM     53  C   UNL     1       3.049   1.571  14.401  1.00  0.00     0.031 A 
ATOM     54  C   UNL     1       3.796   8.462  13.462  1.00  0.00     0.031 A 
ATOM     55  C   UNL     1       3.622   2.277  15.516  1.00  0.00     0.049 A 
ATOM     56  C   UNL     1       4.153   7.795  14.767  1.00  0.00     0.074 A 
ATOM     57  C   UNL     1       4.062   1.765  16.724  1.00  0.00     0.029 A 
ATOM     58  N   UNL     1       3.826   3.648  15.566  1.00  0.00    -0.354 N 
ATOM     59  N   UNL     1       4.097   6.524  15.088  1.00  0.00    -0.248 NA
ATOM     60  C   UNL     1       4.640   8.665  15.847  1.00  0.00     0.031 C 
ATOM     61  C   UNL     1       4.475   2.833  17.527  1.00  0.00     0.029 A 
ATOM     62  C   UNL     1       4.360   4.003  16.793  1.00  0.00     0.049 A 
ATOM     63  H   UNL     1       3.622   4.276  14.836  1.00  0.00     0.167 HD
ATOM     64  C   UNL     1       4.571   6.440  16.394  1.00  0.00     0.074 A 
ATOM     65  C   UNL     1       4.921   7.785  16.799  1.00  0.00     0.031 C 
ATOM     66  C   UNL     1       4.706   5.346  17.186  1.00  0.00     0.031 A 
BRANCH  53  67
ATOM     67  C   UNL     1       2.831   0.085  14.530  1.00  0.00    -0.014 A 
ATOM     68  C   UNL     1       3.584  -0.835  13.778  1.00  0.00     0.010 A 
ATOM     69  C   UNL     1       1.874  -0.399  15.442  1.00  0.00     0.010 A 
ATOM     70  C   UNL     1       3.354  -2.208  13.903  1.00  0.00     0.020 A 
ATOM     71  C   UNL     1       1.663  -1.772  15.593  1.00  0.00     0.020 A 
ATOM     72  C   UNL     1       2.392  -2.667  14.808  1.00  0.00     0.054 A 
BRANCH  72  73
ATOM     73  S   UNL     1       2.125  -4.454  14.960  1.00  0.00     0.124 S 
ATOM     74  O   UNL     1       1.454  -4.766  13.700  1.00  0.00    -0.237 OA
ATOM     75  O   UNL     1       3.485  -4.970  15.092  1.00  0.00    -0.237 OA
ATOM     76  O   UNL     1       1.294  -4.582  16.155  1.00  0.00    -0.744 OA
ENDBRANCH  72  73
ENDBRANCH  53  67
BRANCH  54  77
ATOM     77  C   UNL     1       3.923   9.939  13.306  1.00  0.00    -0.014 A 
ATOM     78  C   UNL     1       5.187  10.555  13.284  1.00  0.00     0.010 A 
ATOM     79  C   UNL     1       2.772  10.741  13.184  1.00  0.00     0.010 A 
ATOM     80  C   UNL     1       5.297  11.943  13.157  1.00  0.00     0.020 A 
ATOM     81  C   UNL     1       2.879  12.125  13.026  1.00  0.00     0.020 A 
ATOM     82  C   UNL     1       4.142  12.719  13.024  1.00  0.00     0.054 A 
BRANCH  82  83
ATOM     83  S   UNL     1       4.314  14.512  12.804  1.00  0.00     0.124 S 
ATOM     84  O   UNL     1       4.734  14.943  14.133  1.00  0.00    -0.237 OA
ATOM     85  O   UNL     1       5.329  14.604  11.758  1.00  0.00    -0.237 OA
ATOM     86  O   UNL     1       2.975  14.937  12.401  1.00  0.00    -0.744 OA
ENDBRANCH  82  83
ENDBRANCH  54  77
BRANCH  66  87
ATOM     87  C   UNL     1       5.300   5.543  18.558  1.00  0.00    -0.014 A 
ATOM     88  C   UNL     1       4.585   6.189  19.583  1.00  0.00     0.010 A 
ATOM     89  C   UNL     1       6.575   5.019  18.841  1.00  0.00     0.010 A 
ATOM     90  C   UNL     1       5.148   6.334  20.855  1.00  0.00     0.020 A 
ATOM     91  C   UNL     1       7.128   5.135  20.119  1.00  0.00     0.020 A 
ATOM     92  C   UNL     1       6.417   5.806  21.115  1.00  0.00     0.054 A 
BRANCH  92  93
ATOM     93  S   UNL     1       7.108   5.971  22.784  1.00  0.00     0.124 S 
ATOM     94  O   UNL     1       7.439   7.392  22.837  1.00  0.00    -0.237 OA
ATOM     95  O   UNL     1       5.996   5.552  23.634  1.00  0.00    -0.237 OA
ATOM     96  O   UNL     1       8.254   5.065  22.777  1.00  0.00    -0.744 OA
ENDBRANCH  92  93
ENDBRANCH  66  87
ENDBRANCH  40  41
ENDBRANCH  33  35
ENDBRANCH  32  33
ENDBRANCH  31  32
ENDBRANCH  30  31
ENDBRANCH  29  30
ENDBRANCH  28  29
ENDBRANCH   1  28
TORSDOF 25
