REMARK SMILES COc1cc(Cl)cc(/C=C/C(=O)OCCOCCOCCOC(=O)c2ccc(-c3c4nc(c(-c5ccc(S(=O)(=O)[O-])cc5)c5ccc([nH]5)c(-c5ccc(S(=O)(=O)[O-])cc5)c5nc(c(-c6ccc(S(=O)(=O)[O-])cc6)c6ccc3[nH]6)C=C5)C=C4)cc2)c1OC
REMARK SMILES IDX 18 1 17 2 16 3 15 4 14 5 13 6 11 7 12 8 10 9 9 10 8 11 3 12
REMARK SMILES IDX 4 13 85 14 5 15 6 16 7 17 2 18 1 19 86 20 87 21 19 22 20 23
REMARK SMILES IDX 21 24 22 25 23 26 24 27 25 28 26 29 84 30 27 31 83 32 28 33
REMARK SMILES IDX 29 34 30 35 77 36 31 37 82 38 76 39 78 40 32 41 81 42 75 43
REMARK SMILES IDX 74 44 33 46 63 47 44 48 62 49 45 50 48 51 61 52 79 53 46 54
REMARK SMILES IDX 47 55 60 57 80 58 49 59 34 60 35 61 43 62 36 63 42 64 37 65
REMARK SMILES IDX 38 66 39 67 40 68 41 69 64 70 65 71 73 72 66 73 72 74 67 75
REMARK SMILES IDX 68 76 69 77 70 78 71 79 50 80 51 81 59 82 52 83 58 84 53 85
REMARK SMILES IDX 54 86 55 87 56 88 57 89
REMARK H PARENT 78 45 48 56
REMARK Flexibility Score: inf
ROOT
ATOM      1  C   UNL     1      -2.225  -7.116   3.809  1.00  0.00     0.188 C 
ENDROOT
BRANCH   1   2
ATOM      2  C   UNL     1      -1.797  -7.813   5.117  1.00  0.00     0.188 C 
BRANCH   2   3
ATOM      3  O   UNL     1      -2.780  -8.281   6.027  1.00  0.00    -0.376 OA
BRANCH   3   4
ATOM      4  C   UNL     1      -3.787  -7.395   6.491  1.00  0.00     0.202 C 
BRANCH   4   5
ATOM      5  C   UNL     1      -3.427  -5.997   7.009  1.00  0.00     0.261 C 
BRANCH   5   6
ATOM      6  O   UNL     1      -2.575  -5.233   6.141  1.00  0.00    -0.460 OA
BRANCH   6   7
ATOM      7  C   UNL     1      -1.429  -4.787   6.712  1.00  0.00     0.330 C 
ATOM      8  O   UNL     1      -1.093  -4.943   7.877  1.00  0.00    -0.247 OA
BRANCH   7   9
ATOM      9  C   UNL     1      -0.516  -4.145   5.745  1.00  0.00     0.094 C 
ATOM     10  C   UNL     1      -0.849  -3.651   4.542  1.00  0.00     0.019 C 
BRANCH  10  11
ATOM     11  C   UNL     1       0.138  -3.009   3.639  1.00  0.00     0.022 A 
ATOM     12  C   UNL     1       0.775  -1.271   2.045  1.00  0.00     0.162 A 
ATOM     13  C   UNL     1       2.072  -1.801   2.003  1.00  0.00     0.071 A 
ATOM     14  C   UNL     1      -0.205  -1.866   2.869  1.00  0.00     0.168 A 
ATOM     15  C   UNL     1       2.384  -2.945   2.725  1.00  0.00     0.045 A 
ATOM     16  Cl  UNL     1       3.975  -3.596   2.643  1.00  0.00    -0.084 Cl
ATOM     17  C   UNL     1       1.427  -3.556   3.527  1.00  0.00     0.032 A 
BRANCH  12  18
ATOM     18  O   UNL     1       0.497  -0.113   1.361  1.00  0.00    -0.493 OA
ATOM     19  C   UNL     1       0.931  -0.118   0.002  1.00  0.00     0.278 C 
ENDBRANCH  12  18
BRANCH  14  20
ATOM     20  O   UNL     1      -1.504  -1.447   3.034  1.00  0.00    -0.492 OA
ATOM     21  C   UNL     1      -2.011  -0.402   2.221  1.00  0.00     0.278 C 
ENDBRANCH  14  20
ENDBRANCH  10  11
ENDBRANCH   7   9
ENDBRANCH   6   7
ENDBRANCH   5   6
ENDBRANCH   4   5
ENDBRANCH   3   4
ENDBRANCH   2   3
ENDBRANCH   1   2
BRANCH   1  22
ATOM     22  O   UNL     1      -3.593  -6.837   3.639  1.00  0.00    -0.376 OA
BRANCH  22  23
ATOM     23  C   UNL     1      -4.486  -7.809   3.125  1.00  0.00     0.202 C 
BRANCH  23  24
ATOM     24  C   UNL     1      -4.149  -9.261   2.736  1.00  0.00     0.261 C 
BRANCH  24  25
ATOM     25  O   UNL     1      -2.846  -9.761   3.027  1.00  0.00    -0.460 OA
BRANCH  25  26
ATOM     26  C   UNL     1      -2.006  -9.840   1.969  1.00  0.00     0.338 C 
ATOM     27  O   UNL     1      -2.218  -9.464   0.825  1.00  0.00    -0.246 OA
BRANCH  26  28
ATOM     28  C   UNL     1      -0.698 -10.315   2.445  1.00  0.00     0.060 A 
ATOM     29  C   UNL     1       0.399  -9.447   2.372  1.00  0.00     0.016 A 
ATOM     30  C   UNL     1      -0.550 -11.617   2.926  1.00  0.00     0.016 A 
ATOM     31  C   UNL     1       1.660  -9.891   2.764  1.00  0.00     0.010 A 
ATOM     32  C   UNL     1       0.719 -12.064   3.302  1.00  0.00     0.010 A 
ATOM     33  C   UNL     1       1.832 -11.213   3.198  1.00  0.00    -0.014 A 
BRANCH  33  34
ATOM     34  C   UNL     1       3.198 -11.754   3.395  1.00  0.00     0.031 A 
ATOM     35  C   UNL     1       3.832 -12.533   2.275  1.00  0.00     0.074 A 
ATOM     36  C   UNL     1       3.864 -11.553   4.546  1.00  0.00     0.049 A 
ATOM     37  N   UNL     1       4.993 -13.132   2.239  1.00  0.00    -0.248 NA
ATOM     38  C   UNL     1       3.053 -12.651   1.031  1.00  0.00     0.031 C 
ATOM     39  C   UNL     1       3.373 -10.779   5.686  1.00  0.00     0.029 A 
ATOM     40  N   UNL     1       5.101 -11.992   4.945  1.00  0.00    -0.354 N 
ATOM     41  C   UNL     1       5.080 -13.708   0.977  1.00  0.00     0.074 A 
ATOM     42  C   UNL     1       3.848 -13.403   0.284  1.00  0.00     0.031 C 
ATOM     43  C   UNL     1       4.299 -10.807   6.662  1.00  0.00     0.029 A 
ATOM     44  C   UNL     1       5.430 -11.626   6.228  1.00  0.00     0.049 A 
ATOM     45  H   UNL     1       5.697 -12.521   4.367  1.00  0.00     0.167 HD
ATOM     46  C   UNL     1       6.097 -14.425   0.443  1.00  0.00     0.031 A 
ATOM     47  C   UNL     1       6.510 -11.934   6.973  1.00  0.00     0.031 A 
ATOM     48  C   UNL     1       7.316 -14.739   1.138  1.00  0.00     0.049 A 
ATOM     49  C   UNL     1       7.593 -12.801   6.381  1.00  0.00     0.074 A 
ATOM     50  C   UNL     1       8.413 -15.442   0.673  1.00  0.00     0.029 A 
ATOM     51  N   UNL     1       7.596 -14.379   2.447  1.00  0.00    -0.354 N 
ATOM     52  N   UNL     1       7.676 -13.310   5.174  1.00  0.00    -0.248 NA
ATOM     53  C   UNL     1       8.731 -13.131   7.252  1.00  0.00     0.031 C 
ATOM     54  C   UNL     1       9.333 -15.557   1.720  1.00  0.00     0.029 A 
ATOM     55  C   UNL     1       8.835 -14.872   2.817  1.00  0.00     0.049 A 
ATOM     56  H   UNL     1       7.001 -13.852   3.028  1.00  0.00     0.167 HD
ATOM     57  C   UNL     1       8.890 -13.991   5.132  1.00  0.00     0.074 A 
ATOM     58  C   UNL     1       9.510 -13.821   6.430  1.00  0.00     0.031 C 
ATOM     59  C   UNL     1       9.443 -14.690   4.110  1.00  0.00     0.031 A 
BRANCH  46  60
ATOM     60  C   UNL     1       5.917 -14.954  -0.954  1.00  0.00    -0.014 A 
ATOM     61  C   UNL     1       5.967 -14.100  -2.070  1.00  0.00     0.010 A 
ATOM     62  C   UNL     1       5.744 -16.336  -1.155  1.00  0.00     0.010 A 
ATOM     63  C   UNL     1       5.819 -14.615  -3.361  1.00  0.00     0.020 A 
ATOM     64  C   UNL     1       5.620 -16.858  -2.446  1.00  0.00     0.020 A 
ATOM     65  C   UNL     1       5.646 -15.991  -3.540  1.00  0.00     0.054 A 
BRANCH  65  66
ATOM     66  S   UNL     1       5.491 -16.637  -5.228  1.00  0.00     0.124 S 
ATOM     67  O   UNL     1       4.150 -16.192  -5.599  1.00  0.00    -0.237 OA
ATOM     68  O   UNL     1       6.588 -15.972  -5.927  1.00  0.00    -0.237 OA
ATOM     69  O   UNL     1       5.645 -18.080  -5.064  1.00  0.00    -0.744 OA
ENDBRANCH  65  66
ENDBRANCH  46  60
BRANCH  47  70
ATOM     70  C   UNL     1       6.621 -11.443   8.375  1.00  0.00    -0.014 A 
ATOM     71  C   UNL     1       7.597 -10.494   8.726  1.00  0.00     0.010 A 
ATOM     72  C   UNL     1       5.768 -11.946   9.374  1.00  0.00     0.010 A 
ATOM     73  C   UNL     1       7.736 -10.078  10.054  1.00  0.00     0.020 A 
ATOM     74  C   UNL     1       5.884 -11.511  10.697  1.00  0.00     0.020 A 
ATOM     75  C   UNL     1       6.879 -10.591  11.032  1.00  0.00     0.054 A 
BRANCH  75  76
ATOM     76  S   UNL     1       7.059 -10.018  12.744  1.00  0.00     0.124 S 
ATOM     77  O   UNL     1       8.272 -10.710  13.169  1.00  0.00    -0.237 OA
ATOM     78  O   UNL     1       7.180  -8.571  12.582  1.00  0.00    -0.237 OA
ATOM     79  O   UNL     1       5.825 -10.465  13.385  1.00  0.00    -0.744 OA
ENDBRANCH  75  76
ENDBRANCH  47  70
BRANCH  59  80
ATOM     80  C   UNL     1      10.808 -15.288   4.331  1.00  0.00    -0.014 A 
ATOM     81  C   UNL     1      10.991 -16.410   5.158  1.00  0.00     0.010 A 
ATOM     82  C   UNL     1      11.916 -14.753   3.647  1.00  0.00     0.010 A 
ATOM     83  C   UNL     1      12.262 -16.967   5.321  1.00  0.00     0.020 A 
ATOM     84  C   UNL     1      13.183 -15.325   3.785  1.00  0.00     0.020 A 
ATOM     85  C   UNL     1      13.351 -16.421   4.633  1.00  0.00     0.054 A 
BRANCH  85  86
ATOM     86  S   UNL     1      14.983 -17.191   4.823  1.00  0.00     0.124 S 
ATOM     87  O   UNL     1      15.371 -16.753   6.161  1.00  0.00    -0.237 OA
ATOM     88  O   UNL     1      14.684 -18.614   4.690  1.00  0.00    -0.237 OA
ATOM     89  O   UNL     1      15.765 -16.620   3.729  1.00  0.00    -0.744 OA
ENDBRANCH  85  86
ENDBRANCH  59  80
ENDBRANCH  33  34
ENDBRANCH  26  28
ENDBRANCH  25  26
ENDBRANCH  24  25
ENDBRANCH  23  24
ENDBRANCH  22  23
ENDBRANCH   1  22
TORSDOF 23
