REMARK SMILES COC[C@@H](C)CC(=O)N1CC(CC(=O)OCCOCCOCCOC(=O)c2ccc(-c3c4nc(c(-c5ccc(S(=O)(=O)[O-])cc5)c5ccc([nH]5)c(-c5ccc(S(=O)(=O)[O-])cc5)c5nc(c(-c6ccc(S(=O)(=O)[O-])cc6)c6ccc3[nH]6)C=C5)C=C4)cc2)C1
REMARK SMILES IDX 19 1 18 2 17 3 16 4 15 5 13 6 14 7 12 8 11 9 7 10 8 11 9 12
REMARK SMILES IDX 10 13 87 14 6 15 4 16 5 17 3 18 2 19 1 20 20 21 21 22 22 23
REMARK SMILES IDX 23 24 24 25 25 26 26 27 27 28 28 29 86 30 29 31 85 32 30 33
REMARK SMILES IDX 31 34 32 35 79 36 33 37 84 38 78 39 80 40 34 41 83 42 77 43
REMARK SMILES IDX 76 44 35 46 65 47 46 48 64 49 47 50 50 51 63 52 81 53 48 54
REMARK SMILES IDX 49 55 62 57 82 58 51 59 36 60 37 61 45 62 38 63 44 64 39 65
REMARK SMILES IDX 40 66 41 67 42 68 43 69 66 70 67 71 75 72 68 73 74 74 69 75
REMARK SMILES IDX 70 76 71 77 72 78 73 79 52 80 53 81 61 82 54 83 60 84 55 85
REMARK SMILES IDX 56 86 57 87 58 88 59 89
REMARK H PARENT 80 45 50 56
REMARK Flexibility Score: inf
ROOT
ATOM      1  C   UNL     1      -0.957  -6.140   4.217  1.00  0.00     0.188 C 
ENDROOT
BRANCH   1   2
ATOM      2  O   UNL     1      -0.875  -5.399   5.426  1.00  0.00    -0.376 OA
BRANCH   2   3
ATOM      3  C   UNL     1      -0.501  -4.030   5.314  1.00  0.00     0.202 C 
BRANCH   3   4
ATOM      4  C   UNL     1       0.886  -3.731   4.722  1.00  0.00     0.261 C 
BRANCH   4   5
ATOM      5  O   UNL     1       1.186  -4.417   3.487  1.00  0.00    -0.463 OA
BRANCH   5   6
ATOM      6  C   UNL     1       2.268  -5.245   3.511  1.00  0.00     0.306 C 
ATOM      7  O   UNL     1       3.023  -5.373   4.467  1.00  0.00    -0.252 OA
BRANCH   6   8
ATOM      8  C   UNL     1       2.496  -6.008   2.221  1.00  0.00     0.130 C 
BRANCH   8   9
ATOM      9  C   UNL     1       1.450  -5.896   1.117  1.00  0.00     0.039 C 
ATOM     10  C   UNL     1       0.865  -4.586  -1.879  1.00  0.00     0.222 C 
ATOM     11  O   UNL     1       0.103  -5.361  -2.451  1.00  0.00    -0.275 OA
ATOM     12  N   UNL     1       1.569  -4.915  -0.737  1.00  0.00    -0.342 N 
ATOM     13  C   UNL     1       1.893  -6.279  -0.303  1.00  0.00     0.125 C 
ATOM     14  C   UNL     1       1.183  -4.489   0.606  1.00  0.00     0.125 C 
BRANCH  10  15
ATOM     15  C   UNL     1       1.253  -3.246  -2.491  1.00  0.00     0.106 C 
BRANCH  15  16
ATOM     16  C   UNL     1       0.470  -1.987  -2.080  1.00  0.00     0.021 C 
ATOM     17  C   UNL     1       0.937  -0.816  -2.958  1.00  0.00     0.010 C 
BRANCH  16  18
ATOM     18  C   UNL     1       0.621  -1.635  -0.595  1.00  0.00     0.163 C 
BRANCH  18  19
ATOM     19  O   UNL     1       0.111  -0.336  -0.306  1.00  0.00    -0.384 OA
ATOM     20  C   UNL     1       1.096   0.597   0.113  1.00  0.00     0.194 C 
ENDBRANCH  18  19
ENDBRANCH  16  18
ENDBRANCH  15  16
ENDBRANCH  10  15
ENDBRANCH   8   9
ENDBRANCH   6   8
ENDBRANCH   5   6
ENDBRANCH   4   5
ENDBRANCH   3   4
ENDBRANCH   2   3
ENDBRANCH   1   2
BRANCH   1  21
ATOM     21  C   UNL     1      -1.934  -5.629   3.157  1.00  0.00     0.188 C 
BRANCH  21  22
ATOM     22  O   UNL     1      -1.994  -4.224   2.947  1.00  0.00    -0.376 OA
BRANCH  22  23
ATOM     23  C   UNL     1      -2.990  -3.796   2.007  1.00  0.00     0.202 C 
BRANCH  23  24
ATOM     24  C   UNL     1      -4.453  -4.197   2.315  1.00  0.00     0.261 C 
BRANCH  24  25
ATOM     25  O   UNL     1      -4.730  -5.615   2.380  1.00  0.00    -0.460 OA
BRANCH  25  26
ATOM     26  C   UNL     1      -4.325  -6.386   1.342  1.00  0.00     0.338 C 
ATOM     27  O   UNL     1      -3.965  -5.982   0.249  1.00  0.00    -0.246 OA
BRANCH  26  28
ATOM     28  C   UNL     1      -4.109  -7.780   1.830  1.00  0.00     0.060 A 
ATOM     29  C   UNL     1      -2.974  -8.470   1.378  1.00  0.00     0.016 A 
ATOM     30  C   UNL     1      -4.956  -8.386   2.763  1.00  0.00     0.016 A 
ATOM     31  C   UNL     1      -2.710  -9.773   1.815  1.00  0.00     0.010 A 
ATOM     32  C   UNL     1      -4.700  -9.699   3.188  1.00  0.00     0.010 A 
ATOM     33  C   UNL     1      -3.596 -10.416   2.690  1.00  0.00    -0.014 A 
BRANCH  33  34
ATOM     34  C   UNL     1      -3.497 -11.888   2.902  1.00  0.00     0.031 A 
ATOM     35  C   UNL     1      -4.390 -12.785   2.080  1.00  0.00     0.074 A 
ATOM     36  C   UNL     1      -2.627 -12.439   3.771  1.00  0.00     0.049 A 
ATOM     37  N   UNL     1      -4.508 -14.088   2.102  1.00  0.00    -0.248 NA
ATOM     38  C   UNL     1      -5.268 -12.117   1.105  1.00  0.00     0.031 C 
ATOM     39  C   UNL     1      -1.669 -11.709   4.597  1.00  0.00     0.029 A 
ATOM     40  N   UNL     1      -2.417 -13.759   4.102  1.00  0.00    -0.354 N 
ATOM     41  C   UNL     1      -5.477 -14.394   1.153  1.00  0.00     0.074 A 
ATOM     42  C   UNL     1      -5.936 -13.140   0.596  1.00  0.00     0.031 C 
ATOM     43  C   UNL     1      -0.978 -12.589   5.346  1.00  0.00     0.029 A 
ATOM     44  C   UNL     1      -1.465 -13.943   5.078  1.00  0.00     0.049 A 
ATOM     45  H   UNL     1      -2.904 -14.503   3.680  1.00  0.00     0.167 HD
ATOM     46  C   UNL     1      -5.943 -15.607   0.768  1.00  0.00     0.031 A 
ATOM     47  C   UNL     1      -1.047 -15.068   5.698  1.00  0.00     0.031 A 
ATOM     48  C   UNL     1      -5.505 -16.859   1.323  1.00  0.00     0.049 A 
ATOM     49  C   UNL     1      -1.640 -16.403   5.314  1.00  0.00     0.074 A 
ATOM     50  C   UNL     1      -5.915 -18.137   0.984  1.00  0.00     0.029 A 
ATOM     51  N   UNL     1      -4.571 -16.995   2.337  1.00  0.00    -0.354 N 
ATOM     52  N   UNL     1      -2.536 -16.676   4.395  1.00  0.00    -0.248 NA
ATOM     53  C   UNL     1      -1.158 -17.584   6.048  1.00  0.00     0.031 C 
ATOM     54  C   UNL     1      -5.273 -19.042   1.835  1.00  0.00     0.029 A 
ATOM     55  C   UNL     1      -4.412 -18.333   2.657  1.00  0.00     0.049 A 
ATOM     56  H   UNL     1      -4.091 -16.250   2.767  1.00  0.00     0.167 HD
ATOM     57  C   UNL     1      -2.698 -18.060   4.420  1.00  0.00     0.074 A 
ATOM     58  C   UNL     1      -1.800 -18.569   5.434  1.00  0.00     0.031 C 
ATOM     59  C   UNL     1      -3.514 -18.837   3.665  1.00  0.00     0.031 A 
BRANCH  46  60
ATOM     60  C   UNL     1      -7.018 -15.633  -0.287  1.00  0.00    -0.014 A 
ATOM     61  C   UNL     1      -6.736 -15.304  -1.625  1.00  0.00     0.010 A 
ATOM     62  C   UNL     1      -8.323 -16.026   0.062  1.00  0.00     0.010 A 
ATOM     63  C   UNL     1      -7.750 -15.329  -2.587  1.00  0.00     0.020 A 
ATOM     64  C   UNL     1      -9.332 -16.082  -0.903  1.00  0.00     0.020 A 
ATOM     65  C   UNL     1      -9.042 -15.717  -2.219  1.00  0.00     0.054 A 
BRANCH  65  66
ATOM     66  S   UNL     1     -10.332 -15.761  -3.493  1.00  0.00     0.124 S 
ATOM     67  O   UNL     1     -10.562 -14.340  -3.737  1.00  0.00    -0.237 OA
ATOM     68  O   UNL     1      -9.683 -16.489  -4.580  1.00  0.00    -0.237 OA
ATOM     69  O   UNL     1     -11.435 -16.467  -2.845  1.00  0.00    -0.744 OA
ENDBRANCH  65  66
ENDBRANCH  46  60
BRANCH  47  70
ATOM     70  C   UNL     1      -0.017 -14.991   6.776  1.00  0.00    -0.014 A 
ATOM     71  C   UNL     1       1.265 -15.539   6.590  1.00  0.00     0.010 A 
ATOM     72  C   UNL     1      -0.326 -14.389   8.010  1.00  0.00     0.010 A 
ATOM     73  C   UNL     1       2.211 -15.501   7.620  1.00  0.00     0.020 A 
ATOM     74  C   UNL     1       0.626 -14.323   9.032  1.00  0.00     0.020 A 
ATOM     75  C   UNL     1       1.886 -14.889   8.834  1.00  0.00     0.054 A 
BRANCH  75  76
ATOM     76  S   UNL     1       3.146 -14.807  10.138  1.00  0.00     0.124 S 
ATOM     77  O   UNL     1       3.208 -16.193  10.590  1.00  0.00    -0.237 OA
ATOM     78  O   UNL     1       4.318 -14.324   9.412  1.00  0.00    -0.237 OA
ATOM     79  O   UNL     1       2.583 -13.860  11.098  1.00  0.00    -0.744 OA
ENDBRANCH  75  76
ENDBRANCH  47  70
BRANCH  59  80
ATOM     80  C   UNL     1      -3.453 -20.332   3.866  1.00  0.00    -0.014 A 
ATOM     81  C   UNL     1      -3.967 -20.941   5.024  1.00  0.00     0.010 A 
ATOM     82  C   UNL     1      -2.932 -21.146   2.842  1.00  0.00     0.010 A 
ATOM     83  C   UNL     1      -3.934 -22.332   5.168  1.00  0.00     0.020 A 
ATOM     84  C   UNL     1      -2.924 -22.539   2.969  1.00  0.00     0.020 A 
ATOM     85  C   UNL     1      -3.413 -23.122   4.138  1.00  0.00     0.054 A 
BRANCH  85  86
ATOM     86  S   UNL     1      -3.422 -24.927   4.330  1.00  0.00     0.124 S 
ATOM     87  O   UNL     1      -2.372 -25.133   5.324  1.00  0.00    -0.237 OA
ATOM     88  O   UNL     1      -4.783 -25.194   4.788  1.00  0.00    -0.237 OA
ATOM     89  O   UNL     1      -3.115 -25.421   2.989  1.00  0.00    -0.744 OA
ENDBRANCH  85  86
ENDBRANCH  59  80
ENDBRANCH  33  34
ENDBRANCH  26  28
ENDBRANCH  25  26
ENDBRANCH  24  25
ENDBRANCH  23  24
ENDBRANCH  22  23
ENDBRANCH  21  22
ENDBRANCH   1  21
TORSDOF 25
