REMARK SMILES Cc1cc(/C=C2/C(=O)NC(=S)N=C2OCCOCCOCCOC(=O)c2ccc(-c3c4nc(c(-c5ccc(S(=O)(=O)[O-])cc5)c5ccc([nH]5)c(-c5ccc(S(=O)(=O)[O-])cc5)c5nc(c(-c6ccc(S(=O)(=O)[O-])cc6)c6ccc3[nH]6)C=C5)C=C4)cc2)c(C)n1-c1cccc(C(=O)[O-])c1
REMARK SMILES IDX 19 1 18 2 17 3 16 4 15 5 14 6 13 7 5 8 6 9 7 10 8 11 9 12
REMARK SMILES IDX 12 13 10 14 11 16 4 17 1 18 2 19 3 20 88 21 86 22 87 23
REMARK SMILES IDX 89 24 90 25 97 26 91 27 93 28 92 29 94 30 95 31 96 32 20 33
REMARK SMILES IDX 21 34 22 35 23 36 24 37 25 38 26 39 27 40 85 41 28 42 84 43
REMARK SMILES IDX 29 44 30 45 31 46 78 47 32 48 83 49 77 50 79 51 33 52 82 53
REMARK SMILES IDX 76 54 75 55 34 57 64 58 45 59 63 60 46 61 49 62 62 63 80 64
REMARK SMILES IDX 47 65 48 66 61 68 81 69 50 70 35 71 36 72 44 73 37 74 43 75
REMARK SMILES IDX 38 76 39 77 40 78 41 79 42 80 65 81 66 82 74 83 67 84 73 85
REMARK SMILES IDX 68 86 69 87 70 88 71 89 72 90 51 91 52 92 60 93 53 94 59 95
REMARK SMILES IDX 54 96 55 97 56 98 57 99 58 100
REMARK H PARENT 9 15 79 56 49 67
REMARK Flexibility Score: inf
ROOT
ATOM      1  C   UNL     1      -3.259   5.109   4.293  1.00  0.00     0.188 C 
ENDROOT
BRANCH   1   2
ATOM      2  C   UNL     1      -1.941   5.276   5.053  1.00  0.00     0.188 C 
BRANCH   2   3
ATOM      3  O   UNL     1      -1.181   6.465   4.879  1.00  0.00    -0.376 OA
BRANCH   3   4
ATOM      4  C   UNL     1      -0.014   6.366   4.049  1.00  0.00     0.201 C 
BRANCH   4   5
ATOM      5  C   UNL     1       1.233   5.633   4.624  1.00  0.00     0.260 C 
BRANCH   5   6
ATOM      6  O   UNL     1       1.131   4.177   4.671  1.00  0.00    -0.475 OA
BRANCH   6   7
ATOM      7  C   UNL     1       0.591   3.641   5.785  1.00  0.00     0.229 C 
ATOM      8  C   UNL     1      -0.184   1.431   4.588  1.00  0.00     0.029 C 
ATOM      9  C   UNL     1      -0.077   2.322   5.604  1.00  0.00     0.103 C 
ATOM     10  C   UNL     1      -0.874   1.919   6.817  1.00  0.00     0.262 C 
ATOM     11  O   UNL     1      -1.469   0.853   6.934  1.00  0.00    -0.269 OA
ATOM     12  N   UNL     1      -0.916   2.835   7.829  1.00  0.00    -0.297 N 
ATOM     13  N   UNL     1       0.573   4.355   6.858  1.00  0.00    -0.184 NA
ATOM     14  C   UNL     1      -0.211   3.999   7.907  1.00  0.00     0.203 C 
ATOM     15  H   UNL     1      -1.519   2.634   8.582  1.00  0.00     0.172 HD
ATOM     16  S   UNL     1      -0.413   4.958   9.265  1.00  0.00    -0.038 S 
BRANCH   8  17
ATOM     17  C   UNL     1       0.289   1.310   3.235  1.00  0.00    -0.003 A 
ATOM     18  C   UNL     1       0.913  -0.691   0.119  1.00  0.00     0.065 C 
ATOM     19  C   UNL     1       0.739   0.275   1.233  1.00  0.00     0.020 A 
ATOM     20  C   UNL     1       0.417   0.051   2.563  1.00  0.00     0.031 A 
ATOM     21  N   UNL     1       0.935   1.632   1.105  1.00  0.00    -0.318 N 
ATOM     22  C   UNL     1       0.439   2.254   2.241  1.00  0.00     0.027 A 
ATOM     23  C   UNL     1       0.054   3.677   2.159  1.00  0.00     0.065 C 
BRANCH  21  24
ATOM     24  C   UNL     1       1.395   2.355  -0.022  1.00  0.00     0.046 A 
ATOM     25  C   UNL     1       2.531   3.161   0.146  1.00  0.00     0.026 A 
ATOM     26  C   UNL     1       0.551   2.520  -1.125  1.00  0.00     0.036 A 
ATOM     27  C   UNL     1       2.830   4.142  -0.794  1.00  0.00     0.003 A 
ATOM     28  C   UNL     1       0.840   3.532  -2.050  1.00  0.00    -0.001 A 
ATOM     29  C   UNL     1       1.980   4.336  -1.884  1.00  0.00     0.010 A 
BRANCH  28  30
ATOM     30  C   UNL     1      -0.073   3.862  -3.174  1.00  0.00     0.072 C 
ATOM     31  O   UNL     1       0.117   4.712  -4.016  1.00  0.00    -0.545 OA
ATOM     32  O   UNL     1      -1.199   3.124  -3.158  1.00  0.00    -0.545 OA
ENDBRANCH  28  30
ENDBRANCH  21  24
ENDBRANCH   8  17
ENDBRANCH   6   7
ENDBRANCH   5   6
ENDBRANCH   4   5
ENDBRANCH   3   4
ENDBRANCH   2   3
ENDBRANCH   1   2
BRANCH   1  33
ATOM     33  O   UNL     1      -3.172   5.353   2.900  1.00  0.00    -0.376 OA
BRANCH  33  34
ATOM     34  C   UNL     1      -3.305   6.734   2.528  1.00  0.00     0.202 C 
BRANCH  34  35
ATOM     35  C   UNL     1      -4.670   7.414   2.846  1.00  0.00     0.261 C 
BRANCH  35  36
ATOM     36  O   UNL     1      -4.694   8.512   3.834  1.00  0.00    -0.460 OA
BRANCH  36  37
ATOM     37  C   UNL     1      -5.546   8.372   4.906  1.00  0.00     0.338 C 
ATOM     38  O   UNL     1      -5.935   7.278   5.298  1.00  0.00    -0.246 OA
BRANCH  37  39
ATOM     39  C   UNL     1      -5.930   9.661   5.654  1.00  0.00     0.060 A 
ATOM     40  C   UNL     1      -5.733   9.710   7.028  1.00  0.00     0.016 A 
ATOM     41  C   UNL     1      -6.693  10.731   5.139  1.00  0.00     0.016 A 
ATOM     42  C   UNL     1      -6.236  10.798   7.826  1.00  0.00     0.010 A 
ATOM     43  C   UNL     1      -7.273  11.807   5.980  1.00  0.00     0.010 A 
ATOM     44  C   UNL     1      -7.076  11.885   7.372  1.00  0.00    -0.014 A 
BRANCH  44  45
ATOM     45  C   UNL     1      -7.944  12.696   8.521  1.00  0.00     0.031 A 
ATOM     46  C   UNL     1      -8.297  11.610   9.480  1.00  0.00     0.074 A 
ATOM     47  C   UNL     1      -8.559  13.913   8.869  1.00  0.00     0.049 A 
ATOM     48  N   UNL     1      -8.934  10.563   9.043  1.00  0.00    -0.248 NA
ATOM     49  C   UNL     1      -7.665  11.440  10.789  1.00  0.00     0.031 C 
ATOM     50  C   UNL     1      -8.648  15.153   8.078  1.00  0.00     0.029 A 
ATOM     51  N   UNL     1      -9.280  14.350  10.047  1.00  0.00    -0.354 N 
ATOM     52  C   UNL     1      -9.045   9.705  10.102  1.00  0.00     0.074 A 
ATOM     53  C   UNL     1      -8.069  10.195  11.069  1.00  0.00     0.031 C 
ATOM     54  C   UNL     1      -9.203  16.184   8.789  1.00  0.00     0.029 A 
ATOM     55  C   UNL     1      -9.621  15.760  10.127  1.00  0.00     0.049 A 
ATOM     56  H   UNL     1      -9.528  13.719  10.761  1.00  0.00     0.167 HD
ATOM     57  C   UNL     1     -10.284   9.182  10.327  1.00  0.00     0.031 A 
ATOM     58  C   UNL     1     -10.256  16.521  11.120  1.00  0.00     0.031 A 
ATOM     59  C   UNL     1     -10.931   9.823  11.442  1.00  0.00     0.049 A 
ATOM     60  C   UNL     1     -11.106  15.587  11.875  1.00  0.00     0.074 A 
ATOM     61  C   UNL     1     -10.512  10.182  12.707  1.00  0.00     0.029 A 
ATOM     62  N   UNL     1     -12.024  10.612  11.144  1.00  0.00    -0.354 N 
ATOM     63  N   UNL     1     -12.231  15.159  11.391  1.00  0.00    -0.248 NA
ATOM     64  C   UNL     1     -10.828  15.193  13.252  1.00  0.00     0.031 C 
ATOM     65  C   UNL     1     -11.033  11.481  12.906  1.00  0.00     0.029 A 
ATOM     66  C   UNL     1     -12.001  11.738  11.941  1.00  0.00     0.049 A 
ATOM     67  H   UNL     1     -12.711  10.405  10.470  1.00  0.00     0.167 HD
ATOM     68  C   UNL     1     -12.501  14.065  12.156  1.00  0.00     0.074 A 
ATOM     69  C   UNL     1     -11.803  14.294  13.407  1.00  0.00     0.031 C 
ATOM     70  C   UNL     1     -12.741  12.900  11.503  1.00  0.00     0.031 A 
BRANCH  57  71
ATOM     71  C   UNL     1     -11.033   8.736   9.091  1.00  0.00    -0.014 A 
ATOM     72  C   UNL     1     -11.356   7.383   8.934  1.00  0.00     0.010 A 
ATOM     73  C   UNL     1     -11.363   9.630   8.045  1.00  0.00     0.010 A 
ATOM     74  C   UNL     1     -11.928   6.928   7.738  1.00  0.00     0.020 A 
ATOM     75  C   UNL     1     -11.901   9.179   6.839  1.00  0.00     0.020 A 
ATOM     76  C   UNL     1     -12.173   7.824   6.690  1.00  0.00     0.054 A 
BRANCH  76  77
ATOM     77  S   UNL     1     -12.777   7.176   5.107  1.00  0.00     0.124 S 
ATOM     78  O   UNL     1     -11.908   6.021   4.885  1.00  0.00    -0.237 OA
ATOM     79  O   UNL     1     -14.165   6.851   5.416  1.00  0.00    -0.237 OA
ATOM     80  O   UNL     1     -12.569   8.277   4.169  1.00  0.00    -0.744 OA
ENDBRANCH  76  77
ENDBRANCH  57  71
BRANCH  58  81
ATOM     81  C   UNL     1     -10.596  17.978  11.616  1.00  0.00    -0.014 A 
ATOM     82  C   UNL     1     -11.841  18.235  12.299  1.00  0.00     0.010 A 
ATOM     83  C   UNL     1      -9.628  18.978  11.817  1.00  0.00     0.010 A 
ATOM     84  C   UNL     1     -12.060  19.314  13.198  1.00  0.00     0.020 A 
ATOM     85  C   UNL     1      -9.850  20.090  12.701  1.00  0.00     0.020 A 
ATOM     86  C   UNL     1     -11.044  20.229  13.421  1.00  0.00     0.054 A 
BRANCH  86  87
ATOM     87  S   UNL     1     -11.251  21.496  14.738  1.00  0.00     0.124 S 
ATOM     88  O   UNL     1     -12.319  22.344  14.217  1.00  0.00    -0.237 OA
ATOM     89  O   UNL     1     -11.605  20.693  15.907  1.00  0.00    -0.237 OA
ATOM     90  O   UNL     1      -9.936  22.131  14.813  1.00  0.00    -0.744 OA
ENDBRANCH  86  87
ENDBRANCH  58  81
BRANCH  70  91
ATOM     91  C   UNL     1     -13.566  12.970  10.223  1.00  0.00    -0.014 A 
ATOM     92  C   UNL     1     -13.376  13.909   9.180  1.00  0.00     0.010 A 
ATOM     93  C   UNL     1     -14.641  12.075  10.087  1.00  0.00     0.010 A 
ATOM     94  C   UNL     1     -14.273  14.014   8.107  1.00  0.00     0.020 A 
ATOM     95  C   UNL     1     -15.514  12.139   8.992  1.00  0.00     0.020 A 
ATOM     96  C   UNL     1     -15.350  13.136   8.030  1.00  0.00     0.054 A 
BRANCH  96  97
ATOM     97  S   UNL     1     -16.552  13.333   6.685  1.00  0.00     0.124 S 
ATOM     98  O   UNL     1     -17.239  14.567   7.064  1.00  0.00    -0.237 OA
ATOM     99  O   UNL     1     -15.705  13.435   5.500  1.00  0.00    -0.237 OA
ATOM    100  O   UNL     1     -17.372  12.128   6.774  1.00  0.00    -0.744 OA
ENDBRANCH  96  97
ENDBRANCH  70  91
ENDBRANCH  44  45
ENDBRANCH  37  39
ENDBRANCH  36  37
ENDBRANCH  35  36
ENDBRANCH  34  35
ENDBRANCH  33  34
ENDBRANCH   1  33
TORSDOF 22
