REMARK SMILES CS(=O)(=O)c1ccc(/C=C(/C(=O)OCCOCCOCCOC(=O)c2ccc(-c3c4nc(c(-c5ccc(S(=O)(=O)[O-])cc5)c5ccc([nH]5)c(-c5ccc(S(=O)(=O)[O-])cc5)c5nc(c(-c6ccc(S(=O)(=O)[O-])cc6)c6ccc3[nH]6)C=C5)C=C4)cc2)c2ccc(-c3ccc(F)cc3F)cc2)cc1
REMARK SMILES IDX 18 1 17 2 16 3 15 4 14 5 13 6 11 7 12 8 10 9 9 10 8 11 5 12
REMARK SMILES IDX 6 13 100 14 7 15 99 16 2 17 1 18 3 19 4 20 85 21 86 22 98 23
REMARK SMILES IDX 87 24 97 25 88 26 89 27 90 28 95 29 91 30 94 31 96 32 92 33
REMARK SMILES IDX 93 34 19 35 20 36 21 37 22 38 23 39 24 40 25 41 26 42 84 43
REMARK SMILES IDX 27 44 83 45 28 46 29 47 30 48 77 49 31 50 82 51 76 52 78 53
REMARK SMILES IDX 32 54 81 55 75 56 74 57 33 59 63 60 44 61 62 62 45 63 48 64
REMARK SMILES IDX 61 65 79 66 46 67 47 68 60 70 80 71 49 72 34 73 35 74 43 75
REMARK SMILES IDX 36 76 42 77 37 78 38 79 39 80 40 81 41 82 64 83 65 84 73 85
REMARK SMILES IDX 66 86 72 87 67 88 68 89 69 90 70 91 71 92 50 93 51 94 59 95
REMARK SMILES IDX 52 96 58 97 53 98 54 99 55 100 56 101 57 102
REMARK H PARENT 78 58 48 69
REMARK Flexibility Score: inf
ROOT
ATOM      1  C   UNL     1       5.018   4.035  -7.699  1.00  0.00     0.188 C 
ENDROOT
BRANCH   1   2
ATOM      2  C   UNL     1       5.084   3.660  -9.196  1.00  0.00     0.188 C 
BRANCH   2   3
ATOM      3  O   UNL     1       4.926   4.775 -10.044  1.00  0.00    -0.376 OA
BRANCH   3   4
ATOM      4  C   UNL     1       3.668   4.951 -10.672  1.00  0.00     0.202 C 
BRANCH   4   5
ATOM      5  C   UNL     1       2.331   4.755  -9.921  1.00  0.00     0.261 C 
BRANCH   5   6
ATOM      6  O   UNL     1       2.333   3.927  -8.748  1.00  0.00    -0.460 OA
BRANCH   6   7
ATOM      7  C   UNL     1       1.944   2.632  -8.893  1.00  0.00     0.338 C 
ATOM      8  O   UNL     1       1.597   2.122  -9.946  1.00  0.00    -0.246 OA
BRANCH   7   9
ATOM      9  C   UNL     1       2.105   1.867  -7.606  1.00  0.00     0.067 C 
ATOM     10  C   UNL     1       1.787   2.465  -6.429  1.00  0.00     0.024 C 
BRANCH  10  11
ATOM     11  C   UNL     1       1.692   1.857  -5.076  1.00  0.00    -0.025 A 
ATOM     12  C   UNL     1       0.991   0.436  -2.760  1.00  0.00     0.067 A 
ATOM     13  C   UNL     1       2.099   0.039  -3.503  1.00  0.00     0.021 A 
ATOM     14  C   UNL     1       0.307   1.607  -3.085  1.00  0.00     0.021 A 
ATOM     15  C   UNL     1       2.475   0.784  -4.626  1.00  0.00     0.009 A 
ATOM     16  C   UNL     1       0.664   2.316  -4.237  1.00  0.00     0.009 A 
BRANCH  12  17
ATOM     17  S   UNL     1       0.336  -0.636  -1.504  1.00  0.00     0.175 S 
ATOM     18  C   UNL     1       1.041  -0.019  -0.005  1.00  0.00     0.163 C 
ATOM     19  O   UNL     1       0.866  -1.967  -1.733  1.00  0.00    -0.224 OA
ATOM     20  O   UNL     1      -1.097  -0.410  -1.448  1.00  0.00    -0.224 OA
ENDBRANCH  12  17
ENDBRANCH  10  11
BRANCH   9  21
ATOM     21  C   UNL     1       2.623   0.486  -7.689  1.00  0.00    -0.011 A 
ATOM     22  C   UNL     1       3.990   0.292  -7.927  1.00  0.00     0.009 A 
ATOM     23  C   UNL     1       1.829  -0.629  -7.408  1.00  0.00     0.009 A 
ATOM     24  C   UNL     1       4.557  -0.979  -7.846  1.00  0.00     0.009 A 
ATOM     25  C   UNL     1       2.410  -1.903  -7.309  1.00  0.00     0.009 A 
ATOM     26  C   UNL     1       3.786  -2.099  -7.516  1.00  0.00    -0.015 A 
BRANCH  26  27
ATOM     27  C   UNL     1       4.423  -3.423  -7.407  1.00  0.00     0.018 A 
ATOM     28  C   UNL     1       5.618  -3.596  -6.679  1.00  0.00     0.015 A 
ATOM     29  C   UNL     1       3.892  -4.548  -8.059  1.00  0.00     0.133 A 
ATOM     30  C   UNL     1       6.255  -4.839  -6.628  1.00  0.00     0.040 A 
ATOM     31  C   UNL     1       4.520  -5.788  -8.014  1.00  0.00     0.079 A 
ATOM     32  F   UNL     1       2.754  -4.442  -8.762  1.00  0.00    -0.206 F 
ATOM     33  C   UNL     1       5.700  -5.921  -7.300  1.00  0.00     0.126 A 
ATOM     34  F   UNL     1       6.309  -7.112  -7.249  1.00  0.00    -0.207 F 
ENDBRANCH  26  27
ENDBRANCH   9  21
ENDBRANCH   7   9
ENDBRANCH   6   7
ENDBRANCH   5   6
ENDBRANCH   4   5
ENDBRANCH   3   4
ENDBRANCH   2   3
ENDBRANCH   1   2
BRANCH   1  35
ATOM     35  O   UNL     1       4.837   5.388  -7.308  1.00  0.00    -0.376 OA
BRANCH  35  36
ATOM     36  C   UNL     1       5.595   6.402  -7.951  1.00  0.00     0.202 C 
BRANCH  36  37
ATOM     37  C   UNL     1       7.118   6.261  -8.148  1.00  0.00     0.261 C 
BRANCH  37  38
ATOM     38  O   UNL     1       7.626   4.949  -8.439  1.00  0.00    -0.460 OA
BRANCH  38  39
ATOM     39  C   UNL     1       8.225   4.309  -7.400  1.00  0.00     0.338 C 
ATOM     40  O   UNL     1       8.373   4.727  -6.270  1.00  0.00    -0.246 OA
BRANCH  39  41
ATOM     41  C   UNL     1       8.511   2.908  -7.790  1.00  0.00     0.060 A 
ATOM     42  C   UNL     1       7.894   1.875  -7.069  1.00  0.00     0.016 A 
ATOM     43  C   UNL     1       9.406   2.609  -8.818  1.00  0.00     0.016 A 
ATOM     44  C   UNL     1       8.176   0.541  -7.369  1.00  0.00     0.010 A 
ATOM     45  C   UNL     1       9.708   1.271  -9.099  1.00  0.00     0.010 A 
ATOM     46  C   UNL     1       9.109   0.231  -8.366  1.00  0.00    -0.014 A 
BRANCH  46  47
ATOM     47  C   UNL     1       9.577  -1.169  -8.524  1.00  0.00     0.031 A 
ATOM     48  C   UNL     1      10.821  -1.601  -7.797  1.00  0.00     0.074 A 
ATOM     49  C   UNL     1       8.905  -2.051  -9.285  1.00  0.00     0.049 A 
ATOM     50  N   UNL     1      11.432  -2.757  -7.816  1.00  0.00    -0.248 NA
ATOM     51  C   UNL     1      11.458  -0.593  -6.934  1.00  0.00     0.031 C 
ATOM     52  C   UNL     1       7.667  -1.773 -10.009  1.00  0.00     0.029 A 
ATOM     53  N   UNL     1       9.178  -3.365  -9.578  1.00  0.00    -0.354 N 
ATOM     54  C   UNL     1      12.535  -2.614  -6.981  1.00  0.00     0.074 A 
ATOM     55  C   UNL     1      12.515  -1.254  -6.484  1.00  0.00     0.031 C 
ATOM     56  C   UNL     1       7.282  -2.885 -10.660  1.00  0.00     0.029 A 
ATOM     57  C   UNL     1       8.277  -3.936 -10.447  1.00  0.00     0.049 A 
ATOM     58  H   UNL     1       9.945  -3.853  -9.201  1.00  0.00     0.167 HD
ATOM     59  C   UNL     1      13.482  -3.527  -6.662  1.00  0.00     0.031 A 
ATOM     60  C   UNL     1       8.276  -5.151 -11.033  1.00  0.00     0.031 A 
ATOM     61  C   UNL     1      13.524  -4.867  -7.187  1.00  0.00     0.049 A 
ATOM     62  C   UNL     1       9.394  -6.120 -10.736  1.00  0.00     0.074 A 
ATOM     63  C   UNL     1      14.443  -5.866  -6.917  1.00  0.00     0.029 A 
ATOM     64  N   UNL     1      12.624  -5.389  -8.103  1.00  0.00    -0.354 N 
ATOM     65  N   UNL     1      10.418  -5.978  -9.928  1.00  0.00    -0.248 NA
ATOM     66  C   UNL     1       9.356  -7.413 -11.435  1.00  0.00     0.031 C 
ATOM     67  C   UNL     1      14.139  -6.968  -7.723  1.00  0.00     0.029 A 
ATOM     68  C   UNL     1      12.985  -6.685  -8.434  1.00  0.00     0.049 A 
ATOM     69  H   UNL     1      11.844  -4.910  -8.465  1.00  0.00     0.167 HD
ATOM     70  C   UNL     1      11.126  -7.176  -9.997  1.00  0.00     0.074 A 
ATOM     71  C   UNL     1      10.408  -8.033 -10.917  1.00  0.00     0.031 C 
ATOM     72  C   UNL     1      12.266  -7.534  -9.354  1.00  0.00     0.031 A 
BRANCH  59  73
ATOM     73  C   UNL     1      14.587  -3.085  -5.737  1.00  0.00    -0.014 A 
ATOM     74  C   UNL     1      14.342  -2.821  -4.377  1.00  0.00     0.010 A 
ATOM     75  C   UNL     1      15.898  -2.959  -6.233  1.00  0.00     0.010 A 
ATOM     76  C   UNL     1      15.379  -2.396  -3.542  1.00  0.00     0.020 A 
ATOM     77  C   UNL     1      16.943  -2.566  -5.394  1.00  0.00     0.020 A 
ATOM     78  C   UNL     1      16.672  -2.269  -4.057  1.00  0.00     0.054 A 
BRANCH  78  79
ATOM     79  S   UNL     1      18.000  -1.727  -2.946  1.00  0.00     0.124 S 
ATOM     80  O   UNL     1      17.654  -0.325  -2.727  1.00  0.00    -0.237 OA
ATOM     81  O   UNL     1      17.826  -2.604  -1.791  1.00  0.00    -0.237 OA
ATOM     82  O   UNL     1      19.217  -1.954  -3.721  1.00  0.00    -0.744 OA
ENDBRANCH  78  79
ENDBRANCH  59  73
BRANCH  60  83
ATOM     83  C   UNL     1       7.200  -5.512 -11.999  1.00  0.00    -0.014 A 
ATOM     84  C   UNL     1       6.270  -6.523 -11.699  1.00  0.00     0.010 A 
ATOM     85  C   UNL     1       7.109  -4.850 -13.239  1.00  0.00     0.010 A 
ATOM     86  C   UNL     1       5.281  -6.875 -12.624  1.00  0.00     0.020 A 
ATOM     87  C   UNL     1       6.103  -5.176 -14.152  1.00  0.00     0.020 A 
ATOM     88  C   UNL     1       5.201  -6.195 -13.843  1.00  0.00     0.054 A 
BRANCH  88  89
ATOM     89  S   UNL     1       3.881  -6.636 -15.007  1.00  0.00     0.124 S 
ATOM     90  O   UNL     1       4.317  -7.947 -15.479  1.00  0.00    -0.237 OA
ATOM     91  O   UNL     1       2.695  -6.633 -14.154  1.00  0.00    -0.237 OA
ATOM     92  O   UNL     1       3.929  -5.566 -16.001  1.00  0.00    -0.744 OA
ENDBRANCH  88  89
ENDBRANCH  60  83
BRANCH  72  93
ATOM     93  C   UNL     1      12.795  -8.929  -9.579  1.00  0.00    -0.014 A 
ATOM     94  C   UNL     1      13.365  -9.314 -10.806  1.00  0.00     0.010 A 
ATOM     95  C   UNL     1      12.776  -9.854  -8.517  1.00  0.00     0.010 A 
ATOM     96  C   UNL     1      13.878 -10.605 -10.975  1.00  0.00     0.020 A 
ATOM     97  C   UNL     1      13.317 -11.133  -8.671  1.00  0.00     0.020 A 
ATOM     98  C   UNL     1      13.853 -11.505  -9.905  1.00  0.00     0.054 A 
BRANCH  98  99
ATOM     99  S   UNL     1      14.568 -13.157 -10.136  1.00  0.00     0.124 S 
ATOM    100  O   UNL     1      13.593 -13.791 -11.020  1.00  0.00    -0.237 OA
ATOM    101  O   UNL     1      15.865 -12.862 -10.739  1.00  0.00    -0.237 OA
ATOM    102  O   UNL     1      14.627 -13.703  -8.782  1.00  0.00    -0.744 OA
ENDBRANCH  98  99
ENDBRANCH  72  93
ENDBRANCH  46  47
ENDBRANCH  39  41
ENDBRANCH  38  39
ENDBRANCH  37  38
ENDBRANCH  36  37
ENDBRANCH  35  36
ENDBRANCH   1  35
TORSDOF 24
