REMARK SMILES CN(C)c1ccc(C(=O)NCCCC(=O)OCCOCCOCCOC(=O)c2ccc(-c3c4nc(c(-c5ccc(S(=O)(=O)[O-])cc5)c5ccc([nH]5)c(-c5ccc(S(=O)(=O)[O-])cc5)c5nc(c(-c6ccc(S(=O)(=O)[O-])cc6)c6ccc3[nH]6)C=C5)C=C4)cc2)cn1
REMARK SMILES IDX 20 1 19 2 18 3 17 4 16 5 14 6 15 7 13 8 12 9 11 10 10 11
REMARK SMILES IDX 8 12 9 13 7 15 4 16 5 17 89 18 6 19 88 20 2 21 1 22 3 23
REMARK SMILES IDX 21 24 22 25 23 26 24 27 25 28 26 29 27 30 28 31 29 32 87 33
REMARK SMILES IDX 30 34 86 35 31 36 32 37 33 38 80 39 34 40 85 41 79 42 81 43
REMARK SMILES IDX 35 44 84 45 78 46 77 47 36 49 66 50 47 51 65 52 48 53 51 54
REMARK SMILES IDX 64 55 82 56 49 57 50 58 63 60 83 61 52 62 37 63 38 64 46 65
REMARK SMILES IDX 39 66 45 67 40 68 41 69 42 70 43 71 44 72 67 73 68 74 76 75
REMARK SMILES IDX 69 76 75 77 70 78 71 79 72 80 73 81 74 82 53 83 54 84 62 85
REMARK SMILES IDX 55 86 61 87 56 88 57 89 58 90 59 91 60 92
REMARK H PARENT 10 14 81 48 51 59
REMARK Flexibility Score: inf
ROOT
ATOM      1  C   UNL     1       8.706   2.867   6.391  1.00  0.00     0.188 C 
ENDROOT
BRANCH   1   2
ATOM      2  O   UNL     1       8.980   2.209   7.620  1.00  0.00    -0.376 OA
BRANCH   2   3
ATOM      3  C   UNL     1       7.861   1.725   8.359  1.00  0.00     0.202 C 
BRANCH   3   4
ATOM      4  C   UNL     1       6.763   2.742   8.701  1.00  0.00     0.261 C 
BRANCH   4   5
ATOM      5  O   UNL     1       6.268   3.474   7.560  1.00  0.00    -0.463 OA
BRANCH   5   6
ATOM      6  C   UNL     1       6.191   4.822   7.700  1.00  0.00     0.305 C 
ATOM      7  O   UNL     1       6.444   5.425   8.737  1.00  0.00    -0.252 OA
BRANCH   6   8
ATOM      8  C   UNL     1       5.813   5.568   6.433  1.00  0.00     0.124 C 
BRANCH   8   9
ATOM      9  C   UNL     1       5.388   4.826   5.170  1.00  0.00     0.033 C 
BRANCH   9  10
ATOM     10  C   UNL     1       4.355   3.716   5.313  1.00  0.00     0.117 C 
BRANCH  10  11
ATOM     11  N   UNL     1       3.013   4.228   5.492  1.00  0.00    -0.352 N 
ATOM     12  C   UNL     1       1.827   4.098   4.820  1.00  0.00     0.252 C 
ATOM     13  O   UNL     1       0.873   4.718   5.302  1.00  0.00    -0.269 OA
ATOM     14  H   UNL     1       2.934   4.806   6.285  1.00  0.00     0.163 HD
BRANCH  12  15
ATOM     15  C   UNL     1       1.587   3.296   3.587  1.00  0.00     0.058 A 
ATOM     16  C   UNL     1       0.764   1.917   1.273  1.00  0.00     0.127 A 
ATOM     17  C   UNL     1       2.018   1.691   1.827  1.00  0.00     0.048 A 
ATOM     18  N   UNL     1      -0.066   2.810   1.846  1.00  0.00    -0.239 NA
ATOM     19  C   UNL     1       2.428   2.376   2.979  1.00  0.00     0.019 A 
ATOM     20  C   UNL     1       0.346   3.452   2.976  1.00  0.00     0.127 A 
BRANCH  16  21
ATOM     21  N   UNL     1       0.342   1.252   0.140  1.00  0.00    -0.363 N 
ATOM     22  C   UNL     1       0.872  -0.041  -0.238  1.00  0.00     0.144 C 
ATOM     23  C   UNL     1      -0.568   1.958  -0.740  1.00  0.00     0.144 C 
ENDBRANCH  16  21
ENDBRANCH  12  15
ENDBRANCH  10  11
ENDBRANCH   9  10
ENDBRANCH   8   9
ENDBRANCH   6   8
ENDBRANCH   5   6
ENDBRANCH   4   5
ENDBRANCH   3   4
ENDBRANCH   2   3
ENDBRANCH   1   2
BRANCH   1  24
ATOM     24  C   UNL     1       7.959   2.057   5.327  1.00  0.00     0.188 C 
BRANCH  24  25
ATOM     25  O   UNL     1       7.106   1.028   5.797  1.00  0.00    -0.376 OA
BRANCH  25  26
ATOM     26  C   UNL     1       6.877  -0.061   4.900  1.00  0.00     0.202 C 
BRANCH  26  27
ATOM     27  C   UNL     1       8.099  -0.928   4.502  1.00  0.00     0.261 C 
BRANCH  27  28
ATOM     28  O   UNL     1       9.226  -0.264   3.887  1.00  0.00    -0.460 OA
BRANCH  28  29
ATOM     29  C   UNL     1       9.002   0.481   2.776  1.00  0.00     0.338 C 
ATOM     30  O   UNL     1       7.963   0.511   2.133  1.00  0.00    -0.246 OA
BRANCH  29  31
ATOM     31  C   UNL     1      10.097   1.493   2.655  1.00  0.00     0.060 A 
ATOM     32  C   UNL     1       9.744   2.831   2.409  1.00  0.00     0.016 A 
ATOM     33  C   UNL     1      11.439   1.166   2.867  1.00  0.00     0.016 A 
ATOM     34  C   UNL     1      10.727   3.827   2.325  1.00  0.00     0.010 A 
ATOM     35  C   UNL     1      12.424   2.160   2.764  1.00  0.00     0.010 A 
ATOM     36  C   UNL     1      12.081   3.490   2.455  1.00  0.00    -0.014 A 
BRANCH  36  37
ATOM     37  C   UNL     1      13.144   4.454   2.050  1.00  0.00     0.031 A 
ATOM     38  C   UNL     1      13.743   4.301   0.673  1.00  0.00     0.074 A 
ATOM     39  C   UNL     1      13.583   5.440   2.856  1.00  0.00     0.049 A 
ATOM     40  N   UNL     1      14.739   4.945   0.120  1.00  0.00    -0.248 NA
ATOM     41  C   UNL     1      13.135   3.277  -0.192  1.00  0.00     0.031 C 
ATOM     42  C   UNL     1      13.063   5.748   4.186  1.00  0.00     0.029 A 
ATOM     43  N   UNL     1      14.588   6.362   2.668  1.00  0.00    -0.354 N 
ATOM     44  C   UNL     1      14.889   4.391  -1.146  1.00  0.00     0.074 A 
ATOM     45  C   UNL     1      13.900   3.344  -1.271  1.00  0.00     0.031 C 
ATOM     46  C   UNL     1      13.764   6.777   4.701  1.00  0.00     0.029 A 
ATOM     47  C   UNL     1      14.808   7.175   3.756  1.00  0.00     0.049 A 
ATOM     48  H   UNL     1      15.103   6.433   1.831  1.00  0.00     0.167 HD
ATOM     49  C   UNL     1      15.768   4.721  -2.123  1.00  0.00     0.031 A 
ATOM     50  C   UNL     1      15.757   8.110   3.979  1.00  0.00     0.031 A 
ATOM     51  C   UNL     1      16.764   5.751  -2.002  1.00  0.00     0.049 A 
ATOM     52  C   UNL     1      16.784   8.404   2.910  1.00  0.00     0.074 A 
ATOM     53  C   UNL     1      17.691   6.163  -2.943  1.00  0.00     0.029 A 
ATOM     54  N   UNL     1      16.970   6.526  -0.871  1.00  0.00    -0.354 N 
ATOM     55  N   UNL     1      16.903   7.881   1.712  1.00  0.00    -0.248 NA
ATOM     56  C   UNL     1      17.803   9.419   3.222  1.00  0.00     0.031 C 
ATOM     57  C   UNL     1      18.501   7.142  -2.359  1.00  0.00     0.029 A 
ATOM     58  C   UNL     1      18.029   7.394  -1.081  1.00  0.00     0.049 A 
ATOM     59  H   UNL     1      16.443   6.467  -0.042  1.00  0.00     0.167 HD
ATOM     60  C   UNL     1      17.984   8.531   1.118  1.00  0.00     0.074 A 
ATOM     61  C   UNL     1      18.479   9.488   2.083  1.00  0.00     0.031 C 
ATOM     62  C   UNL     1      18.512   8.353  -0.119  1.00  0.00     0.031 A 
BRANCH  49  63
ATOM     63  C   UNL     1      15.719   3.923  -3.400  1.00  0.00    -0.014 A 
ATOM     64  C   UNL     1      14.643   4.043  -4.298  1.00  0.00     0.010 A 
ATOM     65  C   UNL     1      16.786   3.064  -3.721  1.00  0.00     0.010 A 
ATOM     66  C   UNL     1      14.616   3.287  -5.473  1.00  0.00     0.020 A 
ATOM     67  C   UNL     1      16.779   2.331  -4.911  1.00  0.00     0.020 A 
ATOM     68  C   UNL     1      15.684   2.435  -5.771  1.00  0.00     0.054 A 
BRANCH  68  69
ATOM     69  S   UNL     1      15.630   1.481  -7.313  1.00  0.00     0.124 S 
ATOM     70  O   UNL     1      14.584   0.503  -7.024  1.00  0.00    -0.237 OA
ATOM     71  O   UNL     1      15.283   2.497  -8.304  1.00  0.00    -0.237 OA
ATOM     72  O   UNL     1      16.979   0.933  -7.430  1.00  0.00    -0.744 OA
ENDBRANCH  68  69
ENDBRANCH  49  63
BRANCH  50  73
ATOM     73  C   UNL     1      15.809   8.831   5.285  1.00  0.00    -0.014 A 
ATOM     74  C   UNL     1      15.537  10.209   5.360  1.00  0.00     0.010 A 
ATOM     75  C   UNL     1      16.154   8.142   6.463  1.00  0.00     0.010 A 
ATOM     76  C   UNL     1      15.623  10.885   6.582  1.00  0.00     0.020 A 
ATOM     77  C   UNL     1      16.211   8.807   7.691  1.00  0.00     0.020 A 
ATOM     78  C   UNL     1      15.954  10.178   7.741  1.00  0.00     0.054 A 
BRANCH  78  79
ATOM     79  S   UNL     1      16.007  11.067   9.323  1.00  0.00     0.124 S 
ATOM     80  O   UNL     1      17.209  11.881   9.176  1.00  0.00    -0.237 OA
ATOM     81  O   UNL     1      14.742  11.798   9.314  1.00  0.00    -0.237 OA
ATOM     82  O   UNL     1      16.092   9.996  10.314  1.00  0.00    -0.744 OA
ENDBRANCH  78  79
ENDBRANCH  50  73
BRANCH  62  83
ATOM     83  C   UNL     1      19.655   9.244  -0.538  1.00  0.00    -0.014 A 
ATOM     84  C   UNL     1      20.942   9.105   0.011  1.00  0.00     0.010 A 
ATOM     85  C   UNL     1      19.450  10.190  -1.562  1.00  0.00     0.010 A 
ATOM     86  C   UNL     1      21.994   9.911  -0.437  1.00  0.00     0.020 A 
ATOM     87  C   UNL     1      20.505  10.976  -2.033  1.00  0.00     0.020 A 
ATOM     88  C   UNL     1      21.769  10.840  -1.458  1.00  0.00     0.054 A 
BRANCH  88  89
ATOM     89  S   UNL     1      23.163  11.835  -2.058  1.00  0.00     0.124 S 
ATOM     90  O   UNL     1      23.385  12.751  -0.943  1.00  0.00    -0.237 OA
ATOM     91  O   UNL     1      24.205  10.832  -2.266  1.00  0.00    -0.237 OA
ATOM     92  O   UNL     1      22.649  12.453  -3.279  1.00  0.00    -0.744 OA
ENDBRANCH  88  89
ENDBRANCH  62  83
ENDBRANCH  36  37
ENDBRANCH  29  31
ENDBRANCH  28  29
ENDBRANCH  27  28
ENDBRANCH  26  27
ENDBRANCH  25  26
ENDBRANCH  24  25
ENDBRANCH   1  24
TORSDOF 25
