REMARK SMILES Cc1ccccc1/C=C1\SC(=O)N(CC(=O)Nc2ccccc2C(=O)OCCOCCOCCOC(=O)c2ccc(-c3c4nc(c(-c5ccc(S(=O)(=O)[O-])cc5)c5ccc([nH]5)c(-c5ccc(S(=O)(=O)[O-])cc5)c5nc(c(-c6ccc(S(=O)(=O)[O-])cc6)c6ccc3[nH]6)C=C5)C=C4)cc2)C1=O
REMARK SMILES IDX 30 1 29 2 28 3 27 4 26 5 24 6 25 7 23 8 18 9 19 10 20 11
REMARK SMILES IDX 22 12 21 13 17 14 15 15 16 16 14 18 13 19 8 20 9 21 10 22
REMARK SMILES IDX 98 23 11 24 99 25 12 26 7 27 1 28 2 29 3 30 4 31 6 32 5 33
REMARK SMILES IDX 31 34 32 35 33 36 34 37 35 38 36 39 37 40 38 41 39 42 97 43
REMARK SMILES IDX 40 44 96 45 41 46 42 47 43 48 90 49 44 50 95 51 89 52 91 53
REMARK SMILES IDX 45 54 94 55 88 56 87 57 46 59 76 60 57 61 75 62 58 63 61 64
REMARK SMILES IDX 74 65 92 66 59 67 60 68 73 70 93 71 62 72 47 73 48 74 56 75
REMARK SMILES IDX 49 76 55 77 50 78 51 79 52 80 53 81 54 82 77 83 78 84 86 85
REMARK SMILES IDX 79 86 85 87 80 88 81 89 82 90 83 91 84 92 63 93 64 94 72 95
REMARK SMILES IDX 65 96 71 97 66 98 67 99 68 100 69 101 70 102
REMARK H PARENT 17 17 91 58 61 69
REMARK Flexibility Score: inf
ROOT
ATOM      1  C   UNL     1       7.494   3.039   1.021  1.00  0.00     0.188 C 
ENDROOT
BRANCH   1   2
ATOM      2  O   UNL     1       6.613   2.042   1.564  1.00  0.00    -0.376 OA
BRANCH   2   3
ATOM      3  C   UNL     1       5.246   2.131   1.107  1.00  0.00     0.202 C 
BRANCH   3   4
ATOM      4  C   UNL     1       5.116   2.545  -0.520  1.00  0.00     0.261 C 
BRANCH   4   5
ATOM      5  O   UNL     1       3.547   3.279  -1.665  1.00  0.00    -0.460 OA
BRANCH   5   6
ATOM      6  C   UNL     1       3.096   4.681  -2.509  1.00  0.00     0.340 C 
ATOM      7  O   UNL     1       3.185   5.709  -1.834  1.00  0.00    -0.246 OA
BRANCH   6   8
ATOM      8  C   UNL     1       2.439   5.108  -3.795  1.00  0.00     0.083 A 
ATOM      9  C   UNL     1       3.145   6.075  -4.521  1.00  0.00     0.055 A 
ATOM     10  C   UNL     1       2.582   6.622  -5.718  1.00  0.00     0.027 A 
ATOM     11  C   UNL     1       1.351   6.209  -6.233  1.00  0.00     0.002 A 
ATOM     12  C   UNL     1       1.080   4.947  -4.212  1.00  0.00     0.018 A 
ATOM     13  C   UNL     1       0.579   5.375  -5.459  1.00  0.00     0.001 A 
BRANCH   9  14
ATOM     14  N   UNL     1       4.340   6.694  -4.108  1.00  0.00    -0.324 N 
ATOM     15  C   UNL     1       5.300   6.595  -3.145  1.00  0.00     0.244 C 
ATOM     16  O   UNL     1       6.063   7.580  -3.234  1.00  0.00    -0.273 OA
ATOM     17  H   UNL     1       4.552   7.441  -4.713  1.00  0.00     0.170 HD
BRANCH  15  18
ATOM     18  C   UNL     1       5.757   5.386  -2.224  1.00  0.00     0.230 C 
BRANCH  18  19
ATOM     19  N   UNL     1       5.037   4.273  -1.597  1.00  0.00    -0.259 N 
ATOM     20  C   UNL     1       2.192   1.838   0.902  1.00  0.00     0.029 C 
ATOM     21  C   UNL     1       3.076   2.419   0.018  1.00  0.00     0.083 C 
ATOM     22  S   UNL     1       3.703   1.180  -1.704  1.00  0.00    -0.022 SA
ATOM     23  C   UNL     1       4.057   4.171  -0.073  1.00  0.00     0.268 C 
ATOM     24  C   UNL     1       5.077   2.836  -2.575  1.00  0.00     0.294 C 
ATOM     25  O   UNL     1       4.357   4.715   0.972  1.00  0.00    -0.268 OA
ATOM     26  O   UNL     1       5.981   2.620  -3.339  1.00  0.00    -0.261 OA
BRANCH  20  27
ATOM     27  C   UNL     1       1.327   0.560   0.898  1.00  0.00    -0.021 A 
ATOM     28  C   UNL     1       3.099  -1.266   0.479  1.00  0.00     0.045 C 
ATOM     29  C   UNL     1       1.692  -0.768   0.590  1.00  0.00    -0.044 A 
ATOM     30  C   UNL     1       0.707  -1.794   0.460  1.00  0.00     0.004 A 
ATOM     31  C   UNL     1      -0.632  -1.573   0.744  1.00  0.00     0.000 A 
ATOM     32  C   UNL     1      -0.028   0.700   1.309  1.00  0.00     0.008 A 
ATOM     33  C   UNL     1      -0.993  -0.329   1.219  1.00  0.00     0.001 A 
ENDBRANCH  20  27
ENDBRANCH  18  19
ENDBRANCH  15  18
ENDBRANCH   9  14
ENDBRANCH   6   8
ENDBRANCH   5   6
ENDBRANCH   4   5
ENDBRANCH   3   4
ENDBRANCH   2   3
ENDBRANCH   1   2
BRANCH   1  34
ATOM     34  C   UNL     1       8.213   2.526  -0.289  1.00  0.00     0.188 C 
BRANCH  34  35
ATOM     35  O   UNL     1       7.549   1.372  -0.822  1.00  0.00    -0.376 OA
BRANCH  35  36
ATOM     36  C   UNL     1       8.101   0.559  -1.853  1.00  0.00     0.202 C 
BRANCH  36  37
ATOM     37  C   UNL     1       8.153   1.084  -3.323  1.00  0.00     0.261 C 
BRANCH  37  38
ATOM     38  O   UNL     1       7.014   0.559  -4.128  1.00  0.00    -0.460 OA
BRANCH  38  39
ATOM     39  C   UNL     1       6.584   1.285  -5.231  1.00  0.00     0.338 C 
ATOM     40  O   UNL     1       7.295   2.038  -5.884  1.00  0.00    -0.246 OA
BRANCH  39  41
ATOM     41  C   UNL     1       5.038   1.294  -5.319  1.00  0.00     0.060 A 
ATOM     42  C   UNL     1       4.354   2.474  -5.638  1.00  0.00     0.016 A 
ATOM     43  C   UNL     1       4.240   0.290  -4.783  1.00  0.00     0.016 A 
ATOM     44  C   UNL     1       3.012   2.706  -5.167  1.00  0.00     0.010 A 
ATOM     45  C   UNL     1       2.903   0.569  -4.313  1.00  0.00     0.010 A 
ATOM     46  C   UNL     1       2.342   1.875  -4.251  1.00  0.00    -0.014 A 
BRANCH  46  47
ATOM     47  C   UNL     1       1.075   2.176  -3.200  1.00  0.00     0.031 A 
ATOM     48  C   UNL     1      -0.199   1.711  -3.811  1.00  0.00     0.074 A 
ATOM     49  C   UNL     1       0.751   2.901  -1.995  1.00  0.00     0.049 A 
ATOM     50  N   UNL     1      -1.347   2.305  -3.662  1.00  0.00    -0.248 NA
ATOM     51  C   UNL     1      -0.246   0.631  -4.803  1.00  0.00     0.031 C 
ATOM     52  C   UNL     1      -0.366   2.746  -1.048  1.00  0.00     0.029 A 
ATOM     53  N   UNL     1       1.332   3.967  -1.284  1.00  0.00    -0.354 N 
ATOM     54  C   UNL     1      -2.239   1.327  -4.012  1.00  0.00     0.074 A 
ATOM     55  C   UNL     1      -1.557   0.608  -5.052  1.00  0.00     0.031 C 
ATOM     56  C   UNL     1      -0.353   3.677  -0.046  1.00  0.00     0.029 A 
ATOM     57  C   UNL     1       0.770   4.605  -0.198  1.00  0.00     0.049 A 
ATOM     58  H   UNL     1       2.213   4.284  -1.588  1.00  0.00     0.167 HD
ATOM     59  C   UNL     1      -3.129   0.900  -3.062  1.00  0.00     0.031 A 
ATOM     60  C   UNL     1       0.965   5.915   0.267  1.00  0.00     0.031 A 
ATOM     61  C   UNL     1      -3.415   1.917  -2.004  1.00  0.00     0.049 A 
ATOM     62  C   UNL     1      -0.372   6.510  -0.101  1.00  0.00     0.074 A 
ATOM     63  C   UNL     1      -3.649   1.844  -0.639  1.00  0.00     0.029 A 
ATOM     64  N   UNL     1      -3.296   3.308  -2.269  1.00  0.00    -0.354 N 
ATOM     65  N   UNL     1      -1.142   5.913  -0.976  1.00  0.00    -0.248 NA
ATOM     66  C   UNL     1      -1.014   7.670   0.502  1.00  0.00     0.031 C 
ATOM     67  C   UNL     1      -3.585   3.158  -0.088  1.00  0.00     0.029 A 
ATOM     68  C   UNL     1      -3.366   4.073  -1.112  1.00  0.00     0.049 A 
ATOM     69  H   UNL     1      -3.178   3.686  -3.171  1.00  0.00     0.167 HD
ATOM     70  C   UNL     1      -2.410   6.317  -0.769  1.00  0.00     0.074 A 
ATOM     71  C   UNL     1      -2.270   7.535   0.024  1.00  0.00     0.031 C 
ATOM     72  C   UNL     1      -3.480   5.547  -1.113  1.00  0.00     0.031 A 
BRANCH  59  73
ATOM     73  C   UNL     1      -3.464  -0.617  -2.972  1.00  0.00    -0.014 A 
ATOM     74  C   UNL     1      -4.426  -1.120  -2.079  1.00  0.00     0.010 A 
ATOM     75  C   UNL     1      -2.783  -1.627  -3.707  1.00  0.00     0.010 A 
ATOM     76  C   UNL     1      -4.705  -2.509  -1.971  1.00  0.00     0.020 A 
ATOM     77  C   UNL     1      -3.079  -2.993  -3.657  1.00  0.00     0.020 A 
ATOM     78  C   UNL     1      -4.044  -3.434  -2.782  1.00  0.00     0.054 A 
BRANCH  78  79
ATOM     79  S   UNL     1      -4.449  -5.199  -2.733  1.00  0.00     0.124 S 
ATOM     80  O   UNL     1      -3.903  -5.606  -1.442  1.00  0.00    -0.237 OA
ATOM     81  O   UNL     1      -5.905  -5.194  -2.838  1.00  0.00    -0.237 OA
ATOM     82  O   UNL     1      -3.753  -5.747  -3.898  1.00  0.00    -0.744 OA
ENDBRANCH  78  79
ENDBRANCH  59  73
BRANCH  60  83
ATOM     83  C   UNL     1       2.264   6.823   0.543  1.00  0.00    -0.014 A 
ATOM     84  C   UNL     1       2.995   6.697   1.758  1.00  0.00     0.010 A 
ATOM     85  C   UNL     1       2.939   7.664  -0.384  1.00  0.00     0.010 A 
ATOM     86  C   UNL     1       4.390   7.084   1.905  1.00  0.00     0.020 A 
ATOM     87  C   UNL     1       4.354   8.006  -0.275  1.00  0.00     0.020 A 
ATOM     88  C   UNL     1       5.103   7.632   0.839  1.00  0.00     0.054 A 
BRANCH  88  89
ATOM     89  S   UNL     1       6.981   7.644   0.861  1.00  0.00     0.124 S 
ATOM     90  O   UNL     1       7.298   9.042   1.126  1.00  0.00    -0.237 OA
ATOM     91  O   UNL     1       7.327   6.709   1.932  1.00  0.00    -0.237 OA
ATOM     92  O   UNL     1       7.405   7.180  -0.455  1.00  0.00    -0.744 OA
ENDBRANCH  88  89
ENDBRANCH  60  83
BRANCH  72  93
ATOM     93  C   UNL     1      -4.840   6.123  -1.285  1.00  0.00    -0.014 A 
ATOM     94  C   UNL     1      -5.066   7.471  -1.597  1.00  0.00     0.010 A 
ATOM     95  C   UNL     1      -5.928   5.228  -1.351  1.00  0.00     0.010 A 
ATOM     96  C   UNL     1      -6.344   7.908  -1.939  1.00  0.00     0.020 A 
ATOM     97  C   UNL     1      -7.189   5.644  -1.734  1.00  0.00     0.020 A 
ATOM     98  C   UNL     1      -7.390   6.986  -2.018  1.00  0.00     0.054 A 
BRANCH  98  99
ATOM     99  S   UNL     1      -9.004   7.521  -2.606  1.00  0.00     0.124 S 
ATOM    100  O   UNL     1      -9.598   8.062  -1.387  1.00  0.00    -0.237 OA
ATOM    101  O   UNL     1      -8.663   8.502  -3.634  1.00  0.00    -0.237 OA
ATOM    102  O   UNL     1      -9.609   6.290  -3.109  1.00  0.00    -0.744 OA
ENDBRANCH  98  99
ENDBRANCH  72  93
ENDBRANCH  46  47
ENDBRANCH  39  41
ENDBRANCH  38  39
ENDBRANCH  37  38
ENDBRANCH  36  37
ENDBRANCH  35  36
ENDBRANCH  34  35
ENDBRANCH   1  34
TORSDOF 24
