REMARK SMILES C[C@H]1CS(=O)(=O)N(c2cccc(C(=O)Nc3ccc(O)c(C(=O)OCCOCCOCCOC(=O)c4ccc(-c5c6nc(c(-c7ccc(S(=O)(=O)[O-])cc7)c7ccc([nH]7)c(-c7ccc(S(=O)(=O)[O-])cc7)c7nc(c(-c8ccc(S(=O)(=O)[O-])cc8)c8ccc5[nH]8)C=C7)C=C6)cc4)c3)c2)C1=O
REMARK SMILES IDX 28 1 27 2 26 3 25 4 24 5 22 6 23 7 21 8 16 9 17 10 96 11
REMARK SMILES IDX 18 12 19 13 15 14 13 15 14 16 12 18 8 19 9 20 97 21 10 22
REMARK SMILES IDX 11 23 7 24 1 25 2 26 3 27 98 28 4 29 99 30 5 31 6 32 20 33
REMARK SMILES IDX 29 35 30 36 31 37 32 38 33 39 34 40 35 41 36 42 37 43 95 44
REMARK SMILES IDX 38 45 94 46 39 47 40 48 41 49 88 50 42 51 93 52 87 53 89 54
REMARK SMILES IDX 43 55 92 56 86 57 85 58 44 60 74 61 55 62 73 63 56 64 59 65
REMARK SMILES IDX 72 66 90 67 57 68 58 69 71 71 91 72 60 73 45 74 46 75 54 76
REMARK SMILES IDX 47 77 53 78 48 79 49 80 50 81 51 82 52 83 75 84 76 85 84 86
REMARK SMILES IDX 77 87 83 88 78 89 79 90 80 91 81 92 82 93 61 94 62 95 70 96
REMARK SMILES IDX 63 97 69 98 64 99 65 100 66 101 67 102 68 103
REMARK H PARENT 15 17 20 34 89 59 59 70
REMARK Flexibility Score: inf
ROOT
ATOM      1  C   UNL     1      -2.675   0.491   0.454  1.00  0.00     0.188 C 
ENDROOT
BRANCH   1   2
ATOM      2  O   UNL     1      -2.380  -0.602  -0.387  1.00  0.00    -0.376 OA
BRANCH   2   3
ATOM      3  C   UNL     1      -1.469  -1.594   0.033  1.00  0.00     0.202 C 
BRANCH   3   4
ATOM      4  C   UNL     1      -1.447  -2.192   1.450  1.00  0.00     0.261 C 
BRANCH   4   5
ATOM      5  O   UNL     1      -1.985  -1.452   2.549  1.00  0.00    -0.460 OA
BRANCH   5   6
ATOM      6  C   UNL     1      -1.294  -0.389   3.001  1.00  0.00     0.342 C 
ATOM      7  O   UNL     1      -0.292   0.106   2.518  1.00  0.00    -0.246 OA
BRANCH   6   8
ATOM      8  C   UNL     1      -1.941   0.227   4.162  1.00  0.00     0.103 A 
ATOM      9  C   UNL     1      -2.491  -0.100   6.441  1.00  0.00     0.042 A 
ATOM     10  C   UNL     1      -2.587   1.279   6.644  1.00  0.00     0.030 A 
ATOM     11  C   UNL     1      -2.373  -0.621   5.164  1.00  0.00     0.045 A 
ATOM     12  C   UNL     1      -2.310   2.144   5.583  1.00  0.00     0.049 A 
ATOM     13  C   UNL     1      -1.904   1.611   4.365  1.00  0.00     0.130 A 
BRANCH   9  14
ATOM     14  N   UNL     1      -2.311  -0.942   7.540  1.00  0.00    -0.322 N 
ATOM     15  C   UNL     1      -1.497  -2.063   7.631  1.00  0.00     0.255 C 
ATOM     16  O   UNL     1      -1.661  -2.826   8.585  1.00  0.00    -0.269 OA
ATOM     17  H   UNL     1      -2.825  -0.713   8.348  1.00  0.00     0.170 HD
BRANCH  15  18
ATOM     18  C   UNL     1      -0.387  -2.373   6.646  1.00  0.00     0.042 A 
ATOM     19  C   UNL     1       1.334  -1.787   4.962  1.00  0.00     0.061 A 
ATOM     20  C   UNL     1       1.604  -3.152   4.821  1.00  0.00     0.027 A 
ATOM     21  C   UNL     1       0.380  -1.413   5.938  1.00  0.00     0.041 A 
ATOM     22  C   UNL     1       0.908  -4.112   5.562  1.00  0.00     0.003 A 
ATOM     23  C   UNL     1      -0.095  -3.727   6.450  1.00  0.00     0.014 A 
BRANCH  19  24
ATOM     24  N   UNL     1       1.963  -0.841   4.064  1.00  0.00    -0.207 N 
ATOM     25  C   UNL     1       1.771   0.462   0.652  1.00  0.00     0.019 C 
ATOM     26  C   UNL     1       2.598   0.150   1.906  1.00  0.00     0.094 C 
ATOM     27  C   UNL     1       2.629   1.329   2.874  1.00  0.00     0.173 C 
ATOM     28  C   UNL     1       2.106  -1.086   2.669  1.00  0.00     0.244 C 
ATOM     29  S   UNL     1       2.475   0.685   4.527  1.00  0.00     0.242 S 
ATOM     30  O   UNL     1       1.903  -2.162   2.115  1.00  0.00    -0.273 OA
ATOM     31  O   UNL     1       3.794   0.548   5.107  1.00  0.00    -0.206 OA
ATOM     32  O   UNL     1       1.407   1.394   5.192  1.00  0.00    -0.206 OA
ENDBRANCH  19  24
ENDBRANCH  15  18
ENDBRANCH   9  14
BRANCH  13  33
ATOM     33  O   UNL     1      -1.437   2.481   3.422  1.00  0.00    -0.507 OA
ATOM     34  H   UNL     1      -1.429   3.402   3.597  1.00  0.00     0.293 HD
ENDBRANCH  13  33
ENDBRANCH   6   8
ENDBRANCH   5   6
ENDBRANCH   4   5
ENDBRANCH   3   4
ENDBRANCH   2   3
ENDBRANCH   1   2
BRANCH   1  35
ATOM     35  C   UNL     1      -3.930   0.268   1.327  1.00  0.00     0.188 C 
BRANCH  35  36
ATOM     36  O   UNL     1      -4.738  -0.874   1.089  1.00  0.00    -0.376 OA
BRANCH  36  37
ATOM     37  C   UNL     1      -5.088  -1.160  -0.257  1.00  0.00     0.202 C 
BRANCH  37  38
ATOM     38  C   UNL     1      -5.676  -0.043  -1.144  1.00  0.00     0.261 C 
BRANCH  38  39
ATOM     39  O   UNL     1      -4.991   1.229  -1.133  1.00  0.00    -0.460 OA
BRANCH  39  40
ATOM     40  C   UNL     1      -5.620   2.243  -0.477  1.00  0.00     0.338 C 
ATOM     41  O   UNL     1      -6.719   2.193   0.048  1.00  0.00    -0.246 OA
BRANCH  40  42
ATOM     42  C   UNL     1      -4.705   3.400  -0.292  1.00  0.00     0.060 A 
ATOM     43  C   UNL     1      -4.313   3.768   1.008  1.00  0.00     0.016 A 
ATOM     44  C   UNL     1      -4.317   4.183  -1.378  1.00  0.00     0.016 A 
ATOM     45  C   UNL     1      -3.570   4.930   1.230  1.00  0.00     0.010 A 
ATOM     46  C   UNL     1      -3.605   5.370  -1.150  1.00  0.00     0.010 A 
ATOM     47  C   UNL     1      -3.264   5.772   0.157  1.00  0.00    -0.014 A 
BRANCH  47  48
ATOM     48  C   UNL     1      -2.816   7.168   0.409  1.00  0.00     0.031 A 
ATOM     49  C   UNL     1      -3.852   8.265   0.366  1.00  0.00     0.074 A 
ATOM     50  C   UNL     1      -1.533   7.475   0.674  1.00  0.00     0.049 A 
ATOM     51  N   UNL     1      -3.695   9.562   0.440  1.00  0.00    -0.248 NA
ATOM     52  C   UNL     1      -5.252   7.835   0.216  1.00  0.00     0.031 C 
ATOM     53  C   UNL     1      -0.442   6.515   0.821  1.00  0.00     0.029 A 
ATOM     54  N   UNL     1      -0.931   8.699   0.851  1.00  0.00    -0.354 N 
ATOM     55  C   UNL     1      -4.971  10.103   0.322  1.00  0.00     0.074 A 
ATOM     56  C   UNL     1      -5.886   8.996   0.151  1.00  0.00     0.031 C 
ATOM     57  C   UNL     1       0.702   7.187   1.042  1.00  0.00     0.029 A 
ATOM     58  C   UNL     1       0.432   8.625   1.013  1.00  0.00     0.049 A 
ATOM     59  H   UNL     1      -1.430   9.548   0.861  1.00  0.00     0.167 HD
ATOM     60  C   UNL     1      -5.350  11.403   0.352  1.00  0.00     0.031 A 
ATOM     61  C   UNL     1       1.359   9.603   1.095  1.00  0.00     0.031 A 
ATOM     62  C   UNL     1      -4.440  12.507   0.510  1.00  0.00     0.049 A 
ATOM     63  C   UNL     1       0.927  11.048   1.032  1.00  0.00     0.074 A 
ATOM     64  C   UNL     1      -4.731  13.859   0.564  1.00  0.00     0.029 A 
ATOM     65  N   UNL     1      -3.064  12.389   0.632  1.00  0.00    -0.354 N 
ATOM     66  N   UNL     1      -0.282  11.546   0.928  1.00  0.00    -0.248 NA
ATOM     67  C   UNL     1       1.989  12.064   1.101  1.00  0.00     0.031 C 
ATOM     68  C   UNL     1      -3.525  14.562   0.651  1.00  0.00     0.029 A 
ATOM     69  C   UNL     1      -2.489  13.645   0.727  1.00  0.00     0.049 A 
ATOM     70  H   UNL     1      -2.569  11.538   0.649  1.00  0.00     0.167 HD
ATOM     71  C   UNL     1      -0.129  12.930   0.951  1.00  0.00     0.074 A 
ATOM     72  C   UNL     1       1.288  13.190   1.092  1.00  0.00     0.031 C 
ATOM     73  C   UNL     1      -1.076  13.897   0.867  1.00  0.00     0.031 A 
BRANCH  60  74
ATOM     74  C   UNL     1      -6.814  11.706   0.163  1.00  0.00    -0.014 A 
ATOM     75  C   UNL     1      -7.762  11.391   1.152  1.00  0.00     0.010 A 
ATOM     76  C   UNL     1      -7.241  12.351  -1.013  1.00  0.00     0.010 A 
ATOM     77  C   UNL     1      -9.115  11.680   0.952  1.00  0.00     0.020 A 
ATOM     78  C   UNL     1      -8.588  12.670  -1.203  1.00  0.00     0.020 A 
ATOM     79  C   UNL     1      -9.519  12.316  -0.226  1.00  0.00     0.054 A 
BRANCH  79  80
ATOM     80  S   UNL     1     -11.278  12.699  -0.448  1.00  0.00     0.124 S 
ATOM     81  O   UNL     1     -11.851  11.372  -0.659  1.00  0.00    -0.237 OA
ATOM     82  O   UNL     1     -11.628  13.339   0.817  1.00  0.00    -0.237 OA
ATOM     83  O   UNL     1     -11.299  13.578  -1.615  1.00  0.00    -0.744 OA
ENDBRANCH  79  80
ENDBRANCH  60  74
BRANCH  61  84
ATOM     84  C   UNL     1       2.804   9.254   1.212  1.00  0.00    -0.014 A 
ATOM     85  C   UNL     1       3.521   9.536   2.388  1.00  0.00     0.010 A 
ATOM     86  C   UNL     1       3.476   8.648   0.134  1.00  0.00     0.010 A 
ATOM     87  C   UNL     1       4.883   9.231   2.480  1.00  0.00     0.020 A 
ATOM     88  C   UNL     1       4.829   8.313   0.232  1.00  0.00     0.020 A 
ATOM     89  C   UNL     1       5.527   8.616   1.403  1.00  0.00     0.054 A 
BRANCH  89  90
ATOM     90  S   UNL     1       7.278   8.171   1.567  1.00  0.00     0.124 S 
ATOM     91  O   UNL     1       7.931   9.475   1.512  1.00  0.00    -0.237 OA
ATOM     92  O   UNL     1       7.310   7.499   2.864  1.00  0.00    -0.237 OA
ATOM     93  O   UNL     1       7.518   7.300   0.419  1.00  0.00    -0.744 OA
ENDBRANCH  89  90
ENDBRANCH  61  84
BRANCH  73  94
ATOM     94  C   UNL     1      -0.627  15.334   0.964  1.00  0.00    -0.014 A 
ATOM     95  C   UNL     1       0.089  15.952  -0.076  1.00  0.00     0.010 A 
ATOM     96  C   UNL     1      -0.987  16.097   2.092  1.00  0.00     0.010 A 
ATOM     97  C   UNL     1       0.463  17.296   0.023  1.00  0.00     0.020 A 
ATOM     98  C   UNL     1      -0.643  17.449   2.180  1.00  0.00     0.020 A 
ATOM     99  C   UNL     1       0.093  18.037   1.150  1.00  0.00     0.054 A 
BRANCH  99 100
ATOM    100  S   UNL     1       0.550  19.790   1.231  1.00  0.00     0.124 S 
ATOM    101  O   UNL     1       1.992  19.719   1.453  1.00  0.00    -0.237 OA
ATOM    102  O   UNL     1       0.139  20.289  -0.079  1.00  0.00    -0.237 OA
ATOM    103  O   UNL     1      -0.228  20.301   2.358  1.00  0.00    -0.744 OA
ENDBRANCH  99 100
ENDBRANCH  73  94
ENDBRANCH  47  48
ENDBRANCH  40  42
ENDBRANCH  39  40
ENDBRANCH  38  39
ENDBRANCH  37  38
ENDBRANCH  36  37
ENDBRANCH  35  36
ENDBRANCH   1  35
TORSDOF 24
