REMARK SMILES Cc1cc(C(=O)OCCOCCOCCOC(=O)c2ccc(-c3c4nc(c(-c5ccc(S(=O)(=O)[O-])cc5)c5ccc([nH]5)c(-c5ccc(S(=O)(=O)[O-])cc5)c5nc(c(-c6ccc(S(=O)(=O)[O-])cc6)c6ccc3[nH]6)C=C5)C=C4)cc2)cc(C)c1OC[C@H]1C[N@@H+](C)CCO1
REMARK SMILES IDX 11 1 10 2 9 3 8 4 7 5 5 6 6 7 4 8 1 9 2 10 3 11 82 12 80 13
REMARK SMILES IDX 79 14 81 15 83 16 84 17 85 18 86 19 91 20 87 21 90 22 88 23
REMARK SMILES IDX 89 24 12 26 13 27 14 28 15 29 16 30 17 31 18 32 19 33 20 34
REMARK SMILES IDX 78 35 21 36 77 37 22 38 23 39 24 40 71 41 25 42 76 43 70 44
REMARK SMILES IDX 72 45 26 46 75 47 69 48 68 49 27 51 57 52 38 53 56 54 39 55
REMARK SMILES IDX 42 56 55 57 73 58 40 59 41 60 54 62 74 63 43 64 28 65 29 66
REMARK SMILES IDX 37 67 30 68 36 69 31 70 32 71 33 72 34 73 35 74 58 75 59 76
REMARK SMILES IDX 67 77 60 78 66 79 61 80 62 81 63 82 64 83 65 84 44 85 45 86
REMARK SMILES IDX 53 87 46 88 52 89 47 90 48 91 49 92 50 93 51 94
REMARK H PARENT 87 25 72 50 42 61
REMARK Flexibility Score: inf
ROOT
ATOM      1  C   UNL     1      10.449  -2.350   2.067  1.00  0.00     0.188 C 
ENDROOT
BRANCH   1   2
ATOM      2  O   UNL     1      11.230  -2.761   3.167  1.00  0.00    -0.376 OA
BRANCH   2   3
ATOM      3  C   UNL     1      10.755  -3.756   4.059  1.00  0.00     0.202 C 
BRANCH   3   4
ATOM      4  C   UNL     1       9.282  -4.175   4.212  1.00  0.00     0.261 C 
BRANCH   4   5
ATOM      5  O   UNL     1       8.470  -4.106   3.035  1.00  0.00    -0.460 OA
BRANCH   5   6
ATOM      6  C   UNL     1       7.348  -3.355   3.161  1.00  0.00     0.338 C 
ATOM      7  O   UNL     1       6.936  -2.803   4.174  1.00  0.00    -0.246 OA
BRANCH   6   8
ATOM      8  C   UNL     1       6.767  -3.104   1.833  1.00  0.00     0.060 A 
ATOM      9  C   UNL     1       7.024  -0.260  -0.561  1.00  0.00     0.048 C 
ATOM     10  C   UNL     1       6.458  -1.525   0.002  1.00  0.00    -0.008 A 
ATOM     11  C   UNL     1       6.897  -1.823   1.305  1.00  0.00     0.023 A 
ATOM     12  C   UNL     1       5.666  -2.457  -0.682  1.00  0.00     0.125 A 
ATOM     13  C   UNL     1       5.600  -3.782  -0.173  1.00  0.00    -0.008 A 
ATOM     14  C   UNL     1       6.182  -4.105   1.072  1.00  0.00     0.023 A 
ATOM     15  C   UNL     1       5.010  -4.914  -0.976  1.00  0.00     0.048 C 
BRANCH  12  16
ATOM     16  O   UNL     1       4.946  -2.254  -1.826  1.00  0.00    -0.490 OA
BRANCH  16  17
ATOM     17  C   UNL     1       4.422  -0.980  -2.253  1.00  0.00     0.267 C 
BRANCH  17  18
ATOM     18  C   UNL     1       3.756  -0.066  -1.198  1.00  0.00     0.210 C 
ATOM     19  C   UNL     1       4.286   1.380  -1.321  1.00  0.00     0.298 C 
ATOM     20  O   UNL     1       2.319   0.015  -1.408  1.00  0.00    -0.363 OA
ATOM     21  N   UNL     1       3.834   2.100  -0.123  1.00  0.00    -0.333 N 
ATOM     22  C   UNL     1       1.707   0.849  -0.395  1.00  0.00     0.222 C 
ATOM     23  C   UNL     1       4.526   3.368   0.058  1.00  0.00     0.332 C 
ATOM     24  C   UNL     1       2.375   2.238  -0.224  1.00  0.00     0.290 C 
ATOM     25  H   UNL     1       4.068   1.574   0.719  1.00  0.00     0.348 HD
ENDBRANCH  17  18
ENDBRANCH  16  17
ENDBRANCH  12  16
ENDBRANCH   6   8
ENDBRANCH   5   6
ENDBRANCH   4   5
ENDBRANCH   3   4
ENDBRANCH   2   3
ENDBRANCH   1   2
BRANCH   1  26
ATOM     26  C   UNL     1      10.314  -3.292   0.852  1.00  0.00     0.188 C 
BRANCH  26  27
ATOM     27  O   UNL     1      10.849  -4.600   0.883  1.00  0.00    -0.376 OA
BRANCH  27  28
ATOM     28  C   UNL     1      12.225  -4.800   1.155  1.00  0.00     0.202 C 
BRANCH  28  29
ATOM     29  C   UNL     1      13.334  -3.907   0.579  1.00  0.00     0.261 C 
BRANCH  29  30
ATOM     30  O   UNL     1      13.065  -2.502   0.539  1.00  0.00    -0.460 OA
BRANCH  30  31
ATOM     31  C   UNL     1      12.924  -1.982  -0.701  1.00  0.00     0.338 C 
ATOM     32  O   UNL     1      12.982  -2.584  -1.770  1.00  0.00    -0.246 OA
BRANCH  31  33
ATOM     33  C   UNL     1      12.519  -0.573  -0.604  1.00  0.00     0.060 A 
ATOM     34  C   UNL     1      11.253  -0.206  -1.079  1.00  0.00     0.016 A 
ATOM     35  C   UNL     1      13.403   0.390  -0.114  1.00  0.00     0.016 A 
ATOM     36  C   UNL     1      10.873   1.134  -1.083  1.00  0.00     0.010 A 
ATOM     37  C   UNL     1      13.026   1.735  -0.138  1.00  0.00     0.010 A 
ATOM     38  C   UNL     1      11.771   2.115  -0.646  1.00  0.00    -0.014 A 
BRANCH  38  39
ATOM     39  C   UNL     1      11.461   3.547  -0.872  1.00  0.00     0.031 A 
ATOM     40  C   UNL     1      12.046   4.231  -2.077  1.00  0.00     0.074 A 
ATOM     41  C   UNL     1      10.662   4.225  -0.030  1.00  0.00     0.049 A 
ATOM     42  N   UNL     1      11.948   5.480  -2.449  1.00  0.00    -0.248 NA
ATOM     43  C   UNL     1      12.847   3.391  -2.983  1.00  0.00     0.031 C 
ATOM     44  C   UNL     1       9.994   3.663   1.143  1.00  0.00     0.029 A 
ATOM     45  N   UNL     1      10.285   5.545  -0.033  1.00  0.00    -0.354 N 
ATOM     46  C   UNL     1      12.682   5.581  -3.625  1.00  0.00     0.074 A 
ATOM     47  C   UNL     1      13.239   4.272  -3.891  1.00  0.00     0.031 C 
ATOM     48  C   UNL     1       9.299   4.638   1.755  1.00  0.00     0.029 A 
ATOM     49  C   UNL     1       9.502   5.896   1.040  1.00  0.00     0.049 A 
ATOM     50  H   UNL     1      10.551   6.180  -0.738  1.00  0.00     0.167 HD
ATOM     51  C   UNL     1      12.875   6.665  -4.414  1.00  0.00     0.031 A 
ATOM     52  C   UNL     1       9.027   7.101   1.416  1.00  0.00     0.031 A 
ATOM     53  C   UNL     1      12.342   7.971  -4.134  1.00  0.00     0.049 A 
ATOM     54  C   UNL     1       9.330   8.313   0.572  1.00  0.00     0.074 A 
ATOM     55  C   UNL     1      12.472   9.131  -4.877  1.00  0.00     0.029 A 
ATOM     56  N   UNL     1      11.590   8.296  -3.015  1.00  0.00    -0.354 N 
ATOM     57  N   UNL     1      10.002   8.389  -0.552  1.00  0.00    -0.248 NA
ATOM     58  C   UNL     1       8.802   9.601   1.045  1.00  0.00     0.031 C 
ATOM     59  C   UNL     1      11.851  10.171  -4.177  1.00  0.00     0.029 A 
ATOM     60  C   UNL     1      11.274   9.645  -3.032  1.00  0.00     0.049 A 
ATOM     61  H   UNL     1      11.320   7.662  -2.312  1.00  0.00     0.167 HD
ATOM     62  C   UNL     1       9.954   9.726  -0.935  1.00  0.00     0.074 A 
ATOM     63  C   UNL     1       9.175  10.420   0.071  1.00  0.00     0.031 C 
ATOM     64  C   UNL     1      10.499  10.325  -2.023  1.00  0.00     0.031 A 
BRANCH  51  65
ATOM     65  C   UNL     1      13.739   6.487  -5.634  1.00  0.00    -0.014 A 
ATOM     66  C   UNL     1      13.297   5.738  -6.741  1.00  0.00     0.010 A 
ATOM     67  C   UNL     1      15.007   7.094  -5.682  1.00  0.00     0.010 A 
ATOM     68  C   UNL     1      14.126   5.563  -7.852  1.00  0.00     0.020 A 
ATOM     69  C   UNL     1      15.827   6.945  -6.804  1.00  0.00     0.020 A 
ATOM     70  C   UNL     1      15.388   6.164  -7.874  1.00  0.00     0.054 A 
BRANCH  70  71
ATOM     71  S   UNL     1      16.440   5.926  -9.332  1.00  0.00     0.124 S 
ATOM     72  O   UNL     1      16.847   4.531  -9.185  1.00  0.00    -0.237 OA
ATOM     73  O   UNL     1      15.523   6.199 -10.436  1.00  0.00    -0.237 OA
ATOM     74  O   UNL     1      17.506   6.908  -9.155  1.00  0.00    -0.744 OA
ENDBRANCH  70  71
ENDBRANCH  51  65
BRANCH  52  75
ATOM     75  C   UNL     1       8.227   7.226   2.665  1.00  0.00    -0.014 A 
ATOM     76  C   UNL     1       6.854   7.524   2.610  1.00  0.00     0.010 A 
ATOM     77  C   UNL     1       8.838   7.044   3.920  1.00  0.00     0.010 A 
ATOM     78  C   UNL     1       6.110   7.648   3.787  1.00  0.00     0.020 A 
ATOM     79  C   UNL     1       8.091   7.140   5.097  1.00  0.00     0.020 A 
ATOM     80  C   UNL     1       6.732   7.451   5.023  1.00  0.00     0.054 A 
BRANCH  80  81
ATOM     81  S   UNL     1       5.731   7.561   6.532  1.00  0.00     0.124 S 
ATOM     82  O   UNL     1       5.484   8.996   6.629  1.00  0.00    -0.237 OA
ATOM     83  O   UNL     1       4.569   6.740   6.198  1.00  0.00    -0.237 OA
ATOM     84  O   UNL     1       6.603   7.003   7.563  1.00  0.00    -0.744 OA
ENDBRANCH  80  81
ENDBRANCH  52  75
BRANCH  64  85
ATOM     85  C   UNL     1      10.244  11.798  -2.213  1.00  0.00    -0.014 A 
ATOM     86  C   UNL     1      10.859  12.761  -1.394  1.00  0.00     0.010 A 
ATOM     87  C   UNL     1       9.420  12.226  -3.271  1.00  0.00     0.010 A 
ATOM     88  C   UNL     1      10.630  14.123  -1.610  1.00  0.00     0.020 A 
ATOM     89  C   UNL     1       9.212  13.588  -3.508  1.00  0.00     0.020 A 
ATOM     90  C   UNL     1       9.808  14.528  -2.666  1.00  0.00     0.054 A 
BRANCH  90  91
ATOM     91  S   UNL     1       9.561  16.302  -2.953  1.00  0.00     0.124 S 
ATOM     92  O   UNL     1       8.682  16.670  -1.846  1.00  0.00    -0.237 OA
ATOM     93  O   UNL     1      10.921  16.831  -2.877  1.00  0.00    -0.237 OA
ATOM     94  O   UNL     1       8.950  16.358  -4.279  1.00  0.00    -0.744 OA
ENDBRANCH  90  91
ENDBRANCH  64  85
ENDBRANCH  38  39
ENDBRANCH  31  33
ENDBRANCH  30  31
ENDBRANCH  29  30
ENDBRANCH  28  29
ENDBRANCH  27  28
ENDBRANCH  26  27
ENDBRANCH   1  26
TORSDOF 23
