REMARK SMILES O=C(N[C@]1(C(=O)OCCOCCOCCOC(=O)c2ccc(-c3c4nc(c(-c5ccc(S(=O)(=O)[O-])cc5)c5ccc([nH]5)c(-c5ccc(S(=O)(=O)[O-])cc5)c5nc(c(-c6ccc(S(=O)(=O)[O-])cc6)c6ccc3[nH]6)C=C5)C=C4)cc2)CC[C@H](c2ccccc2)CC1)OCC1c2ccccc2-c2ccccc21
REMARK SMILES IDX 11 1 10 2 9 3 8 4 7 5 5 6 6 7 4 8 79 9 89 10 80 11 88 12
REMARK SMILES IDX 81 13 3 14 1 15 2 16 90 18 91 19 92 20 93 21 104 22 94 23
REMARK SMILES IDX 98 24 99 25 103 26 95 27 97 28 100 29 102 30 96 31 101 32
REMARK SMILES IDX 82 33 83 34 87 35 84 36 86 37 85 38 12 39 13 40 14 41 15 42
REMARK SMILES IDX 16 43 17 44 18 45 19 46 20 47 78 48 21 49 77 50 22 51 23 52
REMARK SMILES IDX 24 53 71 54 25 55 76 56 70 57 72 58 26 59 75 60 69 61 68 62
REMARK SMILES IDX 27 64 57 65 38 66 56 67 39 68 42 69 55 70 73 71 40 72 41 73
REMARK SMILES IDX 54 75 74 76 43 77 28 78 29 79 37 80 30 81 36 82 31 83 32 84
REMARK SMILES IDX 33 85 34 86 35 87 58 88 59 89 67 90 60 91 66 92 61 93 62 94
REMARK SMILES IDX 63 95 64 96 65 97 44 98 45 99 53 100 46 101 52 102 47 103
REMARK SMILES IDX 48 104 49 105 50 106 51 107
REMARK H PARENT 3 17 72 63 42 74
REMARK Flexibility Score: inf
ROOT
ATOM      1  C   UNL     1       4.055  -3.437  -3.921  1.00  0.00     0.188 C 
ENDROOT
BRANCH   1   2
ATOM      2  O   UNL     1       4.559  -3.104  -5.205  1.00  0.00    -0.376 OA
BRANCH   2   3
ATOM      3  C   UNL     1       5.954  -2.853  -5.321  1.00  0.00     0.202 C 
BRANCH   3   4
ATOM      4  C   UNL     1       6.484  -1.558  -4.697  1.00  0.00     0.261 C 
BRANCH   4   5
ATOM      5  O   UNL     1       6.177  -1.406  -3.306  1.00  0.00    -0.461 OA
BRANCH   5   6
ATOM      6  C   UNL     1       5.109  -0.610  -3.041  1.00  0.00     0.332 C 
ATOM      7  O   UNL     1       4.441  -0.030  -3.895  1.00  0.00    -0.249 OA
BRANCH   6   8
ATOM      8  C   UNL     1       4.834  -0.449  -1.526  1.00  0.00     0.141 C 
ATOM      9  C   UNL     1       5.558   0.859  -1.199  1.00  0.00     0.041 C 
ATOM     10  C   UNL     1       5.237  -1.676  -0.692  1.00  0.00     0.041 C 
ATOM     11  C   UNL     1       7.018   0.679  -0.767  1.00  0.00     0.011 C 
ATOM     12  C   UNL     1       6.672  -1.751  -0.167  1.00  0.00     0.011 C 
ATOM     13  C   UNL     1       7.336  -0.295   0.729  1.00  0.00     0.019 C 
BRANCH   8  14
ATOM     14  N   UNL     1       3.352  -0.299  -1.477  1.00  0.00    -0.305 N 
ATOM     15  O   UNL     1       1.307  -0.119  -0.511  1.00  0.00    -0.225 OA
ATOM     16  C   UNL     1       2.520  -0.220  -0.404  1.00  0.00     0.408 C 
ATOM     17  H   UNL     1       2.908  -0.251  -2.355  1.00  0.00     0.168 HD
BRANCH  16  18
ATOM     18  O   UNL     1       3.158  -0.238   0.788  1.00  0.00    -0.449 OA
BRANCH  18  19
ATOM     19  C   UNL     1       3.155   1.050   1.390  1.00  0.00     0.248 C 
BRANCH  19  20
ATOM     20  C   UNL     1       4.483   1.348   2.106  1.00  0.00     0.088 C 
ATOM     21  C   UNL     1       5.689   0.470   1.762  1.00  0.00    -0.029 A 
ATOM     22  C   UNL     1       4.961   2.806   1.738  1.00  0.00    -0.029 A 
ATOM     23  C   UNL     1       6.112  -1.247   2.085  1.00  0.00     0.005 A 
ATOM     24  C   UNL     1       6.978   1.650   1.353  1.00  0.00    -0.014 A 
ATOM     25  C   UNL     1       6.301   2.924   1.260  1.00  0.00    -0.014 A 
ATOM     26  C   UNL     1       4.140   3.930   1.737  1.00  0.00     0.005 A 
ATOM     27  C   UNL     1       7.898  -1.766   2.035  1.00  0.00     0.000 A 
ATOM     28  C   UNL     1       8.732   1.156   1.335  1.00  0.00     0.009 A 
ATOM     29  C   UNL     1       6.775   4.098   0.699  1.00  0.00     0.009 A 
ATOM     30  C   UNL     1       4.618   5.115   1.167  1.00  0.00     0.000 A 
ATOM     31  C   UNL     1       9.203  -0.538   1.772  1.00  0.00     0.001 A 
ATOM     32  C   UNL     1       5.913   5.190   0.630  1.00  0.00     0.001 A 
ENDBRANCH  19  20
ENDBRANCH  18  19
ENDBRANCH  16  18
ENDBRANCH   8  14
BRANCH  13  33
ATOM     33  C   UNL     1       7.497   0.174   2.835  1.00  0.00    -0.045 A 
ATOM     34  C   UNL     1       7.714   1.508   3.563  1.00  0.00     0.004 A 
ATOM     35  C   UNL     1       7.301  -0.745   4.081  1.00  0.00     0.004 A 
ATOM     36  C   UNL     1       7.402   1.856   4.909  1.00  0.00     0.000 A 
ATOM     37  C   UNL     1       7.060  -0.401   5.437  1.00  0.00     0.000 A 
ATOM     38  C   UNL     1       7.013   0.911   5.826  1.00  0.00     0.000 A 
ENDBRANCH  13  33
ENDBRANCH   6   8
ENDBRANCH   5   6
ENDBRANCH   4   5
ENDBRANCH   3   4
ENDBRANCH   2   3
ENDBRANCH   1   2
BRANCH   1  39
ATOM     39  C   UNL     1       4.721  -4.595  -3.189  1.00  0.00     0.188 C 
BRANCH  39  40
ATOM     40  O   UNL     1       6.133  -4.549  -3.014  1.00  0.00    -0.376 OA
BRANCH  40  41
ATOM     41  C   UNL     1       6.662  -5.604  -2.193  1.00  0.00     0.202 C 
BRANCH  41  42
ATOM     42  C   UNL     1       6.158  -7.038  -2.486  1.00  0.00     0.261 C 
BRANCH  42  43
ATOM     43  O   UNL     1       4.731  -7.242  -2.349  1.00  0.00    -0.460 OA
BRANCH  43  44
ATOM     44  C   UNL     1       4.144  -6.887  -1.178  1.00  0.00     0.338 C 
ATOM     45  O   UNL     1       4.727  -6.663  -0.131  1.00  0.00    -0.246 OA
BRANCH  44  46
ATOM     46  C   UNL     1       2.711  -6.531  -1.440  1.00  0.00     0.060 A 
ATOM     47  C   UNL     1       2.141  -5.484  -0.697  1.00  0.00     0.016 A 
ATOM     48  C   UNL     1       1.962  -7.127  -2.461  1.00  0.00     0.016 A 
ATOM     49  C   UNL     1       0.817  -5.080  -0.925  1.00  0.00     0.010 A 
ATOM     50  C   UNL     1       0.633  -6.728  -2.682  1.00  0.00     0.010 A 
ATOM     51  C   UNL     1       0.035  -5.732  -1.887  1.00  0.00    -0.014 A 
BRANCH  51  52
ATOM     52  C   UNL     1      -1.446  -5.554  -1.903  1.00  0.00     0.031 A 
ATOM     53  C   UNL     1      -2.288  -6.595  -1.203  1.00  0.00     0.074 A 
ATOM     54  C   UNL     1      -2.058  -4.506  -2.489  1.00  0.00     0.049 A 
ATOM     55  N   UNL     1      -3.590  -6.699  -1.120  1.00  0.00    -0.248 NA
ATOM     56  C   UNL     1      -1.554  -7.664  -0.505  1.00  0.00     0.031 C 
ATOM     57  C   UNL     1      -1.389  -3.389  -3.151  1.00  0.00     0.029 A 
ATOM     58  N   UNL     1      -3.399  -4.219  -2.622  1.00  0.00    -0.354 N 
ATOM     59  C   UNL     1      -3.830  -7.844  -0.368  1.00  0.00     0.074 A 
ATOM     60  C   UNL     1      -2.542  -8.419  -0.050  1.00  0.00     0.031 C 
ATOM     61  C   UNL     1      -2.322  -2.544  -3.630  1.00  0.00     0.029 A 
ATOM     62  C   UNL     1      -3.655  -3.074  -3.340  1.00  0.00     0.049 A 
ATOM     63  H   UNL     1      -4.109  -4.783  -2.238  1.00  0.00     0.167 HD
ATOM     64  C   UNL     1      -5.011  -8.373   0.034  1.00  0.00     0.031 A 
ATOM     65  C   UNL     1      -4.824  -2.524  -3.736  1.00  0.00     0.031 A 
ATOM     66  C   UNL     1      -6.301  -7.823  -0.286  1.00  0.00     0.049 A 
ATOM     67  C   UNL     1      -6.133  -3.179  -3.356  1.00  0.00     0.074 A 
ATOM     68  C   UNL     1      -7.550  -8.294   0.081  1.00  0.00     0.029 A 
ATOM     69  N   UNL     1      -6.512  -6.688  -1.052  1.00  0.00    -0.354 N 
ATOM     70  N   UNL     1      -6.341  -4.255  -2.636  1.00  0.00    -0.248 NA
ATOM     71  C   UNL     1      -7.366  -2.537  -3.839  1.00  0.00     0.031 C 
ATOM     72  C   UNL     1      -8.518  -7.479  -0.514  1.00  0.00     0.029 A 
ATOM     73  C   UNL     1      -7.871  -6.459  -1.193  1.00  0.00     0.049 A 
ATOM     74  H   UNL     1      -5.801  -6.127  -1.439  1.00  0.00     0.167 HD
ATOM     75  C   UNL     1      -7.726  -4.399  -2.554  1.00  0.00     0.074 A 
ATOM     76  C   UNL     1      -8.305  -3.295  -3.288  1.00  0.00     0.031 C 
ATOM     77  C   UNL     1      -8.448  -5.358  -1.923  1.00  0.00     0.031 A 
BRANCH  64  78
ATOM     78  C   UNL     1      -4.958  -9.643   0.842  1.00  0.00    -0.014 A 
ATOM     79  C   UNL     1      -4.485  -9.647   2.167  1.00  0.00     0.010 A 
ATOM     80  C   UNL     1      -5.410 -10.847   0.273  1.00  0.00     0.010 A 
ATOM     81  C   UNL     1      -4.425 -10.839   2.892  1.00  0.00     0.020 A 
ATOM     82  C   UNL     1      -5.380 -12.037   1.005  1.00  0.00     0.020 A 
ATOM     83  C   UNL     1      -4.870 -12.028   2.304  1.00  0.00     0.054 A 
BRANCH  83  84
ATOM     84  S   UNL     1      -4.790 -13.559   3.272  1.00  0.00     0.124 S 
ATOM     85  O   UNL     1      -3.353 -13.824   3.299  1.00  0.00    -0.237 OA
ATOM     86  O   UNL     1      -5.378 -13.162   4.549  1.00  0.00    -0.237 OA
ATOM     87  O   UNL     1      -5.582 -14.506   2.492  1.00  0.00    -0.744 OA
ENDBRANCH  83  84
ENDBRANCH  64  78
BRANCH  65  88
ATOM     88  C   UNL     1      -4.824  -1.289  -4.576  1.00  0.00    -0.014 A 
ATOM     89  C   UNL     1      -5.311  -0.069  -4.072  1.00  0.00     0.010 A 
ATOM     90  C   UNL     1      -4.358  -1.337  -5.903  1.00  0.00     0.010 A 
ATOM     91  C   UNL     1      -5.345   1.072  -4.882  1.00  0.00     0.020 A 
ATOM     92  C   UNL     1      -4.362  -0.192  -6.706  1.00  0.00     0.020 A 
ATOM     93  C   UNL     1      -4.866   1.004  -6.193  1.00  0.00     0.054 A 
BRANCH  93  94
ATOM     94  S   UNL     1      -4.871   2.509  -7.209  1.00  0.00     0.124 S 
ATOM     95  O   UNL     1      -6.292   2.679  -7.497  1.00  0.00    -0.237 OA
ATOM     96  O   UNL     1      -4.285   3.500  -6.310  1.00  0.00    -0.237 OA
ATOM     97  O   UNL     1      -4.040   2.151  -8.357  1.00  0.00    -0.744 OA
ENDBRANCH  93  94
ENDBRANCH  65  88
BRANCH  77  98
ATOM     98  C   UNL     1      -9.954  -5.249  -1.954  1.00  0.00    -0.014 A 
ATOM     99  C   UNL     1     -10.686  -5.494  -3.129  1.00  0.00     0.010 A 
ATOM    100  C   UNL     1     -10.652  -4.964  -0.764  1.00  0.00     0.010 A 
ATOM    101  C   UNL     1     -12.084  -5.427  -3.120  1.00  0.00     0.020 A 
ATOM    102  C   UNL     1     -12.049  -4.924  -0.745  1.00  0.00     0.020 A 
ATOM    103  C   UNL     1     -12.757  -5.143  -1.928  1.00  0.00     0.054 A 
BRANCH 103 104
ATOM    104  S   UNL     1     -14.572  -5.107  -1.934  1.00  0.00     0.124 S 
ATOM    105  O   UNL     1     -14.850  -3.865  -2.649  1.00  0.00    -0.237 OA
ATOM    106  O   UNL     1     -14.915  -6.334  -2.648  1.00  0.00    -0.237 OA
ATOM    107  O   UNL     1     -14.924  -5.101  -0.515  1.00  0.00    -0.744 OA
ENDBRANCH 103 104
ENDBRANCH  77  98
ENDBRANCH  51  52
ENDBRANCH  44  46
ENDBRANCH  43  44
ENDBRANCH  42  43
ENDBRANCH  41  42
ENDBRANCH  40  41
ENDBRANCH  39  40
ENDBRANCH   1  39
TORSDOF 25
