REMARK SMILES O=C(OCCOCCOCCOC(=O)[C@@H]1C=C[C@H](NC(=O)[C@@H]2CCSC2)C1)c1ccc(-c2c3nc(c(-c4ccc(S(=O)(=O)[O-])cc4)c4ccc([nH]4)c(-c4ccc(S(=O)(=O)[O-])cc4)c4nc(c(-c5ccc(S(=O)(=O)[O-])cc5)c5ccc2[nH]5)C=C4)C=C3)cc1
REMARK SMILES IDX 7 1 6 2 5 3 4 4 3 5 2 6 1 7 28 8 29 9 87 10 30 11 86 12
REMARK SMILES IDX 31 13 32 14 33 15 80 16 34 17 85 18 79 19 81 20 35 21 84 22
REMARK SMILES IDX 78 23 77 24 36 26 66 27 47 28 65 29 48 30 51 31 64 32 82 33
REMARK SMILES IDX 49 34 50 35 63 37 83 38 52 39 37 40 38 41 46 42 39 43 45 44
REMARK SMILES IDX 40 45 41 46 42 47 43 48 44 49 67 50 68 51 76 52 69 53 75 54
REMARK SMILES IDX 70 55 71 56 72 57 73 58 74 59 53 60 54 61 62 62 55 63 61 64
REMARK SMILES IDX 56 65 57 66 58 67 59 68 60 69 8 70 9 71 10 72 11 73 12 74
REMARK SMILES IDX 13 75 14 76 15 77 16 78 27 79 17 80 18 81 19 82 20 83 21 85
REMARK SMILES IDX 22 86 23 87 26 88 24 89 25 90
REMARK H PARENT 81 25 51 36 19 84
REMARK Flexibility Score: inf
ROOT
ATOM      1  C   UNL     1      -1.242   5.073   2.711  1.00  0.00     0.188 C 
ENDROOT
BRANCH   1   2
ATOM      2  O   UNL     1      -2.351   4.385   3.289  1.00  0.00    -0.376 OA
BRANCH   2   3
ATOM      3  C   UNL     1      -2.117   3.672   4.502  1.00  0.00     0.202 C 
BRANCH   3   4
ATOM      4  C   UNL     1      -2.095   4.548   5.760  1.00  0.00     0.261 C 
BRANCH   4   5
ATOM      5  O   UNL     1      -1.719   5.914   5.503  1.00  0.00    -0.460 OA
BRANCH   5   6
ATOM      6  C   UNL     1      -0.485   6.442   5.398  1.00  0.00     0.338 C 
ATOM      7  O   UNL     1      -0.326   7.614   5.072  1.00  0.00    -0.246 OA
BRANCH   6   8
ATOM      8  C   UNL     1       0.708   5.659   5.749  1.00  0.00     0.060 A 
ATOM      9  C   UNL     1       1.004   4.056   5.248  1.00  0.00     0.016 A 
ATOM     10  C   UNL     1       1.728   6.507   6.783  1.00  0.00     0.016 A 
ATOM     11  C   UNL     1       2.260   3.064   5.785  1.00  0.00     0.010 A 
ATOM     12  C   UNL     1       3.132   5.671   7.373  1.00  0.00     0.010 A 
ATOM     13  C   UNL     1       3.447   3.763   6.884  1.00  0.00    -0.014 A 
BRANCH  13  14
ATOM     14  C   UNL     1       4.518   2.549   6.981  1.00  0.00     0.031 A 
ATOM     15  C   UNL     1       4.705   1.815   8.271  1.00  0.00     0.074 A 
ATOM     16  C   UNL     1       5.127   1.889   5.958  1.00  0.00     0.049 A 
ATOM     17  N   UNL     1       5.798   1.402   8.841  1.00  0.00    -0.248 NA
ATOM     18  C   UNL     1       3.501   1.612   9.065  1.00  0.00     0.031 C 
ATOM     19  C   UNL     1       4.882   2.053   4.532  1.00  0.00     0.029 A 
ATOM     20  N   UNL     1       6.057   0.867   5.975  1.00  0.00    -0.354 N 
ATOM     21  C   UNL     1       5.451   1.286  10.181  1.00  0.00     0.074 A 
ATOM     22  C   UNL     1       4.045   1.590  10.276  1.00  0.00     0.031 C 
ATOM     23  C   UNL     1       5.608   1.178   3.818  1.00  0.00     0.029 A 
ATOM     24  C   UNL     1       6.436   0.410   4.728  1.00  0.00     0.049 A 
ATOM     25  H   UNL     1       6.420   0.493   6.811  1.00  0.00     0.167 HD
ATOM     26  C   UNL     1       6.270   0.959  11.206  1.00  0.00     0.031 A 
ATOM     27  C   UNL     1       7.351  -0.513   4.367  1.00  0.00     0.031 A 
ATOM     28  C   UNL     1       7.442   0.164  10.955  1.00  0.00     0.049 A 
ATOM     29  C   UNL     1       8.149  -1.157   5.473  1.00  0.00     0.074 A 
ATOM     30  C   UNL     1       8.287  -0.462  11.850  1.00  0.00     0.029 A 
ATOM     31  N   UNL     1       7.814  -0.260   9.683  1.00  0.00    -0.354 N 
ATOM     32  N   UNL     1       8.066  -0.954   6.768  1.00  0.00    -0.248 NA
ATOM     33  C   UNL     1       9.163  -2.142   5.080  1.00  0.00     0.031 C 
ATOM     34  C   UNL     1       9.131  -1.309  11.116  1.00  0.00     0.029 A 
ATOM     35  C   UNL     1       8.800  -1.216   9.770  1.00  0.00     0.049 A 
ATOM     36  H   UNL     1       7.426   0.076   8.843  1.00  0.00     0.167 HD
ATOM     37  C   UNL     1       9.000  -1.803   7.348  1.00  0.00     0.074 A 
ATOM     38  C   UNL     1       9.614  -2.542   6.261  1.00  0.00     0.031 C 
ATOM     39  C   UNL     1       9.337  -1.954   8.654  1.00  0.00     0.031 A 
BRANCH  26  40
ATOM     40  C   UNL     1       5.916   1.410  12.601  1.00  0.00    -0.014 A 
ATOM     41  C   UNL     1       4.714   1.076  13.243  1.00  0.00     0.010 A 
ATOM     42  C   UNL     1       6.816   2.260  13.279  1.00  0.00     0.010 A 
ATOM     43  C   UNL     1       4.360   1.669  14.459  1.00  0.00     0.020 A 
ATOM     44  C   UNL     1       6.499   2.804  14.531  1.00  0.00     0.020 A 
ATOM     45  C   UNL     1       5.253   2.534  15.094  1.00  0.00     0.054 A 
BRANCH  45  46
ATOM     46  S   UNL     1       4.771   3.261  16.684  1.00  0.00     0.124 S 
ATOM     47  O   UNL     1       3.828   4.298  16.271  1.00  0.00    -0.237 OA
ATOM     48  O   UNL     1       4.179   2.126  17.388  1.00  0.00    -0.237 OA
ATOM     49  O   UNL     1       6.031   3.746  17.241  1.00  0.00    -0.744 OA
ENDBRANCH  45  46
ENDBRANCH  26  40
BRANCH  27  50
ATOM     50  C   UNL     1       7.580  -0.877   2.930  1.00  0.00    -0.014 A 
ATOM     51  C   UNL     1       7.323  -2.182   2.463  1.00  0.00     0.010 A 
ATOM     52  C   UNL     1       8.079   0.069   2.013  1.00  0.00     0.010 A 
ATOM     53  C   UNL     1       7.585  -2.538   1.132  1.00  0.00     0.020 A 
ATOM     54  C   UNL     1       8.310  -0.272   0.673  1.00  0.00     0.020 A 
ATOM     55  C   UNL     1       8.076  -1.578   0.243  1.00  0.00     0.054 A 
BRANCH  55  56
ATOM     56  S   UNL     1       8.377  -2.053  -1.485  1.00  0.00     0.124 S 
ATOM     57  O   UNL     1       9.524  -2.946  -1.362  1.00  0.00    -0.237 OA
ATOM     58  O   UNL     1       7.116  -2.690  -1.858  1.00  0.00    -0.237 OA
ATOM     59  O   UNL     1       8.643  -0.779  -2.149  1.00  0.00    -0.744 OA
ENDBRANCH  55  56
ENDBRANCH  27  50
BRANCH  39  60
ATOM     60  C   UNL     1      10.351  -3.008   8.975  1.00  0.00    -0.014 A 
ATOM     61  C   UNL     1      11.713  -2.810   8.696  1.00  0.00     0.010 A 
ATOM     62  C   UNL     1       9.938  -4.173   9.647  1.00  0.00     0.010 A 
ATOM     63  C   UNL     1      12.648  -3.773   9.070  1.00  0.00     0.020 A 
ATOM     64  C   UNL     1      10.874  -5.122  10.050  1.00  0.00     0.020 A 
ATOM     65  C   UNL     1      12.223  -4.919   9.751  1.00  0.00     0.054 A 
BRANCH  65  66
ATOM     66  S   UNL     1      13.469  -6.117  10.290  1.00  0.00     0.124 S 
ATOM     67  O   UNL     1      13.863  -6.733   9.027  1.00  0.00    -0.237 OA
ATOM     68  O   UNL     1      14.477  -5.266  10.918  1.00  0.00    -0.237 OA
ATOM     69  O   UNL     1      12.738  -6.988  11.208  1.00  0.00    -0.744 OA
ENDBRANCH  65  66
ENDBRANCH  39  60
ENDBRANCH  13  14
ENDBRANCH   6   8
ENDBRANCH   5   6
ENDBRANCH   4   5
ENDBRANCH   3   4
ENDBRANCH   2   3
ENDBRANCH   1   2
BRANCH   1  70
ATOM     70  C   UNL     1      -1.459   5.439   1.243  1.00  0.00     0.188 C 
BRANCH  70  71
ATOM     71  O   UNL     1      -2.059   4.500   0.366  1.00  0.00    -0.376 OA
BRANCH  71  72
ATOM     72  C   UNL     1      -2.027   3.128   0.711  1.00  0.00     0.202 C 
BRANCH  72  73
ATOM     73  C   UNL     1      -0.674   2.396   0.704  1.00  0.00     0.261 C 
BRANCH  73  74
ATOM     74  O   UNL     1       0.498   3.127   1.126  1.00  0.00    -0.463 OA
BRANCH  74  75
ATOM     75  C   UNL     1       1.174   3.736   0.114  1.00  0.00     0.312 C 
ATOM     76  O   UNL     1       0.736   3.844  -1.029  1.00  0.00    -0.252 OA
BRANCH  75  77
ATOM     77  C   UNL     1       2.539   4.316   0.493  1.00  0.00     0.124 C 
ATOM     78  C   UNL     1       3.383   3.674   1.542  1.00  0.00    -0.014 C 
ATOM     79  C   UNL     1       2.517   5.800   0.909  1.00  0.00     0.048 C 
ATOM     80  C   UNL     1       3.889   4.583   2.382  1.00  0.00    -0.006 C 
ATOM     81  C   UNL     1       3.318   5.939   2.219  1.00  0.00     0.106 C 
BRANCH  81  82
ATOM     82  N   UNL     1       2.478   6.292   3.366  1.00  0.00    -0.350 N 
ATOM     83  C   UNL     1       3.016   6.452   4.636  1.00  0.00     0.224 C 
ATOM     84  H   UNL     1       1.510   6.418   3.234  1.00  0.00     0.164 HD
ATOM     85  O   UNL     1       3.454   7.558   4.950  1.00  0.00    -0.275 OA
BRANCH  83  86
ATOM     86  C   UNL     1       3.010   5.122   5.631  1.00  0.00     0.089 C 
ATOM     87  C   UNL     1       1.754   4.452   7.341  1.00  0.00     0.025 C 
ATOM     88  C   UNL     1       4.875   5.327   6.331  1.00  0.00     0.083 C 
ATOM     89  C   UNL     1       2.821   4.475   8.995  1.00  0.00     0.070 C 
ATOM     90  S   UNL     1       5.050   4.844   8.592  1.00  0.00    -0.161 SA
ENDBRANCH  83  86
ENDBRANCH  81  82
ENDBRANCH  75  77
ENDBRANCH  74  75
ENDBRANCH  73  74
ENDBRANCH  72  73
ENDBRANCH  71  72
ENDBRANCH  70  71
ENDBRANCH   1  70
TORSDOF 22
