REMARK SMILES COc1cc(/C=C2\SC(=S)N(CC(=O)OCCOCCOCCOC(=O)c3ccc(-c4c5nc(c(-c6ccc(S(=O)(=O)[O-])cc6)c6ccc([nH]6)c(-c6ccc(S(=O)(=O)[O-])cc6)c6nc(c(-c7ccc(S(=O)(=O)[O-])cc7)c7ccc4[nH]7)C=C6)C=C5)cc3)C2=O)cc2c1OCO2
REMARK SMILES IDX 19 1 18 2 17 3 16 4 15 5 13 6 14 7 12 8 11 9 6 10 7 11 8 12
REMARK SMILES IDX 87 13 9 14 88 15 10 16 5 17 3 18 4 19 91 20 90 21 92 22
REMARK SMILES IDX 89 23 94 24 93 25 2 26 1 27 20 28 21 29 22 30 23 31 24 32
REMARK SMILES IDX 25 33 26 34 27 35 28 36 86 37 29 38 85 39 30 40 31 41 32 42
REMARK SMILES IDX 79 43 33 44 84 45 78 46 80 47 34 48 83 49 77 50 76 51 35 53
REMARK SMILES IDX 65 54 46 55 64 56 47 57 50 58 63 59 81 60 48 61 49 62 62 64
REMARK SMILES IDX 82 65 51 66 36 67 37 68 45 69 38 70 44 71 39 72 40 73 41 74
REMARK SMILES IDX 42 75 43 76 66 77 67 78 75 79 68 80 74 81 69 82 70 83 71 84
REMARK SMILES IDX 72 85 73 86 52 87 53 88 61 89 54 90 60 91 55 92 56 93 57 94
REMARK SMILES IDX 58 95 59 96
REMARK H PARENT 80 52 50 63
REMARK Flexibility Score: inf
ROOT
ATOM      1  C   UNL     1      -4.432   8.114   4.820  1.00  0.00     0.188 C 
ENDROOT
BRANCH   1   2
ATOM      2  O   UNL     1      -5.397   8.986   4.236  1.00  0.00    -0.376 OA
BRANCH   2   3
ATOM      3  C   UNL     1      -5.068   9.702   3.052  1.00  0.00     0.202 C 
BRANCH   3   4
ATOM      4  C   UNL     1      -3.855  10.644   3.101  1.00  0.00     0.261 C 
BRANCH   4   5
ATOM      5  O   UNL     1      -2.597  10.010   3.439  1.00  0.00    -0.462 OA
BRANCH   5   6
ATOM      6  C   UNL     1      -1.899  10.575   4.460  1.00  0.00     0.326 C 
ATOM      7  O   UNL     1      -2.241  11.607   5.031  1.00  0.00    -0.250 OA
BRANCH   6   8
ATOM      8  C   UNL     1      -0.665   9.789   4.931  1.00  0.00     0.250 C 
BRANCH   8   9
ATOM      9  N   UNL     1      -0.140   8.634   4.182  1.00  0.00    -0.282 N 
ATOM     10  C   UNL     1       0.127   5.015   3.972  1.00  0.00     0.029 C 
ATOM     11  C   UNL     1       0.298   6.335   3.793  1.00  0.00     0.081 C 
ATOM     12  S   UNL     1       1.230   7.128   2.588  1.00  0.00    -0.054 SA
ATOM     13  C   UNL     1      -0.325   7.357   4.681  1.00  0.00     0.266 C 
ATOM     14  C   UNL     1       0.684   8.732   3.083  1.00  0.00     0.148 C 
ATOM     15  O   UNL     1      -0.893   7.081   5.729  1.00  0.00    -0.268 OA
ATOM     16  S   UNL     1       1.164  10.116   2.288  1.00  0.00    -0.052 S 
BRANCH  10  17
ATOM     17  C   UNL     1       0.867   3.958   3.266  1.00  0.00    -0.017 A 
ATOM     18  C   UNL     1       1.046   2.201   1.558  1.00  0.00     0.165 A 
ATOM     19  C   UNL     1       0.305   3.205   2.213  1.00  0.00     0.058 A 
ATOM     20  C   UNL     1       2.353   1.998   1.969  1.00  0.00     0.207 A 
ATOM     21  C   UNL     1       2.890   2.727   3.009  1.00  0.00     0.170 A 
ATOM     22  O   UNL     1       3.274   1.136   1.449  1.00  0.00    -0.450 OA
ATOM     23  C   UNL     1       2.176   3.693   3.682  1.00  0.00     0.059 A 
ATOM     24  O   UNL     1       4.186   2.405   3.273  1.00  0.00    -0.453 OA
ATOM     25  C   UNL     1       4.444   1.461   2.222  1.00  0.00     0.468 C 
BRANCH  18  26
ATOM     26  O   UNL     1       0.392   1.556   0.544  1.00  0.00    -0.493 OA
ATOM     27  C   UNL     1       0.908   0.283   0.164  1.00  0.00     0.278 C 
ENDBRANCH  18  26
ENDBRANCH  10  17
ENDBRANCH   8   9
ENDBRANCH   6   8
ENDBRANCH   5   6
ENDBRANCH   4   5
ENDBRANCH   3   4
ENDBRANCH   2   3
ENDBRANCH   1   2
BRANCH   1  28
ATOM     28  C   UNL     1      -3.504   7.322   3.888  1.00  0.00     0.188 C 
BRANCH  28  29
ATOM     29  O   UNL     1      -3.979   7.230   2.564  1.00  0.00    -0.376 OA
BRANCH  29  30
ATOM     30  C   UNL     1      -4.257   5.949   2.047  1.00  0.00     0.202 C 
BRANCH  30  31
ATOM     31  C   UNL     1      -5.317   5.106   2.769  1.00  0.00     0.261 C 
BRANCH  31  32
ATOM     32  O   UNL     1      -5.269   5.077   4.205  1.00  0.00    -0.460 OA
BRANCH  32  33
ATOM     33  C   UNL     1      -4.313   4.305   4.775  1.00  0.00     0.338 C 
ATOM     34  O   UNL     1      -3.443   3.683   4.198  1.00  0.00    -0.246 OA
BRANCH  33  35
ATOM     35  C   UNL     1      -4.380   4.503   6.242  1.00  0.00     0.060 A 
ATOM     36  C   UNL     1      -3.303   5.114   6.893  1.00  0.00     0.016 A 
ATOM     37  C   UNL     1      -5.482   4.068   6.977  1.00  0.00     0.016 A 
ATOM     38  C   UNL     1      -3.308   5.278   8.279  1.00  0.00     0.010 A 
ATOM     39  C   UNL     1      -5.480   4.213   8.370  1.00  0.00     0.010 A 
ATOM     40  C   UNL     1      -4.382   4.796   9.033  1.00  0.00    -0.014 A 
BRANCH  40  41
ATOM     41  C   UNL     1      -4.298   4.751  10.515  1.00  0.00     0.031 A 
ATOM     42  C   UNL     1      -4.020   3.429  11.181  1.00  0.00     0.074 A 
ATOM     43  C   UNL     1      -4.455   5.859  11.262  1.00  0.00     0.049 A 
ATOM     44  N   UNL     1      -4.031   3.120  12.451  1.00  0.00    -0.248 NA
ATOM     45  C   UNL     1      -3.691   2.304  10.289  1.00  0.00     0.031 C 
ATOM     46  C   UNL     1      -4.650   7.212  10.742  1.00  0.00     0.029 A 
ATOM     47  N   UNL     1      -4.485   6.017  12.626  1.00  0.00    -0.354 N 
ATOM     48  C   UNL     1      -3.739   1.762  12.511  1.00  0.00     0.074 A 
ATOM     49  C   UNL     1      -3.574   1.303  11.149  1.00  0.00     0.031 C 
ATOM     50  C   UNL     1      -4.795   8.060  11.775  1.00  0.00     0.029 A 
ATOM     51  C   UNL     1      -4.755   7.304  13.026  1.00  0.00     0.049 A 
ATOM     52  H   UNL     1      -4.329   5.277  13.258  1.00  0.00     0.167 HD
ATOM     53  C   UNL     1      -3.622   0.968  13.602  1.00  0.00     0.031 A 
ATOM     54  C   UNL     1      -4.980   7.810  14.257  1.00  0.00     0.031 A 
ATOM     55  C   UNL     1      -3.791   1.429  14.955  1.00  0.00     0.049 A 
ATOM     56  C   UNL     1      -4.934   6.890  15.451  1.00  0.00     0.074 A 
ATOM     57  C   UNL     1      -3.689   0.705  16.130  1.00  0.00     0.029 A 
ATOM     58  N   UNL     1      -4.101   2.732  15.314  1.00  0.00    -0.354 N 
ATOM     59  N   UNL     1      -4.668   5.605  15.495  1.00  0.00    -0.248 NA
ATOM     60  C   UNL     1      -5.217   7.489  16.763  1.00  0.00     0.031 C 
ATOM     61  C   UNL     1      -3.999   1.556  17.195  1.00  0.00     0.029 A 
ATOM     62  C   UNL     1      -4.221   2.827  16.691  1.00  0.00     0.049 A 
ATOM     63  H   UNL     1      -4.218   3.480  14.684  1.00  0.00     0.167 HD
ATOM     64  C   UNL     1      -4.721   5.252  16.840  1.00  0.00     0.074 A 
ATOM     65  C   UNL     1      -5.031   6.459  17.577  1.00  0.00     0.031 C 
ATOM     66  C   UNL     1      -4.527   4.037  17.413  1.00  0.00     0.031 A 
BRANCH  53  67
ATOM     67  C   UNL     1      -3.343  -0.495  13.373  1.00  0.00    -0.014 A 
ATOM     68  C   UNL     1      -2.097  -0.942  12.897  1.00  0.00     0.010 A 
ATOM     69  C   UNL     1      -4.339  -1.444  13.672  1.00  0.00     0.010 A 
ATOM     70  C   UNL     1      -1.867  -2.305  12.687  1.00  0.00     0.020 A 
ATOM     71  C   UNL     1      -4.102  -2.809  13.493  1.00  0.00     0.020 A 
ATOM     72  C   UNL     1      -2.872  -3.230  12.985  1.00  0.00     0.054 A 
BRANCH  72  73
ATOM     73  S   UNL     1      -2.538  -4.993  12.721  1.00  0.00     0.124 S 
ATOM     74  O   UNL     1      -2.527  -5.083  11.263  1.00  0.00    -0.237 OA
ATOM     75  O   UNL     1      -1.242  -5.173  13.371  1.00  0.00    -0.237 OA
ATOM     76  O   UNL     1      -3.659  -5.662  13.376  1.00  0.00    -0.744 OA
ENDBRANCH  72  73
ENDBRANCH  53  67
BRANCH  54  77
ATOM     77  C   UNL     1      -5.308   9.254  14.423  1.00  0.00    -0.014 A 
ATOM     78  C   UNL     1      -4.418  10.123  15.078  1.00  0.00     0.010 A 
ATOM     79  C   UNL     1      -6.522   9.769  13.931  1.00  0.00     0.010 A 
ATOM     80  C   UNL     1      -4.741  11.473  15.251  1.00  0.00     0.020 A 
ATOM     81  C   UNL     1      -6.836  11.123  14.074  1.00  0.00     0.020 A 
ATOM     82  C   UNL     1      -5.947  11.965  14.744  1.00  0.00     0.054 A 
BRANCH  82  83
ATOM     83  S   UNL     1      -6.321  13.730  14.937  1.00  0.00     0.124 S 
ATOM     84  O   UNL     1      -6.600  13.828  16.366  1.00  0.00    -0.237 OA
ATOM     85  O   UNL     1      -5.084  14.365  14.489  1.00  0.00    -0.237 OA
ATOM     86  O   UNL     1      -7.472  13.935  14.059  1.00  0.00    -0.744 OA
ENDBRANCH  82  83
ENDBRANCH  54  77
BRANCH  66  87
ATOM     87  C   UNL     1      -4.594   3.955  18.917  1.00  0.00    -0.014 A 
ATOM     88  C   UNL     1      -5.813   4.079  19.607  1.00  0.00     0.010 A 
ATOM     89  C   UNL     1      -3.421   3.687  19.647  1.00  0.00     0.010 A 
ATOM     90  C   UNL     1      -5.851   3.969  21.000  1.00  0.00     0.020 A 
ATOM     91  C   UNL     1      -3.459   3.544  21.036  1.00  0.00     0.020 A 
ATOM     92  C   UNL     1      -4.673   3.701  21.706  1.00  0.00     0.054 A 
BRANCH  92  93
ATOM     93  S   UNL     1      -4.758   3.517  23.509  1.00  0.00     0.124 S 
ATOM     94  O   UNL     1      -4.984   4.892  23.945  1.00  0.00    -0.237 OA
ATOM     95  O   UNL     1      -5.887   2.607  23.685  1.00  0.00    -0.237 OA
ATOM     96  O   UNL     1      -3.454   2.959  23.863  1.00  0.00    -0.744 OA
ENDBRANCH  92  93
ENDBRANCH  66  87
ENDBRANCH  40  41
ENDBRANCH  33  35
ENDBRANCH  32  33
ENDBRANCH  31  32
ENDBRANCH  30  31
ENDBRANCH  29  30
ENDBRANCH  28  29
ENDBRANCH   1  28
TORSDOF 23
