REMARK SMILES O=C(NC[C@@H]1CCOC1)NC[C@@H]1CC[C@H](C(=O)OCCOCCOCCOC(=O)c2ccc(-c3c4nc(c(-c5ccc(S(=O)(=O)[O-])cc5)c5ccc([nH]5)c(-c5ccc(S(=O)(=O)[O-])cc5)c5nc(c(-c6ccc(S(=O)(=O)[O-])cc6)c6ccc3[nH]6)C=C5)C=C4)cc2)O1
REMARK SMILES IDX 22 1 21 2 20 3 19 4 18 5 16 6 17 7 15 8 12 9 13 10 90 11
REMARK SMILES IDX 14 12 11 13 10 14 1 15 2 16 3 17 4 20 5 21 6 22 9 23 7 24
REMARK SMILES IDX 8 25 23 26 24 27 25 28 26 29 27 30 28 31 29 32 30 33 31 34
REMARK SMILES IDX 89 35 32 36 88 37 33 38 34 39 35 40 82 41 36 42 87 43 81 44
REMARK SMILES IDX 83 45 37 46 86 47 80 48 79 49 38 51 68 52 49 53 67 54 50 55
REMARK SMILES IDX 53 56 66 57 84 58 51 59 52 60 65 62 85 63 54 64 39 65 40 66
REMARK SMILES IDX 48 67 41 68 47 69 42 70 43 71 44 72 45 73 46 74 69 75 70 76
REMARK SMILES IDX 78 77 71 78 77 79 72 80 73 81 74 82 75 83 76 84 55 85 56 86
REMARK SMILES IDX 64 87 57 88 63 89 58 90 59 91 60 92 61 93 62 94
REMARK H PARENT 3 18 10 19 83 50 53 61
REMARK Flexibility Score: inf
ROOT
ATOM      1  C   UNL     1       7.669  -0.575   4.089  1.00  0.00     0.188 C 
ENDROOT
BRANCH   1   2
ATOM      2  O   UNL     1       8.377  -0.995   2.938  1.00  0.00    -0.376 OA
BRANCH   2   3
ATOM      3  C   UNL     1       8.099  -0.355   1.702  1.00  0.00     0.202 C 
BRANCH   3   4
ATOM      4  C   UNL     1       6.648  -0.053   1.271  1.00  0.00     0.261 C 
BRANCH   4   5
ATOM      5  O   UNL     1       5.746   0.638   2.167  1.00  0.00    -0.461 OA
BRANCH   5   6
ATOM      6  C   UNL     1       4.743  -0.083   2.743  1.00  0.00     0.335 C 
ATOM      7  O   UNL     1       4.563  -1.277   2.532  1.00  0.00    -0.249 OA
BRANCH   6   8
ATOM      8  C   UNL     1       3.853   0.720   3.712  1.00  0.00     0.228 C 
ATOM      9  C   UNL     1       2.263   2.055   2.644  1.00  0.00     0.138 C 
ATOM     10  C   UNL     1       3.483   2.916   2.922  1.00  0.00     0.037 C 
ATOM     11  O   UNL     1       2.506   0.758   3.216  1.00  0.00    -0.361 OA
ATOM     12  C   UNL     1       4.181   2.169   4.020  1.00  0.00     0.047 C 
BRANCH   9  13
ATOM     13  C   UNL     1       1.939   1.971   1.144  1.00  0.00     0.149 C 
BRANCH  13  14
ATOM     14  N   UNL     1       2.660   0.917   0.436  1.00  0.00    -0.336 N 
ATOM     15  O   UNL     1       0.772  -0.273  -0.013  1.00  0.00    -0.249 OA
ATOM     16  C   UNL     1       1.996  -0.164  -0.044  1.00  0.00     0.314 C 
ATOM     17  N   UNL     1       2.701  -1.158  -0.620  1.00  0.00    -0.338 N 
ATOM     18  H   UNL     1       2.147  -1.938  -0.851  1.00  0.00     0.165 HD
ATOM     19  H   UNL     1       3.633   0.992   0.306  1.00  0.00     0.165 HD
BRANCH  17  20
ATOM     20  C   UNL     1       4.094  -1.333  -0.975  1.00  0.00     0.123 C 
BRANCH  20  21
ATOM     21  C   UNL     1       4.747  -2.611  -0.406  1.00  0.00     0.036 C 
ATOM     22  C   UNL     1       5.927  -3.040  -1.262  1.00  0.00     0.036 C 
ATOM     23  C   UNL     1       3.910  -3.873  -0.423  1.00  0.00     0.165 C 
ATOM     24  C   UNL     1       5.273  -3.935  -2.298  1.00  0.00     0.160 C 
ATOM     25  O   UNL     1       4.053  -4.431  -1.732  1.00  0.00    -0.381 OA
ENDBRANCH  20  21
ENDBRANCH  17  20
ENDBRANCH  13  14
ENDBRANCH   9  13
ENDBRANCH   6   8
ENDBRANCH   5   6
ENDBRANCH   4   5
ENDBRANCH   3   4
ENDBRANCH   2   3
ENDBRANCH   1   2
BRANCH   1  26
ATOM     26  C   UNL     1       7.513   0.928   4.336  1.00  0.00     0.188 C 
BRANCH  26  27
ATOM     27  O   UNL     1       7.823   1.770   3.247  1.00  0.00    -0.376 OA
BRANCH  27  28
ATOM     28  C   UNL     1       8.927   2.660   3.333  1.00  0.00     0.202 C 
BRANCH  28  29
ATOM     29  C   UNL     1      10.275   2.193   3.921  1.00  0.00     0.261 C 
BRANCH  29  30
ATOM     30  O   UNL     1      10.233   1.474   5.165  1.00  0.00    -0.460 OA
BRANCH  30  31
ATOM     31  C   UNL     1       9.799   2.152   6.256  1.00  0.00     0.338 C 
ATOM     32  O   UNL     1       9.532   3.343   6.307  1.00  0.00    -0.246 OA
BRANCH  31  33
ATOM     33  C   UNL     1       9.380   1.143   7.266  1.00  0.00     0.060 A 
ATOM     34  C   UNL     1       8.057   1.185   7.740  1.00  0.00     0.016 A 
ATOM     35  C   UNL     1      10.234   0.115   7.668  1.00  0.00     0.016 A 
ATOM     36  C   UNL     1       7.599   0.226   8.643  1.00  0.00     0.010 A 
ATOM     37  C   UNL     1       9.786  -0.825   8.604  1.00  0.00     0.010 A 
ATOM     38  C   UNL     1       8.480  -0.748   9.125  1.00  0.00    -0.014 A 
BRANCH  38  39
ATOM     39  C   UNL     1       8.113  -1.501  10.351  1.00  0.00     0.031 A 
ATOM     40  C   UNL     1       8.616  -0.977  11.670  1.00  0.00     0.074 A 
ATOM     41  C   UNL     1       7.319  -2.586  10.317  1.00  0.00     0.049 A 
ATOM     42  N   UNL     1       8.423  -1.440  12.878  1.00  0.00    -0.248 NA
ATOM     43  C   UNL     1       9.452   0.234  11.615  1.00  0.00     0.031 C 
ATOM     44  C   UNL     1       6.732  -3.173   9.115  1.00  0.00     0.029 A 
ATOM     45  N   UNL     1       6.874  -3.390  11.338  1.00  0.00    -0.354 N 
ATOM     46  C   UNL     1       9.128  -0.589  13.722  1.00  0.00     0.074 A 
ATOM     47  C   UNL     1       9.775   0.399  12.887  1.00  0.00     0.031 C 
ATOM     48  C   UNL     1       6.013  -4.254   9.467  1.00  0.00     0.029 A 
ATOM     49  C   UNL     1       6.111  -4.451  10.913  1.00  0.00     0.049 A 
ATOM     50  H   UNL     1       7.081  -3.221  12.286  1.00  0.00     0.167 HD
ATOM     51  C   UNL     1       9.230  -0.623  15.072  1.00  0.00     0.031 A 
ATOM     52  C   UNL     1       5.572  -5.474  11.608  1.00  0.00     0.031 A 
ATOM     53  C   UNL     1       8.604  -1.617  15.901  1.00  0.00     0.049 A 
ATOM     54  C   UNL     1       5.736  -5.523  13.106  1.00  0.00     0.074 A 
ATOM     55  C   UNL     1       8.623  -1.720  17.281  1.00  0.00     0.029 A 
ATOM     56  N   UNL     1       7.861  -2.690  15.431  1.00  0.00    -0.354 N 
ATOM     57  N   UNL     1       6.372  -4.689  13.896  1.00  0.00    -0.248 NA
ATOM     58  C   UNL     1       5.093  -6.643  13.807  1.00  0.00     0.031 C 
ATOM     59  C   UNL     1       7.956  -2.896  17.639  1.00  0.00     0.029 A 
ATOM     60  C   UNL     1       7.449  -3.481  16.490  1.00  0.00     0.049 A 
ATOM     61  H   UNL     1       7.658  -2.863  14.483  1.00  0.00     0.167 HD
ATOM     62  C   UNL     1       6.183  -5.171  15.190  1.00  0.00     0.074 A 
ATOM     63  C   UNL     1       5.357  -6.356  15.075  1.00  0.00     0.031 C 
ATOM     64  C   UNL     1       6.644  -4.673  16.366  1.00  0.00     0.031 A 
BRANCH  51  65
ATOM     65  C   UNL     1      10.107   0.416  15.722  1.00  0.00    -0.014 A 
ATOM     66  C   UNL     1       9.760   1.780  15.731  1.00  0.00     0.010 A 
ATOM     67  C   UNL     1      11.307   0.014  16.337  1.00  0.00     0.010 A 
ATOM     68  C   UNL     1      10.622   2.726  16.292  1.00  0.00     0.020 A 
ATOM     69  C   UNL     1      12.155   0.952  16.930  1.00  0.00     0.020 A 
ATOM     70  C   UNL     1      11.818   2.305  16.883  1.00  0.00     0.054 A 
BRANCH  70  71
ATOM     71  S   UNL     1      12.920   3.553  17.601  1.00  0.00     0.124 S 
ATOM     72  O   UNL     1      13.444   4.214  16.407  1.00  0.00    -0.237 OA
ATOM     73  O   UNL     1      12.009   4.355  18.413  1.00  0.00    -0.237 OA
ATOM     74  O   UNL     1      13.893   2.766  18.354  1.00  0.00    -0.744 OA
ENDBRANCH  70  71
ENDBRANCH  51  65
BRANCH  52  75
ATOM     75  C   UNL     1       4.840  -6.551  10.883  1.00  0.00    -0.014 A 
ATOM     76  C   UNL     1       3.448  -6.698  11.008  1.00  0.00     0.010 A 
ATOM     77  C   UNL     1       5.545  -7.429  10.038  1.00  0.00     0.010 A 
ATOM     78  C   UNL     1       2.775  -7.703  10.305  1.00  0.00     0.020 A 
ATOM     79  C   UNL     1       4.873  -8.414   9.310  1.00  0.00     0.020 A 
ATOM     80  C   UNL     1       3.491  -8.548   9.451  1.00  0.00     0.054 A 
BRANCH  80  81
ATOM     81  S   UNL     1       2.586  -9.789   8.485  1.00  0.00     0.124 S 
ATOM     82  O   UNL     1       2.196 -10.750   9.511  1.00  0.00    -0.237 OA
ATOM     83  O   UNL     1       1.500  -9.002   7.906  1.00  0.00    -0.237 OA
ATOM     84  O   UNL     1       3.580 -10.266   7.525  1.00  0.00    -0.744 OA
ENDBRANCH  80  81
ENDBRANCH  52  75
BRANCH  64  85
ATOM     85  C   UNL     1       6.239  -5.388  17.632  1.00  0.00    -0.014 A 
ATOM     86  C   UNL     1       6.714  -6.676  17.938  1.00  0.00     0.010 A 
ATOM     87  C   UNL     1       5.384  -4.743  18.546  1.00  0.00     0.010 A 
ATOM     88  C   UNL     1       6.294  -7.328  19.102  1.00  0.00     0.020 A 
ATOM     89  C   UNL     1       4.992  -5.376  19.728  1.00  0.00     0.020 A 
ATOM     90  C   UNL     1       5.430  -6.675  19.987  1.00  0.00     0.054 A 
BRANCH  90  91
ATOM     91  S   UNL     1       4.898  -7.541  21.490  1.00  0.00     0.124 S 
ATOM     92  O   UNL     1       3.972  -8.536  20.955  1.00  0.00    -0.237 OA
ATOM     93  O   UNL     1       6.153  -8.070  22.017  1.00  0.00    -0.237 OA
ATOM     94  O   UNL     1       4.284  -6.489  22.297  1.00  0.00    -0.744 OA
ENDBRANCH  90  91
ENDBRANCH  64  85
ENDBRANCH  38  39
ENDBRANCH  31  33
ENDBRANCH  30  31
ENDBRANCH  29  30
ENDBRANCH  28  29
ENDBRANCH  27  28
ENDBRANCH  26  27
ENDBRANCH   1  26
TORSDOF 24
