REMARK SMILES C[C@H](O)[C@H](NC(=O)COCC[NH3+])C(=O)OCCOCCOCCOC(=O)c1ccc(-c2c3nc(c(-c4ccc(S(=O)(=O)[O-])cc4)c4ccc([nH]4)c(-c4ccc(S(=O)(=O)[O-])cc4)c4nc(c(-c5ccc(S(=O)(=O)[O-])cc5)c5ccc2[nH]5)C=C4)C=C3)cc1
REMARK SMILES IDX 18 1 17 2 16 3 15 4 13 5 14 6 4 7 2 8 1 9 3 10 5 12 6 13
REMARK SMILES IDX 7 15 8 16 9 17 10 18 11 19 12 20 19 24 20 25 21 26 22 27
REMARK SMILES IDX 23 28 24 29 25 30 26 31 27 32 28 33 86 34 29 35 85 36 30 37
REMARK SMILES IDX 31 38 32 39 79 40 33 41 84 42 78 43 80 44 34 45 83 46 77 47
REMARK SMILES IDX 76 48 35 50 65 51 46 52 64 53 47 54 50 55 63 56 81 57 48 58
REMARK SMILES IDX 49 59 62 61 82 62 51 63 36 64 37 65 45 66 38 67 44 68 39 69
REMARK SMILES IDX 40 70 41 71 42 72 43 73 66 74 67 75 75 76 68 77 74 78 69 79
REMARK SMILES IDX 70 80 71 81 72 82 73 83 52 84 53 85 61 86 54 87 60 88 55 89
REMARK SMILES IDX 56 90 57 91 58 92 59 93
REMARK H PARENT 3 11 5 14 12 21 12 22 12 23 80 49 50 60
REMARK Flexibility Score: inf
ROOT
ATOM      1  O   UNL     1      -2.041  -5.446  -0.970  1.00  0.00    -0.376 OA
ENDROOT
BRANCH   1   2
ATOM      2  C   UNL     1      -1.983  -5.388  -2.386  1.00  0.00     0.202 C 
BRANCH   2   3
ATOM      3  C   UNL     1      -2.151  -4.028  -3.087  1.00  0.00     0.261 C 
BRANCH   3   4
ATOM      4  O   UNL     1      -1.548  -2.892  -2.426  1.00  0.00    -0.462 OA
BRANCH   4   5
ATOM      5  C   UNL     1      -2.416  -1.957  -1.968  1.00  0.00     0.331 C 
ATOM      6  O   UNL     1      -3.628  -2.003  -2.180  1.00  0.00    -0.250 OA
BRANCH   5   7
ATOM      7  C   UNL     1      -1.816  -0.867  -1.041  1.00  0.00     0.221 C 
BRANCH   7   8
ATOM      8  C   UNL     1      -2.470   0.502  -1.359  1.00  0.00     0.145 C 
ATOM      9  C   UNL     1      -2.202   1.521  -0.255  1.00  0.00     0.041 C 
BRANCH   8  10
ATOM     10  O   UNL     1      -3.900   0.461  -1.462  1.00  0.00    -0.391 OA
ATOM     11  H   UNL     1      -4.279   0.218  -0.603  1.00  0.00     0.211 HD
ENDBRANCH   8  10
ENDBRANCH   7   8
BRANCH   7  12
ATOM     12  N   UNL     1      -0.359  -0.821  -0.772  1.00  0.00    -0.339 N 
ATOM     13  C   UNL     1       0.710  -0.190  -1.322  1.00  0.00     0.246 C 
ATOM     14  H   UNL     1      -0.104  -1.386  -0.007  1.00  0.00     0.164 HD
ATOM     15  O   UNL     1       1.810  -0.391  -0.799  1.00  0.00    -0.272 OA
BRANCH  13  16
ATOM     16  C   UNL     1       0.576   0.789  -2.487  1.00  0.00     0.260 C 
BRANCH  16  17
ATOM     17  O   UNL     1       0.011   0.284  -3.682  1.00  0.00    -0.366 OA
BRANCH  17  18
ATOM     18  C   UNL     1       0.814  -0.715  -4.319  1.00  0.00     0.222 C 
BRANCH  18  19
ATOM     19  C   UNL     1       1.794  -0.137  -5.357  1.00  0.00     0.287 C 
BRANCH  19  20
ATOM     20  N   UNL     1       3.001   0.460  -4.783  1.00  0.00    -0.356 N 
ATOM     21  H   UNL     1       2.741   1.252  -4.194  1.00  0.00     0.344 HD
ATOM     22  H   UNL     1       3.612   0.781  -5.534  1.00  0.00     0.344 HD
ATOM     23  H   UNL     1       3.490  -0.236  -4.220  1.00  0.00     0.344 HD
ENDBRANCH  19  20
ENDBRANCH  18  19
ENDBRANCH  17  18
ENDBRANCH  16  17
ENDBRANCH  13  16
ENDBRANCH   7  12
ENDBRANCH   5   7
ENDBRANCH   4   5
ENDBRANCH   3   4
ENDBRANCH   2   3
ENDBRANCH   1   2
BRANCH   1  24
ATOM     24  C   UNL     1      -1.192  -4.609  -0.192  1.00  0.00     0.188 C 
BRANCH  24  25
ATOM     25  C   UNL     1       0.218  -4.237  -0.701  1.00  0.00     0.188 C 
BRANCH  25  26
ATOM     26  O   UNL     1       0.596  -4.909  -1.883  1.00  0.00    -0.376 OA
BRANCH  26  27
ATOM     27  C   UNL     1       1.684  -5.806  -1.793  1.00  0.00     0.202 C 
BRANCH  27  28
ATOM     28  C   UNL     1       1.575  -6.978  -0.803  1.00  0.00     0.261 C 
BRANCH  28  29
ATOM     29  O   UNL     1       1.030  -6.688   0.495  1.00  0.00    -0.460 OA
BRANCH  29  30
ATOM     30  C   UNL     1       1.855  -6.098   1.395  1.00  0.00     0.338 C 
ATOM     31  O   UNL     1       3.006  -5.763   1.213  1.00  0.00    -0.246 OA
BRANCH  30  32
ATOM     32  C   UNL     1       1.049  -5.747   2.592  1.00  0.00     0.060 A 
ATOM     33  C   UNL     1       0.884  -4.398   2.937  1.00  0.00     0.016 A 
ATOM     34  C   UNL     1       0.467  -6.747   3.373  1.00  0.00     0.016 A 
ATOM     35  C   UNL     1       0.159  -4.048   4.081  1.00  0.00     0.010 A 
ATOM     36  C   UNL     1      -0.240  -6.396   4.529  1.00  0.00     0.010 A 
ATOM     37  C   UNL     1      -0.373  -5.047   4.908  1.00  0.00    -0.014 A 
BRANCH  37  38
ATOM     38  C   UNL     1      -0.905  -4.706   6.254  1.00  0.00     0.031 A 
ATOM     39  C   UNL     1      -0.016  -4.917   7.452  1.00  0.00     0.074 A 
ATOM     40  C   UNL     1      -2.148  -4.218   6.423  1.00  0.00     0.049 A 
ATOM     41  N   UNL     1      -0.281  -4.760   8.723  1.00  0.00    -0.248 NA
ATOM     42  C   UNL     1       1.357  -5.370   7.175  1.00  0.00     0.031 C 
ATOM     43  C   UNL     1      -3.096  -3.921   5.350  1.00  0.00     0.029 A 
ATOM     44  N   UNL     1      -2.831  -3.897   7.572  1.00  0.00    -0.354 N 
ATOM     45  C   UNL     1       0.883  -5.109   9.399  1.00  0.00     0.074 A 
ATOM     46  C   UNL     1       1.847  -5.512   8.398  1.00  0.00     0.031 C 
ATOM     47  C   UNL     1      -4.241  -3.470   5.893  1.00  0.00     0.029 A 
ATOM     48  C   UNL     1      -4.124  -3.484   7.351  1.00  0.00     0.049 A 
ATOM     49  H   UNL     1      -2.431  -3.958   8.470  1.00  0.00     0.167 HD
ATOM     50  C   UNL     1       1.133  -5.093  10.730  1.00  0.00     0.031 A 
ATOM     51  C   UNL     1      -5.107  -3.178   8.222  1.00  0.00     0.031 A 
ATOM     52  C   UNL     1       0.168  -4.710  11.728  1.00  0.00     0.049 A 
ATOM     53  C   UNL     1      -4.835  -3.248   9.705  1.00  0.00     0.074 A 
ATOM     54  C   UNL     1       0.330  -4.649  13.101  1.00  0.00     0.029 A 
ATOM     55  N   UNL     1      -1.140  -4.333  11.464  1.00  0.00    -0.354 N 
ATOM     56  N   UNL     1      -3.722  -3.559  10.327  1.00  0.00    -0.248 NA
ATOM     57  C   UNL     1      -5.951  -2.917  10.603  1.00  0.00     0.031 C 
ATOM     58  C   UNL     1      -0.898  -4.301  13.671  1.00  0.00     0.029 A 
ATOM     59  C   UNL     1      -1.805  -4.069  12.650  1.00  0.00     0.049 A 
ATOM     60  H   UNL     1      -1.537  -4.264  10.566  1.00  0.00     0.167 HD
ATOM     61  C   UNL     1      -3.996  -3.428  11.687  1.00  0.00     0.074 A 
ATOM     62  C   UNL     1      -5.374  -2.996  11.794  1.00  0.00     0.031 C 
ATOM     63  C   UNL     1      -3.179  -3.640  12.749  1.00  0.00     0.031 A 
BRANCH  50  64
ATOM     64  C   UNL     1       2.496  -5.543  11.188  1.00  0.00    -0.014 A 
ATOM     65  C   UNL     1       3.647  -4.777  10.930  1.00  0.00     0.010 A 
ATOM     66  C   UNL     1       2.623  -6.740  11.919  1.00  0.00     0.010 A 
ATOM     67  C   UNL     1       4.903  -5.219  11.357  1.00  0.00     0.020 A 
ATOM     68  C   UNL     1       3.872  -7.169  12.375  1.00  0.00     0.020 A 
ATOM     69  C   UNL     1       5.007  -6.413  12.076  1.00  0.00     0.054 A 
BRANCH  69  70
ATOM     70  S   UNL     1       6.647  -6.952  12.633  1.00  0.00     0.124 S 
ATOM     71  O   UNL     1       7.281  -7.339  11.375  1.00  0.00    -0.237 OA
ATOM     72  O   UNL     1       7.182  -5.747  13.261  1.00  0.00    -0.237 OA
ATOM     73  O   UNL     1       6.359  -8.053  13.549  1.00  0.00    -0.744 OA
ENDBRANCH  69  70
ENDBRANCH  50  64
BRANCH  51  74
ATOM     74  C   UNL     1      -6.457  -2.791   7.721  1.00  0.00    -0.014 A 
ATOM     75  C   UNL     1      -6.943  -1.484   7.899  1.00  0.00     0.010 A 
ATOM     76  C   UNL     1      -7.271  -3.736   7.068  1.00  0.00     0.010 A 
ATOM     77  C   UNL     1      -8.220  -1.133   7.448  1.00  0.00     0.020 A 
ATOM     78  C   UNL     1      -8.535  -3.381   6.588  1.00  0.00     0.020 A 
ATOM     79  C   UNL     1      -9.006  -2.083   6.790  1.00  0.00     0.054 A 
BRANCH  79  80
ATOM     80  S   UNL     1     -10.636  -1.588   6.165  1.00  0.00     0.124 S 
ATOM     81  O   UNL     1     -11.401  -1.435   7.398  1.00  0.00    -0.237 OA
ATOM     82  O   UNL     1     -10.334  -0.352   5.449  1.00  0.00    -0.237 OA
ATOM     83  O   UNL     1     -11.033  -2.710   5.317  1.00  0.00    -0.744 OA
ENDBRANCH  79  80
ENDBRANCH  51  74
BRANCH  63  84
ATOM     84  C   UNL     1      -3.732  -3.365  14.126  1.00  0.00    -0.014 A 
ATOM     85  C   UNL     1      -4.718  -4.185  14.702  1.00  0.00     0.010 A 
ATOM     86  C   UNL     1      -3.214  -2.292  14.876  1.00  0.00     0.010 A 
ATOM     87  C   UNL     1      -5.203  -3.913  15.986  1.00  0.00     0.020 A 
ATOM     88  C   UNL     1      -3.672  -2.037  16.171  1.00  0.00     0.020 A 
ATOM     89  C   UNL     1      -4.677  -2.840  16.712  1.00  0.00     0.054 A 
BRANCH  89  90
ATOM     90  S   UNL     1      -5.300  -2.530  18.387  1.00  0.00     0.124 S 
ATOM     91  O   UNL     1      -6.640  -2.013  18.123  1.00  0.00    -0.237 OA
ATOM     92  O   UNL     1      -5.248  -3.856  18.999  1.00  0.00    -0.237 OA
ATOM     93  O   UNL     1      -4.355  -1.560  18.936  1.00  0.00    -0.744 OA
ENDBRANCH  89  90
ENDBRANCH  63  84
ENDBRANCH  37  38
ENDBRANCH  30  32
ENDBRANCH  29  30
ENDBRANCH  28  29
ENDBRANCH  27  28
ENDBRANCH  26  27
ENDBRANCH  25  26
ENDBRANCH  24  25
ENDBRANCH   1  24
TORSDOF 28
