REMARK SMILES O=C(NCCC1=CCCCC1)C1=C(C(=O)OCCOCCOCCOC(=O)c2ccc(-c3c4nc(c(-c5ccc(S(=O)(=O)[O-])cc5)c5ccc([nH]5)c(-c5ccc(S(=O)(=O)[O-])cc5)c5nc(c(-c6ccc(S(=O)(=O)[O-])cc6)c6ccc3[nH]6)C=C5)C=C4)cc2)CCCC1
REMARK SMILES IDX 20 1 19 2 18 3 17 4 16 5 14 6 15 7 13 8 12 9 91 10 88 11
REMARK SMILES IDX 90 12 89 13 2 14 1 15 3 16 4 18 5 19 6 20 7 21 11 22 8 23
REMARK SMILES IDX 10 24 9 25 21 26 22 27 23 28 24 29 25 30 26 31 27 32 28 33
REMARK SMILES IDX 29 34 87 35 30 36 86 37 31 38 32 39 33 40 80 41 34 42 85 43
REMARK SMILES IDX 79 44 81 45 35 46 84 47 78 48 77 49 36 51 66 52 47 53 65 54
REMARK SMILES IDX 48 55 51 56 64 57 82 58 49 59 50 60 63 62 83 63 52 64 37 65
REMARK SMILES IDX 38 66 46 67 39 68 45 69 40 70 41 71 42 72 43 73 44 74 67 75
REMARK SMILES IDX 68 76 76 77 69 78 75 79 70 80 71 81 72 82 73 83 74 84 53 85
REMARK SMILES IDX 54 86 62 87 55 88 61 89 56 90 57 91 58 92 59 93 60 94
REMARK H PARENT 3 17 81 50 51 61
REMARK Flexibility Score: inf
ROOT
ATOM      1  C   UNL     1       4.422  -0.199   4.303  1.00  0.00     0.188 C 
ENDROOT
BRANCH   1   2
ATOM      2  O   UNL     1       4.709   1.129   4.690  1.00  0.00    -0.376 OA
BRANCH   2   3
ATOM      3  C   UNL     1       4.660   2.174   3.734  1.00  0.00     0.202 C 
BRANCH   3   4
ATOM      4  C   UNL     1       4.826   1.948   2.227  1.00  0.00     0.261 C 
BRANCH   4   5
ATOM      5  O   UNL     1       4.234   0.757   1.698  1.00  0.00    -0.460 OA
BRANCH   5   6
ATOM      6  C   UNL     1       5.094  -0.160   1.186  1.00  0.00     0.334 C 
ATOM      7  O   UNL     1       6.313  -0.072   1.199  1.00  0.00    -0.247 OA
BRANCH   6   8
ATOM      8  C   UNL     1       4.392  -1.350   0.638  1.00  0.00     0.046 C 
ATOM      9  C   UNL     1       3.258  -1.308  -0.094  1.00  0.00     0.027 C 
ATOM     10  C   UNL     1       2.583  -2.551  -0.631  1.00  0.00     0.042 C 
ATOM     11  C   UNL     1       5.089  -2.654   0.943  1.00  0.00     0.044 C 
ATOM     12  C   UNL     1       3.186  -3.869  -0.144  1.00  0.00     0.005 C 
ATOM     13  C   UNL     1       4.698  -3.776  -0.016  1.00  0.00     0.005 C 
BRANCH   9  14
ATOM     14  C   UNL     1       2.496  -0.074  -0.416  1.00  0.00     0.247 C 
ATOM     15  O   UNL     1       1.282  -0.026  -0.223  1.00  0.00    -0.270 OA
ATOM     16  N   UNL     1       3.098   0.968  -1.039  1.00  0.00    -0.352 N 
ATOM     17  H   UNL     1       2.486   1.692  -1.303  1.00  0.00     0.163 HD
BRANCH  16  18
ATOM     18  C   UNL     1       4.490   1.204  -1.385  1.00  0.00     0.120 C 
BRANCH  18  19
ATOM     19  C   UNL     1       4.694   2.195  -2.526  1.00  0.00     0.052 C 
BRANCH  19  20
ATOM     20  C   UNL     1       4.328   3.623  -2.169  1.00  0.00    -0.072 C 
ATOM     21  C   UNL     1       5.265   4.573  -1.990  1.00  0.00    -0.028 C 
ATOM     22  C   UNL     1       2.860   3.958  -2.067  1.00  0.00     0.031 C 
ATOM     23  C   UNL     1       4.952   6.014  -1.698  1.00  0.00     0.027 C 
ATOM     24  C   UNL     1       2.570   5.436  -2.300  1.00  0.00     0.005 C 
ATOM     25  C   UNL     1       3.473   6.290  -1.419  1.00  0.00     0.004 C 
ENDBRANCH  19  20
ENDBRANCH  18  19
ENDBRANCH  16  18
ENDBRANCH   9  14
ENDBRANCH   6   8
ENDBRANCH   5   6
ENDBRANCH   4   5
ENDBRANCH   3   4
ENDBRANCH   2   3
ENDBRANCH   1   2
BRANCH   1  26
ATOM     26  C   UNL     1       2.991  -0.548   3.839  1.00  0.00     0.188 C 
BRANCH  26  27
ATOM     27  O   UNL     1       2.032   0.476   3.727  1.00  0.00    -0.376 OA
BRANCH  27  28
ATOM     28  C   UNL     1       1.589   1.160   4.884  1.00  0.00     0.202 C 
BRANCH  28  29
ATOM     29  C   UNL     1       1.646   0.596   6.319  1.00  0.00     0.261 C 
BRANCH  29  30
ATOM     30  O   UNL     1       2.651  -0.379   6.622  1.00  0.00    -0.460 OA
BRANCH  30  31
ATOM     31  C   UNL     1       2.216  -1.664   6.731  1.00  0.00     0.338 C 
ATOM     32  O   UNL     1       1.073  -2.060   6.624  1.00  0.00    -0.246 OA
BRANCH  31  33
ATOM     33  C   UNL     1       3.395  -2.563   6.760  1.00  0.00     0.060 A 
ATOM     34  C   UNL     1       3.570  -3.477   5.709  1.00  0.00     0.016 A 
ATOM     35  C   UNL     1       4.326  -2.496   7.796  1.00  0.00     0.016 A 
ATOM     36  C   UNL     1       4.668  -4.338   5.699  1.00  0.00     0.010 A 
ATOM     37  C   UNL     1       5.407  -3.385   7.803  1.00  0.00     0.010 A 
ATOM     38  C   UNL     1       5.568  -4.329   6.770  1.00  0.00    -0.014 A 
BRANCH  38  39
ATOM     39  C   UNL     1       6.549  -5.434   6.916  1.00  0.00     0.031 A 
ATOM     40  C   UNL     1       6.194  -6.584   7.821  1.00  0.00     0.074 A 
ATOM     41  C   UNL     1       7.721  -5.434   6.256  1.00  0.00     0.049 A 
ATOM     42  N   UNL     1       6.901  -7.636   8.143  1.00  0.00    -0.248 NA
ATOM     43  C   UNL     1       4.863  -6.535   8.448  1.00  0.00     0.031 C 
ATOM     44  C   UNL     1       8.166  -4.408   5.315  1.00  0.00     0.029 A 
ATOM     45  N   UNL     1       8.760  -6.333   6.292  1.00  0.00    -0.354 N 
ATOM     46  C   UNL     1       6.110  -8.364   9.024  1.00  0.00     0.074 A 
ATOM     47  C   UNL     1       4.881  -7.622   9.203  1.00  0.00     0.031 C 
ATOM     48  C   UNL     1       9.396  -4.727   4.875  1.00  0.00     0.029 A 
ATOM     49  C   UNL     1       9.840  -5.958   5.529  1.00  0.00     0.049 A 
ATOM     50  H   UNL     1       8.733  -7.167   6.815  1.00  0.00     0.167 HD
ATOM     51  C   UNL     1       6.380  -9.544   9.632  1.00  0.00     0.031 A 
ATOM     52  C   UNL     1      11.057  -6.526   5.395  1.00  0.00     0.031 A 
ATOM     53  C   UNL     1       7.612 -10.270   9.470  1.00  0.00     0.049 A 
ATOM     54  C   UNL     1      11.367  -7.802   6.138  1.00  0.00     0.074 A 
ATOM     55  C   UNL     1       7.971 -11.486  10.024  1.00  0.00     0.029 A 
ATOM     56  N   UNL     1       8.693  -9.840   8.715  1.00  0.00    -0.354 N 
ATOM     57  N   UNL     1      10.596  -8.500   6.939  1.00  0.00    -0.248 NA
ATOM     58  C   UNL     1      12.710  -8.371   5.951  1.00  0.00     0.031 C 
ATOM     59  C   UNL     1       9.295 -11.756   9.663  1.00  0.00     0.029 A 
ATOM     60  C   UNL     1       9.734 -10.748   8.819  1.00  0.00     0.049 A 
ATOM     61  H   UNL     1       8.717  -9.012   8.183  1.00  0.00     0.167 HD
ATOM     62  C   UNL     1      11.351  -9.602   7.330  1.00  0.00     0.074 A 
ATOM     63  C   UNL     1      12.633  -9.487   6.664  1.00  0.00     0.031 C 
ATOM     64  C   UNL     1      11.012 -10.620   8.161  1.00  0.00     0.031 A 
BRANCH  51  65
ATOM     65  C   UNL     1       5.340 -10.092  10.575  1.00  0.00    -0.014 A 
ATOM     66  C   UNL     1       4.101 -10.570  10.111  1.00  0.00     0.010 A 
ATOM     67  C   UNL     1       5.618 -10.144  11.954  1.00  0.00     0.010 A 
ATOM     68  C   UNL     1       3.143 -11.043  11.011  1.00  0.00     0.020 A 
ATOM     69  C   UNL     1       4.676 -10.647  12.854  1.00  0.00     0.020 A 
ATOM     70  C   UNL     1       3.435 -11.075  12.378  1.00  0.00     0.054 A 
BRANCH  70  71
ATOM     71  S   UNL     1       2.176 -11.700  13.523  1.00  0.00     0.124 S 
ATOM     72  O   UNL     1       1.182 -10.630  13.492  1.00  0.00    -0.237 OA
ATOM     73  O   UNL     1       1.768 -12.954  12.895  1.00  0.00    -0.237 OA
ATOM     74  O   UNL     1       2.894 -11.845  14.786  1.00  0.00    -0.744 OA
ENDBRANCH  70  71
ENDBRANCH  51  65
BRANCH  52  75
ATOM     75  C   UNL     1      12.085  -5.875   4.535  1.00  0.00    -0.014 A 
ATOM     76  C   UNL     1      12.499  -6.466   3.329  1.00  0.00     0.010 A 
ATOM     77  C   UNL     1      12.648  -4.642   4.918  1.00  0.00     0.010 A 
ATOM     78  C   UNL     1      13.454  -5.838   2.522  1.00  0.00     0.020 A 
ATOM     79  C   UNL     1      13.580  -3.997   4.100  1.00  0.00     0.020 A 
ATOM     80  C   UNL     1      13.981  -4.602   2.908  1.00  0.00     0.054 A 
BRANCH  80  81
ATOM     81  S   UNL     1      15.156  -3.770   1.804  1.00  0.00     0.124 S 
ATOM     82  O   UNL     1      16.344  -4.607   1.935  1.00  0.00    -0.237 OA
ATOM     83  O   UNL     1      14.474  -3.836   0.514  1.00  0.00    -0.237 OA
ATOM     84  O   UNL     1      15.269  -2.428   2.372  1.00  0.00    -0.744 OA
ENDBRANCH  80  81
ENDBRANCH  52  75
BRANCH  64  85
ATOM     85  C   UNL     1      12.026 -11.716   8.380  1.00  0.00    -0.014 A 
ATOM     86  C   UNL     1      13.204 -11.493   9.116  1.00  0.00     0.010 A 
ATOM     87  C   UNL     1      11.765 -13.009   7.888  1.00  0.00     0.010 A 
ATOM     88  C   UNL     1      14.116 -12.532   9.325  1.00  0.00     0.020 A 
ATOM     89  C   UNL     1      12.658 -14.058   8.123  1.00  0.00     0.020 A 
ATOM     90  C   UNL     1      13.837 -13.809   8.827  1.00  0.00     0.054 A 
BRANCH  90  91
ATOM     91  S   UNL     1      15.020 -15.148   9.144  1.00  0.00     0.124 S 
ATOM     92  O   UNL     1      16.134 -14.781   8.274  1.00  0.00    -0.237 OA
ATOM     93  O   UNL     1      15.272 -15.020  10.577  1.00  0.00    -0.237 OA
ATOM     94  O   UNL     1      14.294 -16.353   8.750  1.00  0.00    -0.744 OA
ENDBRANCH  90  91
ENDBRANCH  64  85
ENDBRANCH  38  39
ENDBRANCH  31  33
ENDBRANCH  30  31
ENDBRANCH  29  30
ENDBRANCH  28  29
ENDBRANCH  27  28
ENDBRANCH  26  27
ENDBRANCH   1  26
TORSDOF 24
