REMARK SMILES C[C@@H](C(=O)OCCOCCOCCOC(=O)c1ccc(-c2c3nc(c(-c4ccc(S(=O)(=O)[O-])cc4)c4ccc([nH]4)c(-c4ccc(S(=O)(=O)[O-])cc4)c4nc(c(-c5ccc(S(=O)(=O)[O-])cc5)c5ccc2[nH]5)C=C4)C=C3)cc1)c1ccc(-c2ccn(C(F)F)c(=O)c2)cc1
REMARK SMILES IDX 9 1 8 2 7 3 6 4 5 5 3 6 4 7 2 8 1 9 77 10 78 11 92 12 79 13
REMARK SMILES IDX 91 14 80 15 81 16 82 17 90 18 83 19 88 20 84 21 89 22 85 23
REMARK SMILES IDX 86 24 87 25 10 26 11 27 12 28 13 29 14 30 15 31 16 32 17 33
REMARK SMILES IDX 18 34 76 35 19 36 75 37 20 38 21 39 22 40 69 41 23 42 74 43
REMARK SMILES IDX 68 44 70 45 24 46 73 47 67 48 66 49 25 51 55 52 36 53 54 54
REMARK SMILES IDX 37 55 40 56 53 57 71 58 38 59 39 60 52 62 72 63 41 64 26 65
REMARK SMILES IDX 27 66 35 67 28 68 34 69 29 70 30 71 31 72 32 73 33 74 56 75
REMARK SMILES IDX 57 76 65 77 58 78 64 79 59 80 60 81 61 82 62 83 63 84 42 85
REMARK SMILES IDX 43 86 51 87 44 88 50 89 45 90 46 91 47 92 48 93 49 94
REMARK H PARENT 70 50 40 61
REMARK Flexibility Score: inf
ROOT
ATOM      1  C   UNL     1       0.627  -3.888   0.139  1.00  0.00     0.188 C 
ENDROOT
BRANCH   1   2
ATOM      2  O   UNL     1       1.686  -4.793  -0.110  1.00  0.00    -0.376 OA
BRANCH   2   3
ATOM      3  C   UNL     1       2.229  -4.766  -1.420  1.00  0.00     0.202 C 
BRANCH   3   4
ATOM      4  C   UNL     1       2.714  -3.437  -2.037  1.00  0.00     0.261 C 
BRANCH   4   5
ATOM      5  O   UNL     1       2.018  -2.235  -1.651  1.00  0.00    -0.463 OA
BRANCH   5   6
ATOM      6  C   UNL     1       1.122  -1.683  -2.508  1.00  0.00     0.313 C 
ATOM      7  O   UNL     1       0.813  -2.198  -3.577  1.00  0.00    -0.252 OA
BRANCH   6   8
ATOM      8  C   UNL     1       0.515  -0.356  -1.994  1.00  0.00     0.126 C 
ATOM      9  C   UNL     1       1.320   0.349  -0.881  1.00  0.00     0.025 C 
BRANCH   8  10
ATOM     10  C   UNL     1      -0.989  -0.391  -1.679  1.00  0.00    -0.034 A 
ATOM     11  C   UNL     1      -1.649   0.795  -1.300  1.00  0.00     0.005 A 
ATOM     12  C   UNL     1      -1.775  -1.545  -1.813  1.00  0.00     0.005 A 
ATOM     13  C   UNL     1      -3.035   0.828  -1.081  1.00  0.00     0.009 A 
ATOM     14  C   UNL     1      -3.161  -1.514  -1.595  1.00  0.00     0.009 A 
ATOM     15  C   UNL     1      -3.806  -0.325  -1.244  1.00  0.00    -0.018 A 
BRANCH  15  16
ATOM     16  C   UNL     1      -5.276  -0.276  -1.114  1.00  0.00    -0.011 A 
ATOM     17  C   UNL     1      -5.982  -0.561   0.117  1.00  0.00     0.027 A 
ATOM     18  C   UNL     1      -5.990   0.036  -2.209  1.00  0.00     0.080 A 
ATOM     19  C   UNL     1      -7.320  -0.570   0.154  1.00  0.00     0.095 A 
ATOM     20  C   UNL     1      -7.481   0.110  -2.164  1.00  0.00     0.255 A 
ATOM     21  N   UNL     1      -8.068  -0.262  -0.966  1.00  0.00    -0.258 N 
ATOM     22  O   UNL     1      -8.074   0.505  -3.162  1.00  0.00    -0.269 OA
BRANCH  21  23
ATOM     23  C   UNL     1      -9.506  -0.199  -0.869  1.00  0.00     0.451 C 
ATOM     24  F   UNL     1      -9.914   1.094  -0.826  1.00  0.00    -0.185 F 
ATOM     25  F   UNL     1     -10.111  -0.778  -1.933  1.00  0.00    -0.185 F 
ENDBRANCH  21  23
ENDBRANCH  15  16
ENDBRANCH   8  10
ENDBRANCH   6   8
ENDBRANCH   5   6
ENDBRANCH   4   5
ENDBRANCH   3   4
ENDBRANCH   2   3
ENDBRANCH   1   2
BRANCH   1  26
ATOM     26  C   UNL     1       1.089  -2.682   0.969  1.00  0.00     0.188 C 
BRANCH  26  27
ATOM     27  O   UNL     1       2.426  -2.602   1.431  1.00  0.00    -0.376 OA
BRANCH  27  28
ATOM     28  C   UNL     1       2.991  -3.726   2.090  1.00  0.00     0.202 C 
BRANCH  28  29
ATOM     29  C   UNL     1       2.202  -4.558   3.126  1.00  0.00     0.261 C 
BRANCH  29  30
ATOM     30  O   UNL     1       0.774  -4.627   2.988  1.00  0.00    -0.460 OA
BRANCH  30  31
ATOM     31  C   UNL     1       0.059  -3.779   3.768  1.00  0.00     0.338 C 
ATOM     32  O   UNL     1       0.501  -2.971   4.574  1.00  0.00    -0.246 OA
BRANCH  31  33
ATOM     33  C   UNL     1      -1.360  -3.826   3.349  1.00  0.00     0.060 A 
ATOM     34  C   UNL     1      -1.945  -2.680   2.792  1.00  0.00     0.016 A 
ATOM     35  C   UNL     1      -2.118  -4.985   3.518  1.00  0.00     0.016 A 
ATOM     36  C   UNL     1      -3.286  -2.689   2.407  1.00  0.00     0.010 A 
ATOM     37  C   UNL     1      -3.474  -4.979   3.166  1.00  0.00     0.010 A 
ATOM     38  C   UNL     1      -4.073  -3.824   2.630  1.00  0.00    -0.014 A 
BRANCH  38  39
ATOM     39  C   UNL     1      -5.553  -3.745   2.500  1.00  0.00     0.031 A 
ATOM     40  C   UNL     1      -6.355  -3.432   3.735  1.00  0.00     0.074 A 
ATOM     41  C   UNL     1      -6.172  -3.926   1.317  1.00  0.00     0.049 A 
ATOM     42  N   UNL     1      -7.649  -3.313   3.876  1.00  0.00    -0.248 NA
ATOM     43  C   UNL     1      -5.592  -3.224   4.978  1.00  0.00     0.031 C 
ATOM     44  C   UNL     1      -5.491  -4.156   0.046  1.00  0.00     0.029 A 
ATOM     45  N   UNL     1      -7.507  -3.913   0.983  1.00  0.00    -0.354 N 
ATOM     46  C   UNL     1      -7.859  -3.071   5.230  1.00  0.00     0.074 A 
ATOM     47  C   UNL     1      -6.559  -3.042   5.863  1.00  0.00     0.031 C 
ATOM     48  C   UNL     1      -6.407  -4.223  -0.936  1.00  0.00     0.029 A 
ATOM     49  C   UNL     1      -7.748  -4.106  -0.362  1.00  0.00     0.049 A 
ATOM     50  H   UNL     1      -8.225  -3.780   1.643  1.00  0.00     0.167 HD
ATOM     51  C   UNL     1      -9.030  -2.908   5.890  1.00  0.00     0.031 A 
ATOM     52  C   UNL     1      -8.912  -4.180  -1.048  1.00  0.00     0.031 A 
ATOM     53  C   UNL     1     -10.319  -2.956   5.253  1.00  0.00     0.049 A 
ATOM     54  C   UNL     1     -10.207  -4.002  -0.280  1.00  0.00     0.074 A 
ATOM     55  C   UNL     1     -11.568  -2.804   5.829  1.00  0.00     0.029 A 
ATOM     56  N   UNL     1     -10.526  -3.188   3.901  1.00  0.00    -0.354 N 
ATOM     57  N   UNL     1     -10.380  -3.692   0.987  1.00  0.00    -0.248 NA
ATOM     58  C   UNL     1     -11.461  -4.169  -1.028  1.00  0.00     0.031 C 
ATOM     59  C   UNL     1     -12.531  -3.005   4.836  1.00  0.00     0.029 A 
ATOM     60  C   UNL     1     -11.882  -3.205   3.626  1.00  0.00     0.049 A 
ATOM     61  H   UNL     1      -9.813  -3.320   3.235  1.00  0.00     0.167 HD
ATOM     62  C   UNL     1     -11.760  -3.627   1.181  1.00  0.00     0.074 A 
ATOM     63  C   UNL     1     -12.370  -3.863  -0.111  1.00  0.00     0.031 C 
ATOM     64  C   UNL     1     -12.464  -3.412   2.322  1.00  0.00     0.031 A 
BRANCH  51  65
ATOM     65  C   UNL     1      -8.973  -2.736   7.387  1.00  0.00    -0.014 A 
ATOM     66  C   UNL     1      -8.469  -1.565   7.980  1.00  0.00     0.010 A 
ATOM     67  C   UNL     1      -9.464  -3.763   8.217  1.00  0.00     0.010 A 
ATOM     68  C   UNL     1      -8.419  -1.441   9.372  1.00  0.00     0.020 A 
ATOM     69  C   UNL     1      -9.445  -3.630   9.608  1.00  0.00     0.020 A 
ATOM     70  C   UNL     1      -8.906  -2.476  10.177  1.00  0.00     0.054 A 
BRANCH  70  71
ATOM     71  S   UNL     1      -8.844  -2.280  11.980  1.00  0.00     0.124 S 
ATOM     72  O   UNL     1      -7.411  -2.383  12.244  1.00  0.00    -0.237 OA
ATOM     73  O   UNL     1      -9.426  -0.955  12.176  1.00  0.00    -0.237 OA
ATOM     74  O   UNL     1      -9.650  -3.392  12.478  1.00  0.00    -0.744 OA
ENDBRANCH  70  71
ENDBRANCH  51  65
BRANCH  52  75
ATOM     75  C   UNL     1      -8.916  -4.421  -2.531  1.00  0.00    -0.014 A 
ATOM     76  C   UNL     1      -9.522  -3.513  -3.419  1.00  0.00     0.010 A 
ATOM     77  C   UNL     1      -8.307  -5.565  -3.083  1.00  0.00     0.010 A 
ATOM     78  C   UNL     1      -9.513  -3.725  -4.803  1.00  0.00     0.020 A 
ATOM     79  C   UNL     1      -8.256  -5.765  -4.470  1.00  0.00     0.020 A 
ATOM     80  C   UNL     1      -8.863  -4.843  -5.323  1.00  0.00     0.054 A 
BRANCH  80  81
ATOM     81  S   UNL     1      -8.805  -5.062  -7.123  1.00  0.00     0.124 S 
ATOM     82  O   UNL     1     -10.217  -5.204  -7.465  1.00  0.00    -0.237 OA
ATOM     83  O   UNL     1      -8.164  -3.828  -7.568  1.00  0.00    -0.237 OA
ATOM     84  O   UNL     1      -8.000  -6.270  -7.295  1.00  0.00    -0.744 OA
ENDBRANCH  80  81
ENDBRANCH  52  75
BRANCH  64  85
ATOM     85  C   UNL     1     -13.973  -3.379   2.227  1.00  0.00    -0.014 A 
ATOM     86  C   UNL     1     -14.716  -4.542   1.957  1.00  0.00     0.010 A 
ATOM     87  C   UNL     1     -14.660  -2.178   2.488  1.00  0.00     0.010 A 
ATOM     88  C   UNL     1     -16.114  -4.497   1.913  1.00  0.00     0.020 A 
ATOM     89  C   UNL     1     -16.058  -2.136   2.479  1.00  0.00     0.020 A 
ATOM     90  C   UNL     1     -16.776  -3.294   2.175  1.00  0.00     0.054 A 
BRANCH  90  91
ATOM     91  S   UNL     1     -18.590  -3.273   2.154  1.00  0.00     0.124 S 
ATOM     92  O   UNL     1     -18.879  -3.403   0.728  1.00  0.00    -0.237 OA
ATOM     93  O   UNL     1     -18.932  -4.434   2.972  1.00  0.00    -0.237 OA
ATOM     94  O   UNL     1     -18.930  -1.980   2.743  1.00  0.00    -0.744 OA
ENDBRANCH  90  91
ENDBRANCH  64  85
ENDBRANCH  38  39
ENDBRANCH  31  33
ENDBRANCH  30  31
ENDBRANCH  29  30
ENDBRANCH  28  29
ENDBRANCH  27  28
ENDBRANCH  26  27
ENDBRANCH   1  26
TORSDOF 23
