REMARK SMILES CCCOC(=O)c1c(NC(=O)[C@@H]2CC=CC[C@H]2C(=O)OCCOCCOCCOC(=O)c2ccc(-c3c4nc(c(-c5ccc(S(=O)(=O)[O-])cc5)c5ccc([nH]5)c(-c5ccc(S(=O)(=O)[O-])cc5)c5nc(c(-c6ccc(S(=O)(=O)[O-])cc6)c6ccc3[nH]6)C=C5)C=C4)cc2)sc2c1CCCC2
REMARK SMILES IDX 23 1 22 2 21 3 20 4 18 5 19 6 17 7 12 8 13 9 14 10 16 11
REMARK SMILES IDX 15 12 10 13 9 14 11 16 8 17 7 18 94 19 92 20 93 21 95 22
REMARK SMILES IDX 98 23 96 24 97 25 5 26 6 27 4 28 3 29 2 30 1 31 24 32 25 33
REMARK SMILES IDX 26 34 27 35 28 36 29 37 30 38 31 39 32 40 33 41 91 42 34 43
REMARK SMILES IDX 90 44 35 45 36 46 37 47 84 48 38 49 89 50 83 51 85 52 39 53
REMARK SMILES IDX 88 54 82 55 81 56 40 58 70 59 51 60 69 61 52 62 55 63 68 64
REMARK SMILES IDX 86 65 53 66 54 67 67 69 87 70 56 71 41 72 42 73 50 74 43 75
REMARK SMILES IDX 49 76 44 77 45 78 46 79 47 80 48 81 71 82 72 83 80 84 73 85
REMARK SMILES IDX 79 86 74 87 75 88 76 89 77 90 78 91 57 92 58 93 66 94 59 95
REMARK SMILES IDX 65 96 60 97 61 98 62 99 63 100 64 101
REMARK H PARENT 9 15 85 57 55 68
REMARK Flexibility Score: inf
ROOT
ATOM      1  O   UNL     1      -4.141   0.661  -0.854  1.00  0.00    -0.376 OA
ENDROOT
BRANCH   1   2
ATOM      2  C   UNL     1      -4.638  -0.669   0.059  1.00  0.00     0.202 C 
BRANCH   2   3
ATOM      3  C   UNL     1      -3.616  -1.943   1.007  1.00  0.00     0.261 C 
BRANCH   3   4
ATOM      4  O   UNL     1      -1.897  -2.254   1.030  1.00  0.00    -0.463 OA
BRANCH   4   5
ATOM      5  C   UNL     1      -0.918  -2.474   0.030  1.00  0.00     0.310 C 
ATOM      6  O   UNL     1      -1.208  -2.788  -1.135  1.00  0.00    -0.252 OA
BRANCH   5   7
ATOM      7  C   UNL     1       0.638  -2.248   0.053  1.00  0.00     0.116 C 
ATOM      8  C   UNL     1       1.560  -1.492   1.065  1.00  0.00     0.097 C 
ATOM      9  C   UNL     1       2.978  -2.142   1.146  1.00  0.00     0.041 C 
ATOM     10  C   UNL     1       3.077  -3.620   0.926  1.00  0.00    -0.030 C 
ATOM     11  C   UNL     1       1.208  -3.524  -0.645  1.00  0.00     0.043 C 
ATOM     12  C   UNL     1       2.273  -4.251   0.072  1.00  0.00    -0.030 C 
BRANCH   8  13
ATOM     13  C   UNL     1       1.857   0.051   0.627  1.00  0.00     0.229 C 
ATOM     14  N   UNL     1       1.463   1.130   1.413  1.00  0.00    -0.317 N 
ATOM     15  H   UNL     1       2.094   1.411   2.115  1.00  0.00     0.170 HD
ATOM     16  O   UNL     1       2.632   0.295  -0.306  1.00  0.00    -0.274 OA
BRANCH  14  17
ATOM     17  C   UNL     1       0.236   1.886   1.316  1.00  0.00     0.110 A 
ATOM     18  C   UNL     1      -1.567   1.870   0.790  1.00  0.00     0.098 A 
ATOM     19  C   UNL     1      -2.550   3.277   1.607  1.00  0.00    -0.017 A 
ATOM     20  S   UNL     1       0.494   3.475   3.002  1.00  0.00    -0.122 S 
ATOM     21  C   UNL     1      -1.681   4.113   2.768  1.00  0.00     0.011 A 
ATOM     22  C   UNL     1      -4.041   3.433   1.554  1.00  0.00     0.038 C 
ATOM     23  C   UNL     1      -2.249   5.340   3.408  1.00  0.00     0.047 C 
ATOM     24  C   UNL     1      -4.475   4.807   2.085  1.00  0.00     0.005 C 
ATOM     25  C   UNL     1      -3.807   5.225   3.424  1.00  0.00     0.006 C 
BRANCH  18  26
ATOM     26  C   UNL     1      -2.644   0.514   0.724  1.00  0.00     0.341 C 
ATOM     27  O   UNL     1      -3.445   0.477   1.668  1.00  0.00    -0.246 OA
BRANCH  26  28
ATOM     28  O   UNL     1      -2.487  -0.718  -0.374  1.00  0.00    -0.462 OA
BRANCH  28  29
ATOM     29  C   UNL     1      -3.214  -1.700  -1.627  1.00  0.00     0.233 C 
BRANCH  29  30
ATOM     30  C   UNL     1      -3.478  -3.331  -1.634  1.00  0.00     0.038 C 
ATOM     31  C   UNL     1      -3.101  -4.484  -0.647  1.00  0.00     0.007 C 
ENDBRANCH  29  30
ENDBRANCH  28  29
ENDBRANCH  26  28
ENDBRANCH  18  26
ENDBRANCH  14  17
ENDBRANCH   8  13
ENDBRANCH   5   7
ENDBRANCH   4   5
ENDBRANCH   3   4
ENDBRANCH   2   3
ENDBRANCH   1   2
BRANCH   1  32
ATOM     32  C   UNL     1      -2.685   1.037  -1.565  1.00  0.00     0.188 C 
BRANCH  32  33
ATOM     33  C   UNL     1      -0.965   0.571  -0.995  1.00  0.00     0.188 C 
BRANCH  33  34
ATOM     34  O   UNL     1      -0.566  -0.136   0.546  1.00  0.00    -0.376 OA
BRANCH  34  35
ATOM     35  C   UNL     1      -0.868   0.216   2.208  1.00  0.00     0.202 C 
BRANCH  35  36
ATOM     36  C   UNL     1      -1.189   1.984   2.720  1.00  0.00     0.261 C 
BRANCH  36  37
ATOM     37  O   UNL     1      -0.676   3.403   1.296  1.00  0.00    -0.460 OA
BRANCH  37  38
ATOM     38  C   UNL     1      -0.011   4.476   0.628  1.00  0.00     0.338 C 
ATOM     39  O   UNL     1       0.624   5.399   1.138  1.00  0.00    -0.246 OA
BRANCH  38  40
ATOM     40  C   UNL     1       0.221   4.309  -0.838  1.00  0.00     0.060 A 
ATOM     41  C   UNL     1       1.142   3.370  -1.345  1.00  0.00     0.016 A 
ATOM     42  C   UNL     1      -0.139   5.381  -1.651  1.00  0.00     0.016 A 
ATOM     43  C   UNL     1       1.637   3.448  -2.650  1.00  0.00     0.010 A 
ATOM     44  C   UNL     1       0.408   5.507  -2.933  1.00  0.00     0.010 A 
ATOM     45  C   UNL     1       1.312   4.553  -3.429  1.00  0.00    -0.014 A 
BRANCH  45  46
ATOM     46  C   UNL     1       2.011   4.804  -4.707  1.00  0.00     0.031 A 
ATOM     47  C   UNL     1       3.244   5.661  -4.711  1.00  0.00     0.074 A 
ATOM     48  C   UNL     1       1.496   4.315  -5.846  1.00  0.00     0.049 A 
ATOM     49  N   UNL     1       3.858   6.221  -5.718  1.00  0.00    -0.248 NA
ATOM     50  C   UNL     1       3.869   5.922  -3.403  1.00  0.00     0.031 C 
ATOM     51  C   UNL     1       0.368   3.387  -5.925  1.00  0.00     0.029 A 
ATOM     52  N   UNL     1       1.825   4.562  -7.153  1.00  0.00    -0.354 N 
ATOM     53  C   UNL     1       4.920   6.931  -5.166  1.00  0.00     0.074 A 
ATOM     54  C   UNL     1       4.876   6.717  -3.737  1.00  0.00     0.031 C 
ATOM     55  C   UNL     1       0.056   3.192  -7.216  1.00  0.00     0.029 A 
ATOM     56  C   UNL     1       0.923   4.026  -8.042  1.00  0.00     0.049 A 
ATOM     57  H   UNL     1       2.622   5.071  -7.427  1.00  0.00     0.167 HD
ATOM     58  C   UNL     1       5.825   7.712  -5.804  1.00  0.00     0.031 A 
ATOM     59  C   UNL     1       0.774   4.245  -9.363  1.00  0.00     0.031 A 
ATOM     60  C   UNL     1       5.812   7.924  -7.229  1.00  0.00     0.049 A 
ATOM     61  C   UNL     1       1.727   5.189 -10.043  1.00  0.00     0.074 A 
ATOM     62  C   UNL     1       6.665   8.694  -7.998  1.00  0.00     0.029 A 
ATOM     63  N   UNL     1       4.882   7.365  -8.097  1.00  0.00    -0.354 N 
ATOM     64  N   UNL     1       2.714   5.878  -9.517  1.00  0.00    -0.248 NA
ATOM     65  C   UNL     1       1.552   5.389 -11.486  1.00  0.00     0.031 C 
ATOM     66  C   UNL     1       6.213   8.649  -9.321  1.00  0.00     0.029 A 
ATOM     67  C   UNL     1       5.121   7.795  -9.389  1.00  0.00     0.049 A 
ATOM     68  H   UNL     1       4.159   6.753  -7.832  1.00  0.00     0.167 HD
ATOM     69  C   UNL     1       3.299   6.570 -10.569  1.00  0.00     0.074 A 
ATOM     70  C   UNL     1       2.553   6.215 -11.763  1.00  0.00     0.031 C 
ATOM     71  C   UNL     1       4.360   7.414 -10.555  1.00  0.00     0.031 A 
BRANCH  58  72
ATOM     72  C   UNL     1       6.841   8.450  -4.966  1.00  0.00    -0.014 A 
ATOM     73  C   UNL     1       7.886   7.780  -4.305  1.00  0.00     0.010 A 
ATOM     74  C   UNL     1       6.759   9.851  -4.858  1.00  0.00     0.010 A 
ATOM     75  C   UNL     1       8.802   8.492  -3.520  1.00  0.00     0.020 A 
ATOM     76  C   UNL     1       7.687  10.570  -4.096  1.00  0.00     0.020 A 
ATOM     77  C   UNL     1       8.693   9.882  -3.416  1.00  0.00     0.054 A 
BRANCH  77  78
ATOM     78  S   UNL     1       9.897  10.782  -2.398  1.00  0.00     0.124 S 
ATOM     79  O   UNL     1       9.490  10.407  -1.046  1.00  0.00    -0.237 OA
ATOM     80  O   UNL     1      11.173  10.229  -2.844  1.00  0.00    -0.237 OA
ATOM     81  O   UNL     1       9.672  12.183  -2.748  1.00  0.00    -0.744 OA
ENDBRANCH  77  78
ENDBRANCH  58  72
BRANCH  59  82
ATOM     82  C   UNL     1      -0.351   3.596 -10.089  1.00  0.00    -0.014 A 
ATOM     83  C   UNL     1      -0.114   2.554 -11.000  1.00  0.00     0.010 A 
ATOM     84  C   UNL     1      -1.681   3.975  -9.817  1.00  0.00     0.010 A 
ATOM     85  C   UNL     1      -1.184   1.898 -11.619  1.00  0.00     0.020 A 
ATOM     86  C   UNL     1      -2.753   3.304 -10.413  1.00  0.00     0.020 A 
ATOM     87  C   UNL     1      -2.497   2.271 -11.315  1.00  0.00     0.054 A 
BRANCH  87  88
ATOM     88  S   UNL     1      -3.866   1.345 -12.064  1.00  0.00     0.124 S 
ATOM     89  O   UNL     1      -3.817   1.799 -13.450  1.00  0.00    -0.237 OA
ATOM     90  O   UNL     1      -3.470  -0.042 -11.837  1.00  0.00    -0.237 OA
ATOM     91  O   UNL     1      -5.034   1.783 -11.302  1.00  0.00    -0.744 OA
ENDBRANCH  87  88
ENDBRANCH  59  82
BRANCH  71  92
ATOM     92  C   UNL     1       4.813   7.976 -11.874  1.00  0.00    -0.014 A 
ATOM     93  C   UNL     1       4.102   9.006 -12.511  1.00  0.00     0.010 A 
ATOM     94  C   UNL     1       6.027   7.527 -12.428  1.00  0.00     0.010 A 
ATOM     95  C   UNL     1       4.596   9.575 -13.688  1.00  0.00     0.020 A 
ATOM     96  C   UNL     1       6.536   8.112 -13.588  1.00  0.00     0.020 A 
ATOM     97  C   UNL     1       5.814   9.129 -14.214  1.00  0.00     0.054 A 
BRANCH  97  98
ATOM     98  S   UNL     1       6.475   9.944 -15.693  1.00  0.00     0.124 S 
ATOM     99  O   UNL     1       5.595   9.434 -16.740  1.00  0.00    -0.237 OA
ATOM    100  O   UNL     1       6.317  11.361 -15.374  1.00  0.00    -0.237 OA
ATOM    101  O   UNL     1       7.858   9.477 -15.758  1.00  0.00    -0.744 OA
ENDBRANCH  97  98
ENDBRANCH  71  92
ENDBRANCH  45  46
ENDBRANCH  38  40
ENDBRANCH  37  38
ENDBRANCH  36  37
ENDBRANCH  35  36
ENDBRANCH  34  35
ENDBRANCH  33  34
ENDBRANCH  32  33
ENDBRANCH   1  32
TORSDOF 26
