REMARK SMILES O=C(OCCOCCOCCOC(=O)c1csc(C[NH2+][C@H]2CCSc3ccc(F)cc32)c1)c1ccc(-c2c3nc(c(-c4ccc(S(=O)(=O)[O-])cc4)c4ccc([nH]4)c(-c4ccc(S(=O)(=O)[O-])cc4)c4nc(c(-c5ccc(S(=O)(=O)[O-])cc5)c5ccc2[nH]5)C=C4)C=C3)cc1
REMARK SMILES IDX 7 1 6 2 5 3 4 4 3 5 2 6 1 7 33 8 34 9 92 10 35 11 91 12
REMARK SMILES IDX 36 13 37 14 38 15 85 16 39 17 90 18 84 19 86 20 40 21 89 22
REMARK SMILES IDX 83 23 82 24 41 26 71 27 52 28 70 29 53 30 56 31 69 32 87 33
REMARK SMILES IDX 54 34 55 35 68 37 88 38 57 39 42 40 43 41 51 42 44 43 50 44
REMARK SMILES IDX 45 45 46 46 47 47 48 48 49 49 72 50 73 51 81 52 74 53 80 54
REMARK SMILES IDX 75 55 76 56 77 57 78 58 79 59 58 60 59 61 67 62 60 63 66 64
REMARK SMILES IDX 61 65 62 66 63 67 64 68 65 69 8 70 9 71 10 72 11 73 12 74
REMARK SMILES IDX 13 75 14 76 15 77 16 78 32 79 17 80 18 81 19 82 20 83 21 86
REMARK SMILES IDX 22 87 31 88 23 89 25 90 30 91 24 92 26 93 28 94 27 95 29 96
REMARK H PARENT 86 25 56 36 20 84 20 85
REMARK Flexibility Score: inf
ROOT
ATOM      1  C   UNL     1      -3.477   5.588  -0.883  1.00  0.00     0.188 C 
ENDROOT
BRANCH   1   2
ATOM      2  O   UNL     1      -4.396   6.151   0.066  1.00  0.00    -0.376 OA
BRANCH   2   3
ATOM      3  C   UNL     1      -4.872   7.448  -0.307  1.00  0.00     0.202 C 
BRANCH   3   4
ATOM      4  C   UNL     1      -3.972   8.612   0.119  1.00  0.00     0.261 C 
BRANCH   4   5
ATOM      5  O   UNL     1      -2.583   8.268   0.150  1.00  0.00    -0.460 OA
BRANCH   5   6
ATOM      6  C   UNL     1      -1.876   7.678   1.142  1.00  0.00     0.338 C 
ATOM      7  O   UNL     1      -0.673   7.503   0.940  1.00  0.00    -0.246 OA
BRANCH   6   8
ATOM      8  C   UNL     1      -2.437   7.191   2.454  1.00  0.00     0.060 A 
ATOM      9  C   UNL     1      -1.503   6.629   3.344  1.00  0.00     0.016 A 
ATOM     10  C   UNL     1      -3.769   7.230   2.878  1.00  0.00     0.016 A 
ATOM     11  C   UNL     1      -1.885   6.155   4.603  1.00  0.00     0.010 A 
ATOM     12  C   UNL     1      -4.155   6.777   4.145  1.00  0.00     0.010 A 
ATOM     13  C   UNL     1      -3.216   6.238   5.020  1.00  0.00    -0.014 A 
BRANCH  13  14
ATOM     14  C   UNL     1      -3.602   5.915   6.410  1.00  0.00     0.031 A 
ATOM     15  C   UNL     1      -4.407   4.697   6.748  1.00  0.00     0.074 A 
ATOM     16  C   UNL     1      -3.253   6.790   7.371  1.00  0.00     0.049 A 
ATOM     17  N   UNL     1      -4.662   4.196   7.927  1.00  0.00    -0.248 NA
ATOM     18  C   UNL     1      -4.992   3.939   5.634  1.00  0.00     0.031 C 
ATOM     19  C   UNL     1      -2.540   8.049   7.137  1.00  0.00     0.029 A 
ATOM     20  N   UNL     1      -3.453   6.766   8.725  1.00  0.00    -0.354 N 
ATOM     21  C   UNL     1      -5.379   3.028   7.696  1.00  0.00     0.074 A 
ATOM     22  C   UNL     1      -5.578   2.930   6.268  1.00  0.00     0.031 C 
ATOM     23  C   UNL     1      -2.348   8.668   8.310  1.00  0.00     0.029 A 
ATOM     24  C   UNL     1      -2.931   7.859   9.375  1.00  0.00     0.049 A 
ATOM     25  H   UNL     1      -3.925   6.037   9.189  1.00  0.00     0.167 HD
ATOM     26  C   UNL     1      -5.809   2.117   8.598  1.00  0.00     0.031 A 
ATOM     27  C   UNL     1      -2.903   8.167  10.685  1.00  0.00     0.031 A 
ATOM     28  C   UNL     1      -5.683   2.286  10.023  1.00  0.00     0.049 A 
ATOM     29  C   UNL     1      -3.451   7.177  11.669  1.00  0.00     0.074 A 
ATOM     30  C   UNL     1      -6.058   1.412  11.028  1.00  0.00     0.029 A 
ATOM     31  N   UNL     1      -5.170   3.415  10.643  1.00  0.00    -0.354 N 
ATOM     32  N   UNL     1      -3.994   6.006  11.434  1.00  0.00    -0.248 NA
ATOM     33  C   UNL     1      -3.355   7.527  13.091  1.00  0.00     0.031 C 
ATOM     34  C   UNL     1      -5.842   2.044  12.255  1.00  0.00     0.029 A 
ATOM     35  C   UNL     1      -5.261   3.281  12.017  1.00  0.00     0.049 A 
ATOM     36  H   UNL     1      -4.795   4.196  10.175  1.00  0.00     0.167 HD
ATOM     37  C   UNL     1      -4.272   5.461  12.681  1.00  0.00     0.074 A 
ATOM     38  C   UNL     1      -3.834   6.431  13.665  1.00  0.00     0.031 C 
ATOM     39  C   UNL     1      -4.829   4.262  12.981  1.00  0.00     0.031 A 
BRANCH  26  40
ATOM     40  C   UNL     1      -6.427   0.837   8.097  1.00  0.00    -0.014 A 
ATOM     41  C   UNL     1      -7.784   0.556   8.340  1.00  0.00     0.010 A 
ATOM     42  C   UNL     1      -5.613  -0.163   7.532  1.00  0.00     0.010 A 
ATOM     43  C   UNL     1      -8.305  -0.714   8.070  1.00  0.00     0.020 A 
ATOM     44  C   UNL     1      -6.135  -1.428   7.242  1.00  0.00     0.020 A 
ATOM     45  C   UNL     1      -7.471  -1.704   7.539  1.00  0.00     0.054 A 
BRANCH  45  46
ATOM     46  S   UNL     1      -8.150  -3.366   7.270  1.00  0.00     0.124 S 
ATOM     47  O   UNL     1      -8.289  -3.868   8.634  1.00  0.00    -0.237 OA
ATOM     48  O   UNL     1      -9.403  -3.087   6.571  1.00  0.00    -0.237 OA
ATOM     49  O   UNL     1      -7.130  -4.029   6.461  1.00  0.00    -0.744 OA
ENDBRANCH  45  46
ENDBRANCH  26  40
BRANCH  27  50
ATOM     50  C   UNL     1      -2.237   9.427  11.109  1.00  0.00    -0.014 A 
ATOM     51  C   UNL     1      -2.805  10.677  10.797  1.00  0.00     0.010 A 
ATOM     52  C   UNL     1      -0.969   9.383  11.714  1.00  0.00     0.010 A 
ATOM     53  C   UNL     1      -2.094  11.856  11.030  1.00  0.00     0.020 A 
ATOM     54  C   UNL     1      -0.266  10.563  11.973  1.00  0.00     0.020 A 
ATOM     55  C   UNL     1      -0.820  11.790  11.600  1.00  0.00     0.054 A 
BRANCH  55  56
ATOM     56  S   UNL     1       0.117  13.326  11.828  1.00  0.00     0.124 S 
ATOM     57  O   UNL     1       0.577  13.598  10.469  1.00  0.00    -0.237 OA
ATOM     58  O   UNL     1      -0.895  14.244  12.345  1.00  0.00    -0.237 OA
ATOM     59  O   UNL     1       1.159  12.952  12.780  1.00  0.00    -0.744 OA
ENDBRANCH  55  56
ENDBRANCH  27  50
BRANCH  39  60
ATOM     60  C   UNL     1      -5.001   3.914  14.434  1.00  0.00    -0.014 A 
ATOM     61  C   UNL     1      -4.240   2.870  14.992  1.00  0.00     0.010 A 
ATOM     62  C   UNL     1      -5.990   4.537  15.213  1.00  0.00     0.010 A 
ATOM     63  C   UNL     1      -4.482   2.437  16.297  1.00  0.00     0.020 A 
ATOM     64  C   UNL     1      -6.215   4.127  16.530  1.00  0.00     0.020 A 
ATOM     65  C   UNL     1      -5.474   3.064  17.055  1.00  0.00     0.054 A 
BRANCH  65  66
ATOM     66  S   UNL     1      -5.784   2.488  18.746  1.00  0.00     0.124 S 
ATOM     67  O   UNL     1      -6.617   1.310  18.521  1.00  0.00    -0.237 OA
ATOM     68  O   UNL     1      -4.439   2.221  19.250  1.00  0.00    -0.237 OA
ATOM     69  O   UNL     1      -6.460   3.622  19.372  1.00  0.00    -0.744 OA
ENDBRANCH  65  66
ENDBRANCH  39  60
ENDBRANCH  13  14
ENDBRANCH   6   8
ENDBRANCH   5   6
ENDBRANCH   4   5
ENDBRANCH   3   4
ENDBRANCH   2   3
ENDBRANCH   1   2
BRANCH   1  70
ATOM     70  C   UNL     1      -3.792   4.122  -1.198  1.00  0.00     0.188 C 
BRANCH  70  71
ATOM     71  O   UNL     1      -4.987   3.896  -1.951  1.00  0.00    -0.376 OA
BRANCH  71  72
ATOM     72  C   UNL     1      -6.214   4.299  -1.350  1.00  0.00     0.202 C 
BRANCH  72  73
ATOM     73  C   UNL     1      -6.702   3.471  -0.157  1.00  0.00     0.261 C 
BRANCH  73  74
ATOM     74  O   UNL     1      -5.715   3.305   0.876  1.00  0.00    -0.460 OA
BRANCH  74  75
ATOM     75  C   UNL     1      -5.574   2.017   1.317  1.00  0.00     0.339 C 
ATOM     76  O   UNL     1      -6.244   1.079   0.903  1.00  0.00    -0.246 OA
BRANCH  75  77
ATOM     77  C   UNL     1      -4.545   1.837   2.342  1.00  0.00     0.071 A 
ATOM     78  C   UNL     1      -4.594   0.737   3.178  1.00  0.00     0.081 A 
ATOM     79  C   UNL     1      -3.382   2.640   2.644  1.00  0.00     0.037 A 
ATOM     80  S   UNL     1      -3.257   0.617   4.216  1.00  0.00    -0.142 S 
ATOM     81  C   UNL     1      -2.584   2.090   3.639  1.00  0.00     0.060 A 
BRANCH  81  82
ATOM     82  C   UNL     1      -1.258   2.562   4.192  1.00  0.00     0.308 C 
BRANCH  82  83
ATOM     83  N   UNL     1      -1.240   2.488   5.647  1.00  0.00    -0.336 N 
ATOM     84  H   UNL     1      -1.664   1.601   5.916  1.00  0.00     0.347 HD
ATOM     85  H   UNL     1      -1.744   3.316   5.964  1.00  0.00     0.347 HD
BRANCH  83  86
ATOM     86  C   UNL     1       0.075   2.567   6.296  1.00  0.00     0.215 C 
ATOM     87  C   UNL     1      -0.017   3.643   7.396  1.00  0.00     0.081 C 
ATOM     88  C   UNL     1       0.522   1.199   6.812  1.00  0.00     0.026 A 
ATOM     89  C   UNL     1       1.259   3.746   8.206  1.00  0.00     0.081 C 
ATOM     90  C   UNL     1       1.090   0.996   8.086  1.00  0.00     0.017 A 
ATOM     91  C   UNL     1       0.408   0.074   5.966  1.00  0.00     0.050 A 
ATOM     92  S   UNL     1       1.440   2.293   9.261  1.00  0.00    -0.125 SA
ATOM     93  C   UNL     1       1.438  -0.303   8.508  1.00  0.00     0.018 A 
ATOM     94  C   UNL     1       0.784  -1.196   6.391  1.00  0.00     0.123 A 
ATOM     95  C   UNL     1       1.283  -1.399   7.663  1.00  0.00     0.040 A 
ATOM     96  F   UNL     1       0.670  -2.234   5.551  1.00  0.00    -0.207 F 
ENDBRANCH  83  86
ENDBRANCH  82  83
ENDBRANCH  81  82
ENDBRANCH  75  77
ENDBRANCH  74  75
ENDBRANCH  73  74
ENDBRANCH  72  73
ENDBRANCH  71  72
ENDBRANCH  70  71
ENDBRANCH   1  70
TORSDOF 23
