REMARK SMILES Cc1cc(C)n(C)c(=O)c1C(=O)[NH+]1CCC2(CC1)C[NH2+][C@@H](C(=O)OCCOCCOCCOC(=O)c1ccc(-c3c4nc(c(-c5ccc(S(=O)(=O)[O-])cc5)c5ccc([nH]5)c(-c5ccc(S(=O)(=O)[O-])cc5)c5nc(c(-c6ccc(S(=O)(=O)[O-])cc6)c6ccc3[nH]6)C=C5)C=C4)cc1)C2
REMARK SMILES IDX 29 1 28 2 27 3 26 4 25 5 24 6 22 7 23 8 21 9 13 10 14 11
REMARK SMILES IDX 18 12 15 14 17 15 16 16 19 17 96 18 20 19 11 22 12 23 10 24
REMARK SMILES IDX 1 25 2 26 3 27 4 28 8 29 5 30 6 31 9 32 7 33 30 34 31 35
REMARK SMILES IDX 32 36 33 37 34 38 35 39 36 40 37 41 95 42 38 43 94 44 39 45
REMARK SMILES IDX 40 46 41 47 88 48 42 49 93 50 87 51 89 52 43 53 92 54 86 55
REMARK SMILES IDX 85 56 44 58 74 59 55 60 73 61 56 62 59 63 72 64 90 65 57 66
REMARK SMILES IDX 58 67 71 69 91 70 60 71 45 72 46 73 54 74 47 75 53 76 48 77
REMARK SMILES IDX 49 78 50 79 51 80 52 81 75 82 76 83 84 84 77 85 83 86 78 87
REMARK SMILES IDX 79 88 80 89 81 90 82 91 61 92 62 93 70 94 63 95 69 96 64 97
REMARK SMILES IDX 65 98 66 99 67 100 68 101
REMARK H PARENT 13 13 20 20 20 21 89 57 59 68
REMARK Flexibility Score: inf
ROOT
ATOM      1  C   UNL     1       4.091   1.216   6.652  1.00  0.00     0.188 C 
ENDROOT
BRANCH   1   2
ATOM      2  C   UNL     1       3.321   0.944   7.954  1.00  0.00     0.188 C 
BRANCH   2   3
ATOM      3  O   UNL     1       3.935   0.149   8.962  1.00  0.00    -0.376 OA
BRANCH   3   4
ATOM      4  C   UNL     1       4.630  -1.032   8.575  1.00  0.00     0.202 C 
BRANCH   4   5
ATOM      5  C   UNL     1       3.874  -2.077   7.743  1.00  0.00     0.261 C 
BRANCH   5   6
ATOM      6  O   UNL     1       3.107  -1.532   6.652  1.00  0.00    -0.459 OA
BRANCH   6   7
ATOM      7  C   UNL     1       1.800  -1.907   6.596  1.00  0.00     0.364 C 
ATOM      8  O   UNL     1       1.281  -2.727   7.348  1.00  0.00    -0.245 OA
BRANCH   7   9
ATOM      9  C   UNL     1       0.996  -1.214   5.483  1.00  0.00     0.294 C 
ATOM     10  N   UNL     1       1.315   1.691   1.060  1.00  0.00    -0.267 N 
ATOM     11  C   UNL     1       0.743   2.220   2.285  1.00  0.00     0.271 C 
ATOM     12  C   UNL     1       2.462   0.836   1.300  1.00  0.00     0.271 C 
ATOM     13  H   UNL     1       1.516   0.855   0.581  1.00  0.00     0.357 HD
ATOM     14  C   UNL     1       0.065   1.071   3.007  1.00  0.00     0.075 C 
ATOM     15  C   UNL     1       2.102  -0.375   2.177  1.00  0.00     0.075 C 
ATOM     16  C   UNL     1       0.979  -0.161   3.254  1.00  0.00     0.036 C 
ATOM     17  C   UNL     1       0.064  -1.407   3.374  1.00  0.00     0.268 C 
ATOM     18  C   UNL     1       1.639  -0.112   4.651  1.00  0.00     0.090 C 
ATOM     19  N   UNL     1       0.636  -2.204   4.449  1.00  0.00    -0.334 N 
ATOM     20  H   UNL     1       1.463  -2.707   4.126  1.00  0.00     0.347 HD
ATOM     21  H   UNL     1      -0.010  -2.914   4.795  1.00  0.00     0.347 HD
BRANCH  10  22
ATOM     22  C   UNL     1       1.158   2.438  -0.100  1.00  0.00     0.350 C 
ATOM     23  O   UNL     1       1.253   3.663  -0.028  1.00  0.00    -0.225 OA
BRANCH  22  24
ATOM     24  C   UNL     1       0.678   1.748  -1.378  1.00  0.00     0.147 A 
ATOM     25  C   UNL     1       0.323  -0.632  -0.481  1.00  0.00     0.045 C 
ATOM     26  C   UNL     1       0.321   0.447  -1.514  1.00  0.00    -0.027 A 
ATOM     27  C   UNL     1      -0.187  -0.074  -2.765  1.00  0.00     0.026 A 
ATOM     28  C   UNL     1      -0.462   0.709  -3.811  1.00  0.00     0.018 A 
ATOM     29  C   UNL     1       0.472   2.630  -2.613  1.00  0.00     0.267 A 
ATOM     30  C   UNL     1      -1.072   0.076  -5.031  1.00  0.00     0.064 C 
ATOM     31  N   UNL     1      -0.165   2.059  -3.735  1.00  0.00    -0.315 N 
ATOM     32  O   UNL     1       0.849   3.801  -2.637  1.00  0.00    -0.268 OA
ATOM     33  C   UNL     1      -0.475   2.938  -4.856  1.00  0.00     0.153 C 
ENDBRANCH  22  24
ENDBRANCH  10  22
ENDBRANCH   7   9
ENDBRANCH   6   7
ENDBRANCH   5   6
ENDBRANCH   4   5
ENDBRANCH   3   4
ENDBRANCH   2   3
ENDBRANCH   1   2
BRANCH   1  34
ATOM     34  O   UNL     1       5.394   0.682   6.620  1.00  0.00    -0.376 OA
BRANCH  34  35
ATOM     35  C   UNL     1       6.415   1.536   6.149  1.00  0.00     0.202 C 
BRANCH  35  36
ATOM     36  C   UNL     1       6.746   2.731   7.059  1.00  0.00     0.261 C 
BRANCH  36  37
ATOM     37  O   UNL     1       5.628   3.475   7.585  1.00  0.00    -0.460 OA
BRANCH  37  38
ATOM     38  C   UNL     1       4.989   4.324   6.744  1.00  0.00     0.338 C 
ATOM     39  O   UNL     1       5.277   4.534   5.575  1.00  0.00    -0.246 OA
BRANCH  38  40
ATOM     40  C   UNL     1       3.721   4.748   7.394  1.00  0.00     0.060 A 
ATOM     41  C   UNL     1       2.497   4.456   6.770  1.00  0.00     0.016 A 
ATOM     42  C   UNL     1       3.734   5.402   8.627  1.00  0.00     0.016 A 
ATOM     43  C   UNL     1       1.289   4.826   7.372  1.00  0.00     0.010 A 
ATOM     44  C   UNL     1       2.526   5.798   9.213  1.00  0.00     0.010 A 
ATOM     45  C   UNL     1       1.297   5.534   8.581  1.00  0.00    -0.014 A 
BRANCH  45  46
ATOM     46  C   UNL     1       0.053   6.170   9.092  1.00  0.00     0.031 A 
ATOM     47  C   UNL     1      -0.192   7.620   8.769  1.00  0.00     0.074 A 
ATOM     48  C   UNL     1      -0.853   5.490   9.819  1.00  0.00     0.049 A 
ATOM     49  N   UNL     1      -1.173   8.402   9.141  1.00  0.00    -0.248 NA
ATOM     50  C   UNL     1       0.808   8.272   7.908  1.00  0.00     0.031 C 
ATOM     51  C   UNL     1      -0.782   4.070  10.150  1.00  0.00     0.029 A 
ATOM     52  N   UNL     1      -2.020   5.916  10.409  1.00  0.00    -0.354 N 
ATOM     53  C   UNL     1      -0.913   9.635   8.553  1.00  0.00     0.074 A 
ATOM     54  C   UNL     1       0.341   9.509   7.843  1.00  0.00     0.031 C 
ATOM     55  C   UNL     1      -1.865   3.738  10.877  1.00  0.00     0.029 A 
ATOM     56  C   UNL     1      -2.686   4.930  11.097  1.00  0.00     0.049 A 
ATOM     57  H   UNL     1      -2.348   6.842  10.345  1.00  0.00     0.167 HD
ATOM     58  C   UNL     1      -1.654  10.769   8.586  1.00  0.00     0.031 A 
ATOM     59  C   UNL     1      -3.820   4.981  11.827  1.00  0.00     0.031 A 
ATOM     60  C   UNL     1      -2.879  10.914   9.326  1.00  0.00     0.049 A 
ATOM     61  C   UNL     1      -4.561   6.287  11.968  1.00  0.00     0.074 A 
ATOM     62  C   UNL     1      -3.685  12.032   9.446  1.00  0.00     0.029 A 
ATOM     63  N   UNL     1      -3.471   9.912  10.082  1.00  0.00    -0.354 N 
ATOM     64  N   UNL     1      -4.298   7.449  11.417  1.00  0.00    -0.248 NA
ATOM     65  C   UNL     1      -5.753   6.288  12.830  1.00  0.00     0.031 C 
ATOM     66  C   UNL     1      -4.732  11.725  10.320  1.00  0.00     0.029 A 
ATOM     67  C   UNL     1      -4.618  10.394  10.691  1.00  0.00     0.049 A 
ATOM     68  H   UNL     1      -3.126   8.995  10.172  1.00  0.00     0.167 HD
ATOM     69  C   UNL     1      -5.308   8.310  11.840  1.00  0.00     0.074 A 
ATOM     70  C   UNL     1      -6.189   7.535  12.690  1.00  0.00     0.031 C 
ATOM     71  C   UNL     1      -5.489   9.621  11.543  1.00  0.00     0.031 A 
BRANCH  58  72
ATOM     72  C   UNL     1      -1.128  11.952   7.815  1.00  0.00    -0.014 A 
ATOM     73  C   UNL     1      -1.091  11.940   6.408  1.00  0.00     0.010 A 
ATOM     74  C   UNL     1      -0.660  13.087   8.501  1.00  0.00     0.010 A 
ATOM     75  C   UNL     1      -0.541  13.014   5.705  1.00  0.00     0.020 A 
ATOM     76  C   UNL     1      -0.140  14.179   7.799  1.00  0.00     0.020 A 
ATOM     77  C   UNL     1      -0.062  14.124   6.406  1.00  0.00     0.054 A 
BRANCH  77  78
ATOM     78  S   UNL     1       0.666  15.494   5.467  1.00  0.00     0.124 S 
ATOM     79  O   UNL     1       1.908  14.899   4.979  1.00  0.00    -0.237 OA
ATOM     80  O   UNL     1      -0.348  15.756   4.449  1.00  0.00    -0.237 OA
ATOM     81  O   UNL     1       0.832  16.549   6.463  1.00  0.00    -0.744 OA
ENDBRANCH  77  78
ENDBRANCH  58  72
BRANCH  59  82
ATOM     82  C   UNL     1      -4.345   3.738  12.459  1.00  0.00    -0.014 A 
ATOM     83  C   UNL     1      -5.507   3.128  11.954  1.00  0.00     0.010 A 
ATOM     84  C   UNL     1      -3.668   3.133  13.534  1.00  0.00     0.010 A 
ATOM     85  C   UNL     1      -5.972   1.927  12.499  1.00  0.00     0.020 A 
ATOM     86  C   UNL     1      -4.117   1.919  14.066  1.00  0.00     0.020 A 
ATOM     87  C   UNL     1      -5.264   1.322  13.541  1.00  0.00     0.054 A 
BRANCH  87  88
ATOM     88  S   UNL     1      -5.833  -0.289  14.155  1.00  0.00     0.124 S 
ATOM     89  O   UNL     1      -7.105   0.054  14.784  1.00  0.00    -0.237 OA
ATOM     90  O   UNL     1      -5.927  -1.073  12.926  1.00  0.00    -0.237 OA
ATOM     91  O   UNL     1      -4.773  -0.702  15.071  1.00  0.00    -0.744 OA
ENDBRANCH  87  88
ENDBRANCH  59  82
BRANCH  71  92
ATOM     92  C   UNL     1      -6.699  10.319  12.113  1.00  0.00    -0.014 A 
ATOM     93  C   UNL     1      -6.774  10.653  13.476  1.00  0.00     0.010 A 
ATOM     94  C   UNL     1      -7.732  10.736  11.251  1.00  0.00     0.010 A 
ATOM     95  C   UNL     1      -7.864  11.380  13.968  1.00  0.00     0.020 A 
ATOM     96  C   UNL     1      -8.809  11.485  11.733  1.00  0.00     0.020 A 
ATOM     97  C   UNL     1      -8.871  11.797  13.092  1.00  0.00     0.054 A 
BRANCH  97  98
ATOM     98  S   UNL     1     -10.236  12.798  13.747  1.00  0.00     0.124 S 
ATOM     99  O   UNL     1     -10.948  11.834  14.581  1.00  0.00    -0.237 OA
ATOM    100  O   UNL     1      -9.536  13.857  14.469  1.00  0.00    -0.237 OA
ATOM    101  O   UNL     1     -10.954  13.235  12.551  1.00  0.00    -0.744 OA
ENDBRANCH  97  98
ENDBRANCH  71  92
ENDBRANCH  45  46
ENDBRANCH  38  40
ENDBRANCH  37  38
ENDBRANCH  36  37
ENDBRANCH  35  36
ENDBRANCH  34  35
ENDBRANCH   1  34
TORSDOF 22
