REMARK SMILES Cc1c(C)c2c(c(C)c1O)CC[C@@](C)(C(=O)OCCOCCOCCOC(=O)c1ccc(-c3c4nc(c(-c5ccc(S(=O)(=O)[O-])cc5)c5ccc([nH]5)c(-c5ccc(S(=O)(=O)[O-])cc5)c5nc(c(-c6ccc(S(=O)(=O)[O-])cc6)c6ccc3[nH]6)C=C5)C=C4)cc1)O2
REMARK SMILES IDX 22 1 21 2 20 3 19 4 18 5 17 6 15 7 16 8 13 9 1 10 2 11 3 12
REMARK SMILES IDX 9 13 4 14 5 15 7 16 6 17 89 18 8 19 11 20 12 21 14 22 10 23
REMARK SMILES IDX 23 25 24 26 25 27 26 28 27 29 28 30 29 31 30 32 88 33 31 34
REMARK SMILES IDX 87 35 32 36 33 37 34 38 81 39 35 40 86 41 80 42 82 43 36 44
REMARK SMILES IDX 85 45 79 46 78 47 37 49 67 50 48 51 66 52 49 53 52 54 65 55
REMARK SMILES IDX 83 56 50 57 51 58 64 60 84 61 53 62 38 63 39 64 47 65 40 66
REMARK SMILES IDX 46 67 41 68 42 69 43 70 44 71 45 72 68 73 69 74 77 75 70 76
REMARK SMILES IDX 76 77 71 78 72 79 73 80 74 81 75 82 54 83 55 84 63 85 56 86
REMARK SMILES IDX 62 87 57 88 58 89 59 90 60 91 61 92
REMARK H PARENT 10 24 82 48 52 59
REMARK Flexibility Score: inf
ROOT
ATOM      1  C   UNL     1       0.390  -3.462  -7.632  1.00  0.00     0.188 C 
ENDROOT
BRANCH   1   2
ATOM      2  C   UNL     1       0.357  -4.778  -6.846  1.00  0.00     0.188 C 
BRANCH   2   3
ATOM      3  O   UNL     1      -0.417  -5.858  -7.356  1.00  0.00    -0.376 OA
BRANCH   3   4
ATOM      4  C   UNL     1      -1.629  -5.591  -8.048  1.00  0.00     0.202 C 
BRANCH   4   5
ATOM      5  C   UNL     1      -2.744  -4.807  -7.336  1.00  0.00     0.261 C 
BRANCH   5   6
ATOM      6  O   UNL     1      -2.431  -3.477  -6.857  1.00  0.00    -0.460 OA
BRANCH   6   7
ATOM      7  C   UNL     1      -2.355  -3.346  -5.499  1.00  0.00     0.350 C 
ATOM      8  O   UNL     1      -2.494  -4.297  -4.733  1.00  0.00    -0.247 OA
BRANCH   7   9
ATOM      9  C   UNL     1      -2.162  -1.893  -4.993  1.00  0.00     0.203 C 
ATOM     10  C   UNL     1       0.988  -0.136  -0.000  1.00  0.00     0.049 C 
ATOM     11  C   UNL     1       0.385   0.021  -1.374  1.00  0.00    -0.002 A 
ATOM     12  C   UNL     1      -0.022  -1.108  -2.119  1.00  0.00    -0.002 A 
ATOM     13  C   UNL     1       0.231   1.297  -1.951  1.00  0.00     0.122 A 
ATOM     14  C   UNL     1       0.216  -2.506  -1.593  1.00  0.00     0.049 C 
ATOM     15  C   UNL     1      -0.687  -0.922  -3.348  1.00  0.00     0.127 A 
ATOM     16  C   UNL     1      -0.359   1.480  -3.216  1.00  0.00    -0.002 A 
ATOM     17  C   UNL     1      -0.816   0.351  -3.928  1.00  0.00     0.001 A 
ATOM     18  O   UNL     1      -1.197  -2.052  -3.933  1.00  0.00    -0.475 OA
ATOM     19  C   UNL     1      -0.470   2.859  -3.817  1.00  0.00     0.049 C 
ATOM     20  C   UNL     1      -1.457   0.500  -5.288  1.00  0.00     0.044 C 
ATOM     21  C   UNL     1      -1.630  -0.851  -5.978  1.00  0.00     0.065 C 
ATOM     22  C   UNL     1      -3.535  -1.494  -4.423  1.00  0.00     0.069 C 
BRANCH  13  23
ATOM     23  O   UNL     1       0.656   2.425  -1.297  1.00  0.00    -0.507 OA
ATOM     24  H   UNL     1       1.055   2.354  -0.452  1.00  0.00     0.293 HD
ENDBRANCH  13  23
ENDBRANCH   7   9
ENDBRANCH   6   7
ENDBRANCH   5   6
ENDBRANCH   4   5
ENDBRANCH   3   4
ENDBRANCH   2   3
ENDBRANCH   1   2
BRANCH   1  25
ATOM     25  O   UNL     1      -0.069  -3.570  -8.962  1.00  0.00    -0.376 OA
BRANCH  25  26
ATOM     26  C   UNL     1       0.790  -3.133  -9.995  1.00  0.00     0.202 C 
BRANCH  26  27
ATOM     27  C   UNL     1       2.082  -3.940 -10.176  1.00  0.00     0.261 C 
BRANCH  27  28
ATOM     28  O   UNL     1       2.860  -4.152  -8.986  1.00  0.00    -0.460 OA
BRANCH  28  29
ATOM     29  C   UNL     1       3.519  -3.083  -8.479  1.00  0.00     0.338 C 
ATOM     30  O   UNL     1       3.548  -1.957  -8.947  1.00  0.00    -0.246 OA
BRANCH  29  31
ATOM     31  C   UNL     1       3.987  -3.458  -7.123  1.00  0.00     0.060 A 
ATOM     32  C   UNL     1       3.544  -2.714  -6.019  1.00  0.00     0.016 A 
ATOM     33  C   UNL     1       4.815  -4.567  -6.935  1.00  0.00     0.016 A 
ATOM     34  C   UNL     1       3.937  -3.071  -4.727  1.00  0.00     0.010 A 
ATOM     35  C   UNL     1       5.232  -4.905  -5.644  1.00  0.00     0.010 A 
ATOM     36  C   UNL     1       4.816  -4.146  -4.535  1.00  0.00    -0.014 A 
BRANCH  36  37
ATOM     37  C   UNL     1       5.471  -4.345  -3.218  1.00  0.00     0.031 A 
ATOM     38  C   UNL     1       6.834  -3.740  -3.008  1.00  0.00     0.074 A 
ATOM     39  C   UNL     1       4.878  -5.024  -2.219  1.00  0.00     0.049 A 
ATOM     40  N   UNL     1       7.625  -3.813  -1.969  1.00  0.00    -0.248 NA
ATOM     41  C   UNL     1       7.372  -2.940  -4.122  1.00  0.00     0.031 C 
ATOM     42  C   UNL     1       3.537  -5.602  -2.261  1.00  0.00     0.029 A 
ATOM     43  N   UNL     1       5.341  -5.339  -0.963  1.00  0.00    -0.354 N 
ATOM     44  C   UNL     1       8.749  -3.066  -2.301  1.00  0.00     0.074 A 
ATOM     45  C   UNL     1       8.556  -2.583  -3.651  1.00  0.00     0.031 C 
ATOM     46  C   UNL     1       3.284  -6.202  -1.083  1.00  0.00     0.029 A 
ATOM     47  C   UNL     1       4.457  -6.082  -0.216  1.00  0.00     0.049 A 
ATOM     48  H   UNL     1       6.224  -5.059  -0.629  1.00  0.00     0.167 HD
ATOM     49  C   UNL     1       9.840  -2.792  -1.548  1.00  0.00     0.031 A 
ATOM     50  C   UNL     1       4.586  -6.614   1.017  1.00  0.00     0.031 A 
ATOM     51  C   UNL     1      10.050  -3.293  -0.217  1.00  0.00     0.049 A 
ATOM     52  C   UNL     1       5.866  -6.406   1.790  1.00  0.00     0.074 A 
ATOM     53  C   UNL     1      11.133  -3.084   0.618  1.00  0.00     0.029 A 
ATOM     54  N   UNL     1       9.164  -4.108   0.471  1.00  0.00    -0.354 N 
ATOM     55  N   UNL     1       6.922  -5.698   1.464  1.00  0.00    -0.248 NA
ATOM     56  C   UNL     1       5.970  -7.068   3.100  1.00  0.00     0.031 C 
ATOM     57  C   UNL     1      10.929  -3.821   1.789  1.00  0.00     0.029 A 
ATOM     58  C   UNL     1       9.688  -4.434   1.710  1.00  0.00     0.049 A 
ATOM     59  H   UNL     1       8.292  -4.411   0.129  1.00  0.00     0.167 HD
ATOM     60  C   UNL     1       7.801  -5.808   2.539  1.00  0.00     0.074 A 
ATOM     61  C   UNL     1       7.150  -6.640   3.529  1.00  0.00     0.031 C 
ATOM     62  C   UNL     1       9.035  -5.264   2.691  1.00  0.00     0.031 A 
BRANCH  49  63
ATOM     63  C   UNL     1      10.903  -1.923  -2.163  1.00  0.00    -0.014 A 
ATOM     64  C   UNL     1      10.679  -0.550  -2.376  1.00  0.00     0.010 A 
ATOM     65  C   UNL     1      12.151  -2.475  -2.503  1.00  0.00     0.010 A 
ATOM     66  C   UNL     1      11.671   0.247  -2.952  1.00  0.00     0.020 A 
ATOM     67  C   UNL     1      13.157  -1.675  -3.052  1.00  0.00     0.020 A 
ATOM     68  C   UNL     1      12.904  -0.322  -3.286  1.00  0.00     0.054 A 
BRANCH  68  69
ATOM     69  S   UNL     1      14.178   0.744  -4.014  1.00  0.00     0.124 S 
ATOM     70  O   UNL     1      13.612   1.037  -5.328  1.00  0.00    -0.237 OA
ATOM     71  O   UNL     1      14.220   1.869  -3.084  1.00  0.00    -0.237 OA
ATOM     72  O   UNL     1      15.372  -0.098  -4.025  1.00  0.00    -0.744 OA
ENDBRANCH  68  69
ENDBRANCH  49  63
BRANCH  50  73
ATOM     73  C   UNL     1       3.467  -7.400   1.610  1.00  0.00    -0.014 A 
ATOM     74  C   UNL     1       2.745  -6.893   2.705  1.00  0.00     0.010 A 
ATOM     75  C   UNL     1       3.112  -8.656   1.083  1.00  0.00     0.010 A 
ATOM     76  C   UNL     1       1.693  -7.626   3.263  1.00  0.00     0.020 A 
ATOM     77  C   UNL     1       2.044  -9.380   1.622  1.00  0.00     0.020 A 
ATOM     78  C   UNL     1       1.343  -8.861   2.712  1.00  0.00     0.054 A 
BRANCH  78  79
ATOM     79  S   UNL     1      -0.068  -9.760   3.416  1.00  0.00     0.124 S 
ATOM     80  O   UNL     1       0.439 -10.144   4.730  1.00  0.00    -0.237 OA
ATOM     81  O   UNL     1      -1.116  -8.743   3.416  1.00  0.00    -0.237 OA
ATOM     82  O   UNL     1      -0.276 -10.862   2.480  1.00  0.00    -0.744 OA
ENDBRANCH  78  79
ENDBRANCH  50  73
BRANCH  62  83
ATOM     83  C   UNL     1       9.770  -5.521   3.982  1.00  0.00    -0.014 A 
ATOM     84  C   UNL     1      10.325  -6.781   4.266  1.00  0.00     0.010 A 
ATOM     85  C   UNL     1       9.991  -4.459   4.880  1.00  0.00     0.010 A 
ATOM     86  C   UNL     1      11.074  -6.978   5.431  1.00  0.00     0.020 A 
ATOM     87  C   UNL     1      10.762  -4.644   6.031  1.00  0.00     0.020 A 
ATOM     88  C   UNL     1      11.293  -5.906   6.303  1.00  0.00     0.054 A 
BRANCH  88  89
ATOM     89  S   UNL     1      12.323  -6.176   7.772  1.00  0.00     0.124 S 
ATOM     90  O   UNL     1      11.473  -7.040   8.587  1.00  0.00    -0.237 OA
ATOM     91  O   UNL     1      13.514  -6.812   7.214  1.00  0.00    -0.237 OA
ATOM     92  O   UNL     1      12.532  -4.831   8.303  1.00  0.00    -0.744 OA
ENDBRANCH  88  89
ENDBRANCH  62  83
ENDBRANCH  36  37
ENDBRANCH  29  31
ENDBRANCH  28  29
ENDBRANCH  27  28
ENDBRANCH  26  27
ENDBRANCH  25  26
ENDBRANCH   1  25
TORSDOF 21
