REMARK SMILES CCOc1ccc(-n2nnc(-c3nc(C)c(C(=O)OCCOCCOCCOC(=O)c4ccc(-c5c6nc(c(-c7ccc(S(=O)(=O)[O-])cc7)c7ccc([nH]7)c(-c7ccc(S(=O)(=O)[O-])cc7)c7nc(c(-c8ccc(S(=O)(=O)[O-])cc8)c8ccc5[nH]8)C=C7)C=C6)cc4)s3)c2C)cc1
REMARK SMILES IDX 23 1 22 2 21 3 20 4 19 5 17 6 18 7 16 8 12 9 13 10 91 11
REMARK SMILES IDX 14 12 15 13 11 14 8 15 9 16 92 17 10 18 93 19 7 20 4 21 5 22
REMARK SMILES IDX 95 23 6 24 94 25 3 26 2 27 1 28 24 29 25 30 26 31 27 32
REMARK SMILES IDX 28 33 29 34 30 35 31 36 32 37 90 38 33 39 89 40 34 41 35 42
REMARK SMILES IDX 36 43 83 44 37 45 88 46 82 47 84 48 38 49 87 50 81 51 80 52
REMARK SMILES IDX 39 54 69 55 50 56 68 57 51 58 54 59 67 60 85 61 52 62 53 63
REMARK SMILES IDX 66 65 86 66 55 67 40 68 41 69 49 70 42 71 48 72 43 73 44 74
REMARK SMILES IDX 45 75 46 76 47 77 70 78 71 79 79 80 72 81 78 82 73 83 74 84
REMARK SMILES IDX 75 85 76 86 77 87 56 88 57 89 65 90 58 91 64 92 59 93 60 94
REMARK SMILES IDX 61 95 62 96 63 97
REMARK H PARENT 84 53 54 64
REMARK Flexibility Score: inf
ROOT
ATOM      1  C   UNL     1      12.535   2.936  -8.131  1.00  0.00     0.188 C 
ENDROOT
BRANCH   1   2
ATOM      2  O   UNL     1      12.364   2.818  -9.540  1.00  0.00    -0.376 OA
BRANCH   2   3
ATOM      3  C   UNL     1      11.065   2.854 -10.120  1.00  0.00     0.202 C 
BRANCH   3   4
ATOM      4  C   UNL     1       9.981   1.877  -9.633  1.00  0.00     0.261 C 
BRANCH   4   5
ATOM      5  O   UNL     1       9.710   1.956  -8.230  1.00  0.00    -0.459 OA
BRANCH   5   6
ATOM      6  C   UNL     1      10.139   0.934  -7.440  1.00  0.00     0.350 C 
ATOM      7  O   UNL     1      10.600  -0.125  -7.852  1.00  0.00    -0.245 OA
BRANCH   6   8
ATOM      8  C   UNL     1      10.079   1.328  -6.053  1.00  0.00     0.135 A 
ATOM      9  C   UNL     1       9.389   2.170  -3.896  1.00  0.00     0.146 A 
ATOM     10  N   UNL     1      10.554   1.573  -3.767  1.00  0.00    -0.239 NA
ATOM     11  S   UNL     1       8.846   2.370  -5.512  1.00  0.00    -0.105 S 
ATOM     12  C   UNL     1      10.947   1.056  -5.004  1.00  0.00     0.064 A 
ATOM     13  C   UNL     1      12.236   0.314  -5.075  1.00  0.00     0.068 C 
BRANCH   9  14
ATOM     14  C   UNL     1       8.466   2.505  -2.773  1.00  0.00     0.145 A 
ATOM     15  N   UNL     1       6.632   2.684  -1.632  1.00  0.00    -0.217 N 
ATOM     16  N   UNL     1       7.542   3.524  -1.089  1.00  0.00    -0.061 NA
ATOM     17  C   UNL     1       7.160   2.053  -2.739  1.00  0.00     0.072 A 
ATOM     18  N   UNL     1       8.705   3.329  -1.714  1.00  0.00    -0.127 NA
ATOM     19  C   UNL     1       6.431   1.173  -3.694  1.00  0.00     0.069 C 
BRANCH  15  20
ATOM     20  C   UNL     1       5.313   2.565  -1.159  1.00  0.00     0.067 A 
ATOM     21  C   UNL     1       2.578   2.269  -0.801  1.00  0.00     0.119 A 
ATOM     22  C   UNL     1       3.147   3.547  -0.798  1.00  0.00     0.048 A 
ATOM     23  C   UNL     1       3.380   1.143  -0.956  1.00  0.00     0.048 A 
ATOM     24  C   UNL     1       4.529   3.704  -0.957  1.00  0.00     0.032 A 
ATOM     25  C   UNL     1       4.750   1.287  -1.093  1.00  0.00     0.032 A 
BRANCH  21  26
ATOM     26  O   UNL     1       1.216   2.157  -0.790  1.00  0.00    -0.494 OA
BRANCH  26  27
ATOM     27  C   UNL     1       0.710   1.488   0.372  1.00  0.00     0.226 C 
ATOM     28  C   UNL     1       0.650  -0.025   0.211  1.00  0.00     0.049 C 
ENDBRANCH  26  27
ENDBRANCH  21  26
ENDBRANCH  15  20
ENDBRANCH   9  14
ENDBRANCH   6   8
ENDBRANCH   5   6
ENDBRANCH   4   5
ENDBRANCH   3   4
ENDBRANCH   2   3
ENDBRANCH   1   2
BRANCH   1  29
ATOM     29  C   UNL     1      11.756   3.995  -7.323  1.00  0.00     0.188 C 
BRANCH  29  30
ATOM     30  O   UNL     1      10.658   4.556  -8.015  1.00  0.00    -0.376 OA
BRANCH  30  31
ATOM     31  C   UNL     1      10.712   5.939  -8.337  1.00  0.00     0.202 C 
BRANCH  31  32
ATOM     32  C   UNL     1      11.904   6.484  -9.127  1.00  0.00     0.261 C 
BRANCH  32  33
ATOM     33  O   UNL     1      13.156   5.877  -8.858  1.00  0.00    -0.460 OA
BRANCH  33  34
ATOM     34  C   UNL     1      13.783   6.320  -7.749  1.00  0.00     0.338 C 
ATOM     35  O   UNL     1      13.286   6.945  -6.828  1.00  0.00    -0.246 OA
BRANCH  34  36
ATOM     36  C   UNL     1      15.205   5.994  -7.871  1.00  0.00     0.060 A 
ATOM     37  C   UNL     1      15.998   6.143  -6.732  1.00  0.00     0.016 A 
ATOM     38  C   UNL     1      15.755   5.853  -9.155  1.00  0.00     0.016 A 
ATOM     39  C   UNL     1      17.342   6.379  -6.910  1.00  0.00     0.010 A 
ATOM     40  C   UNL     1      17.090   6.113  -9.331  1.00  0.00     0.010 A 
ATOM     41  C   UNL     1      17.842   6.462  -8.214  1.00  0.00    -0.014 A 
BRANCH  41  42
ATOM     42  C   UNL     1      19.209   6.896  -8.384  1.00  0.00     0.031 A 
ATOM     43  C   UNL     1      20.198   5.855  -8.055  1.00  0.00     0.074 A 
ATOM     44  C   UNL     1      19.525   8.103  -8.885  1.00  0.00     0.049 A 
ATOM     45  N   UNL     1      20.994   5.826  -7.042  1.00  0.00    -0.248 NA
ATOM     46  C   UNL     1      20.172   4.617  -8.850  1.00  0.00     0.031 C 
ATOM     47  C   UNL     1      18.630   9.086  -9.500  1.00  0.00     0.029 A 
ATOM     48  N   UNL     1      20.756   8.649  -9.064  1.00  0.00    -0.354 N 
ATOM     49  C   UNL     1      21.746   4.671  -7.206  1.00  0.00     0.074 A 
ATOM     50  C   UNL     1      21.058   3.873  -8.189  1.00  0.00     0.031 C 
ATOM     51  C   UNL     1      19.371   9.979 -10.194  1.00  0.00     0.029 A 
ATOM     52  C   UNL     1      20.781   9.697  -9.974  1.00  0.00     0.049 A 
ATOM     53  H   UNL     1      21.559   8.331  -8.591  1.00  0.00     0.167 HD
ATOM     54  C   UNL     1      23.026   4.594  -6.752  1.00  0.00     0.031 A 
ATOM     55  C   UNL     1      21.885  10.216 -10.570  1.00  0.00     0.031 A 
ATOM     56  C   UNL     1      23.325   5.630  -5.797  1.00  0.00     0.049 A 
ATOM     57  C   UNL     1      23.061   9.822  -9.750  1.00  0.00     0.074 A 
ATOM     58  C   UNL     1      22.761   6.037  -4.602  1.00  0.00     0.029 A 
ATOM     59  N   UNL     1      24.108   6.678  -6.225  1.00  0.00    -0.354 N 
ATOM     60  N   UNL     1      23.291  10.286  -8.554  1.00  0.00    -0.248 NA
ATOM     61  C   UNL     1      23.744   8.576 -10.073  1.00  0.00     0.031 C 
ATOM     62  C   UNL     1      22.857   7.458  -4.612  1.00  0.00     0.029 A 
ATOM     63  C   UNL     1      23.529   7.836  -5.776  1.00  0.00     0.049 A 
ATOM     64  H   UNL     1      24.933   6.608  -6.757  1.00  0.00     0.167 HD
ATOM     65  C   UNL     1      23.775   9.200  -7.837  1.00  0.00     0.074 A 
ATOM     66  C   UNL     1      24.131   8.207  -8.848  1.00  0.00     0.031 C 
ATOM     67  C   UNL     1      23.576   9.095  -6.489  1.00  0.00     0.031 A 
BRANCH  54  68
ATOM     68  C   UNL     1      24.105   3.868  -7.515  1.00  0.00    -0.014 A 
ATOM     69  C   UNL     1      25.391   3.779  -6.951  1.00  0.00     0.010 A 
ATOM     70  C   UNL     1      23.977   3.532  -8.881  1.00  0.00     0.010 A 
ATOM     71  C   UNL     1      26.502   3.450  -7.737  1.00  0.00     0.020 A 
ATOM     72  C   UNL     1      25.068   3.154  -9.660  1.00  0.00     0.020 A 
ATOM     73  C   UNL     1      26.331   3.155  -9.091  1.00  0.00     0.054 A 
BRANCH  73  74
ATOM     74  S   UNL     1      27.781   2.849 -10.125  1.00  0.00     0.124 S 
ATOM     75  O   UNL     1      28.408   4.166 -10.153  1.00  0.00    -0.237 OA
ATOM     76  O   UNL     1      28.489   1.822  -9.367  1.00  0.00    -0.237 OA
ATOM     77  O   UNL     1      27.206   2.398 -11.391  1.00  0.00    -0.744 OA
ENDBRANCH  73  74
ENDBRANCH  54  68
BRANCH  55  78
ATOM     78  C   UNL     1      22.010  10.745 -11.952  1.00  0.00    -0.014 A 
ATOM     79  C   UNL     1      23.193  11.382 -12.375  1.00  0.00     0.010 A 
ATOM     80  C   UNL     1      21.075  10.386 -12.945  1.00  0.00     0.010 A 
ATOM     81  C   UNL     1      23.461  11.580 -13.740  1.00  0.00     0.020 A 
ATOM     82  C   UNL     1      21.327  10.594 -14.305  1.00  0.00     0.020 A 
ATOM     83  C   UNL     1      22.534  11.163 -14.699  1.00  0.00     0.054 A 
BRANCH  83  84
ATOM     84  S   UNL     1      22.968  11.237 -16.461  1.00  0.00     0.124 S 
ATOM     85  O   UNL     1      22.923  12.670 -16.734  1.00  0.00    -0.237 OA
ATOM     86  O   UNL     1      24.295  10.628 -16.488  1.00  0.00    -0.237 OA
ATOM     87  O   UNL     1      21.918  10.450 -17.107  1.00  0.00    -0.744 OA
ENDBRANCH  83  84
ENDBRANCH  55  78
BRANCH  67  88
ATOM     88  C   UNL     1      23.138  10.319  -5.719  1.00  0.00    -0.014 A 
ATOM     89  C   UNL     1      21.970  11.053  -6.000  1.00  0.00     0.010 A 
ATOM     90  C   UNL     1      23.878  10.653  -4.569  1.00  0.00     0.010 A 
ATOM     91  C   UNL     1      21.577  12.117  -5.174  1.00  0.00     0.020 A 
ATOM     92  C   UNL     1      23.481  11.696  -3.731  1.00  0.00     0.020 A 
ATOM     93  C   UNL     1      22.339  12.433  -4.045  1.00  0.00     0.054 A 
BRANCH  93  94
ATOM     94  S   UNL     1      21.812  13.791  -2.963  1.00  0.00     0.124 S 
ATOM     95  O   UNL     1      22.029  14.966  -3.801  1.00  0.00    -0.237 OA
ATOM     96  O   UNL     1      20.416  13.463  -2.686  1.00  0.00    -0.237 OA
ATOM     97  O   UNL     1      22.705  13.683  -1.809  1.00  0.00    -0.744 OA
ENDBRANCH  93  94
ENDBRANCH  67  88
ENDBRANCH  41  42
ENDBRANCH  34  36
ENDBRANCH  33  34
ENDBRANCH  32  33
ENDBRANCH  31  32
ENDBRANCH  30  31
ENDBRANCH  29  30
ENDBRANCH   1  29
TORSDOF 24
