REMARK SMILES O=C1C[C@H](c2cn[nH]c2C(=O)OCCOCCOCCOC(=O)c2ccc(-c3c4nc(c(-c5ccc(S(=O)(=O)[O-])cc5)c5ccc([nH]5)c(-c5ccc(S(=O)(=O)[O-])cc5)c5nc(c(-c6ccc(S(=O)(=O)[O-])cc6)c6ccc3[nH]6)C=C5)C=C4)cc2)c2c(-c3cccs3)n[nH]c2N1
REMARK SMILES IDX 17 1 16 2 15 3 14 4 13 5 12 6 10 7 11 8 9 9 5 10 6 11 7 12
REMARK SMILES IDX 8 13 4 15 1 16 2 17 3 18 94 19 93 20 84 22 92 23 85 24 91 25
REMARK SMILES IDX 86 27 87 28 90 29 88 30 89 31 18 32 19 33 20 34 21 35 22 36
REMARK SMILES IDX 23 37 24 38 25 39 83 40 26 41 82 42 27 43 28 44 29 45 76 46
REMARK SMILES IDX 30 47 81 48 75 49 77 50 31 51 80 52 74 53 73 54 32 56 62 57
REMARK SMILES IDX 43 58 61 59 44 60 47 61 60 62 78 63 45 64 46 65 59 67 79 68
REMARK SMILES IDX 48 69 33 70 34 71 42 72 35 73 41 74 36 75 37 76 38 77 39 78
REMARK SMILES IDX 40 79 63 80 64 81 72 82 65 83 71 84 66 85 67 86 68 87 69 88
REMARK SMILES IDX 70 89 49 90 50 91 58 92 51 93 57 94 52 95 53 96 54 97 55 98
REMARK SMILES IDX 56 99
REMARK H PARENT 8 14 94 21 92 26 77 55 47 66
REMARK Flexibility Score: inf
ROOT
ATOM      1  C   UNL     1       3.915  -1.302  -2.933  1.00  0.00     0.188 C 
ENDROOT
BRANCH   1   2
ATOM      2  C   UNL     1       4.940  -1.522  -4.069  1.00  0.00     0.188 C 
BRANCH   2   3
ATOM      3  O   UNL     1       5.802  -2.656  -4.017  1.00  0.00    -0.376 OA
BRANCH   3   4
ATOM      4  C   UNL     1       6.522  -2.919  -2.814  1.00  0.00     0.202 C 
BRANCH   4   5
ATOM      5  C   UNL     1       7.306  -1.767  -2.165  1.00  0.00     0.261 C 
BRANCH   5   6
ATOM      6  O   UNL     1       6.493  -0.630  -1.806  1.00  0.00    -0.459 OA
BRANCH   6   7
ATOM      7  C   UNL     1       6.899   0.572  -2.287  1.00  0.00     0.356 C 
ATOM      8  O   UNL     1       7.918   0.747  -2.942  1.00  0.00    -0.244 OA
BRANCH   7   9
ATOM      9  C   UNL     1       5.901   1.605  -2.119  1.00  0.00     0.147 A 
ATOM     10  C   UNL     1       4.928   2.002  -1.193  1.00  0.00     0.013 A 
ATOM     11  C   UNL     1       4.378   3.179  -1.792  1.00  0.00     0.140 A 
ATOM     12  N   UNL     1       4.919   3.487  -2.963  1.00  0.00    -0.183 NA
ATOM     13  N   UNL     1       5.840   2.538  -3.128  1.00  0.00    -0.271 N 
ATOM     14  H   UNL     1       6.433   2.507  -3.914  1.00  0.00     0.190 HD
BRANCH  10  15
ATOM     15  C   UNL     1       4.487   1.556   0.199  1.00  0.00     0.069 C 
ATOM     16  O   UNL     1       1.177  -0.222   0.422  1.00  0.00    -0.275 OA
ATOM     17  C   UNL     1       2.379   0.006   0.563  1.00  0.00     0.226 C 
ATOM     18  C   UNL     1       2.947   1.399   0.325  1.00  0.00     0.114 C 
ATOM     19  N   UNL     1       3.199  -0.976   1.046  1.00  0.00    -0.311 N 
ATOM     20  C   UNL     1       4.542  -0.759   1.124  1.00  0.00     0.132 A 
ATOM     21  H   UNL     1       2.821  -1.838   1.336  1.00  0.00     0.171 HD
ATOM     22  C   UNL     1       5.193   0.394   0.785  1.00  0.00     0.031 A 
ATOM     23  N   UNL     1       5.493  -1.664   1.476  1.00  0.00    -0.262 N 
ATOM     24  C   UNL     1       6.549   0.134   1.098  1.00  0.00     0.108 A 
ATOM     25  N   UNL     1       6.739  -1.148   1.457  1.00  0.00    -0.173 NA
ATOM     26  H   UNL     1       5.293  -2.597   1.719  1.00  0.00     0.192 HD
BRANCH  24  27
ATOM     27  C   UNL     1       7.681   1.100   0.947  1.00  0.00     0.055 A 
ATOM     28  C   UNL     1       8.917   0.754   0.444  1.00  0.00     0.022 A 
ATOM     29  S   UNL     1       7.582   2.766   1.306  1.00  0.00    -0.142 S 
ATOM     30  C   UNL     1       9.747   1.897   0.247  1.00  0.00     0.012 A 
ATOM     31  C   UNL     1       9.156   3.051   0.713  1.00  0.00     0.065 A 
ENDBRANCH  24  27
ENDBRANCH  10  15
ENDBRANCH   7   9
ENDBRANCH   6   7
ENDBRANCH   5   6
ENDBRANCH   4   5
ENDBRANCH   3   4
ENDBRANCH   2   3
ENDBRANCH   1   2
BRANCH   1  32
ATOM     32  O   UNL     1       4.160  -2.104  -1.791  1.00  0.00    -0.376 OA
BRANCH  32  33
ATOM     33  C   UNL     1       3.178  -3.034  -1.374  1.00  0.00     0.202 C 
BRANCH  33  34
ATOM     34  C   UNL     1       2.743  -4.158  -2.304  1.00  0.00     0.261 C 
BRANCH  34  35
ATOM     35  O   UNL     1       2.863  -3.862  -3.677  1.00  0.00    -0.460 OA
BRANCH  35  36
ATOM     36  C   UNL     1       1.819  -3.194  -4.206  1.00  0.00     0.338 C 
ATOM     37  O   UNL     1       0.923  -2.636  -3.601  1.00  0.00    -0.246 OA
BRANCH  36  38
ATOM     38  C   UNL     1       1.911  -3.314  -5.664  1.00  0.00     0.060 A 
ATOM     39  C   UNL     1       1.023  -2.554  -6.422  1.00  0.00     0.016 A 
ATOM     40  C   UNL     1       2.678  -4.351  -6.220  1.00  0.00     0.016 A 
ATOM     41  C   UNL     1       0.738  -2.983  -7.698  1.00  0.00     0.010 A 
ATOM     42  C   UNL     1       2.380  -4.790  -7.485  1.00  0.00     0.010 A 
ATOM     43  C   UNL     1       1.348  -4.154  -8.164  1.00  0.00    -0.014 A 
BRANCH  43  44
ATOM     44  C   UNL     1       0.807  -4.744  -9.363  1.00  0.00     0.031 A 
ATOM     45  C   UNL     1       1.243  -4.123 -10.621  1.00  0.00     0.074 A 
ATOM     46  C   UNL     1      -0.006  -5.813  -9.325  1.00  0.00     0.049 A 
ATOM     47  N   UNL     1       0.538  -3.404 -11.425  1.00  0.00    -0.248 NA
ATOM     48  C   UNL     1       2.667  -4.222 -10.963  1.00  0.00     0.031 C 
ATOM     49  C   UNL     1      -0.271  -6.711  -8.198  1.00  0.00     0.029 A 
ATOM     50  N   UNL     1      -0.689  -6.379 -10.352  1.00  0.00    -0.354 N 
ATOM     51  C   UNL     1       1.380  -3.106 -12.485  1.00  0.00     0.074 A 
ATOM     52  C   UNL     1       2.709  -3.496 -12.080  1.00  0.00     0.031 C 
ATOM     53  C   UNL     1      -0.876  -7.827  -8.664  1.00  0.00     0.029 A 
ATOM     54  C   UNL     1      -1.157  -7.652 -10.081  1.00  0.00     0.049 A 
ATOM     55  H   UNL     1      -0.839  -5.924 -11.212  1.00  0.00     0.167 HD
ATOM     56  C   UNL     1       0.901  -2.766 -13.710  1.00  0.00     0.031 A 
ATOM     57  C   UNL     1      -1.655  -8.524 -10.988  1.00  0.00     0.031 A 
ATOM     58  C   UNL     1      -0.498  -2.434 -13.685  1.00  0.00     0.049 A 
ATOM     59  C   UNL     1      -2.082  -7.744 -12.177  1.00  0.00     0.074 A 
ATOM     60  C   UNL     1      -1.256  -1.470 -13.052  1.00  0.00     0.029 A 
ATOM     61  N   UNL     1      -1.382  -3.398 -14.111  1.00  0.00    -0.354 N 
ATOM     62  N   UNL     1      -3.085  -6.910 -12.174  1.00  0.00    -0.248 NA
ATOM     63  C   UNL     1      -1.153  -7.584 -13.286  1.00  0.00     0.031 C 
ATOM     64  C   UNL     1      -2.496  -2.102 -12.751  1.00  0.00     0.029 A 
ATOM     65  C   UNL     1      -2.441  -3.411 -13.237  1.00  0.00     0.049 A 
ATOM     66  H   UNL     1      -1.274  -3.976 -14.902  1.00  0.00     0.167 HD
ATOM     67  C   UNL     1      -2.702  -5.878 -13.020  1.00  0.00     0.074 A 
ATOM     68  C   UNL     1      -1.567  -6.408 -13.767  1.00  0.00     0.031 C 
ATOM     69  C   UNL     1      -3.165  -4.604 -12.841  1.00  0.00     0.031 A 
BRANCH  56  70
ATOM     70  C   UNL     1       1.635  -3.091 -14.977  1.00  0.00    -0.014 A 
ATOM     71  C   UNL     1       1.225  -2.502 -16.186  1.00  0.00     0.010 A 
ATOM     72  C   UNL     1       2.561  -4.154 -15.052  1.00  0.00     0.010 A 
ATOM     73  C   UNL     1       1.698  -2.980 -17.415  1.00  0.00     0.020 A 
ATOM     74  C   UNL     1       3.074  -4.605 -16.266  1.00  0.00     0.020 A 
ATOM     75  C   UNL     1       2.612  -4.036 -17.444  1.00  0.00     0.054 A 
BRANCH  75  76
ATOM     76  S   UNL     1       3.139  -4.715 -19.035  1.00  0.00     0.124 S 
ATOM     77  O   UNL     1       1.922  -5.377 -19.493  1.00  0.00    -0.237 OA
ATOM     78  O   UNL     1       3.527  -3.516 -19.773  1.00  0.00    -0.237 OA
ATOM     79  O   UNL     1       4.242  -5.604 -18.678  1.00  0.00    -0.744 OA
ENDBRANCH  75  76
ENDBRANCH  56  70
BRANCH  57  80
ATOM     80  C   UNL     1      -1.475  -9.994 -11.002  1.00  0.00    -0.014 A 
ATOM     81  C   UNL     1      -2.227 -10.802 -11.871  1.00  0.00     0.010 A 
ATOM     82  C   UNL     1      -0.368 -10.579 -10.349  1.00  0.00     0.010 A 
ATOM     83  C   UNL     1      -1.846 -12.129 -12.128  1.00  0.00     0.020 A 
ATOM     84  C   UNL     1       0.008 -11.903 -10.589  1.00  0.00     0.020 A 
ATOM     85  C   UNL     1      -0.718 -12.664 -11.500  1.00  0.00     0.054 A 
BRANCH  85  86
ATOM     86  S   UNL     1      -0.125 -14.311 -11.980  1.00  0.00     0.124 S 
ATOM     87  O   UNL     1      -1.141 -15.187 -11.403  1.00  0.00    -0.237 OA
ATOM     88  O   UNL     1      -0.113 -14.230 -13.438  1.00  0.00    -0.237 OA
ATOM     89  O   UNL     1       1.195 -14.397 -11.357  1.00  0.00    -0.744 OA
ENDBRANCH  85  86
ENDBRANCH  57  80
BRANCH  69  90
ATOM     90  C   UNL     1      -4.361  -4.400 -11.936  1.00  0.00    -0.014 A 
ATOM     91  C   UNL     1      -4.372  -4.755 -10.573  1.00  0.00     0.010 A 
ATOM     92  C   UNL     1      -5.465  -3.696 -12.451  1.00  0.00     0.010 A 
ATOM     93  C   UNL     1      -5.470  -4.444  -9.758  1.00  0.00     0.020 A 
ATOM     94  C   UNL     1      -6.554  -3.365 -11.639  1.00  0.00     0.020 A 
ATOM     95  C   UNL     1      -6.556  -3.750 -10.298  1.00  0.00     0.054 A 
BRANCH  95  96
ATOM     96  S   UNL     1      -7.950  -3.305  -9.223  1.00  0.00     0.124 S 
ATOM     97  O   UNL     1      -8.585  -4.596  -8.976  1.00  0.00    -0.237 OA
ATOM     98  O   UNL     1      -7.290  -2.696  -8.070  1.00  0.00    -0.237 OA
ATOM     99  O   UNL     1      -8.734  -2.376 -10.037  1.00  0.00    -0.744 OA
ENDBRANCH  95  96
ENDBRANCH  69  90
ENDBRANCH  43  44
ENDBRANCH  36  38
ENDBRANCH  35  36
ENDBRANCH  34  35
ENDBRANCH  33  34
ENDBRANCH  32  33
ENDBRANCH   1  32
TORSDOF 22
