REMARK SMILES CCn1ncc(NC(=O)[C@@H]2CCCC[C@@H]2C(=O)OCCOCCOCCOC(=O)c2ccc(-c3c4nc(c(-c5ccc(S(=O)(=O)[O-])cc5)c5ccc([nH]5)c(-c5ccc(S(=O)(=O)[O-])cc5)c5nc(c(-c6ccc(S(=O)(=O)[O-])cc6)c6ccc3[nH]6)C=C5)C=C4)cc2)c1C(=O)Nc1cnn(C)c1C
REMARK SMILES IDX 22 1 21 2 20 3 19 4 18 5 16 6 17 7 15 8 10 9 11 10 12 11
REMARK SMILES IDX 14 12 13 13 8 14 7 15 9 17 6 18 3 19 4 20 90 21 5 22 2 23
REMARK SMILES IDX 1 24 91 25 92 26 93 27 94 29 95 30 99 31 96 32 97 33 100 34
REMARK SMILES IDX 98 35 23 36 24 37 25 38 26 39 27 40 28 41 29 42 30 43 31 44
REMARK SMILES IDX 89 45 32 46 88 47 33 48 34 49 35 50 82 51 36 52 87 53 81 54
REMARK SMILES IDX 83 55 37 56 86 57 80 58 79 59 38 61 68 62 49 63 67 64 50 65
REMARK SMILES IDX 53 66 66 67 84 68 51 69 52 70 65 72 85 73 54 74 39 75 40 76
REMARK SMILES IDX 48 77 41 78 47 79 42 80 43 81 44 82 45 83 46 84 69 85 70 86
REMARK SMILES IDX 78 87 71 88 77 89 72 90 73 91 74 92 75 93 76 94 55 95 56 96
REMARK SMILES IDX 64 97 57 98 63 99 58 100 59 101 60 102 61 103 62 104
REMARK H PARENT 7 16 93 28 83 60 53 71
REMARK Flexibility Score: inf
ROOT
ATOM      1  C   UNL     1       0.453  -1.835  -7.712  1.00  0.00     0.188 C 
ENDROOT
BRANCH   1   2
ATOM      2  O   UNL     1       0.674  -1.099  -8.912  1.00  0.00    -0.376 OA
BRANCH   2   3
ATOM      3  C   UNL     1       2.030  -0.797  -9.229  1.00  0.00     0.202 C 
BRANCH   3   4
ATOM      4  C   UNL     1       2.775   0.171  -8.291  1.00  0.00     0.261 C 
BRANCH   4   5
ATOM      5  O   UNL     1       2.737  -0.161  -6.887  1.00  0.00    -0.463 OA
BRANCH   5   6
ATOM      6  C   UNL     1       1.933   0.606  -6.111  1.00  0.00     0.309 C 
ATOM      7  O   UNL     1       1.238   1.531  -6.518  1.00  0.00    -0.252 OA
BRANCH   6   8
ATOM      8  C   UNL     1       1.986   0.239  -4.629  1.00  0.00     0.111 C 
ATOM      9  C   UNL     1       3.200   0.856  -3.943  1.00  0.00     0.093 C 
ATOM     10  C   UNL     1       4.479   0.074  -4.210  1.00  0.00     0.014 C 
ATOM     11  C   UNL     1       4.325  -1.289  -3.540  1.00  0.00     0.001 C 
ATOM     12  C   UNL     1       1.821  -1.238  -4.261  1.00  0.00     0.016 C 
ATOM     13  C   UNL     1       3.102  -2.045  -4.048  1.00  0.00     0.001 C 
BRANCH   9  14
ATOM     14  C   UNL     1       3.269   2.330  -4.204  1.00  0.00     0.228 C 
ATOM     15  N   UNL     1       2.413   3.173  -3.558  1.00  0.00    -0.322 N 
ATOM     16  H   UNL     1       2.358   4.048  -4.005  1.00  0.00     0.170 HD
ATOM     17  O   UNL     1       4.009   2.790  -5.076  1.00  0.00    -0.274 OA
BRANCH  15  18
ATOM     18  C   UNL     1       1.596   3.118  -2.428  1.00  0.00     0.092 A 
ATOM     19  N   UNL     1       0.616   2.982  -0.457  1.00  0.00    -0.258 N 
ATOM     20  N   UNL     1       0.084   4.093  -1.002  1.00  0.00    -0.178 NA
ATOM     21  C   UNL     1       1.401   2.257  -1.338  1.00  0.00     0.150 A 
ATOM     22  C   UNL     1       0.712   4.197  -2.165  1.00  0.00     0.162 A 
BRANCH  19  23
ATOM     23  C   UNL     1       0.372   2.787   0.965  1.00  0.00     0.142 C 
ATOM     24  C   UNL     1       1.530   2.266   1.802  1.00  0.00     0.029 C 
ENDBRANCH  19  23
BRANCH  21  25
ATOM     25  C   UNL     1       2.014   1.010  -0.951  1.00  0.00     0.276 C 
ATOM     26  O   UNL     1       3.197   0.925  -0.622  1.00  0.00    -0.267 OA
ATOM     27  N   UNL     1       1.256  -0.150  -1.086  1.00  0.00    -0.318 N 
ATOM     28  H   UNL     1       1.188  -0.612  -1.952  1.00  0.00     0.170 HD
BRANCH  27  29
ATOM     29  C   UNL     1       0.597  -0.637   0.039  1.00  0.00     0.082 A 
ATOM     30  C   UNL     1      -0.752  -0.530   0.414  1.00  0.00     0.161 A 
ATOM     31  C   UNL     1       1.206  -1.341   1.060  1.00  0.00     0.059 A 
ATOM     32  N   UNL     1      -0.950  -0.948   1.668  1.00  0.00    -0.179 NA
ATOM     33  N   UNL     1       0.268  -1.370   2.066  1.00  0.00    -0.271 N 
ATOM     34  C   UNL     1       2.598  -1.833   1.224  1.00  0.00     0.068 C 
ATOM     35  C   UNL     1       0.521  -1.523   3.482  1.00  0.00     0.174 C 
ENDBRANCH  27  29
ENDBRANCH  21  25
ENDBRANCH  15  18
ENDBRANCH   9  14
ENDBRANCH   6   8
ENDBRANCH   5   6
ENDBRANCH   4   5
ENDBRANCH   3   4
ENDBRANCH   2   3
ENDBRANCH   1   2
BRANCH   1  36
ATOM     36  C   UNL     1       1.337  -3.073  -7.496  1.00  0.00     0.188 C 
BRANCH  36  37
ATOM     37  O   UNL     1       2.737  -2.806  -7.518  1.00  0.00    -0.376 OA
BRANCH  37  38
ATOM     38  C   UNL     1       3.667  -3.865  -7.293  1.00  0.00     0.202 C 
BRANCH  38  39
ATOM     39  C   UNL     1       3.489  -5.179  -8.046  1.00  0.00     0.261 C 
BRANCH  39  40
ATOM     40  O   UNL     1       2.216  -5.792  -7.896  1.00  0.00    -0.460 OA
BRANCH  40  41
ATOM     41  C   UNL     1       1.635  -5.896  -6.687  1.00  0.00     0.338 C 
ATOM     42  O   UNL     1       2.127  -5.672  -5.590  1.00  0.00    -0.246 OA
BRANCH  41  43
ATOM     43  C   UNL     1       0.248  -6.309  -6.953  1.00  0.00     0.060 A 
ATOM     44  C   UNL     1      -0.471  -6.893  -5.916  1.00  0.00     0.016 A 
ATOM     45  C   UNL     1      -0.242  -6.286  -8.275  1.00  0.00     0.016 A 
ATOM     46  C   UNL     1      -1.530  -7.705  -6.259  1.00  0.00     0.010 A 
ATOM     47  C   UNL     1      -1.284  -7.104  -8.618  1.00  0.00     0.010 A 
ATOM     48  C   UNL     1      -1.832  -7.887  -7.616  1.00  0.00    -0.014 A 
BRANCH  48  49
ATOM     49  C   UNL     1      -2.724  -8.958  -7.978  1.00  0.00     0.031 A 
ATOM     50  C   UNL     1      -4.144  -8.638  -7.795  1.00  0.00     0.074 A 
ATOM     51  C   UNL     1      -2.285 -10.131  -8.466  1.00  0.00     0.049 A 
ATOM     52  N   UNL     1      -4.885  -8.989  -6.802  1.00  0.00    -0.248 NA
ATOM     53  C   UNL     1      -4.760  -7.673  -8.713  1.00  0.00     0.031 C 
ATOM     54  C   UNL     1      -0.948 -10.480  -8.956  1.00  0.00     0.029 A 
ATOM     55  N   UNL     1      -3.005 -11.257  -8.699  1.00  0.00    -0.354 N 
ATOM     56  C   UNL     1      -6.140  -8.477  -7.085  1.00  0.00     0.074 A 
ATOM     57  C   UNL     1      -5.955  -7.516  -8.144  1.00  0.00     0.031 C 
ATOM     58  C   UNL     1      -1.015 -11.659  -9.620  1.00  0.00     0.029 A 
ATOM     59  C   UNL     1      -2.354 -12.207  -9.471  1.00  0.00     0.049 A 
ATOM     60  H   UNL     1      -3.915 -11.389  -8.349  1.00  0.00     0.167 HD
ATOM     61  C   UNL     1      -7.265  -9.074  -6.609  1.00  0.00     0.031 A 
ATOM     62  C   UNL     1      -2.913 -13.328  -9.990  1.00  0.00     0.031 A 
ATOM     63  C   UNL     1      -6.966 -10.046  -5.588  1.00  0.00     0.049 A 
ATOM     64  C   UNL     1      -4.120 -13.632  -9.180  1.00  0.00     0.074 A 
ATOM     65  C   UNL     1      -6.367  -9.998  -4.345  1.00  0.00     0.029 A 
ATOM     66  N   UNL     1      -6.946 -11.367  -5.975  1.00  0.00    -0.354 N 
ATOM     67  N   UNL     1      -4.069 -14.013  -7.934  1.00  0.00    -0.248 NA
ATOM     68  C   UNL     1      -5.402 -13.094  -9.610  1.00  0.00     0.031 C 
ATOM     69  C   UNL     1      -5.628 -11.212  -4.240  1.00  0.00     0.029 A 
ATOM     70  C   UNL     1      -5.856 -11.964  -5.395  1.00  0.00     0.049 A 
ATOM     71  H   UNL     1      -7.600 -11.806  -6.566  1.00  0.00     0.167 HD
ATOM     72  C   UNL     1      -5.140 -13.377  -7.320  1.00  0.00     0.074 A 
ATOM     73  C   UNL     1      -5.984 -12.917  -8.419  1.00  0.00     0.031 C 
ATOM     74  C   UNL     1      -5.099 -13.045  -5.995  1.00  0.00     0.031 A 
BRANCH  61  75
ATOM     75  C   UNL     1      -8.572  -9.070  -7.352  1.00  0.00    -0.014 A 
ATOM     76  C   UNL     1      -9.706  -9.624  -6.730  1.00  0.00     0.010 A 
ATOM     77  C   UNL     1      -8.669  -8.782  -8.729  1.00  0.00     0.010 A 
ATOM     78  C   UNL     1     -10.858  -9.926  -7.465  1.00  0.00     0.020 A 
ATOM     79  C   UNL     1      -9.828  -9.032  -9.461  1.00  0.00     0.020 A 
ATOM     80  C   UNL     1     -10.905  -9.635  -8.829  1.00  0.00     0.054 A 
BRANCH  80  81
ATOM     81  S   UNL     1     -12.361 -10.111  -9.788  1.00  0.00     0.124 S 
ATOM     82  O   UNL     1     -12.284 -11.568  -9.744  1.00  0.00    -0.237 OA
ATOM     83  O   UNL     1     -13.447  -9.507  -9.021  1.00  0.00    -0.237 OA
ATOM     84  O   UNL     1     -12.119  -9.509 -11.098  1.00  0.00    -0.744 OA
ENDBRANCH  80  81
ENDBRANCH  61  75
BRANCH  62  85
ATOM     85  C   UNL     1      -2.655 -13.952 -11.310  1.00  0.00    -0.014 A 
ATOM     86  C   UNL     1      -3.182 -15.219 -11.623  1.00  0.00     0.010 A 
ATOM     87  C   UNL     1      -2.141 -13.176 -12.370  1.00  0.00     0.010 A 
ATOM     88  C   UNL     1      -3.264 -15.660 -12.954  1.00  0.00     0.020 A 
ATOM     89  C   UNL     1      -2.211 -13.613 -13.698  1.00  0.00     0.020 A 
ATOM     90  C   UNL     1      -2.799 -14.842 -13.986  1.00  0.00     0.054 A 
BRANCH  90  91
ATOM     91  S   UNL     1      -3.091 -15.329 -15.713  1.00  0.00     0.124 S 
ATOM     92  O   UNL     1      -2.171 -16.450 -15.879  1.00  0.00    -0.237 OA
ATOM     93  O   UNL     1      -4.511 -15.670 -15.711  1.00  0.00    -0.237 OA
ATOM     94  O   UNL     1      -2.748 -14.127 -16.472  1.00  0.00    -0.744 OA
ENDBRANCH  90  91
ENDBRANCH  62  85
BRANCH  74  95
ATOM     95  C   UNL     1      -4.033 -13.678  -5.128  1.00  0.00    -0.014 A 
ATOM     96  C   UNL     1      -2.649 -13.521  -5.339  1.00  0.00     0.010 A 
ATOM     97  C   UNL     1      -4.461 -14.343  -3.965  1.00  0.00     0.010 A 
ATOM     98  C   UNL     1      -1.722 -14.039  -4.421  1.00  0.00     0.020 A 
ATOM     99  C   UNL     1      -3.544 -14.842  -3.037  1.00  0.00     0.020 A 
ATOM    100  C   UNL     1      -2.177 -14.696  -3.274  1.00  0.00     0.054 A 
BRANCH 100 101
ATOM    101  S   UNL     1      -0.977 -15.316  -2.061  1.00  0.00     0.124 S 
ATOM    102  O   UNL     1      -0.350 -16.426  -2.774  1.00  0.00    -0.237 OA
ATOM    103  O   UNL     1      -0.121 -14.155  -1.827  1.00  0.00    -0.237 OA
ATOM    104  O   UNL     1      -1.804 -15.704  -0.919  1.00  0.00    -0.744 OA
ENDBRANCH 100 101
ENDBRANCH  74  95
ENDBRANCH  48  49
ENDBRANCH  41  43
ENDBRANCH  40  41
ENDBRANCH  39  40
ENDBRANCH  38  39
ENDBRANCH  37  38
ENDBRANCH  36  37
ENDBRANCH   1  36
TORSDOF 25
