REMARK SMILES CS(=O)(=O)Nc1ccc(-c2cc(Cl)cc3c2O[C@H](C(F)(F)F)C(C(=O)OCCOCCOCCOC(=O)c2ccc(-c4c5nc(c(-c6ccc(S(=O)(=O)[O-])cc6)c6ccc([nH]6)c(-c6ccc(S(=O)(=O)[O-])cc6)c6nc(c(-c7ccc(S(=O)(=O)[O-])cc7)c7ccc4[nH]7)C=C6)C=C5)cc2)=C3)cc1
REMARK SMILES IDX 30 1 29 2 28 3 27 4 26 5 24 6 25 7 23 8 10 9 11 10 16 11
REMARK SMILES IDX 12 12 15 13 17 14 13 15 14 16 98 17 18 18 9 19 6 20 7 21
REMARK SMILES IDX 100 22 8 23 99 24 5 25 2 27 1 28 3 29 4 30 19 31 20 32 21 33
REMARK SMILES IDX 22 34 31 35 32 36 33 37 34 38 35 39 36 40 37 41 38 42 39 43
REMARK SMILES IDX 97 44 40 45 96 46 41 47 42 48 43 49 90 50 44 51 95 52 89 53
REMARK SMILES IDX 91 54 45 55 94 56 88 57 87 58 46 60 76 61 57 62 75 63 58 64
REMARK SMILES IDX 61 65 74 66 92 67 59 68 60 69 73 71 93 72 62 73 47 74 48 75
REMARK SMILES IDX 56 76 49 77 55 78 50 79 51 80 52 81 53 82 54 83 77 84 78 85
REMARK SMILES IDX 86 86 79 87 85 88 80 89 81 90 82 91 83 92 84 93 63 94 64 95
REMARK SMILES IDX 72 96 65 97 71 98 66 99 67 100 68 101 69 102 70 103
REMARK H PARENT 5 26 91 59 61 70
REMARK Flexibility Score: inf
ROOT
ATOM      1  C   UNL     1       6.818  -1.895   9.758  1.00  0.00     0.188 C 
ENDROOT
BRANCH   1   2
ATOM      2  O   UNL     1       6.707  -3.031  10.598  1.00  0.00    -0.376 OA
BRANCH   2   3
ATOM      3  C   UNL     1       7.334  -4.222  10.130  1.00  0.00     0.202 C 
BRANCH   3   4
ATOM      4  C   UNL     1       8.825  -4.087   9.790  1.00  0.00     0.261 C 
BRANCH   4   5
ATOM      5  O   UNL     1       9.029  -3.299   8.587  1.00  0.00    -0.460 OA
BRANCH   5   6
ATOM      6  C   UNL     1       9.027  -4.003   7.434  1.00  0.00     0.338 C 
ATOM      7  O   UNL     1       8.997  -5.225   7.374  1.00  0.00    -0.246 OA
BRANCH   6   8
ATOM      8  C   UNL     1       8.952  -3.131   6.228  1.00  0.00     0.087 C 
ATOM      9  C   UNL     1       5.616  -1.000   5.018  1.00  0.00     0.026 A 
ATOM     10  C   UNL     1       4.544  -1.680   5.647  1.00  0.00     0.033 A 
ATOM     11  C   UNL     1       6.855  -1.645   5.118  1.00  0.00     0.135 A 
ATOM     12  C   UNL     1       4.650  -2.975   6.155  1.00  0.00     0.042 A 
ATOM     13  C   UNL     1       6.891  -3.030   5.393  1.00  0.00     0.019 A 
ATOM     14  O   UNL     1       8.090  -0.998   5.175  1.00  0.00    -0.475 OA
ATOM     15  Cl  UNL     1       3.354  -3.719   6.997  1.00  0.00    -0.084 Cl
ATOM     16  C   UNL     1       5.805  -3.692   5.944  1.00  0.00     0.032 A 
ATOM     17  C   UNL     1       8.194  -3.717   5.288  1.00  0.00     0.027 C 
ATOM     18  C   UNL     1       8.951  -1.604   6.264  1.00  0.00     0.316 C 
BRANCH   9  19
ATOM     19  C   UNL     1       5.160   0.073   4.073  1.00  0.00    -0.014 A 
ATOM     20  C   UNL     1       3.118   1.307   2.466  1.00  0.00     0.048 A 
ATOM     21  C   UNL     1       3.383   1.754   3.760  1.00  0.00     0.027 A 
ATOM     22  C   UNL     1       3.963   0.339   1.926  1.00  0.00     0.027 A 
ATOM     23  C   UNL     1       4.407   1.168   4.532  1.00  0.00     0.011 A 
ATOM     24  C   UNL     1       4.974  -0.262   2.715  1.00  0.00     0.011 A 
BRANCH  20  25
ATOM     25  N   UNL     1       1.877   1.691   1.859  1.00  0.00    -0.284 N 
ATOM     26  H   UNL     1       1.062   1.679   2.410  1.00  0.00     0.180 HD
BRANCH  25  27
ATOM     27  S   UNL     1       1.750   2.159   0.254  1.00  0.00     0.229 S 
ATOM     28  C   UNL     1       1.040   0.717  -0.516  1.00  0.00     0.183 C 
ATOM     29  O   UNL     1       3.055   2.389  -0.309  1.00  0.00    -0.207 OA
ATOM     30  O   UNL     1       0.724   3.188   0.224  1.00  0.00    -0.207 OA
ENDBRANCH  25  27
ENDBRANCH  20  25
ENDBRANCH   9  19
BRANCH  18  31
ATOM     31  C   UNL     1      10.404  -1.121   6.190  1.00  0.00     0.430 C 
ATOM     32  F   UNL     1      11.010  -1.489   5.039  1.00  0.00    -0.167 F 
ATOM     33  F   UNL     1      10.501   0.222   6.301  1.00  0.00    -0.167 F 
ATOM     34  F   UNL     1      11.137  -1.647   7.207  1.00  0.00    -0.167 F 
ENDBRANCH  18  31
ENDBRANCH   6   8
ENDBRANCH   5   6
ENDBRANCH   4   5
ENDBRANCH   3   4
ENDBRANCH   2   3
ENDBRANCH   1   2
BRANCH   1  35
ATOM     35  C   UNL     1       7.933  -0.902  10.159  1.00  0.00     0.188 C 
BRANCH  35  36
ATOM     36  O   UNL     1       8.697  -1.123  11.337  1.00  0.00    -0.376 OA
BRANCH  36  37
ATOM     37  C   UNL     1       8.029  -1.454  12.549  1.00  0.00     0.202 C 
BRANCH  37  38
ATOM     38  C   UNL     1       6.930  -0.517  13.066  1.00  0.00     0.261 C 
BRANCH  38  39
ATOM     39  O   UNL     1       5.828  -0.329  12.160  1.00  0.00    -0.460 OA
BRANCH  39  40
ATOM     40  C   UNL     1       5.645   0.944  11.729  1.00  0.00     0.338 C 
ATOM     41  O   UNL     1       6.312   1.922  12.021  1.00  0.00    -0.246 OA
BRANCH  40  42
ATOM     42  C   UNL     1       4.609   0.986  10.677  1.00  0.00     0.060 A 
ATOM     43  C   UNL     1       4.992   1.433   9.411  1.00  0.00     0.016 A 
ATOM     44  C   UNL     1       3.270   0.688  10.939  1.00  0.00     0.016 A 
ATOM     45  C   UNL     1       4.031   1.594   8.414  1.00  0.00     0.010 A 
ATOM     46  C   UNL     1       2.306   0.859   9.930  1.00  0.00     0.010 A 
ATOM     47  C   UNL     1       2.677   1.320   8.658  1.00  0.00    -0.014 A 
BRANCH  47  48
ATOM     48  C   UNL     1       1.664   1.652   7.615  1.00  0.00     0.031 A 
ATOM     49  C   UNL     1       1.246   3.083   7.434  1.00  0.00     0.074 A 
ATOM     50  C   UNL     1       1.142   0.711   6.805  1.00  0.00     0.049 A 
ATOM     51  N   UNL     1       0.451   3.601   6.534  1.00  0.00    -0.248 NA
ATOM     52  C   UNL     1       1.770   4.046   8.413  1.00  0.00     0.031 C 
ATOM     53  C   UNL     1       1.439  -0.711   6.886  1.00  0.00     0.029 A 
ATOM     54  N   UNL     1       0.305   0.811   5.716  1.00  0.00    -0.354 N 
ATOM     55  C   UNL     1       0.302   4.935   6.896  1.00  0.00     0.074 A 
ATOM     56  C   UNL     1       1.149   5.158   8.049  1.00  0.00     0.031 C 
ATOM     57  C   UNL     1       0.921  -1.331   5.810  1.00  0.00     0.029 A 
ATOM     58  C   UNL     1       0.195  -0.363   5.001  1.00  0.00     0.049 A 
ATOM     59  H   UNL     1      -0.168   1.639   5.473  1.00  0.00     0.167 HD
ATOM     60  C   UNL     1      -0.519   5.870   6.361  1.00  0.00     0.031 A 
ATOM     61  C   UNL     1      -0.401  -0.625   3.820  1.00  0.00     0.031 A 
ATOM     62  C   UNL     1      -1.389   5.640   5.238  1.00  0.00     0.049 A 
ATOM     63  C   UNL     1      -1.221   0.458   3.168  1.00  0.00     0.074 A 
ATOM     64  C   UNL     1      -2.278   6.521   4.647  1.00  0.00     0.029 A 
ATOM     65  N   UNL     1      -1.493   4.445   4.545  1.00  0.00    -0.354 N 
ATOM     66  N   UNL     1      -1.315   1.725   3.492  1.00  0.00    -0.248 NA
ATOM     67  C   UNL     1      -2.048   0.064   2.018  1.00  0.00     0.031 C 
ATOM     68  C   UNL     1      -2.958   5.841   3.631  1.00  0.00     0.029 A 
ATOM     69  C   UNL     1      -2.443   4.557   3.544  1.00  0.00     0.049 A 
ATOM     70  H   UNL     1      -0.968   3.634   4.736  1.00  0.00     0.167 HD
ATOM     71  C   UNL     1      -2.257   2.267   2.620  1.00  0.00     0.074 A 
ATOM     72  C   UNL     1      -2.629   1.213   1.698  1.00  0.00     0.031 C 
ATOM     73  C   UNL     1      -2.797   3.511   2.616  1.00  0.00     0.031 A 
BRANCH  60  74
ATOM     74  C   UNL     1      -0.604   7.193   7.074  1.00  0.00    -0.014 A 
ATOM     75  C   UNL     1       0.440   8.132   7.030  1.00  0.00     0.010 A 
ATOM     76  C   UNL     1      -1.765   7.490   7.812  1.00  0.00     0.010 A 
ATOM     77  C   UNL     1       0.344   9.324   7.755  1.00  0.00     0.020 A 
ATOM     78  C   UNL     1      -1.877   8.692   8.513  1.00  0.00     0.020 A 
ATOM     79  C   UNL     1      -0.811   9.592   8.498  1.00  0.00     0.054 A 
BRANCH  79  80
ATOM     80  S   UNL     1      -0.907  11.141   9.437  1.00  0.00     0.124 S 
ATOM     81  O   UNL     1       0.019  10.881  10.537  1.00  0.00    -0.237 OA
ATOM     82  O   UNL     1      -0.462  12.134   8.463  1.00  0.00    -0.237 OA
ATOM     83  O   UNL     1      -2.315  11.230   9.817  1.00  0.00    -0.744 OA
ENDBRANCH  79  80
ENDBRANCH  60  74
BRANCH  61  84
ATOM     84  C   UNL     1      -0.231  -1.942   3.138  1.00  0.00    -0.014 A 
ATOM     85  C   UNL     1       0.522  -2.002   1.952  1.00  0.00     0.010 A 
ATOM     86  C   UNL     1      -0.818  -3.123   3.621  1.00  0.00     0.010 A 
ATOM     87  C   UNL     1       0.645  -3.193   1.231  1.00  0.00     0.020 A 
ATOM     88  C   UNL     1      -0.666  -4.330   2.925  1.00  0.00     0.020 A 
ATOM     89  C   UNL     1       0.043  -4.352   1.720  1.00  0.00     0.054 A 
BRANCH  89  90
ATOM     90  S   UNL     1       0.239  -5.904   0.798  1.00  0.00     0.124 S 
ATOM     91  O   UNL     1      -0.844  -5.812  -0.175  1.00  0.00    -0.237 OA
ATOM     92  O   UNL     1       1.590  -5.787   0.253  1.00  0.00    -0.237 OA
ATOM     93  O   UNL     1       0.078  -6.927   1.829  1.00  0.00    -0.744 OA
ENDBRANCH  89  90
ENDBRANCH  61  84
BRANCH  73  94
ATOM     94  C   UNL     1      -3.851   3.825   1.583  1.00  0.00    -0.014 A 
ATOM     95  C   UNL     1      -5.144   3.278   1.673  1.00  0.00     0.010 A 
ATOM     96  C   UNL     1      -3.577   4.763   0.570  1.00  0.00     0.010 A 
ATOM     97  C   UNL     1      -6.138   3.652   0.762  1.00  0.00     0.020 A 
ATOM     98  C   UNL     1      -4.576   5.161  -0.324  1.00  0.00     0.020 A 
ATOM     99  C   UNL     1      -5.849   4.595  -0.228  1.00  0.00     0.054 A 
BRANCH  99 100
ATOM    100  S   UNL     1      -7.176   5.117  -1.352  1.00  0.00     0.124 S 
ATOM    101  O   UNL     1      -7.308   3.955  -2.227  1.00  0.00    -0.237 OA
ATOM    102  O   UNL     1      -8.296   5.346  -0.442  1.00  0.00    -0.237 OA
ATOM    103  O   UNL     1      -6.642   6.319  -1.987  1.00  0.00    -0.744 OA
ENDBRANCH  99 100
ENDBRANCH  73  94
ENDBRANCH  47  48
ENDBRANCH  40  42
ENDBRANCH  39  40
ENDBRANCH  38  39
ENDBRANCH  37  38
ENDBRANCH  36  37
ENDBRANCH  35  36
ENDBRANCH   1  35
TORSDOF 24
