REMARK SMILES O=C(OCCOCCOCCOC(=O)c1cc2c(c(S(=O)(=O)Nc3cc(C(F)(F)F)ccc3-n3cccn3)c1)CCC2)c1ccc(-c2c3nc(c(-c4ccc(S(=O)(=O)[O-])cc4)c4ccc([nH]4)c(-c4ccc(S(=O)(=O)[O-])cc4)c4nc(c(-c5ccc(S(=O)(=O)[O-])cc5)c5ccc2[nH]5)C=C4)C=C3)cc1
REMARK SMILES IDX 8 1 7 2 6 3 5 4 4 5 3 6 2 7 1 8 43 9 44 10 102 11 45 12
REMARK SMILES IDX 101 13 46 14 47 15 48 16 95 17 49 18 100 19 94 20 96 21
REMARK SMILES IDX 50 22 99 23 93 24 92 25 51 27 81 28 62 29 80 30 63 31 66 32
REMARK SMILES IDX 79 33 97 34 64 35 65 36 78 38 98 39 67 40 52 41 53 42 61 43
REMARK SMILES IDX 54 44 60 45 55 46 56 47 57 48 58 49 59 50 82 51 83 52 91 53
REMARK SMILES IDX 84 54 90 55 85 56 86 57 87 58 88 59 89 60 68 61 69 62 77 63
REMARK SMILES IDX 70 64 76 65 71 66 72 67 73 68 74 69 75 70 9 71 10 72 11 73
REMARK SMILES IDX 12 74 13 75 14 76 15 77 16 78 39 79 17 80 19 81 18 82 42 83
REMARK SMILES IDX 40 84 41 85 20 86 21 87 22 88 23 89 24 91 25 92 33 93 26 94
REMARK SMILES IDX 32 95 31 96 34 97 35 98 38 99 36 100 37 101 27 102 28 103
REMARK SMILES IDX 29 104 30 105
REMARK H PARENT 96 26 66 37 23 90
REMARK Flexibility Score: inf
ROOT
ATOM      1  C   UNL     1       2.209  -1.541   1.758  1.00  0.00     0.188 C 
ENDROOT
BRANCH   1   2
ATOM      2  C   UNL     1       3.185  -1.515   0.555  1.00  0.00     0.188 C 
BRANCH   2   3
ATOM      3  O   UNL     1       4.531  -1.280   0.910  1.00  0.00    -0.376 OA
BRANCH   3   4
ATOM      4  C   UNL     1       5.196  -0.114   0.473  1.00  0.00     0.202 C 
BRANCH   4   5
ATOM      5  C   UNL     1       4.580   1.269   0.727  1.00  0.00     0.261 C 
BRANCH   5   6
ATOM      6  O   UNL     1       3.163   1.306   0.925  1.00  0.00    -0.460 OA
BRANCH   6   7
ATOM      7  C   UNL     1       2.138   1.469   0.067  1.00  0.00     0.338 C 
ATOM      8  O   UNL     1       1.018   1.663   0.540  1.00  0.00    -0.246 OA
BRANCH   7   9
ATOM      9  C   UNL     1       2.245   1.318  -1.413  1.00  0.00     0.060 A 
ATOM     10  C   UNL     1       3.419   1.320  -2.167  1.00  0.00     0.016 A 
ATOM     11  C   UNL     1       1.012   1.203  -2.085  1.00  0.00     0.016 A 
ATOM     12  C   UNL     1       3.357   1.419  -3.549  1.00  0.00     0.010 A 
ATOM     13  C   UNL     1       0.942   1.280  -3.463  1.00  0.00     0.010 A 
ATOM     14  C   UNL     1       2.114   1.488  -4.175  1.00  0.00    -0.014 A 
BRANCH  14  15
ATOM     15  C   UNL     1       2.082   1.779  -5.597  1.00  0.00     0.031 A 
ATOM     16  C   UNL     1       2.632   0.708  -6.464  1.00  0.00     0.074 A 
ATOM     17  C   UNL     1       1.526   2.915  -6.064  1.00  0.00     0.049 A 
ATOM     18  N   UNL     1       3.665   0.763  -7.238  1.00  0.00    -0.248 NA
ATOM     19  C   UNL     1       2.037  -0.634  -6.351  1.00  0.00     0.031 C 
ATOM     20  C   UNL     1       0.737   3.904  -5.319  1.00  0.00     0.029 A 
ATOM     21  N   UNL     1       1.446   3.371  -7.343  1.00  0.00    -0.354 N 
ATOM     22  C   UNL     1       3.729  -0.472  -7.875  1.00  0.00     0.074 A 
ATOM     23  C   UNL     1       2.812  -1.338  -7.176  1.00  0.00     0.031 C 
ATOM     24  C   UNL     1       0.055   4.679  -6.192  1.00  0.00     0.029 A 
ATOM     25  C   UNL     1       0.468   4.339  -7.543  1.00  0.00     0.049 A 
ATOM     26  H   UNL     1       2.030   3.043  -8.064  1.00  0.00     0.167 HD
ATOM     27  C   UNL     1       4.352  -0.632  -9.075  1.00  0.00     0.031 A 
ATOM     28  C   UNL     1      -0.020   4.766  -8.736  1.00  0.00     0.031 A 
ATOM     29  C   UNL     1       5.249   0.454  -9.365  1.00  0.00     0.049 A 
ATOM     30  C   UNL     1       0.974   4.394  -9.773  1.00  0.00     0.074 A 
ATOM     31  C   UNL     1       6.378   0.962  -8.753  1.00  0.00     0.029 A 
ATOM     32  N   UNL     1       4.799   1.438 -10.213  1.00  0.00    -0.354 N 
ATOM     33  N   UNL     1       2.167   4.917  -9.841  1.00  0.00    -0.248 NA
ATOM     34  C   UNL     1       0.820   3.109 -10.437  1.00  0.00     0.031 C 
ATOM     35  C   UNL     1       6.263   2.375  -8.891  1.00  0.00     0.029 A 
ATOM     36  C   UNL     1       5.118   2.645  -9.644  1.00  0.00     0.049 A 
ATOM     37  H   UNL     1       4.334   1.302 -11.070  1.00  0.00     0.167 HD
ATOM     38  C   UNL     1       3.003   3.855 -10.159  1.00  0.00     0.074 A 
ATOM     39  C   UNL     1       2.106   2.788 -10.601  1.00  0.00     0.031 C 
ATOM     40  C   UNL     1       4.313   3.842  -9.772  1.00  0.00     0.031 A 
BRANCH  27  41
ATOM     41  C   UNL     1       3.844  -1.570 -10.141  1.00  0.00    -0.014 A 
ATOM     42  C   UNL     1       4.585  -1.734 -11.328  1.00  0.00     0.010 A 
ATOM     43  C   UNL     1       2.529  -2.081 -10.131  1.00  0.00     0.010 A 
ATOM     44  C   UNL     1       4.016  -2.334 -12.461  1.00  0.00     0.020 A 
ATOM     45  C   UNL     1       1.968  -2.717 -11.239  1.00  0.00     0.020 A 
ATOM     46  C   UNL     1       2.706  -2.812 -12.409  1.00  0.00     0.054 A 
BRANCH  46  47
ATOM     47  S   UNL     1       1.949  -3.504 -13.899  1.00  0.00     0.124 S 
ATOM     48  O   UNL     1       1.877  -2.336 -14.771  1.00  0.00    -0.237 OA
ATOM     49  O   UNL     1       2.914  -4.529 -14.288  1.00  0.00    -0.237 OA
ATOM     50  O   UNL     1       0.664  -4.014 -13.425  1.00  0.00    -0.744 OA
ENDBRANCH  46  47
ENDBRANCH  27  41
BRANCH  28  51
ATOM     51  C   UNL     1      -1.427   5.123  -9.062  1.00  0.00    -0.014 A 
ATOM     52  C   UNL     1      -1.760   5.752 -10.277  1.00  0.00     0.010 A 
ATOM     53  C   UNL     1      -2.484   4.586  -8.297  1.00  0.00     0.010 A 
ATOM     54  C   UNL     1      -3.091   5.787 -10.736  1.00  0.00     0.020 A 
ATOM     55  C   UNL     1      -3.811   4.623  -8.743  1.00  0.00     0.020 A 
ATOM     56  C   UNL     1      -4.106   5.201  -9.975  1.00  0.00     0.054 A 
BRANCH  56  57
ATOM     57  S   UNL     1      -5.788   5.081 -10.656  1.00  0.00     0.124 S 
ATOM     58  O   UNL     1      -6.239   6.468 -10.619  1.00  0.00    -0.237 OA
ATOM     59  O   UNL     1      -5.553   4.527 -11.987  1.00  0.00    -0.237 OA
ATOM     60  O   UNL     1      -6.472   4.181  -9.728  1.00  0.00    -0.744 OA
ENDBRANCH  56  57
ENDBRANCH  28  51
BRANCH  40  61
ATOM     61  C   UNL     1       4.917   5.116  -9.221  1.00  0.00    -0.014 A 
ATOM     62  C   UNL     1       4.460   5.765  -8.055  1.00  0.00     0.010 A 
ATOM     63  C   UNL     1       6.096   5.583  -9.826  1.00  0.00     0.010 A 
ATOM     64  C   UNL     1       5.155   6.867  -7.529  1.00  0.00     0.020 A 
ATOM     65  C   UNL     1       6.802   6.665  -9.297  1.00  0.00     0.020 A 
ATOM     66  C   UNL     1       6.324   7.310  -8.156  1.00  0.00     0.054 A 
BRANCH  66  67
ATOM     67  S   UNL     1       7.246   8.707  -7.453  1.00  0.00     0.124 S 
ATOM     68  O   UNL     1       6.346   9.832  -7.689  1.00  0.00    -0.237 OA
ATOM     69  O   UNL     1       7.413   8.315  -6.055  1.00  0.00    -0.237 OA
ATOM     70  O   UNL     1       8.485   8.733  -8.231  1.00  0.00    -0.744 OA
ENDBRANCH  66  67
ENDBRANCH  40  61
ENDBRANCH  14  15
ENDBRANCH   7   9
ENDBRANCH   6   7
ENDBRANCH   5   6
ENDBRANCH   4   5
ENDBRANCH   3   4
ENDBRANCH   2   3
ENDBRANCH   1   2
BRANCH   1  71
ATOM     71  O   UNL     1       2.667  -1.612   3.108  1.00  0.00    -0.376 OA
BRANCH  71  72
ATOM     72  C   UNL     1       3.966  -2.087   3.403  1.00  0.00     0.202 C 
BRANCH  72  73
ATOM     73  C   UNL     1       4.271  -3.563   3.108  1.00  0.00     0.261 C 
BRANCH  73  74
ATOM     74  O   UNL     1       3.894  -4.049   1.807  1.00  0.00    -0.460 OA
BRANCH  74  75
ATOM     75  C   UNL     1       2.715  -4.700   1.711  1.00  0.00     0.338 C 
ATOM     76  O   UNL     1       1.903  -4.920   2.614  1.00  0.00    -0.246 OA
BRANCH  75  77
ATOM     77  C   UNL     1       2.494  -5.130   0.317  1.00  0.00     0.061 A 
ATOM     78  C   UNL     1       3.380  -6.058  -0.219  1.00  0.00     0.019 A 
ATOM     79  C   UNL     1       1.383  -4.665  -0.433  1.00  0.00     0.038 A 
ATOM     80  C   UNL     1       3.119  -6.521  -1.492  1.00  0.00    -0.043 A 
ATOM     81  C   UNL     1       1.158  -5.099  -1.762  1.00  0.00     0.092 A 
ATOM     82  C   UNL     1       2.065  -6.011  -2.288  1.00  0.00    -0.024 A 
ATOM     83  C   UNL     1       3.845  -7.628  -2.200  1.00  0.00     0.036 C 
ATOM     84  C   UNL     1       2.186  -6.638  -3.640  1.00  0.00     0.037 C 
ATOM     85  C   UNL     1       2.785  -7.991  -3.238  1.00  0.00     0.010 C 
BRANCH  81  86
ATOM     86  S   UNL     1      -0.110  -4.288  -2.727  1.00  0.00     0.262 S 
ATOM     87  O   UNL     1      -0.785  -3.367  -1.830  1.00  0.00    -0.201 OA
ATOM     88  O   UNL     1       0.537  -3.771  -3.913  1.00  0.00    -0.201 OA
BRANCH  86  89
ATOM     89  N   UNL     1      -1.365  -5.306  -3.296  1.00  0.00    -0.277 N 
ATOM     90  H   UNL     1      -2.253  -4.908  -3.444  1.00  0.00     0.180 HD
BRANCH  89  91
ATOM     91  C   UNL     1      -1.196  -6.706  -3.568  1.00  0.00     0.075 A 
ATOM     92  C   UNL     1      -1.025  -7.114  -4.906  1.00  0.00     0.042 A 
ATOM     93  C   UNL     1      -1.100  -7.662  -2.547  1.00  0.00     0.089 A 
ATOM     94  C   UNL     1      -0.657  -8.440  -5.219  1.00  0.00     0.058 A 
ATOM     95  C   UNL     1      -0.759  -8.989  -2.854  1.00  0.00     0.031 A 
ATOM     96  C   UNL     1      -0.541  -9.373  -4.179  1.00  0.00     0.015 A 
BRANCH  93  97
ATOM     97  N   UNL     1      -1.295  -7.314  -1.191  1.00  0.00    -0.239 N 
ATOM     98  C   UNL     1      -2.145  -6.364  -0.673  1.00  0.00     0.115 A 
ATOM     99  N   UNL     1      -0.516  -7.861  -0.223  1.00  0.00    -0.177 NA
ATOM    100  C   UNL     1      -1.749  -6.142   0.623  1.00  0.00     0.042 A 
ATOM    101  C   UNL     1      -0.714  -7.066   0.833  1.00  0.00     0.135 A 
ENDBRANCH  93  97
BRANCH  94 102
ATOM    102  C   UNL     1      -0.307  -8.826  -6.641  1.00  0.00     0.416 C 
ATOM    103  F   UNL     1      -1.399  -8.924  -7.442  1.00  0.00    -0.166 F 
ATOM    104  F   UNL     1       0.526  -7.925  -7.227  1.00  0.00    -0.166 F 
ATOM    105  F   UNL     1       0.332 -10.028  -6.724  1.00  0.00    -0.166 F 
ENDBRANCH  94 102
ENDBRANCH  89  91
ENDBRANCH  86  89
ENDBRANCH  81  86
ENDBRANCH  75  77
ENDBRANCH  74  75
ENDBRANCH  73  74
ENDBRANCH  72  73
ENDBRANCH  71  72
ENDBRANCH   1  71
TORSDOF 25
