REMARK SMILES Cc1ccc(C(=O)N[C@@H]2C=C[C@H](C(=O)OCCOCCOCCOC(=O)c3ccc(-c4c5nc(c(-c6ccc(S(=O)(=O)[O-])cc6)c6ccc([nH]6)c(-c6ccc(S(=O)(=O)[O-])cc6)c6nc(c(-c7ccc(S(=O)(=O)[O-])cc7)c7ccc4[nH]7)C=C6)C=C5)cc3)C2)c(F)c1
REMARK SMILES IDX 20 1 19 2 18 3 17 4 16 5 15 6 13 7 14 8 12 9 9 10 10 11
REMARK SMILES IDX 87 12 11 13 8 14 6 15 7 16 5 18 1 19 2 20 3 21 90 22 4 23
REMARK SMILES IDX 88 24 89 25 21 26 22 27 23 28 24 29 25 30 26 31 27 32 28 33
REMARK SMILES IDX 86 34 29 35 85 36 30 37 31 38 32 39 79 40 33 41 84 42 78 43
REMARK SMILES IDX 80 44 34 45 83 46 77 47 76 48 35 50 65 51 46 52 64 53 47 54
REMARK SMILES IDX 50 55 63 56 81 57 48 58 49 59 62 61 82 62 51 63 36 64 37 65
REMARK SMILES IDX 45 66 38 67 44 68 39 69 40 70 41 71 42 72 43 73 66 74 67 75
REMARK SMILES IDX 75 76 68 77 74 78 69 79 70 80 71 81 72 82 73 83 52 84 53 85
REMARK SMILES IDX 61 86 54 87 60 88 55 89 56 90 57 91 58 92 59 93
REMARK H PARENT 8 17 80 49 50 60
REMARK Flexibility Score: inf
ROOT
ATOM      1  C   UNL     1       2.023  -8.620  -0.219  1.00  0.00     0.188 C 
ENDROOT
BRANCH   1   2
ATOM      2  C   UNL     1       2.611  -7.379  -0.902  1.00  0.00     0.188 C 
BRANCH   2   3
ATOM      3  O   UNL     1       3.990  -7.075  -0.699  1.00  0.00    -0.376 OA
BRANCH   3   4
ATOM      4  C   UNL     1       4.618  -7.563   0.473  1.00  0.00     0.202 C 
BRANCH   4   5
ATOM      5  C   UNL     1       4.413  -6.733   1.739  1.00  0.00     0.261 C 
BRANCH   5   6
ATOM      6  O   UNL     1       3.053  -6.343   1.990  1.00  0.00    -0.463 OA
BRANCH   6   7
ATOM      7  C   UNL     1       2.828  -4.993   1.919  1.00  0.00     0.312 C 
ATOM      8  O   UNL     1       3.644  -4.172   1.523  1.00  0.00    -0.252 OA
BRANCH   7   9
ATOM      9  C   UNL     1       1.502  -4.638   2.589  1.00  0.00     0.124 C 
ATOM     10  C   UNL     1      -0.655  -4.175   1.464  1.00  0.00     0.106 C 
ATOM     11  C   UNL     1       0.055  -2.927   1.853  1.00  0.00    -0.006 C 
ATOM     12  C   UNL     1       0.275  -5.300   1.952  1.00  0.00     0.048 C 
ATOM     13  C   UNL     1       1.210  -3.173   2.474  1.00  0.00    -0.014 C 
BRANCH  10  14
ATOM     14  N   UNL     1      -0.883  -4.148   0.039  1.00  0.00    -0.346 N 
ATOM     15  C   UNL     1      -1.549  -5.056  -0.742  1.00  0.00     0.254 C 
ATOM     16  O   UNL     1      -1.769  -4.826  -1.925  1.00  0.00    -0.269 OA
ATOM     17  H   UNL     1      -0.510  -3.371  -0.436  1.00  0.00     0.164 HD
BRANCH  15  18
ATOM     18  C   UNL     1      -1.928  -6.361  -0.181  1.00  0.00     0.075 A 
ATOM     19  C   UNL     1      -2.522 -10.290   1.471  1.00  0.00     0.044 C 
ATOM     20  C   UNL     1      -2.371  -8.919   0.884  1.00  0.00    -0.048 A 
ATOM     21  C   UNL     1      -2.997  -7.796   1.444  1.00  0.00     0.004 A 
ATOM     22  C   UNL     1      -1.592  -8.753  -0.259  1.00  0.00     0.043 A 
ATOM     23  C   UNL     1      -2.795  -6.520   0.900  1.00  0.00     0.017 A 
ATOM     24  C   UNL     1      -1.343  -7.478  -0.756  1.00  0.00     0.136 A 
ATOM     25  F   UNL     1      -0.440  -7.339  -1.736  1.00  0.00    -0.206 F 
ENDBRANCH  15  18
ENDBRANCH  10  14
ENDBRANCH   7   9
ENDBRANCH   6   7
ENDBRANCH   5   6
ENDBRANCH   4   5
ENDBRANCH   3   4
ENDBRANCH   2   3
ENDBRANCH   1   2
BRANCH   1  26
ATOM     26  O   UNL     1       2.757  -9.809  -0.511  1.00  0.00    -0.376 OA
BRANCH  26  27
ATOM     27  C   UNL     1       1.946 -10.903  -0.945  1.00  0.00     0.202 C 
BRANCH  27  28
ATOM     28  C   UNL     1       2.020 -11.046  -2.465  1.00  0.00     0.261 C 
BRANCH  28  29
ATOM     29  O   UNL     1       1.343  -9.982  -3.158  1.00  0.00    -0.460 OA
BRANCH  29  30
ATOM     30  C   UNL     1       0.041 -10.202  -3.463  1.00  0.00     0.338 C 
ATOM     31  O   UNL     1      -0.626 -11.163  -3.114  1.00  0.00    -0.246 OA
BRANCH  30  32
ATOM     32  C   UNL     1      -0.499  -9.025  -4.183  1.00  0.00     0.060 A 
ATOM     33  C   UNL     1      -1.784  -8.585  -3.854  1.00  0.00     0.016 A 
ATOM     34  C   UNL     1       0.255  -8.326  -5.132  1.00  0.00     0.016 A 
ATOM     35  C   UNL     1      -2.271  -7.390  -4.388  1.00  0.00     0.010 A 
ATOM     36  C   UNL     1      -0.277  -7.181  -5.738  1.00  0.00     0.010 A 
ATOM     37  C   UNL     1      -1.540  -6.694  -5.363  1.00  0.00    -0.014 A 
BRANCH  37  38
ATOM     38  C   UNL     1      -2.159  -5.543  -6.078  1.00  0.00     0.031 A 
ATOM     39  C   UNL     1      -3.381  -5.784  -6.929  1.00  0.00     0.074 A 
ATOM     40  C   UNL     1      -1.651  -4.297  -5.982  1.00  0.00     0.049 A 
ATOM     41  N   UNL     1      -4.093  -4.927  -7.615  1.00  0.00    -0.248 NA
ATOM     42  C   UNL     1      -3.886  -7.167  -6.994  1.00  0.00     0.031 C 
ATOM     43  C   UNL     1      -0.536  -3.896  -5.125  1.00  0.00     0.029 A 
ATOM     44  N   UNL     1      -2.010  -3.135  -6.625  1.00  0.00    -0.354 N 
ATOM     45  C   UNL     1      -5.150  -5.656  -8.146  1.00  0.00     0.074 A 
ATOM     46  C   UNL     1      -4.994  -7.022  -7.704  1.00  0.00     0.031 C 
ATOM     47  C   UNL     1      -0.277  -2.590  -5.323  1.00  0.00     0.029 A 
ATOM     48  C   UNL     1      -1.194  -2.065  -6.332  1.00  0.00     0.049 A 
ATOM     49  H   UNL     1      -2.778  -3.073  -7.237  1.00  0.00     0.167 HD
ATOM     50  C   UNL     1      -6.148  -5.242  -8.960  1.00  0.00     0.031 A 
ATOM     51  C   UNL     1      -1.176  -0.814  -6.839  1.00  0.00     0.031 A 
ATOM     52  C   UNL     1      -6.231  -3.929  -9.531  1.00  0.00     0.049 A 
ATOM     53  C   UNL     1      -2.189  -0.431  -7.892  1.00  0.00     0.074 A 
ATOM     54  C   UNL     1      -7.145  -3.448 -10.451  1.00  0.00     0.029 A 
ATOM     55  N   UNL     1      -5.336  -2.903  -9.276  1.00  0.00    -0.354 N 
ATOM     56  N   UNL     1      -3.200  -1.126  -8.358  1.00  0.00    -0.248 NA
ATOM     57  C   UNL     1      -2.053   0.904  -8.495  1.00  0.00     0.031 C 
ATOM     58  C   UNL     1      -6.762  -2.150 -10.804  1.00  0.00     0.029 A 
ATOM     59  C   UNL     1      -5.647  -1.804 -10.057  1.00  0.00     0.049 A 
ATOM     60  H   UNL     1      -4.590  -2.949  -8.635  1.00  0.00     0.167 HD
ATOM     61  C   UNL     1      -3.827  -0.307  -9.292  1.00  0.00     0.074 A 
ATOM     62  C   UNL     1      -3.095   0.942  -9.315  1.00  0.00     0.031 C 
ATOM     63  C   UNL     1      -4.910  -0.567 -10.066  1.00  0.00     0.031 A 
BRANCH  50  64
ATOM     64  C   UNL     1      -7.169  -6.268  -9.354  1.00  0.00    -0.014 A 
ATOM     65  C   UNL     1      -8.202  -6.633  -8.473  1.00  0.00     0.010 A 
ATOM     66  C   UNL     1      -7.087  -6.882 -10.616  1.00  0.00     0.010 A 
ATOM     67  C   UNL     1      -9.123  -7.618  -8.839  1.00  0.00     0.020 A 
ATOM     68  C   UNL     1      -8.013  -7.857 -10.990  1.00  0.00     0.020 A 
ATOM     69  C   UNL     1      -9.017  -8.229 -10.093  1.00  0.00     0.054 A 
BRANCH  69  70
ATOM     70  S   UNL     1     -10.223  -9.506 -10.545  1.00  0.00     0.124 S 
ATOM     71  O   UNL     1      -9.790 -10.634  -9.723  1.00  0.00    -0.237 OA
ATOM     72  O   UNL     1     -11.494  -8.900 -10.159  1.00  0.00    -0.237 OA
ATOM     73  O   UNL     1     -10.028  -9.674 -11.983  1.00  0.00    -0.744 OA
ENDBRANCH  69  70
ENDBRANCH  50  64
BRANCH  51  74
ATOM     74  C   UNL     1      -0.126   0.162  -6.426  1.00  0.00    -0.014 A 
ATOM     75  C   UNL     1      -0.464   1.339  -5.732  1.00  0.00     0.010 A 
ATOM     76  C   UNL     1       1.217  -0.049  -6.789  1.00  0.00     0.010 A 
ATOM     77  C   UNL     1       0.513   2.299  -5.444  1.00  0.00     0.020 A 
ATOM     78  C   UNL     1       2.201   0.895  -6.479  1.00  0.00     0.020 A 
ATOM     79  C   UNL     1       1.839   2.075  -5.826  1.00  0.00     0.054 A 
BRANCH  79  80
ATOM     80  S   UNL     1       3.093   3.330  -5.444  1.00  0.00     0.124 S 
ATOM     81  O   UNL     1       2.830   4.342  -6.463  1.00  0.00    -0.237 OA
ATOM     82  O   UNL     1       2.757   3.712  -4.074  1.00  0.00    -0.237 OA
ATOM     83  O   UNL     1       4.355   2.608  -5.590  1.00  0.00    -0.744 OA
ENDBRANCH  79  80
ENDBRANCH  51  74
BRANCH  63  84
ATOM     84  C   UNL     1      -5.390   0.517 -10.992  1.00  0.00    -0.014 A 
ATOM     85  C   UNL     1      -4.697   0.818 -12.177  1.00  0.00     0.010 A 
ATOM     86  C   UNL     1      -6.602   1.177 -10.718  1.00  0.00     0.010 A 
ATOM     87  C   UNL     1      -5.200   1.772 -13.066  1.00  0.00     0.020 A 
ATOM     88  C   UNL     1      -7.120   2.113 -11.615  1.00  0.00     0.020 A 
ATOM     89  C   UNL     1      -6.411   2.412 -12.781  1.00  0.00     0.054 A 
BRANCH  89  90
ATOM     90  S   UNL     1      -7.085   3.592 -13.983  1.00  0.00     0.124 S 
ATOM     91  O   UNL     1      -6.261   4.774 -13.744  1.00  0.00    -0.237 OA
ATOM     92  O   UNL     1      -6.861   2.918 -15.259  1.00  0.00    -0.237 OA
ATOM     93  O   UNL     1      -8.487   3.721 -13.593  1.00  0.00    -0.744 OA
ENDBRANCH  89  90
ENDBRANCH  63  84
ENDBRANCH  37  38
ENDBRANCH  30  32
ENDBRANCH  29  30
ENDBRANCH  28  29
ENDBRANCH  27  28
ENDBRANCH  26  27
ENDBRANCH   1  26
TORSDOF 22
