REMARK SMILES Cn1cc(-c2cc(C(F)(F)F)c3c(C4CC4)nn(CC(=O)OCCOCCOCCOC(=O)c4ccc(-c5c6nc(c(-c7ccc(S(=O)(=O)[O-])cc7)c7ccc([nH]7)c(-c7ccc(S(=O)(=O)[O-])cc7)c7nc(c(-c8ccc(S(=O)(=O)[O-])cc8)c8ccc5[nH]8)C=C7)C=C6)cc4)c3n2)cn1
REMARK SMILES IDX 27 1 26 2 25 3 24 4 23 5 22 6 20 7 21 8 19 9 18 10 5 11 6 12
REMARK SMILES IDX 95 13 7 14 94 15 12 16 13 17 17 18 4 19 1 20 2 21 3 22 97 23
REMARK SMILES IDX 96 24 8 25 9 26 10 27 11 28 14 29 15 30 16 31 28 32 29 33
REMARK SMILES IDX 30 34 31 35 32 36 33 37 34 38 35 39 93 40 36 41 92 42 37 43
REMARK SMILES IDX 38 44 39 45 86 46 40 47 91 48 85 49 87 50 41 51 90 52 84 53
REMARK SMILES IDX 83 54 42 56 72 57 53 58 71 59 54 60 57 61 70 62 88 63 55 64
REMARK SMILES IDX 56 65 69 67 89 68 58 69 43 70 44 71 52 72 45 73 51 74 46 75
REMARK SMILES IDX 47 76 48 77 49 78 50 79 73 80 74 81 82 82 75 83 81 84 76 85
REMARK SMILES IDX 77 86 78 87 79 88 80 89 59 90 60 91 68 92 61 93 67 94 62 95
REMARK SMILES IDX 63 96 64 97 65 98 66 99
REMARK H PARENT 87 55 57 66
REMARK Flexibility Score: inf
ROOT
ATOM      1  C   UNL     1      -4.935  -2.171   0.220  1.00  0.00     0.188 C 
ENDROOT
BRANCH   1   2
ATOM      2  C   UNL     1      -4.976  -0.670  -0.081  1.00  0.00     0.188 C 
BRANCH   2   3
ATOM      3  O   UNL     1      -6.003  -0.253  -0.986  1.00  0.00    -0.376 OA
BRANCH   3   4
ATOM      4  C   UNL     1      -6.193  -1.048  -2.156  1.00  0.00     0.202 C 
BRANCH   4   5
ATOM      5  C   UNL     1      -5.080  -0.993  -3.222  1.00  0.00     0.261 C 
BRANCH   5   6
ATOM      6  O   UNL     1      -3.742  -1.359  -2.801  1.00  0.00    -0.462 OA
BRANCH   6   7
ATOM      7  C   UNL     1      -2.910  -0.331  -2.531  1.00  0.00     0.327 C 
ATOM      8  O   UNL     1      -3.232   0.851  -2.674  1.00  0.00    -0.250 OA
BRANCH   7   9
ATOM      9  C   UNL     1      -1.508  -0.663  -2.141  1.00  0.00     0.269 C 
BRANCH   9  10
ATOM     10  N   UNL     1      -1.104  -1.936  -1.542  1.00  0.00    -0.236 N 
ATOM     11  C   UNL     1       2.107  -1.366  -0.547  1.00  0.00     0.077 A 
ATOM     12  C   UNL     1       2.514  -2.607  -0.063  1.00  0.00     0.043 A 
ATOM     13  N   UNL     1       1.232  -1.300  -1.585  1.00  0.00    -0.228 NA
ATOM     14  C   UNL     1       1.696  -3.725  -0.334  1.00  0.00     0.071 A 
ATOM     15  C   UNL     1       0.243  -2.196  -1.382  1.00  0.00     0.159 A 
ATOM     16  C   UNL     1       0.371  -3.354  -0.635  1.00  0.00     0.055 A 
ATOM     17  C   UNL     1      -0.899  -3.407   0.001  1.00  0.00     0.076 A 
ATOM     18  N   UNL     1      -1.807  -2.593  -0.587  1.00  0.00    -0.174 NA
BRANCH  11  19
ATOM     19  C   UNL     1       1.778  -0.269   0.392  1.00  0.00     0.038 A 
ATOM     20  C   UNL     1      -1.377   0.861   1.568  1.00  0.00     0.173 C 
ATOM     21  N   UNL     1       0.046   0.749   1.315  1.00  0.00    -0.275 N 
ATOM     22  C   UNL     1       0.746  -0.428   1.311  1.00  0.00     0.118 A 
ATOM     23  N   UNL     1       0.717   1.750   0.717  1.00  0.00    -0.181 NA
ATOM     24  C   UNL     1       1.726   1.118   0.100  1.00  0.00     0.145 A 
ENDBRANCH  11  19
BRANCH  14  25
ATOM     25  C   UNL     1       2.238  -5.105  -0.570  1.00  0.00     0.417 C 
ATOM     26  F   UNL     1       1.837  -6.057   0.304  1.00  0.00    -0.166 F 
ATOM     27  F   UNL     1       1.880  -5.574  -1.803  1.00  0.00    -0.166 F 
ATOM     28  F   UNL     1       3.601  -5.146  -0.558  1.00  0.00    -0.166 F 
ENDBRANCH  14  25
BRANCH  17  29
ATOM     29  C   UNL     1      -1.245  -4.052   1.349  1.00  0.00     0.041 C 
ATOM     30  C   UNL     1      -0.424  -5.118   2.031  1.00  0.00     0.011 C 
ATOM     31  C   UNL     1      -0.461  -3.756   2.621  1.00  0.00     0.011 C 
ENDBRANCH  17  29
ENDBRANCH   9  10
ENDBRANCH   7   9
ENDBRANCH   6   7
ENDBRANCH   5   6
ENDBRANCH   4   5
ENDBRANCH   3   4
ENDBRANCH   2   3
ENDBRANCH   1   2
BRANCH   1  32
ATOM     32  O   UNL     1      -4.776  -2.934  -0.971  1.00  0.00    -0.376 OA
BRANCH  32  33
ATOM     33  C   UNL     1      -4.729  -4.353  -0.954  1.00  0.00     0.202 C 
BRANCH  33  34
ATOM     34  C   UNL     1      -5.846  -5.095  -0.220  1.00  0.00     0.261 C 
BRANCH  34  35
ATOM     35  O   UNL     1      -6.081  -4.568   1.073  1.00  0.00    -0.460 OA
BRANCH  35  36
ATOM     36  C   UNL     1      -5.039  -4.655   1.913  1.00  0.00     0.338 C 
ATOM     37  O   UNL     1      -4.041  -5.358   1.772  1.00  0.00    -0.246 OA
BRANCH  36  38
ATOM     38  C   UNL     1      -5.299  -3.782   3.063  1.00  0.00     0.060 A 
ATOM     39  C   UNL     1      -4.246  -3.586   3.957  1.00  0.00     0.016 A 
ATOM     40  C   UNL     1      -6.636  -3.667   3.440  1.00  0.00     0.016 A 
ATOM     41  C   UNL     1      -4.524  -3.734   5.290  1.00  0.00     0.010 A 
ATOM     42  C   UNL     1      -6.909  -3.888   4.755  1.00  0.00     0.010 A 
ATOM     43  C   UNL     1      -5.837  -4.048   5.632  1.00  0.00    -0.014 A 
BRANCH  43  44
ATOM     44  C   UNL     1      -6.110  -4.569   6.946  1.00  0.00     0.031 A 
ATOM     45  C   UNL     1      -6.439  -3.494   7.897  1.00  0.00     0.074 A 
ATOM     46  C   UNL     1      -6.182  -5.894   7.176  1.00  0.00     0.049 A 
ATOM     47  N   UNL     1      -5.661  -2.984   8.792  1.00  0.00    -0.248 NA
ATOM     48  C   UNL     1      -7.671  -2.721   7.650  1.00  0.00     0.031 C 
ATOM     49  C   UNL     1      -6.155  -7.005   6.219  1.00  0.00     0.029 A 
ATOM     50  N   UNL     1      -6.412  -6.526   8.351  1.00  0.00    -0.354 N 
ATOM     51  C   UNL     1      -6.420  -1.984   9.379  1.00  0.00     0.074 A 
ATOM     52  C   UNL     1      -7.483  -1.680   8.458  1.00  0.00     0.031 C 
ATOM     53  C   UNL     1      -6.614  -8.127   6.827  1.00  0.00     0.029 A 
ATOM     54  C   UNL     1      -6.843  -7.843   8.234  1.00  0.00     0.049 A 
ATOM     55  H   UNL     1      -6.283  -6.087   9.223  1.00  0.00     0.167 HD
ATOM     56  C   UNL     1      -6.357  -1.731  10.713  1.00  0.00     0.031 A 
ATOM     57  C   UNL     1      -7.423  -8.576   9.224  1.00  0.00     0.031 A 
ATOM     58  C   UNL     1      -5.213  -2.350  11.325  1.00  0.00     0.049 A 
ATOM     59  C   UNL     1      -7.076  -7.898  10.504  1.00  0.00     0.074 A 
ATOM     60  C   UNL     1      -3.848  -2.245  11.149  1.00  0.00     0.029 A 
ATOM     61  N   UNL     1      -5.428  -3.547  11.970  1.00  0.00    -0.354 N 
ATOM     62  N   UNL     1      -5.857  -7.801  10.960  1.00  0.00    -0.248 NA
ATOM     63  C   UNL     1      -8.013  -6.908  11.019  1.00  0.00     0.031 C 
ATOM     64  C   UNL     1      -3.354  -3.574  11.285  1.00  0.00     0.029 A 
ATOM     65  C   UNL     1      -4.426  -4.411  11.606  1.00  0.00     0.049 A 
ATOM     66  H   UNL     1      -6.171  -3.748  12.584  1.00  0.00     0.167 HD
ATOM     67  C   UNL     1      -5.767  -6.514  11.474  1.00  0.00     0.074 A 
ATOM     68  C   UNL     1      -7.148  -6.037  11.550  1.00  0.00     0.031 C 
ATOM     69  C   UNL     1      -4.575  -5.849  11.513  1.00  0.00     0.031 A 
BRANCH  56  70
ATOM     70  C   UNL     1      -7.566  -1.298  11.493  1.00  0.00    -0.014 A 
ATOM     71  C   UNL     1      -7.404  -0.803  12.796  1.00  0.00     0.010 A 
ATOM     72  C   UNL     1      -8.885  -1.584  11.069  1.00  0.00     0.010 A 
ATOM     73  C   UNL     1      -8.512  -0.616  13.634  1.00  0.00     0.020 A 
ATOM     74  C   UNL     1      -9.996  -1.351  11.872  1.00  0.00     0.020 A 
ATOM     75  C   UNL     1      -9.800  -0.889  13.163  1.00  0.00     0.054 A 
BRANCH  75  76
ATOM     76  S   UNL     1     -11.211  -0.725  14.280  1.00  0.00     0.124 S 
ATOM     77  O   UNL     1     -10.842  -1.623  15.369  1.00  0.00    -0.237 OA
ATOM     78  O   UNL     1     -11.184   0.701  14.593  1.00  0.00    -0.237 OA
ATOM     79  O   UNL     1     -12.345  -1.159  13.467  1.00  0.00    -0.744 OA
ENDBRANCH  75  76
ENDBRANCH  56  70
BRANCH  57  80
ATOM     80  C   UNL     1      -8.570  -9.527   9.121  1.00  0.00    -0.014 A 
ATOM     81  C   UNL     1      -9.024 -10.228  10.259  1.00  0.00     0.010 A 
ATOM     82  C   UNL     1      -9.413  -9.521   7.992  1.00  0.00     0.010 A 
ATOM     83  C   UNL     1     -10.304 -10.812  10.298  1.00  0.00     0.020 A 
ATOM     84  C   UNL     1     -10.687 -10.108   8.019  1.00  0.00     0.020 A 
ATOM     85  C   UNL     1     -11.142 -10.717   9.185  1.00  0.00     0.054 A 
BRANCH  85  86
ATOM     86  S   UNL     1     -12.862 -11.296   9.307  1.00  0.00     0.124 S 
ATOM     87  O   UNL     1     -12.699 -12.708   9.640  1.00  0.00    -0.237 OA
ATOM     88  O   UNL     1     -13.399 -10.453  10.371  1.00  0.00    -0.237 OA
ATOM     89  O   UNL     1     -13.409 -11.035   7.976  1.00  0.00    -0.744 OA
ENDBRANCH  85  86
ENDBRANCH  57  80
BRANCH  69  90
ATOM     90  C   UNL     1      -3.308  -6.626  11.233  1.00  0.00    -0.014 A 
ATOM     91  C   UNL     1      -2.958  -7.133   9.964  1.00  0.00     0.010 A 
ATOM     92  C   UNL     1      -2.352  -6.670  12.261  1.00  0.00     0.010 A 
ATOM     93  C   UNL     1      -1.676  -7.664   9.736  1.00  0.00     0.020 A 
ATOM     94  C   UNL     1      -1.073  -7.184  12.036  1.00  0.00     0.020 A 
ATOM     95  C   UNL     1      -0.738  -7.673  10.774  1.00  0.00     0.054 A 
BRANCH  95  96
ATOM     96  S   UNL     1       0.940  -8.297  10.463  1.00  0.00     0.124 S 
ATOM     97  O   UNL     1       0.699  -9.665  10.013  1.00  0.00    -0.237 OA
ATOM     98  O   UNL     1       1.437  -7.378   9.442  1.00  0.00    -0.237 OA
ATOM     99  O   UNL     1       1.601  -8.184  11.763  1.00  0.00    -0.744 OA
ENDBRANCH  95  96
ENDBRANCH  69  90
ENDBRANCH  43  44
ENDBRANCH  36  38
ENDBRANCH  35  36
ENDBRANCH  34  35
ENDBRANCH  33  34
ENDBRANCH  32  33
ENDBRANCH   1  32
TORSDOF 24
