REMARK SMILES COC(=O)[C@@H]([NH2+]CC(C)(C)C(=O)OCCOCCOCCOC(=O)c1ccc(-c2c3nc(c(-c4ccc(S(=O)(=O)[O-])cc4)c4ccc([nH]4)c(-c4ccc(S(=O)(=O)[O-])cc4)c4nc(c(-c5ccc(S(=O)(=O)[O-])cc5)c5ccc2[nH]5)C=C4)C=C3)cc1)c1ccccc1
REMARK SMILES IDX 17 1 16 2 15 3 14 4 13 5 11 6 12 7 8 8 9 9 10 10 7 11 6 12
REMARK SMILES IDX 5 15 3 16 4 17 2 18 1 19 85 20 86 21 90 22 87 23 89 24 88 25
REMARK SMILES IDX 18 26 19 27 20 28 21 29 22 30 23 31 24 32 25 33 26 34 84 35
REMARK SMILES IDX 27 36 83 37 28 38 29 39 30 40 77 41 31 42 82 43 76 44 78 45
REMARK SMILES IDX 32 46 81 47 75 48 74 49 33 51 63 52 44 53 62 54 45 55 48 56
REMARK SMILES IDX 61 57 79 58 46 59 47 60 60 62 80 63 49 64 34 65 35 66 43 67
REMARK SMILES IDX 36 68 42 69 37 70 38 71 39 72 40 73 41 74 64 75 65 76 73 77
REMARK SMILES IDX 66 78 72 79 67 80 68 81 69 82 70 83 71 84 50 85 51 86 59 87
REMARK SMILES IDX 52 88 58 89 53 90 54 91 55 92 56 93 57 94
REMARK H PARENT 6 13 6 14 78 50 48 61
REMARK Flexibility Score: inf
ROOT
ATOM      1  C   UNL     1      -1.856   5.133   4.541  1.00  0.00     0.188 C 
ENDROOT
BRANCH   1   2
ATOM      2  O   UNL     1      -1.306   4.907   5.838  1.00  0.00    -0.376 OA
BRANCH   2   3
ATOM      3  C   UNL     1      -0.127   4.099   5.842  1.00  0.00     0.202 C 
BRANCH   3   4
ATOM      4  C   UNL     1       1.117   4.975   5.772  1.00  0.00     0.261 C 
BRANCH   4   5
ATOM      5  O   UNL     1       1.208   5.633   4.495  1.00  0.00    -0.463 OA
BRANCH   5   6
ATOM      6  C   UNL     1       2.025   5.083   3.565  1.00  0.00     0.317 C 
ATOM      7  O   UNL     1       2.650   4.046   3.745  1.00  0.00    -0.251 OA
BRANCH   6   8
ATOM      8  C   UNL     1       2.065   5.897   2.266  1.00  0.00     0.111 C 
ATOM      9  C   UNL     1       3.498   5.822   1.721  1.00  0.00     0.029 C 
ATOM     10  C   UNL     1       1.763   7.404   2.529  1.00  0.00     0.029 C 
BRANCH   8  11
ATOM     11  C   UNL     1       1.008   5.380   1.248  1.00  0.00     0.279 C 
BRANCH  11  12
ATOM     12  N   UNL     1       1.088   4.066   0.598  1.00  0.00    -0.330 N 
ATOM     13  H   UNL     1       0.505   4.109  -0.238  1.00  0.00     0.347 HD
ATOM     14  H   UNL     1       2.086   3.925   0.444  1.00  0.00     0.347 HD
BRANCH  12  15
ATOM     15  C   UNL     1       0.664   2.862   1.369  1.00  0.00     0.324 C 
BRANCH  15  16
ATOM     16  C   UNL     1       1.475   1.644   0.840  1.00  0.00     0.369 C 
ATOM     17  O   UNL     1       2.511   1.248   1.365  1.00  0.00    -0.245 OA
BRANCH  16  18
ATOM     18  O   UNL     1       0.907   1.086  -0.266  1.00  0.00    -0.464 OA
ATOM     19  C   UNL     1       1.422  -0.205  -0.608  1.00  0.00     0.282 C 
ENDBRANCH  16  18
ENDBRANCH  15  16
BRANCH  15  20
ATOM     20  C   UNL     1      -0.842   2.558   1.479  1.00  0.00     0.021 A 
ATOM     21  C   UNL     1      -1.821   3.552   1.481  1.00  0.00     0.010 A 
ATOM     22  C   UNL     1      -1.284   1.245   1.769  1.00  0.00     0.010 A 
ATOM     23  C   UNL     1      -3.135   3.269   1.868  1.00  0.00     0.001 A 
ATOM     24  C   UNL     1      -2.623   0.950   2.047  1.00  0.00     0.001 A 
ATOM     25  C   UNL     1      -3.549   1.973   2.129  1.00  0.00     0.000 A 
ENDBRANCH  15  20
ENDBRANCH  12  15
ENDBRANCH  11  12
ENDBRANCH   8  11
ENDBRANCH   6   8
ENDBRANCH   5   6
ENDBRANCH   4   5
ENDBRANCH   3   4
ENDBRANCH   2   3
ENDBRANCH   1   2
BRANCH   1  26
ATOM     26  C   UNL     1      -1.704   6.571   4.025  1.00  0.00     0.188 C 
BRANCH  26  27
ATOM     27  O   UNL     1      -2.048   7.676   4.853  1.00  0.00    -0.376 OA
BRANCH  27  28
ATOM     28  C   UNL     1      -2.989   7.464   5.889  1.00  0.00     0.202 C 
BRANCH  28  29
ATOM     29  C   UNL     1      -4.459   7.344   5.474  1.00  0.00     0.261 C 
BRANCH  29  30
ATOM     30  O   UNL     1      -4.685   6.681   4.223  1.00  0.00    -0.460 OA
BRANCH  30  31
ATOM     31  C   UNL     1      -4.783   7.502   3.145  1.00  0.00     0.338 C 
ATOM     32  O   UNL     1      -4.661   8.715   3.124  1.00  0.00    -0.246 OA
BRANCH  31  33
ATOM     33  C   UNL     1      -4.966   6.671   1.936  1.00  0.00     0.060 A 
ATOM     34  C   UNL     1      -4.131   6.879   0.829  1.00  0.00     0.016 A 
ATOM     35  C   UNL     1      -5.958   5.687   1.895  1.00  0.00     0.016 A 
ATOM     36  C   UNL     1      -4.275   6.091  -0.321  1.00  0.00     0.010 A 
ATOM     37  C   UNL     1      -6.108   4.909   0.742  1.00  0.00     0.010 A 
ATOM     38  C   UNL     1      -5.275   5.109  -0.378  1.00  0.00    -0.014 A 
BRANCH  38  39
ATOM     39  C   UNL     1      -5.638   4.435  -1.653  1.00  0.00     0.031 A 
ATOM     40  C   UNL     1      -6.794   5.008  -2.420  1.00  0.00     0.074 A 
ATOM     41  C   UNL     1      -5.037   3.314  -2.097  1.00  0.00     0.049 A 
ATOM     42  N   UNL     1      -7.416   4.526  -3.461  1.00  0.00    -0.248 NA
ATOM     43  C   UNL     1      -7.315   6.300  -1.940  1.00  0.00     0.031 C 
ATOM     44  C   UNL     1      -3.855   2.694  -1.515  1.00  0.00     0.029 A 
ATOM     45  N   UNL     1      -5.365   2.475  -3.137  1.00  0.00    -0.354 N 
ATOM     46  C   UNL     1      -8.402   5.455  -3.763  1.00  0.00     0.074 A 
ATOM     47  C   UNL     1      -8.321   6.506  -2.773  1.00  0.00     0.031 C 
ATOM     48  C   UNL     1      -3.595   1.537  -2.149  1.00  0.00     0.029 A 
ATOM     49  C   UNL     1      -4.595   1.333  -3.191  1.00  0.00     0.049 A 
ATOM     50  H   UNL     1      -6.083   2.671  -3.781  1.00  0.00     0.167 HD
ATOM     51  C   UNL     1      -9.290   5.442  -4.781  1.00  0.00     0.031 A 
ATOM     52  C   UNL     1      -4.694   0.242  -3.977  1.00  0.00     0.031 A 
ATOM     53  C   UNL     1      -9.396   4.387  -5.747  1.00  0.00     0.049 A 
ATOM     54  C   UNL     1      -5.771   0.189  -5.031  1.00  0.00     0.074 A 
ATOM     55  C   UNL     1     -10.271   4.285  -6.813  1.00  0.00     0.029 A 
ATOM     56  N   UNL     1      -8.610   3.245  -5.756  1.00  0.00    -0.354 N 
ATOM     57  N   UNL     1      -6.677   1.090  -5.326  1.00  0.00    -0.248 NA
ATOM     58  C   UNL     1      -5.829  -1.018  -5.871  1.00  0.00     0.031 C 
ATOM     59  C   UNL     1     -10.047   3.055  -7.439  1.00  0.00     0.029 A 
ATOM     60  C   UNL     1      -8.996   2.420  -6.796  1.00  0.00     0.049 A 
ATOM     61  H   UNL     1      -7.886   3.051  -5.118  1.00  0.00     0.167 HD
ATOM     62  C   UNL     1      -7.377   0.582  -6.415  1.00  0.00     0.074 A 
ATOM     63  C   UNL     1      -6.800  -0.710  -6.721  1.00  0.00     0.031 C 
ATOM     64  C   UNL     1      -8.397   1.146  -7.107  1.00  0.00     0.031 A 
BRANCH  51  65
ATOM     65  C   UNL     1     -10.238   6.602  -4.861  1.00  0.00    -0.014 A 
ATOM     66  C   UNL     1      -9.787   7.874  -5.258  1.00  0.00     0.010 A 
ATOM     67  C   UNL     1     -11.587   6.423  -4.513  1.00  0.00     0.010 A 
ATOM     68  C   UNL     1     -10.663   8.961  -5.259  1.00  0.00     0.020 A 
ATOM     69  C   UNL     1     -12.472   7.503  -4.538  1.00  0.00     0.020 A 
ATOM     70  C   UNL     1     -11.998   8.769  -4.891  1.00  0.00     0.054 A 
BRANCH  70  71
ATOM     71  S   UNL     1     -13.114  10.197  -4.895  1.00  0.00     0.124 S 
ATOM     72  O   UNL     1     -12.689  10.912  -3.694  1.00  0.00    -0.237 OA
ATOM     73  O   UNL     1     -12.795  10.850  -6.161  1.00  0.00    -0.237 OA
ATOM     74  O   UNL     1     -14.444   9.597  -4.824  1.00  0.00    -0.744 OA
ENDBRANCH  70  71
ENDBRANCH  51  65
BRANCH  52  75
ATOM     75  C   UNL     1      -3.755  -0.902  -3.804  1.00  0.00    -0.014 A 
ATOM     76  C   UNL     1      -2.774  -1.177  -4.773  1.00  0.00     0.010 A 
ATOM     77  C   UNL     1      -3.855  -1.743  -2.680  1.00  0.00     0.010 A 
ATOM     78  C   UNL     1      -1.927  -2.282  -4.634  1.00  0.00     0.020 A 
ATOM     79  C   UNL     1      -2.996  -2.836  -2.526  1.00  0.00     0.020 A 
ATOM     80  C   UNL     1      -2.044  -3.105  -3.510  1.00  0.00     0.054 A 
BRANCH  80  81
ATOM     81  S   UNL     1      -0.907  -4.509  -3.332  1.00  0.00     0.124 S 
ATOM     82  O   UNL     1      -1.403  -5.434  -4.345  1.00  0.00    -0.237 OA
ATOM     83  O   UNL     1       0.391  -3.898  -3.610  1.00  0.00    -0.237 OA
ATOM     84  O   UNL     1      -1.101  -4.932  -1.947  1.00  0.00    -0.744 OA
ENDBRANCH  80  81
ENDBRANCH  52  75
BRANCH  64  85
ATOM     85  C   UNL     1      -8.931   0.415  -8.308  1.00  0.00    -0.014 A 
ATOM     86  C   UNL     1      -9.774  -0.700  -8.170  1.00  0.00     0.010 A 
ATOM     87  C   UNL     1      -8.681   0.936  -9.592  1.00  0.00     0.010 A 
ATOM     88  C   UNL     1     -10.361  -1.281  -9.298  1.00  0.00     0.020 A 
ATOM     89  C   UNL     1      -9.285   0.373 -10.718  1.00  0.00     0.020 A 
ATOM     90  C   UNL     1     -10.121  -0.735 -10.563  1.00  0.00     0.054 A 
BRANCH  90  91
ATOM     91  S   UNL     1     -10.979  -1.440 -11.998  1.00  0.00     0.124 S 
ATOM     92  O   UNL     1     -10.250  -2.688 -12.205  1.00  0.00    -0.237 OA
ATOM     93  O   UNL     1     -12.349  -1.586 -11.513  1.00  0.00    -0.237 OA
ATOM     94  O   UNL     1     -10.798  -0.432 -13.040  1.00  0.00    -0.744 OA
ENDBRANCH  90  91
ENDBRANCH  64  85
ENDBRANCH  38  39
ENDBRANCH  31  33
ENDBRANCH  30  31
ENDBRANCH  29  30
ENDBRANCH  28  29
ENDBRANCH  27  28
ENDBRANCH  26  27
ENDBRANCH   1  26
TORSDOF 26
