REMARK SMILES Cc1cccc(Nc2nc(C)c(CCO)c(OCC(=O)OCCOCCOCCOC(=O)c3ccc(-c4c5nc(c(-c6ccc(S(=O)(=O)[O-])cc6)c6ccc([nH]6)c(-c6ccc(S(=O)(=O)[O-])cc6)c6nc(c(-c7ccc(S(=O)(=O)[O-])cc7)c7ccc4[nH]7)C=C6)C=C5)cc3)n2)c1
REMARK SMILES IDX 25 1 24 2 23 3 22 4 21 5 19 6 20 7 18 8 17 9 16 10 8 11 9 12
REMARK SMILES IDX 93 13 10 14 11 15 12 16 7 17 6 19 1 20 2 21 3 22 94 23 4 24
REMARK SMILES IDX 5 25 13 26 14 27 15 28 26 30 27 31 28 32 29 33 30 34 31 35
REMARK SMILES IDX 32 36 33 37 34 38 92 39 35 40 91 41 36 42 37 43 38 44 85 45
REMARK SMILES IDX 39 46 90 47 84 48 86 49 40 50 89 51 83 52 82 53 41 55 71 56
REMARK SMILES IDX 52 57 70 58 53 59 56 60 69 61 87 62 54 63 55 64 68 66 88 67
REMARK SMILES IDX 57 68 42 69 43 70 51 71 44 72 50 73 45 74 46 75 47 76 48 77
REMARK SMILES IDX 49 78 72 79 73 80 81 81 74 82 80 83 75 84 76 85 77 86 78 87
REMARK SMILES IDX 79 88 58 89 59 90 67 91 60 92 66 93 61 94 62 95 63 96 64 97
REMARK SMILES IDX 65 98
REMARK H PARENT 7 18 15 29 86 54 56 65
REMARK Flexibility Score: inf
ROOT
ATOM      1  C   UNL     1      -8.117   5.787   0.289  1.00  0.00     0.188 C 
ENDROOT
BRANCH   1   2
ATOM      2  O   UNL     1      -8.878   5.996   1.494  1.00  0.00    -0.376 OA
BRANCH   2   3
ATOM      3  C   UNL     1      -8.395   6.027   2.861  1.00  0.00     0.202 C 
BRANCH   3   4
ATOM      4  C   UNL     1      -8.053   4.787   4.018  1.00  0.00     0.261 C 
BRANCH   4   5
ATOM      5  O   UNL     1      -7.008   3.342   3.964  1.00  0.00    -0.461 OA
BRANCH   5   6
ATOM      6  C   UNL     1      -6.941   1.737   3.898  1.00  0.00     0.344 C 
ATOM      7  O   UNL     1      -7.809   0.858   3.764  1.00  0.00    -0.248 OA
BRANCH   6   8
ATOM      8  C   UNL     1      -5.580   1.243   3.737  1.00  0.00     0.353 C 
BRANCH   8   9
ATOM      9  O   UNL     1      -5.162   2.428   3.101  1.00  0.00    -0.465 OA
BRANCH   9  10
ATOM     10  C   UNL     1      -5.119   2.271   1.740  1.00  0.00     0.222 A 
ATOM     11  C   UNL     1      -2.817   1.786   0.029  1.00  0.00     0.230 A 
ATOM     12  N   UNL     1      -3.530   2.362  -1.392  1.00  0.00    -0.218 NA
ATOM     13  N   UNL     1      -3.491   1.714   1.568  1.00  0.00    -0.177 NA
ATOM     14  C   UNL     1      -5.106   2.925  -1.437  1.00  0.00     0.050 A 
ATOM     15  C   UNL     1      -5.429   3.918  -2.525  1.00  0.00     0.067 C 
ATOM     16  C   UNL     1      -6.083   2.933   0.076  1.00  0.00     0.038 A 
BRANCH  11  17
ATOM     17  N   UNL     1      -1.433   1.813   0.010  1.00  0.00    -0.324 N 
ATOM     18  H   UNL     1      -0.980   2.687   0.018  1.00  0.00     0.170 HD
BRANCH  17  19
ATOM     19  C   UNL     1      -0.660   0.671  -0.020  1.00  0.00     0.041 A 
ATOM     20  C   UNL     1       2.994  -0.285  -0.022  1.00  0.00     0.044 C 
ATOM     21  C   UNL     1       1.504  -0.384  -0.025  1.00  0.00    -0.049 A 
ATOM     22  C   UNL     1       0.875  -1.638  -0.043  1.00  0.00     0.003 A 
ATOM     23  C   UNL     1       0.726   0.773  -0.007  1.00  0.00     0.029 A 
ATOM     24  C   UNL     1      -0.510  -1.741  -0.025  1.00  0.00     0.002 A 
ATOM     25  C   UNL     1      -1.269  -0.589   0.006  1.00  0.00     0.026 A 
ENDBRANCH  17  19
ENDBRANCH  11  17
BRANCH  16  26
ATOM     26  C   UNL     1      -7.459   2.157  -0.857  1.00  0.00     0.071 C 
BRANCH  26  27
ATOM     27  C   UNL     1      -7.666   0.584  -1.274  1.00  0.00     0.161 C 
BRANCH  27  28
ATOM     28  O   UNL     1      -6.820  -0.494  -0.851  1.00  0.00    -0.396 OA
ATOM     29  H   UNL     1      -5.953  -0.411  -1.277  1.00  0.00     0.210 HD
ENDBRANCH  27  28
ENDBRANCH  26  27
ENDBRANCH  16  26
ENDBRANCH   9  10
ENDBRANCH   8   9
ENDBRANCH   6   8
ENDBRANCH   5   6
ENDBRANCH   4   5
ENDBRANCH   3   4
ENDBRANCH   2   3
ENDBRANCH   1   2
BRANCH   1  30
ATOM     30  C   UNL     1      -6.795   6.473   0.048  1.00  0.00     0.188 C 
BRANCH  30  31
ATOM     31  O   UNL     1      -6.342   7.082   1.229  1.00  0.00    -0.376 OA
BRANCH  31  32
ATOM     32  C   UNL     1      -4.959   7.314   1.428  1.00  0.00     0.202 C 
BRANCH  32  33
ATOM     33  C   UNL     1      -3.949   6.987   0.278  1.00  0.00     0.261 C 
BRANCH  33  34
ATOM     34  O   UNL     1      -4.007   5.615  -0.285  1.00  0.00    -0.460 OA
BRANCH  34  35
ATOM     35  C   UNL     1      -3.199   4.505  -0.028  1.00  0.00     0.338 C 
ATOM     36  O   UNL     1      -1.988   4.565   0.076  1.00  0.00    -0.246 OA
BRANCH  35  37
ATOM     37  C   UNL     1      -4.247   3.309   0.435  1.00  0.00     0.060 A 
ATOM     38  C   UNL     1      -5.007   1.451   0.141  1.00  0.00     0.016 A 
ATOM     39  C   UNL     1      -5.078   4.375   1.430  1.00  0.00     0.016 A 
ATOM     40  C   UNL     1      -6.656   1.171   1.040  1.00  0.00     0.010 A 
ATOM     41  C   UNL     1      -6.586   4.049   1.886  1.00  0.00     0.010 A 
ATOM     42  C   UNL     1      -7.532   2.578   1.776  1.00  0.00    -0.014 A 
BRANCH  42  43
ATOM     43  C   UNL     1      -9.074   2.743   2.711  1.00  0.00     0.031 A 
ATOM     44  C   UNL     1      -9.242   2.418   4.513  1.00  0.00     0.074 A 
ATOM     45  C   UNL     1     -10.047   3.525   2.129  1.00  0.00     0.049 A 
ATOM     46  N   UNL     1     -10.014   1.511   5.093  1.00  0.00    -0.248 NA
ATOM     47  C   UNL     1      -8.178   2.805   5.754  1.00  0.00     0.031 C 
ATOM     48  C   UNL     1     -11.079   4.399   2.744  1.00  0.00     0.029 A 
ATOM     49  N   UNL     1     -10.254   3.830   0.771  1.00  0.00    -0.354 N 
ATOM     50  C   UNL     1      -9.645   1.575   6.476  1.00  0.00     0.074 A 
ATOM     51  C   UNL     1      -8.247   1.702   6.485  1.00  0.00     0.031 C 
ATOM     52  C   UNL     1     -11.967   4.828   1.817  1.00  0.00     0.029 A 
ATOM     53  C   UNL     1     -11.599   4.208   0.557  1.00  0.00     0.049 A 
ATOM     54  H   UNL     1      -9.563   3.787   0.071  1.00  0.00     0.167 HD
ATOM     55  C   UNL     1     -10.312   2.399   7.378  1.00  0.00     0.031 A 
ATOM     56  C   UNL     1     -12.361   3.386  -0.203  1.00  0.00     0.031 A 
ATOM     57  C   UNL     1     -11.456   2.977   6.694  1.00  0.00     0.049 A 
ATOM     58  C   UNL     1     -13.098   2.504   0.800  1.00  0.00     0.074 A 
ATOM     59  C   UNL     1     -11.854   4.232   6.283  1.00  0.00     0.029 A 
ATOM     60  N   UNL     1     -12.177   2.089   5.929  1.00  0.00    -0.354 N 
ATOM     61  N   UNL     1     -12.718   2.338   2.047  1.00  0.00    -0.248 NA
ATOM     62  C   UNL     1     -14.422   1.955   0.558  1.00  0.00     0.031 C 
ATOM     63  C   UNL     1     -12.848   4.039   5.252  1.00  0.00     0.029 A 
ATOM     64  C   UNL     1     -12.973   2.681   4.991  1.00  0.00     0.049 A 
ATOM     65  H   UNL     1     -12.123   1.113   6.048  1.00  0.00     0.167 HD
ATOM     66  C   UNL     1     -13.748   1.855   2.797  1.00  0.00     0.074 A 
ATOM     67  C   UNL     1     -14.778   1.591   1.803  1.00  0.00     0.031 C 
ATOM     68  C   UNL     1     -13.768   1.768   4.166  1.00  0.00     0.031 A 
BRANCH  55  69
ATOM     69  C   UNL     1      -9.719   2.952   8.717  1.00  0.00    -0.014 A 
ATOM     70  C   UNL     1     -10.575   3.711   9.530  1.00  0.00     0.010 A 
ATOM     71  C   UNL     1      -8.408   2.774   9.255  1.00  0.00     0.010 A 
ATOM     72  C   UNL     1     -10.192   4.187  10.801  1.00  0.00     0.020 A 
ATOM     73  C   UNL     1      -8.002   3.255  10.520  1.00  0.00     0.020 A 
ATOM     74  C   UNL     1      -8.918   3.934  11.303  1.00  0.00     0.054 A 
BRANCH  74  75
ATOM     75  S   UNL     1      -8.520   4.437  12.999  1.00  0.00     0.124 S 
ATOM     76  O   UNL     1      -8.710   5.884  12.949  1.00  0.00    -0.237 OA
ATOM     77  O   UNL     1      -9.507   3.696  13.779  1.00  0.00    -0.237 OA
ATOM     78  O   UNL     1      -7.136   4.002  13.181  1.00  0.00    -0.744 OA
ENDBRANCH  74  75
ENDBRANCH  55  69
BRANCH  56  79
ATOM     79  C   UNL     1     -11.653   3.083  -1.500  1.00  0.00    -0.014 A 
ATOM     80  C   UNL     1     -11.296   4.185  -2.339  1.00  0.00     0.010 A 
ATOM     81  C   UNL     1     -11.041   1.861  -1.780  1.00  0.00     0.010 A 
ATOM     82  C   UNL     1     -10.285   4.098  -3.317  1.00  0.00     0.020 A 
ATOM     83  C   UNL     1     -10.102   1.748  -2.836  1.00  0.00     0.020 A 
ATOM     84  C   UNL     1      -9.684   2.871  -3.562  1.00  0.00     0.054 A 
BRANCH  84  85
ATOM     85  S   UNL     1      -8.264   2.774  -4.722  1.00  0.00     0.124 S 
ATOM     86  O   UNL     1      -8.896   2.282  -5.938  1.00  0.00    -0.237 OA
ATOM     87  O   UNL     1      -7.777   4.152  -4.768  1.00  0.00    -0.237 OA
ATOM     88  O   UNL     1      -7.346   1.845  -4.078  1.00  0.00    -0.744 OA
ENDBRANCH  84  85
ENDBRANCH  56  79
BRANCH  68  89
ATOM     89  C   UNL     1     -14.569   0.692   4.895  1.00  0.00    -0.014 A 
ATOM     90  C   UNL     1     -15.341  -0.260   4.229  1.00  0.00     0.010 A 
ATOM     91  C   UNL     1     -14.471   0.525   6.305  1.00  0.00     0.010 A 
ATOM     92  C   UNL     1     -16.114  -1.184   4.924  1.00  0.00     0.020 A 
ATOM     93  C   UNL     1     -15.128  -0.480   7.003  1.00  0.00     0.020 A 
ATOM     94  C   UNL     1     -16.008  -1.282   6.307  1.00  0.00     0.054 A 
BRANCH  94  95
ATOM     95  S   UNL     1     -17.054  -2.455   7.170  1.00  0.00     0.124 S 
ATOM     96  O   UNL     1     -18.368  -1.833   7.026  1.00  0.00    -0.237 OA
ATOM     97  O   UNL     1     -16.849  -3.679   6.400  1.00  0.00    -0.237 OA
ATOM     98  O   UNL     1     -16.515  -2.474   8.527  1.00  0.00    -0.744 OA
ENDBRANCH  94  95
ENDBRANCH  68  89
ENDBRANCH  42  43
ENDBRANCH  35  37
ENDBRANCH  34  35
ENDBRANCH  33  34
ENDBRANCH  32  33
ENDBRANCH  31  32
ENDBRANCH  30  31
ENDBRANCH   1  30
TORSDOF 27
