REMARK SMILES O=C(OCCOCCOCCOC(=O)[C@@H]1C=C[C@H](NC(=O)[C@@H]2Cc3ccccc3O2)C1)c1ccc(-c2c3nc(c(-c4ccc(S(=O)(=O)[O-])cc4)c4ccc([nH]4)c(-c4ccc(S(=O)(=O)[O-])cc4)c4nc(c(-c5ccc(S(=O)(=O)[O-])cc5)c5ccc2[nH]5)C=C4)C=C3)cc1
REMARK SMILES IDX 7 1 6 2 5 3 4 4 3 5 2 6 1 7 32 8 33 9 91 10 34 11 90 12
REMARK SMILES IDX 35 13 36 14 37 15 84 16 38 17 89 18 83 19 85 20 39 21 88 22
REMARK SMILES IDX 82 23 81 24 40 26 70 27 51 28 69 29 52 30 55 31 68 32 86 33
REMARK SMILES IDX 53 34 54 35 67 37 87 38 56 39 41 40 42 41 50 42 43 43 49 44
REMARK SMILES IDX 44 45 45 46 46 47 47 48 48 49 71 50 72 51 80 52 73 53 79 54
REMARK SMILES IDX 74 55 75 56 76 57 77 58 78 59 57 60 58 61 66 62 59 63 65 64
REMARK SMILES IDX 60 65 61 66 62 67 63 68 64 69 8 70 9 71 10 72 11 73 12 74
REMARK SMILES IDX 13 75 14 76 15 77 16 78 31 79 17 80 18 81 19 82 20 83 21 85
REMARK SMILES IDX 22 86 23 87 30 88 24 89 29 90 25 91 28 92 26 93 27 94
REMARK H PARENT 85 25 55 36 19 84
REMARK Flexibility Score: inf
ROOT
ATOM      1  C   UNL     1       1.324   8.735   1.208  1.00  0.00     0.188 C 
ENDROOT
BRANCH   1   2
ATOM      2  O   UNL     1       0.385   9.806   1.071  1.00  0.00    -0.376 OA
BRANCH   2   3
ATOM      3  C   UNL     1      -0.799   9.435   0.358  1.00  0.00     0.202 C 
BRANCH   3   4
ATOM      4  C   UNL     1      -1.871   8.731   1.212  1.00  0.00     0.261 C 
BRANCH   4   5
ATOM      5  O   UNL     1      -1.329   8.038   2.356  1.00  0.00    -0.460 OA
BRANCH   5   6
ATOM      6  C   UNL     1      -1.167   6.715   2.567  1.00  0.00     0.338 C 
ATOM      7  O   UNL     1      -0.950   6.306   3.707  1.00  0.00    -0.246 OA
BRANCH   6   8
ATOM      8  C   UNL     1      -1.190   5.735   1.452  1.00  0.00     0.060 A 
ATOM      9  C   UNL     1      -0.791   6.030   0.151  1.00  0.00     0.016 A 
ATOM     10  C   UNL     1      -1.526   4.415   1.752  1.00  0.00     0.016 A 
ATOM     11  C   UNL     1      -0.861   5.088  -0.870  1.00  0.00     0.010 A 
ATOM     12  C   UNL     1      -1.495   3.440   0.752  1.00  0.00     0.010 A 
ATOM     13  C   UNL     1      -1.214   3.773  -0.584  1.00  0.00    -0.014 A 
BRANCH  13  14
ATOM     14  C   UNL     1      -1.434   2.796  -1.685  1.00  0.00     0.031 A 
ATOM     15  C   UNL     1      -2.776   2.112  -1.756  1.00  0.00     0.074 A 
ATOM     16  C   UNL     1      -0.495   2.553  -2.625  1.00  0.00     0.049 A 
ATOM     17  N   UNL     1      -3.163   1.116  -2.506  1.00  0.00    -0.248 NA
ATOM     18  C   UNL     1      -3.803   2.574  -0.806  1.00  0.00     0.031 C 
ATOM     19  C   UNL     1       0.839   3.160  -2.685  1.00  0.00     0.029 A 
ATOM     20  N   UNL     1      -0.534   1.753  -3.740  1.00  0.00    -0.354 N 
ATOM     21  C   UNL     1      -4.427   0.774  -2.038  1.00  0.00     0.074 A 
ATOM     22  C   UNL     1      -4.709   1.618  -0.903  1.00  0.00     0.031 C 
ATOM     23  C   UNL     1       1.454   2.774  -3.817  1.00  0.00     0.029 A 
ATOM     24  C   UNL     1       0.591   1.841  -4.531  1.00  0.00     0.049 A 
ATOM     25  H   UNL     1      -1.297   1.169  -3.955  1.00  0.00     0.167 HD
ATOM     26  C   UNL     1      -5.303  -0.129  -2.536  1.00  0.00     0.031 A 
ATOM     27  C   UNL     1       0.880   1.236  -5.701  1.00  0.00     0.031 A 
ATOM     28  C   UNL     1      -5.068  -0.855  -3.749  1.00  0.00     0.049 A 
ATOM     29  C   UNL     1      -0.138   0.287  -6.282  1.00  0.00     0.074 A 
ATOM     30  C   UNL     1      -5.894  -1.755  -4.393  1.00  0.00     0.029 A 
ATOM     31  N   UNL     1      -3.928  -0.715  -4.529  1.00  0.00    -0.354 N 
ATOM     32  N   UNL     1      -1.316  -0.049  -5.808  1.00  0.00    -0.248 NA
ATOM     33  C   UNL     1       0.207  -0.360  -7.555  1.00  0.00     0.031 C 
ATOM     34  C   UNL     1      -5.246  -2.168  -5.563  1.00  0.00     0.029 A 
ATOM     35  C   UNL     1      -4.036  -1.496  -5.662  1.00  0.00     0.049 A 
ATOM     36  H   UNL     1      -3.158  -0.144  -4.307  1.00  0.00     0.167 HD
ATOM     37  C   UNL     1      -1.866  -0.920  -6.741  1.00  0.00     0.074 A 
ATOM     38  C   UNL     1      -0.898  -1.046  -7.813  1.00  0.00     0.031 C 
ATOM     39  C   UNL     1      -3.060  -1.564  -6.719  1.00  0.00     0.031 A 
BRANCH  26  40
ATOM     40  C   UNL     1      -6.572  -0.350  -1.757  1.00  0.00    -0.014 A 
ATOM     41  C   UNL     1      -7.552   0.655  -1.645  1.00  0.00     0.010 A 
ATOM     42  C   UNL     1      -6.752  -1.559  -1.061  1.00  0.00     0.010 A 
ATOM     43  C   UNL     1      -8.637   0.493  -0.781  1.00  0.00     0.020 A 
ATOM     44  C   UNL     1      -7.859  -1.741  -0.226  1.00  0.00     0.020 A 
ATOM     45  C   UNL     1      -8.776  -0.700  -0.065  1.00  0.00     0.054 A 
BRANCH  45  46
ATOM     46  S   UNL     1     -10.174  -0.869   1.074  1.00  0.00     0.124 S 
ATOM     47  O   UNL     1      -9.730  -0.064   2.215  1.00  0.00    -0.237 OA
ATOM     48  O   UNL     1     -11.285  -0.320   0.312  1.00  0.00    -0.237 OA
ATOM     49  O   UNL     1     -10.242  -2.314   1.324  1.00  0.00    -0.744 OA
ENDBRANCH  45  46
ENDBRANCH  26  40
BRANCH  27  50
ATOM     50  C   UNL     1       2.160   1.517  -6.417  1.00  0.00    -0.014 A 
ATOM     51  C   UNL     1       2.153   2.200  -7.649  1.00  0.00     0.010 A 
ATOM     52  C   UNL     1       3.392   1.088  -5.891  1.00  0.00     0.010 A 
ATOM     53  C   UNL     1       3.343   2.419  -8.352  1.00  0.00     0.020 A 
ATOM     54  C   UNL     1       4.588   1.331  -6.578  1.00  0.00     0.020 A 
ATOM     55  C   UNL     1       4.554   1.981  -7.812  1.00  0.00     0.054 A 
BRANCH  55  56
ATOM     56  S   UNL     1       6.089   2.300  -8.729  1.00  0.00     0.124 S 
ATOM     57  O   UNL     1       5.987   1.352  -9.833  1.00  0.00    -0.237 OA
ATOM     58  O   UNL     1       5.953   3.710  -9.089  1.00  0.00    -0.237 OA
ATOM     59  O   UNL     1       7.136   2.014  -7.751  1.00  0.00    -0.744 OA
ENDBRANCH  55  56
ENDBRANCH  27  50
BRANCH  39  60
ATOM     60  C   UNL     1      -3.411  -2.402  -7.914  1.00  0.00    -0.014 A 
ATOM     61  C   UNL     1      -2.807  -3.652  -8.130  1.00  0.00     0.010 A 
ATOM     62  C   UNL     1      -4.421  -1.960  -8.787  1.00  0.00     0.010 A 
ATOM     63  C   UNL     1      -3.192  -4.437  -9.217  1.00  0.00     0.020 A 
ATOM     64  C   UNL     1      -4.827  -2.754  -9.859  1.00  0.00     0.020 A 
ATOM     65  C   UNL     1      -4.201  -3.983 -10.074  1.00  0.00     0.054 A 
BRANCH  65  66
ATOM     66  S   UNL     1      -4.727  -5.048 -11.444  1.00  0.00     0.124 S 
ATOM     67  O   UNL     1      -3.633  -4.877 -12.396  1.00  0.00    -0.237 OA
ATOM     68  O   UNL     1      -4.814  -6.363 -10.813  1.00  0.00    -0.237 OA
ATOM     69  O   UNL     1      -6.007  -4.475 -11.854  1.00  0.00    -0.744 OA
ENDBRANCH  65  66
ENDBRANCH  39  60
ENDBRANCH  13  14
ENDBRANCH   6   8
ENDBRANCH   5   6
ENDBRANCH   4   5
ENDBRANCH   3   4
ENDBRANCH   2   3
ENDBRANCH   1   2
BRANCH   1  70
ATOM     70  C   UNL     1       2.731   9.196   1.591  1.00  0.00     0.188 C 
BRANCH  70  71
ATOM     71  O   UNL     1       3.369  10.227   0.849  1.00  0.00    -0.376 OA
BRANCH  71  72
ATOM     72  C   UNL     1       2.874  10.570  -0.431  1.00  0.00     0.202 C 
BRANCH  72  73
ATOM     73  C   UNL     1       3.001   9.539  -1.562  1.00  0.00     0.261 C 
BRANCH  73  74
ATOM     74  O   UNL     1       3.388   8.213  -1.184  1.00  0.00    -0.463 OA
BRANCH  74  75
ATOM     75  C   UNL     1       4.727   8.043  -1.009  1.00  0.00     0.312 C 
ATOM     76  O   UNL     1       5.544   8.960  -0.991  1.00  0.00    -0.252 OA
BRANCH  75  77
ATOM     77  C   UNL     1       5.144   6.578  -0.973  1.00  0.00     0.124 C 
ATOM     78  C   UNL     1       4.096   5.522  -0.860  1.00  0.00    -0.014 C 
ATOM     79  C   UNL     1       6.075   6.256   0.213  1.00  0.00     0.048 C 
ATOM     80  C   UNL     1       4.258   4.794   0.246  1.00  0.00    -0.006 C 
ATOM     81  C   UNL     1       5.305   5.305   1.156  1.00  0.00     0.106 C 
BRANCH  81  82
ATOM     82  N   UNL     1       4.819   6.028   2.335  1.00  0.00    -0.347 N 
ATOM     83  C   UNL     1       3.983   5.657   3.356  1.00  0.00     0.261 C 
ATOM     84  H   UNL     1       5.156   6.950   2.407  1.00  0.00     0.164 HD
ATOM     85  O   UNL     1       4.388   5.911   4.499  1.00  0.00    -0.271 OA
BRANCH  83  86
ATOM     86  C   UNL     1       2.511   5.241   3.119  1.00  0.00     0.266 C 
ATOM     87  C   UNL     1       1.903   4.474   4.316  1.00  0.00     0.095 C 
ATOM     88  O   UNL     1       2.247   4.525   1.918  1.00  0.00    -0.480 OA
ATOM     89  C   UNL     1       1.399   3.259   3.632  1.00  0.00    -0.002 A 
ATOM     90  C   UNL     1       1.707   3.333   2.291  1.00  0.00     0.123 A 
ATOM     91  C   UNL     1       0.703   2.171   4.125  1.00  0.00     0.008 A 
ATOM     92  C   UNL     1       1.430   2.311   1.406  1.00  0.00     0.047 A 
ATOM     93  C   UNL     1       0.370   1.137   3.240  1.00  0.00     0.001 A 
ATOM     94  C   UNL     1       0.756   1.194   1.892  1.00  0.00     0.004 A 
ENDBRANCH  83  86
ENDBRANCH  81  82
ENDBRANCH  75  77
ENDBRANCH  74  75
ENDBRANCH  73  74
ENDBRANCH  72  73
ENDBRANCH  71  72
ENDBRANCH  70  71
ENDBRANCH   1  70
TORSDOF 22
