REMARK SMILES O=C(NC1(C(=O)OCCOCCOCCOC(=O)c2ccc(-c3c4nc(c(-c5ccc(S(=O)(=O)[O-])cc5)c5ccc([nH]5)c(-c5ccc(S(=O)(=O)[O-])cc5)c5nc(c(-c6ccc(S(=O)(=O)[O-])cc6)c6ccc3[nH]6)C=C5)C=C4)cc2)Cc2ccccc2C1)OCC1c2ccccc2-c2ccccc21
REMARK SMILES IDX 11 1 10 2 9 3 8 4 7 5 5 6 6 7 4 8 79 9 86 10 80 11 85 12
REMARK SMILES IDX 81 13 84 14 82 15 83 16 3 17 1 18 2 19 87 21 88 22 89 23
REMARK SMILES IDX 90 24 101 25 91 26 95 27 96 28 100 29 92 30 94 31 97 32
REMARK SMILES IDX 99 33 93 34 98 35 12 36 13 37 14 38 15 39 16 40 17 41 18 42
REMARK SMILES IDX 19 43 20 44 78 45 21 46 77 47 22 48 23 49 24 50 71 51 25 52
REMARK SMILES IDX 76 53 70 54 72 55 26 56 75 57 69 58 68 59 27 61 57 62 38 63
REMARK SMILES IDX 56 64 39 65 42 66 55 67 73 68 40 69 41 70 54 72 74 73 43 74
REMARK SMILES IDX 28 75 29 76 37 77 30 78 36 79 31 80 32 81 33 82 34 83 35 84
REMARK SMILES IDX 58 85 59 86 67 87 60 88 66 89 61 90 62 91 63 92 64 93 65 94
REMARK SMILES IDX 44 95 45 96 53 97 46 98 52 99 47 100 48 101 49 102 50 103
REMARK SMILES IDX 51 104
REMARK H PARENT 3 20 72 60 42 71
REMARK Flexibility Score: inf
ROOT
ATOM      1  C   UNL     1       3.847  -1.641   3.058  1.00  0.00     0.188 C 
ENDROOT
BRANCH   1   2
ATOM      2  O   UNL     1       4.413  -2.908   3.373  1.00  0.00    -0.376 OA
BRANCH   2   3
ATOM      3  C   UNL     1       5.756  -3.079   2.938  1.00  0.00     0.202 C 
BRANCH   3   4
ATOM      4  C   UNL     1       5.921  -3.423   1.452  1.00  0.00     0.261 C 
BRANCH   4   5
ATOM      5  O   UNL     1       5.552  -2.379   0.518  1.00  0.00    -0.461 OA
BRANCH   5   6
ATOM      6  C   UNL     1       4.853  -2.759  -0.571  1.00  0.00     0.332 C 
ATOM      7  O   UNL     1       4.248  -3.832  -0.615  1.00  0.00    -0.249 OA
BRANCH   6   8
ATOM      8  C   UNL     1       4.779  -1.761  -1.776  1.00  0.00     0.149 C 
ATOM      9  C   UNL     1       5.313  -2.634  -2.976  1.00  0.00     0.076 C 
ATOM     10  C   UNL     1       5.519  -0.434  -2.062  1.00  0.00     0.076 C 
ATOM     11  C   UNL     1       6.695  -2.047  -3.237  1.00  0.00    -0.042 A 
ATOM     12  C   UNL     1       6.718  -0.724  -2.850  1.00  0.00    -0.042 A 
ATOM     13  C   UNL     1       7.869  -2.577  -3.728  1.00  0.00     0.004 A 
ATOM     14  C   UNL     1       7.770   0.158  -3.051  1.00  0.00     0.004 A 
ATOM     15  C   UNL     1       8.997  -1.735  -3.862  1.00  0.00     0.000 A 
ATOM     16  C   UNL     1       8.938  -0.365  -3.560  1.00  0.00     0.000 A 
BRANCH   8  17
ATOM     17  N   UNL     1       3.367  -1.340  -1.665  1.00  0.00    -0.305 N 
ATOM     18  O   UNL     1       1.944   0.235  -0.750  1.00  0.00    -0.225 OA
ATOM     19  C   UNL     1       3.033  -0.339  -0.764  1.00  0.00     0.408 C 
ATOM     20  H   UNL     1       2.674  -1.763  -2.221  1.00  0.00     0.168 HD
BRANCH  19  21
ATOM     21  O   UNL     1       4.057  -0.028   0.086  1.00  0.00    -0.449 OA
BRANCH  21  22
ATOM     22  C   UNL     1       4.545   1.331   0.090  1.00  0.00     0.248 C 
BRANCH  22  23
ATOM     23  C   UNL     1       5.867   1.518   0.922  1.00  0.00     0.088 C 
ATOM     24  C   UNL     1       7.282   0.932   0.616  1.00  0.00    -0.029 A 
ATOM     25  C   UNL     1       6.196   3.012   0.891  1.00  0.00    -0.029 A 
ATOM     26  C   UNL     1       7.775  -0.361   0.550  1.00  0.00     0.005 A 
ATOM     27  C   UNL     1       8.230   1.964   0.565  1.00  0.00    -0.014 A 
ATOM     28  C   UNL     1       7.526   3.212   0.491  1.00  0.00    -0.014 A 
ATOM     29  C   UNL     1       5.331   4.075   1.058  1.00  0.00     0.005 A 
ATOM     30  C   UNL     1       9.147  -0.636   0.622  1.00  0.00     0.000 A 
ATOM     31  C   UNL     1       9.598   1.720   0.699  1.00  0.00     0.009 A 
ATOM     32  C   UNL     1       7.918   4.425  -0.033  1.00  0.00     0.009 A 
ATOM     33  C   UNL     1       5.739   5.316   0.587  1.00  0.00     0.000 A 
ATOM     34  C   UNL     1      10.054   0.404   0.772  1.00  0.00     0.001 A 
ATOM     35  C   UNL     1       6.995   5.472  -0.020  1.00  0.00     0.001 A 
ENDBRANCH  22  23
ENDBRANCH  21  22
ENDBRANCH  19  21
ENDBRANCH   8  17
ENDBRANCH   6   8
ENDBRANCH   5   6
ENDBRANCH   4   5
ENDBRANCH   3   4
ENDBRANCH   2   3
ENDBRANCH   1   2
BRANCH   1  36
ATOM     36  C   UNL     1       4.362  -0.493   3.928  1.00  0.00     0.188 C 
BRANCH  36  37
ATOM     37  O   UNL     1       5.698  -0.106   3.634  1.00  0.00    -0.376 OA
BRANCH  37  38
ATOM     38  C   UNL     1       6.358   0.726   4.589  1.00  0.00     0.202 C 
BRANCH  38  39
ATOM     39  C   UNL     1       5.655   1.964   5.194  1.00  0.00     0.261 C 
BRANCH  39  40
ATOM     40  O   UNL     1       4.223   1.891   5.213  1.00  0.00    -0.460 OA
BRANCH  40  41
ATOM     41  C   UNL     1       3.582   2.901   4.577  1.00  0.00     0.338 C 
ATOM     42  O   UNL     1       4.059   3.948   4.177  1.00  0.00    -0.246 OA
BRANCH  41  43
ATOM     43  C   UNL     1       2.220   2.463   4.221  1.00  0.00     0.060 A 
ATOM     44  C   UNL     1       1.977   2.133   2.883  1.00  0.00     0.016 A 
ATOM     45  C   UNL     1       1.188   2.439   5.149  1.00  0.00     0.016 A 
ATOM     46  C   UNL     1       0.698   1.818   2.438  1.00  0.00     0.010 A 
ATOM     47  C   UNL     1      -0.102   2.133   4.707  1.00  0.00     0.010 A 
ATOM     48  C   UNL     1      -0.359   1.861   3.346  1.00  0.00    -0.014 A 
BRANCH  48  49
ATOM     49  C   UNL     1      -1.763   1.827   2.874  1.00  0.00     0.031 A 
ATOM     50  C   UNL     1      -2.537   3.115   2.905  1.00  0.00     0.074 A 
ATOM     51  C   UNL     1      -2.344   0.687   2.465  1.00  0.00     0.049 A 
ATOM     52  N   UNL     1      -3.825   3.314   2.844  1.00  0.00    -0.248 NA
ATOM     53  C   UNL     1      -1.740   4.347   3.046  1.00  0.00     0.031 C 
ATOM     54  C   UNL     1      -1.665  -0.594   2.271  1.00  0.00     0.029 A 
ATOM     55  N   UNL     1      -3.657   0.421   2.166  1.00  0.00    -0.354 N 
ATOM     56  C   UNL     1      -3.999   4.685   2.998  1.00  0.00     0.074 A 
ATOM     57  C   UNL     1      -2.685   5.269   3.155  1.00  0.00     0.031 C 
ATOM     58  C   UNL     1      -2.575  -1.520   1.920  1.00  0.00     0.029 A 
ATOM     59  C   UNL     1      -3.903  -0.912   1.933  1.00  0.00     0.049 A 
ATOM     60  H   UNL     1      -4.354   1.116   2.123  1.00  0.00     0.167 HD
ATOM     61  C   UNL     1      -5.157   5.386   3.023  1.00  0.00     0.031 A 
ATOM     62  C   UNL     1      -5.072  -1.570   1.807  1.00  0.00     0.031 A 
ATOM     63  C   UNL     1      -6.450   4.776   2.858  1.00  0.00     0.049 A 
ATOM     64  C   UNL     1      -6.357  -0.788   1.927  1.00  0.00     0.074 A 
ATOM     65  C   UNL     1      -7.696   5.375   2.872  1.00  0.00     0.029 A 
ATOM     66  N   UNL     1      -6.658   3.420   2.642  1.00  0.00    -0.354 N 
ATOM     67  N   UNL     1      -6.525   0.499   2.129  1.00  0.00    -0.248 NA
ATOM     68  C   UNL     1      -7.609  -1.546   1.806  1.00  0.00     0.031 C 
ATOM     69  C   UNL     1      -8.660   4.373   2.723  1.00  0.00     0.029 A 
ATOM     70  C   UNL     1      -8.013   3.159   2.543  1.00  0.00     0.049 A 
ATOM     71  H   UNL     1      -5.946   2.744   2.570  1.00  0.00     0.167 HD
ATOM     72  C   UNL     1      -7.900   0.709   2.128  1.00  0.00     0.074 A 
ATOM     73  C   UNL     1      -8.516  -0.583   1.893  1.00  0.00     0.031 C 
ATOM     74  C   UNL     1      -8.595   1.862   2.301  1.00  0.00     0.031 A 
BRANCH  61  75
ATOM     75  C   UNL     1      -5.077   6.864   3.304  1.00  0.00    -0.014 A 
ATOM     76  C   UNL     1      -4.525   7.766   2.377  1.00  0.00     0.010 A 
ATOM     77  C   UNL     1      -5.580   7.362   4.521  1.00  0.00     0.010 A 
ATOM     78  C   UNL     1      -4.440   9.129   2.679  1.00  0.00     0.020 A 
ATOM     79  C   UNL     1      -5.526   8.728   4.814  1.00  0.00     0.020 A 
ATOM     80  C   UNL     1      -4.941   9.601   3.896  1.00  0.00     0.054 A 
BRANCH  80  81
ATOM     81  S   UNL     1      -4.835  11.377   4.253  1.00  0.00     0.124 S 
ATOM     82  O   UNL     1      -3.402  11.557   4.471  1.00  0.00    -0.237 OA
ATOM     83  O   UNL     1      -5.365  11.979   3.032  1.00  0.00    -0.237 OA
ATOM     84  O   UNL     1      -5.671  11.544   5.439  1.00  0.00    -0.744 OA
ENDBRANCH  80  81
ENDBRANCH  61  75
BRANCH  62  85
ATOM     85  C   UNL     1      -5.085  -3.047   1.608  1.00  0.00    -0.014 A 
ATOM     86  C   UNL     1      -5.541  -3.603   0.400  1.00  0.00     0.010 A 
ATOM     87  C   UNL     1      -4.638  -3.911   2.626  1.00  0.00     0.010 A 
ATOM     88  C   UNL     1      -5.563  -4.990   0.218  1.00  0.00     0.020 A 
ATOM     89  C   UNL     1      -4.627  -5.297   2.437  1.00  0.00     0.020 A 
ATOM     90  C   UNL     1      -5.101  -5.828   1.237  1.00  0.00     0.054 A 
BRANCH  90  91
ATOM     91  S   UNL     1      -5.094  -7.621   0.956  1.00  0.00     0.124 S 
ATOM     92  O   UNL     1      -6.518  -7.939   0.984  1.00  0.00    -0.237 OA
ATOM     93  O   UNL     1      -4.446  -7.734  -0.348  1.00  0.00    -0.237 OA
ATOM     94  O   UNL     1      -4.316  -8.142   2.078  1.00  0.00    -0.744 OA
ENDBRANCH  90  91
ENDBRANCH  62  85
BRANCH  74  95
ATOM     95  C   UNL     1     -10.095   1.789   2.188  1.00  0.00    -0.014 A 
ATOM     96  C   UNL     1     -10.879   1.183   3.186  1.00  0.00     0.010 A 
ATOM     97  C   UNL     1     -10.730   2.398   1.090  1.00  0.00     0.010 A 
ATOM     98  C   UNL     1     -12.271   1.160   3.069  1.00  0.00     0.020 A 
ATOM     99  C   UNL     1     -12.123   2.405   0.987  1.00  0.00     0.020 A 
ATOM    100  C   UNL     1     -12.884   1.773   1.971  1.00  0.00     0.054 A 
BRANCH 100 101
ATOM    101  S   UNL     1     -14.694   1.770   1.869  1.00  0.00     0.124 S 
ATOM    102  O   UNL     1     -14.979   0.375   1.546  1.00  0.00    -0.237 OA
ATOM    103  O   UNL     1     -15.090   2.199   3.208  1.00  0.00    -0.237 OA
ATOM    104  O   UNL     1     -14.983   2.727   0.804  1.00  0.00    -0.744 OA
ENDBRANCH 100 101
ENDBRANCH  74  95
ENDBRANCH  48  49
ENDBRANCH  41  43
ENDBRANCH  40  41
ENDBRANCH  39  40
ENDBRANCH  38  39
ENDBRANCH  37  38
ENDBRANCH  36  37
ENDBRANCH   1  36
TORSDOF 24
