REMARK SMILES O=C(OCCOCCOCCOC(=O)c1cc(OC[C@@H]2Cc3cc(F)ccc3O2)cs1)c1ccc(-c2c3nc(c(-c4ccc(S(=O)(=O)[O-])cc4)c4ccc([nH]4)c(-c4ccc(S(=O)(=O)[O-])cc4)c4nc(c(-c5ccc(S(=O)(=O)[O-])cc5)c5ccc2[nH]5)C=C4)C=C3)cc1
REMARK SMILES IDX 7 1 6 2 5 3 4 4 3 5 2 6 1 7 32 8 33 9 91 10 34 11 90 12
REMARK SMILES IDX 35 13 36 14 37 15 84 16 38 17 89 18 83 19 85 20 39 21 88 22
REMARK SMILES IDX 82 23 81 24 40 26 70 27 51 28 69 29 52 30 55 31 68 32 86 33
REMARK SMILES IDX 53 34 54 35 67 37 87 38 56 39 41 40 42 41 50 42 43 43 49 44
REMARK SMILES IDX 44 45 45 46 46 47 47 48 48 49 71 50 72 51 80 52 73 53 79 54
REMARK SMILES IDX 74 55 75 56 76 57 77 58 78 59 57 60 58 61 66 62 59 63 65 64
REMARK SMILES IDX 60 65 61 66 62 67 63 68 64 69 8 70 9 71 10 72 11 73 12 74
REMARK SMILES IDX 13 75 14 76 15 77 16 78 31 79 17 80 30 81 18 82 19 83 20 84
REMARK SMILES IDX 21 85 29 86 22 87 28 88 23 89 27 90 24 91 26 92 25 93
REMARK H PARENT 85 25 55 36
REMARK Flexibility Score: inf
ROOT
ATOM      1  C   UNL     1       2.308  -1.473   0.670  1.00  0.00     0.188 C 
ENDROOT
BRANCH   1   2
ATOM      2  O   UNL     1       3.546  -1.202  -0.004  1.00  0.00    -0.376 OA
BRANCH   2   3
ATOM      3  C   UNL     1       4.575  -0.763   0.881  1.00  0.00     0.202 C 
BRANCH   3   4
ATOM      4  C   UNL     1       4.511   0.729   1.232  1.00  0.00     0.261 C 
BRANCH   4   5
ATOM      5  O   UNL     1       3.190   1.288   1.167  1.00  0.00    -0.460 OA
BRANCH   5   6
ATOM      6  C   UNL     1       2.474   1.732   0.105  1.00  0.00     0.338 C 
ATOM      7  O   UNL     1       1.327   2.123   0.334  1.00  0.00    -0.246 OA
BRANCH   6   8
ATOM      8  C   UNL     1       2.951   1.789  -1.323  1.00  0.00     0.060 A 
ATOM      9  C   UNL     1       2.060   2.359  -2.260  1.00  0.00     0.016 A 
ATOM     10  C   UNL     1       4.181   1.347  -1.812  1.00  0.00     0.016 A 
ATOM     11  C   UNL     1       2.393   2.503  -3.616  1.00  0.00     0.010 A 
ATOM     12  C   UNL     1       4.527   1.508  -3.160  1.00  0.00     0.010 A 
ATOM     13  C   UNL     1       3.641   2.083  -4.074  1.00  0.00    -0.014 A 
BRANCH  13  14
ATOM     14  C   UNL     1       4.109   2.344  -5.455  1.00  0.00     0.031 A 
ATOM     15  C   UNL     1       3.926   1.347  -6.557  1.00  0.00     0.074 A 
ATOM     16  C   UNL     1       4.794   3.478  -5.685  1.00  0.00     0.049 A 
ATOM     17  N   UNL     1       4.410   1.365  -7.774  1.00  0.00    -0.248 NA
ATOM     18  C   UNL     1       3.092   0.180  -6.254  1.00  0.00     0.031 C 
ATOM     19  C   UNL     1       5.011   4.537  -4.700  1.00  0.00     0.029 A 
ATOM     20  N   UNL     1       5.435   3.922  -6.812  1.00  0.00    -0.354 N 
ATOM     21  C   UNL     1       3.990   0.178  -8.367  1.00  0.00     0.074 A 
ATOM     22  C   UNL     1       3.156  -0.487  -7.399  1.00  0.00     0.031 C 
ATOM     23  C   UNL     1       5.730   5.516  -5.270  1.00  0.00     0.029 A 
ATOM     24  C   UNL     1       6.045   5.139  -6.648  1.00  0.00     0.049 A 
ATOM     25  H   UNL     1       5.456   3.416  -7.656  1.00  0.00     0.167 HD
ATOM     26  C   UNL     1       4.308  -0.321  -9.588  1.00  0.00     0.031 A 
ATOM     27  C   UNL     1       6.771   5.880  -7.508  1.00  0.00     0.031 A 
ATOM     28  C   UNL     1       5.104   0.390 -10.554  1.00  0.00     0.049 A 
ATOM     29  C   UNL     1       6.979   5.393  -8.911  1.00  0.00     0.074 A 
ATOM     30  C   UNL     1       5.470  -0.014 -11.827  1.00  0.00     0.029 A 
ATOM     31  N   UNL     1       5.632   1.655 -10.367  1.00  0.00    -0.354 N 
ATOM     32  N   UNL     1       6.627   4.244  -9.434  1.00  0.00    -0.248 NA
ATOM     33  C   UNL     1       7.653   6.301  -9.848  1.00  0.00     0.031 C 
ATOM     34  C   UNL     1       6.268   0.981 -12.388  1.00  0.00     0.029 A 
ATOM     35  C   UNL     1       6.310   2.047 -11.505  1.00  0.00     0.049 A 
ATOM     36  H   UNL     1       5.538   2.194  -9.548  1.00  0.00     0.167 HD
ATOM     37  C   UNL     1       7.025   4.295 -10.763  1.00  0.00     0.074 A 
ATOM     38  C   UNL     1       7.629   5.593 -10.973  1.00  0.00     0.031 C 
ATOM     39  C   UNL     1       6.900   3.342 -11.716  1.00  0.00     0.031 A 
BRANCH  26  40
ATOM     40  C   UNL     1       3.872  -1.716  -9.976  1.00  0.00    -0.014 A 
ATOM     41  C   UNL     1       4.869  -2.680 -10.240  1.00  0.00     0.010 A 
ATOM     42  C   UNL     1       2.533  -2.045 -10.241  1.00  0.00     0.010 A 
ATOM     43  C   UNL     1       4.545  -3.924 -10.786  1.00  0.00     0.020 A 
ATOM     44  C   UNL     1       2.196  -3.311 -10.741  1.00  0.00     0.020 A 
ATOM     45  C   UNL     1       3.205  -4.235 -11.025  1.00  0.00     0.054 A 
BRANCH  45  46
ATOM     46  S   UNL     1       2.801  -5.911 -11.588  1.00  0.00     0.124 S 
ATOM     47  O   UNL     1       3.158  -5.861 -13.001  1.00  0.00    -0.237 OA
ATOM     48  O   UNL     1       3.664  -6.738 -10.744  1.00  0.00    -0.237 OA
ATOM     49  O   UNL     1       1.374  -6.035 -11.302  1.00  0.00    -0.744 OA
ENDBRANCH  45  46
ENDBRANCH  26  40
BRANCH  27  50
ATOM     50  C   UNL     1       7.247   7.208  -7.049  1.00  0.00    -0.014 A 
ATOM     51  C   UNL     1       8.288   7.308  -6.107  1.00  0.00     0.010 A 
ATOM     52  C   UNL     1       6.532   8.361  -7.415  1.00  0.00     0.010 A 
ATOM     53  C   UNL     1       8.556   8.528  -5.484  1.00  0.00     0.020 A 
ATOM     54  C   UNL     1       6.813   9.587  -6.810  1.00  0.00     0.020 A 
ATOM     55  C   UNL     1       7.797   9.653  -5.821  1.00  0.00     0.054 A 
BRANCH  55  56
ATOM     56  S   UNL     1       8.076  11.201  -4.918  1.00  0.00     0.124 S 
ATOM     57  O   UNL     1       7.370  10.944  -3.665  1.00  0.00    -0.237 OA
ATOM     58  O   UNL     1       9.532  11.258  -4.820  1.00  0.00    -0.237 OA
ATOM     59  O   UNL     1       7.472  12.212  -5.781  1.00  0.00    -0.744 OA
ENDBRANCH  55  56
ENDBRANCH  27  50
BRANCH  39  60
ATOM     60  C   UNL     1       7.408   3.617 -13.104  1.00  0.00    -0.014 A 
ATOM     61  C   UNL     1       6.489   3.697 -14.168  1.00  0.00     0.010 A 
ATOM     62  C   UNL     1       8.784   3.568 -13.383  1.00  0.00     0.010 A 
ATOM     63  C   UNL     1       6.934   3.673 -15.491  1.00  0.00     0.020 A 
ATOM     64  C   UNL     1       9.234   3.568 -14.707  1.00  0.00     0.020 A 
ATOM     65  C   UNL     1       8.304   3.590 -15.751  1.00  0.00     0.054 A 
BRANCH  65  66
ATOM     66  S   UNL     1       8.860   3.480 -17.473  1.00  0.00     0.124 S 
ATOM     67  O   UNL     1       8.546   2.095 -17.811  1.00  0.00    -0.237 OA
ATOM     68  O   UNL     1       8.044   4.492 -18.139  1.00  0.00    -0.237 OA
ATOM     69  O   UNL     1      10.285   3.795 -17.393  1.00  0.00    -0.744 OA
ENDBRANCH  65  66
ENDBRANCH  39  60
ENDBRANCH  13  14
ENDBRANCH   6   8
ENDBRANCH   5   6
ENDBRANCH   4   5
ENDBRANCH   3   4
ENDBRANCH   2   3
ENDBRANCH   1   2
BRANCH   1  70
ATOM     70  C   UNL     1       1.837  -2.901   0.415  1.00  0.00     0.188 C 
BRANCH  70  71
ATOM     71  O   UNL     1       2.590  -3.901   1.103  1.00  0.00    -0.376 OA
BRANCH  71  72
ATOM     72  C   UNL     1       3.837  -4.271   0.513  1.00  0.00     0.202 C 
BRANCH  72  73
ATOM     73  C   UNL     1       3.736  -5.288  -0.626  1.00  0.00     0.261 C 
BRANCH  73  74
ATOM     74  O   UNL     1       3.321  -4.697  -1.863  1.00  0.00    -0.459 OA
BRANCH  74  75
ATOM     75  C   UNL     1       2.021  -4.891  -2.235  1.00  0.00     0.348 C 
ATOM     76  O   UNL     1       1.173  -5.472  -1.577  1.00  0.00    -0.245 OA
BRANCH  75  77
ATOM     77  C   UNL     1       1.836  -4.284  -3.523  1.00  0.00     0.116 A 
ATOM     78  C   UNL     1       2.533  -4.576  -4.672  1.00  0.00     0.074 A 
ATOM     79  S   UNL     1       0.686  -3.050  -3.762  1.00  0.00    -0.133 S 
ATOM     80  C   UNL     1       2.177  -3.729  -5.744  1.00  0.00     0.131 A 
ATOM     81  C   UNL     1       1.165  -2.861  -5.396  1.00  0.00     0.112 A 
BRANCH  80  82
ATOM     82  O   UNL     1       2.694  -3.678  -6.990  1.00  0.00    -0.489 OA
BRANCH  82  83
ATOM     83  C   UNL     1       3.714  -4.624  -7.301  1.00  0.00     0.275 C 
BRANCH  83  84
ATOM     84  C   UNL     1       5.162  -4.187  -6.974  1.00  0.00     0.215 C 
ATOM     85  C   UNL     1       5.821  -5.029  -5.865  1.00  0.00     0.088 C 
ATOM     86  O   UNL     1       5.286  -2.779  -6.642  1.00  0.00    -0.486 OA
ATOM     87  C   UNL     1       6.039  -3.995  -4.831  1.00  0.00     0.001 A 
ATOM     88  C   UNL     1       5.780  -2.747  -5.367  1.00  0.00     0.123 A 
ATOM     89  C   UNL     1       6.501  -4.130  -3.533  1.00  0.00     0.047 A 
ATOM     90  C   UNL     1       6.026  -1.587  -4.659  1.00  0.00     0.050 A 
ATOM     91  C   UNL     1       6.716  -2.968  -2.795  1.00  0.00     0.123 A 
ATOM     92  C   UNL     1       6.503  -1.702  -3.351  1.00  0.00     0.043 A 
ATOM     93  F   UNL     1       7.157  -3.063  -1.532  1.00  0.00    -0.207 F 
ENDBRANCH  83  84
ENDBRANCH  82  83
ENDBRANCH  80  82
ENDBRANCH  75  77
ENDBRANCH  74  75
ENDBRANCH  73  74
ENDBRANCH  72  73
ENDBRANCH  71  72
ENDBRANCH  70  71
ENDBRANCH   1  70
TORSDOF 23
