REMARK SMILES CS(=O)(=O)c1ccc(/C=C(/C(=O)OCCOCCOCCOC(=O)c2ccc(-c3c4nc(c(-c5ccc(S(=O)(=O)[O-])cc5)c5ccc([nH]5)c(-c5ccc(S(=O)(=O)[O-])cc5)c5nc(c(-c6ccc(S(=O)(=O)[O-])cc6)c6ccc3[nH]6)C=C5)C=C4)cc2)c2cccc(-c3ccc(S(C)(=O)=O)cc3)c2)cc1
REMARK SMILES IDX 17 1 16 2 15 3 14 4 13 5 11 6 12 7 10 8 9 9 8 10 5 11 6 12
REMARK SMILES IDX 102 13 7 14 101 15 2 16 1 17 3 18 4 19 85 20 86 21 100 22
REMARK SMILES IDX 87 23 89 24 88 25 90 26 91 27 99 28 92 29 98 30 93 31 94 32
REMARK SMILES IDX 95 33 96 34 97 35 18 36 19 37 20 38 21 39 22 40 23 41 24 42
REMARK SMILES IDX 25 43 26 44 84 45 27 46 83 47 28 48 29 49 30 50 77 51 31 52
REMARK SMILES IDX 82 53 76 54 78 55 32 56 81 57 75 58 74 59 33 61 63 62 44 63
REMARK SMILES IDX 62 64 45 65 48 66 61 67 79 68 46 69 47 70 60 72 80 73 49 74
REMARK SMILES IDX 34 75 35 76 43 77 36 78 42 79 37 80 38 81 39 82 40 83 41 84
REMARK SMILES IDX 64 85 65 86 73 87 66 88 72 89 67 90 68 91 69 92 70 93 71 94
REMARK SMILES IDX 50 95 51 96 59 97 52 98 58 99 53 100 54 101 55 102 56 103
REMARK SMILES IDX 57 104
REMARK H PARENT 78 60 48 71
REMARK Flexibility Score: inf
ROOT
ATOM      1  C   UNL     1       2.875 -10.406  -3.453  1.00  0.00     0.188 C 
ENDROOT
BRANCH   1   2
ATOM      2  O   UNL     1       3.360 -10.850  -4.705  1.00  0.00    -0.376 OA
BRANCH   2   3
ATOM      3  C   UNL     1       2.622 -10.468  -5.851  1.00  0.00     0.202 C 
BRANCH   3   4
ATOM      4  C   UNL     1       2.385  -8.972  -6.135  1.00  0.00     0.261 C 
BRANCH   4   5
ATOM      5  O   UNL     1       2.198  -8.120  -4.994  1.00  0.00    -0.460 OA
BRANCH   5   6
ATOM      6  C   UNL     1       0.929  -7.936  -4.551  1.00  0.00     0.338 C 
ATOM      7  O   UNL     1      -0.067  -8.426  -5.060  1.00  0.00    -0.246 OA
BRANCH   6   8
ATOM      8  C   UNL     1       0.913  -7.132  -3.280  1.00  0.00     0.067 C 
ATOM      9  C   UNL     1       1.738  -6.061  -3.152  1.00  0.00     0.024 C 
BRANCH   9  10
ATOM     10  C   UNL     1       1.739  -5.015  -2.092  1.00  0.00    -0.025 A 
ATOM     11  C   UNL     1       1.213  -2.864  -0.359  1.00  0.00     0.067 A 
ATOM     12  C   UNL     1       1.089  -4.176   0.099  1.00  0.00     0.021 A 
ATOM     13  C   UNL     1       1.741  -2.615  -1.624  1.00  0.00     0.021 A 
ATOM     14  C   UNL     1       1.395  -5.241  -0.753  1.00  0.00     0.009 A 
ATOM     15  C   UNL     1       2.000  -3.691  -2.484  1.00  0.00     0.009 A 
BRANCH  11  16
ATOM     16  S   UNL     1       0.581  -1.574   0.686  1.00  0.00     0.175 S 
ATOM     17  C   UNL     1       1.112  -0.029   0.008  1.00  0.00     0.163 C 
ATOM     18  O   UNL     1       1.232  -1.720   1.974  1.00  0.00    -0.224 OA
ATOM     19  O   UNL     1      -0.862  -1.622   0.561  1.00  0.00    -0.224 OA
ENDBRANCH  11  16
ENDBRANCH   9  10
BRANCH   8  20
ATOM     20  C   UNL     1      -0.057  -7.526  -2.239  1.00  0.00    -0.010 A 
ATOM     21  C   UNL     1       0.186  -8.645  -1.429  1.00  0.00     0.009 A 
ATOM     22  C   UNL     1      -1.154  -6.711  -1.952  1.00  0.00     0.017 A 
ATOM     23  C   UNL     1      -0.642  -8.929  -0.346  1.00  0.00     0.001 A 
ATOM     24  C   UNL     1      -1.971  -6.958  -0.836  1.00  0.00    -0.018 A 
ATOM     25  C   UNL     1      -1.709  -8.086  -0.047  1.00  0.00     0.009 A 
BRANCH  24  26
ATOM     26  C   UNL     1      -3.025  -6.003  -0.483  1.00  0.00    -0.018 A 
ATOM     27  C   UNL     1      -3.089  -5.444   0.806  1.00  0.00     0.010 A 
ATOM     28  C   UNL     1      -3.958  -5.586  -1.446  1.00  0.00     0.010 A 
ATOM     29  C   UNL     1      -4.058  -4.493   1.124  1.00  0.00     0.021 A 
ATOM     30  C   UNL     1      -4.931  -4.639  -1.137  1.00  0.00     0.021 A 
ATOM     31  C   UNL     1      -4.981  -4.107   0.151  1.00  0.00     0.067 A 
BRANCH  31  32
ATOM     32  S   UNL     1      -6.246  -2.941   0.572  1.00  0.00     0.175 S 
ATOM     33  C   UNL     1      -7.301  -3.874   1.652  1.00  0.00     0.163 C 
ATOM     34  O   UNL     1      -5.626  -1.877   1.341  1.00  0.00    -0.224 OA
ATOM     35  O   UNL     1      -6.996  -2.637  -0.632  1.00  0.00    -0.224 OA
ENDBRANCH  31  32
ENDBRANCH  24  26
ENDBRANCH   8  20
ENDBRANCH   6   8
ENDBRANCH   5   6
ENDBRANCH   4   5
ENDBRANCH   3   4
ENDBRANCH   2   3
ENDBRANCH   1   2
BRANCH   1  36
ATOM     36  C   UNL     1       3.754  -9.303  -2.824  1.00  0.00     0.188 C 
BRANCH  36  37
ATOM     37  O   UNL     1       5.009  -8.964  -3.399  1.00  0.00    -0.376 OA
BRANCH  37  38
ATOM     38  C   UNL     1       5.845  -9.998  -3.894  1.00  0.00     0.202 C 
BRANCH  38  39
ATOM     39  C   UNL     1       6.242 -11.167  -2.976  1.00  0.00     0.261 C 
BRANCH  39  40
ATOM     40  O   UNL     1       5.216 -11.678  -2.110  1.00  0.00    -0.460 OA
BRANCH  40  41
ATOM     41  C   UNL     1       5.310 -11.290  -0.811  1.00  0.00     0.338 C 
ATOM     42  O   UNL     1       6.168 -10.579  -0.320  1.00  0.00    -0.246 OA
BRANCH  41  43
ATOM     43  C   UNL     1       4.095 -11.705  -0.073  1.00  0.00     0.060 A 
ATOM     44  C   UNL     1       3.353 -10.716   0.588  1.00  0.00     0.016 A 
ATOM     45  C   UNL     1       3.724 -13.047   0.029  1.00  0.00     0.016 A 
ATOM     46  C   UNL     1       2.258 -11.067   1.378  1.00  0.00     0.010 A 
ATOM     47  C   UNL     1       2.640 -13.401   0.844  1.00  0.00     0.010 A 
ATOM     48  C   UNL     1       1.922 -12.416   1.546  1.00  0.00    -0.014 A 
BRANCH  48  49
ATOM     49  C   UNL     1       0.962 -12.795   2.614  1.00  0.00     0.031 A 
ATOM     50  C   UNL     1       1.503 -13.115   3.982  1.00  0.00     0.074 A 
ATOM     51  C   UNL     1      -0.366 -12.816   2.396  1.00  0.00     0.049 A 
ATOM     52  N   UNL     1       0.861 -13.454   5.070  1.00  0.00    -0.248 NA
ATOM     53  C   UNL     1       2.966 -13.047   4.140  1.00  0.00     0.031 C 
ATOM     54  C   UNL     1      -1.020 -12.499   1.129  1.00  0.00     0.029 A 
ATOM     55  N   UNL     1      -1.403 -13.112   3.245  1.00  0.00    -0.354 N 
ATOM     56  C   UNL     1       1.839 -13.646   6.039  1.00  0.00     0.074 A 
ATOM     57  C   UNL     1       3.117 -13.409   5.405  1.00  0.00     0.031 C 
ATOM     58  C   UNL     1      -2.352 -12.598   1.289  1.00  0.00     0.029 A 
ATOM     59  C   UNL     1      -2.643 -13.034   2.655  1.00  0.00     0.049 A 
ATOM     60  H   UNL     1      -1.272 -13.358   4.189  1.00  0.00     0.167 HD
ATOM     61  C   UNL     1       1.689 -13.992   7.340  1.00  0.00     0.031 A 
ATOM     62  C   UNL     1      -3.868 -13.303   3.152  1.00  0.00     0.031 A 
ATOM     63  C   UNL     1       0.422 -14.262   7.965  1.00  0.00     0.049 A 
ATOM     64  C   UNL     1      -4.003 -13.758   4.585  1.00  0.00     0.074 A 
ATOM     65  C   UNL     1       0.171 -14.623   9.278  1.00  0.00     0.029 A 
ATOM     66  N   UNL     1      -0.805 -14.215   7.322  1.00  0.00    -0.354 N 
ATOM     67  N   UNL     1      -3.071 -13.911   5.496  1.00  0.00    -0.248 NA
ATOM     68  C   UNL     1      -5.360 -14.072   5.057  1.00  0.00     0.031 C 
ATOM     69  C   UNL     1      -1.203 -14.853   9.412  1.00  0.00     0.029 A 
ATOM     70  C   UNL     1      -1.815 -14.565   8.202  1.00  0.00     0.049 A 
ATOM     71  H   UNL     1      -0.939 -13.969   6.378  1.00  0.00     0.167 HD
ATOM     72  C   UNL     1      -3.732 -14.311   6.654  1.00  0.00     0.074 A 
ATOM     73  C   UNL     1      -5.143 -14.359   6.333  1.00  0.00     0.031 C 
ATOM     74  C   UNL     1      -3.218 -14.608   7.874  1.00  0.00     0.031 A 
BRANCH  61  75
ATOM     75  C   UNL     1       2.942 -14.145   8.162  1.00  0.00    -0.014 A 
ATOM     76  C   UNL     1       3.714 -13.028   8.533  1.00  0.00     0.010 A 
ATOM     77  C   UNL     1       3.340 -15.425   8.589  1.00  0.00     0.010 A 
ATOM     78  C   UNL     1       4.883 -13.194   9.281  1.00  0.00     0.020 A 
ATOM     79  C   UNL     1       4.492 -15.592   9.362  1.00  0.00     0.020 A 
ATOM     80  C   UNL     1       5.266 -14.476   9.688  1.00  0.00     0.054 A 
BRANCH  80  81
ATOM     81  S   UNL     1       6.779 -14.661  10.670  1.00  0.00     0.124 S 
ATOM     82  O   UNL     1       7.817 -14.398   9.675  1.00  0.00    -0.237 OA
ATOM     83  O   UNL     1       6.620 -13.635  11.698  1.00  0.00    -0.237 OA
ATOM     84  O   UNL     1       6.714 -16.038  11.152  1.00  0.00    -0.744 OA
ENDBRANCH  80  81
ENDBRANCH  61  75
BRANCH  62  85
ATOM     85  C   UNL     1      -5.073 -13.174   2.286  1.00  0.00    -0.014 A 
ATOM     86  C   UNL     1      -6.042 -12.187   2.543  1.00  0.00     0.010 A 
ATOM     87  C   UNL     1      -5.269 -14.055   1.206  1.00  0.00     0.010 A 
ATOM     88  C   UNL     1      -7.191 -12.097   1.750  1.00  0.00     0.020 A 
ATOM     89  C   UNL     1      -6.400 -13.948   0.392  1.00  0.00     0.020 A 
ATOM     90  C   UNL     1      -7.361 -12.977   0.677  1.00  0.00     0.054 A 
BRANCH  90  91
ATOM     91  S   UNL     1      -8.836 -12.810  -0.366  1.00  0.00     0.124 S 
ATOM     92  O   UNL     1      -9.886 -13.321   0.509  1.00  0.00    -0.237 OA
ATOM     93  O   UNL     1      -8.874 -11.373  -0.627  1.00  0.00    -0.237 OA
ATOM     94  O   UNL     1      -8.528 -13.640  -1.528  1.00  0.00    -0.744 OA
ENDBRANCH  90  91
ENDBRANCH  62  85
BRANCH  74  95
ATOM     95  C   UNL     1      -4.185 -14.967   8.975  1.00  0.00    -0.014 A 
ATOM     96  C   UNL     1      -4.888 -16.185   8.972  1.00  0.00     0.010 A 
ATOM     97  C   UNL     1      -4.352 -14.086  10.060  1.00  0.00     0.010 A 
ATOM     98  C   UNL     1      -5.768 -16.497  10.013  1.00  0.00     0.020 A 
ATOM     99  C   UNL     1      -5.206 -14.408  11.118  1.00  0.00     0.020 A 
ATOM    100  C   UNL     1      -5.922 -15.605  11.079  1.00  0.00     0.054 A 
BRANCH 100 101
ATOM    101  S   UNL     1      -7.045 -16.047  12.434  1.00  0.00     0.124 S 
ATOM    102  O   UNL     1      -8.355 -15.871  11.812  1.00  0.00    -0.237 OA
ATOM    103  O   UNL     1      -6.669 -17.428  12.726  1.00  0.00    -0.237 OA
ATOM    104  O   UNL     1      -6.720 -15.083  13.483  1.00  0.00    -0.744 OA
ENDBRANCH 100 101
ENDBRANCH  74  95
ENDBRANCH  48  49
ENDBRANCH  41  43
ENDBRANCH  40  41
ENDBRANCH  39  40
ENDBRANCH  38  39
ENDBRANCH  37  38
ENDBRANCH  36  37
ENDBRANCH   1  36
TORSDOF 25
