REMARK SMILES O=C(COc1cc(-c2ccccc2)nc(Nc2ccccc2Br)n1)OCCOCCOCCOC(=O)c1ccc(-c2c3nc(c(-c4ccc(S(=O)(=O)[O-])cc4)c4ccc([nH]4)c(-c4ccc(S(=O)(=O)[O-])cc4)c4nc(c(-c5ccc(S(=O)(=O)[O-])cc5)c5ccc2[nH]5)C=C4)C=C3)cc1
REMARK SMILES IDX 29 1 28 2 27 3 26 4 25 5 2 6 1 7 3 8 4 9 5 10 6 11 24 12
REMARK SMILES IDX 7 13 15 14 14 15 8 16 9 17 13 18 10 19 12 20 11 21 16 22
REMARK SMILES IDX 17 24 18 25 22 26 19 27 21 28 23 29 20 30 30 31 31 32 32 33
REMARK SMILES IDX 33 34 34 35 35 36 36 37 37 38 38 39 96 40 39 41 95 42 40 43
REMARK SMILES IDX 41 44 42 45 89 46 43 47 94 48 88 49 90 50 44 51 93 52 87 53
REMARK SMILES IDX 86 54 45 56 75 57 56 58 74 59 57 60 60 61 73 62 91 63 58 64
REMARK SMILES IDX 59 65 72 67 92 68 61 69 46 70 47 71 55 72 48 73 54 74 49 75
REMARK SMILES IDX 50 76 51 77 52 78 53 79 76 80 77 81 85 82 78 83 84 84 79 85
REMARK SMILES IDX 80 86 81 87 82 88 83 89 62 90 63 91 71 92 64 93 70 94 65 95
REMARK SMILES IDX 66 96 67 97 68 98 69 99
REMARK H PARENT 16 23 90 55 60 66
REMARK Flexibility Score: inf
ROOT
ATOM      1  C   UNL     1       3.432  -0.640  -2.050  1.00  0.00     0.188 C 
ENDROOT
BRANCH   1   2
ATOM      2  O   UNL     1       4.681  -0.918  -1.440  1.00  0.00    -0.376 OA
BRANCH   2   3
ATOM      3  C   UNL     1       5.011  -0.164  -0.293  1.00  0.00     0.202 C 
BRANCH   3   4
ATOM      4  C   UNL     1       4.210  -0.599   0.931  1.00  0.00     0.261 C 
BRANCH   4   5
ATOM      5  O   UNL     1       2.765  -0.486   0.831  1.00  0.00    -0.461 OA
BRANCH   5   6
ATOM      6  C   UNL     1       2.022   0.598   0.501  1.00  0.00     0.344 C 
ATOM      7  O   UNL     1       0.814   0.469   0.316  1.00  0.00    -0.248 OA
BRANCH   6   8
ATOM      8  C   UNL     1       2.706   1.946   0.341  1.00  0.00     0.353 C 
BRANCH   8   9
ATOM      9  O   UNL     1       3.824   2.109   1.201  1.00  0.00    -0.466 OA
BRANCH   9  10
ATOM     10  C   UNL     1       3.403   2.630   2.384  1.00  0.00     0.219 A 
ATOM     11  C   UNL     1       2.534   1.969   3.194  1.00  0.00     0.097 A 
ATOM     12  N   UNL     1       3.831   3.853   2.607  1.00  0.00    -0.177 NA
ATOM     13  C   UNL     1       1.991   2.704   4.219  1.00  0.00     0.080 A 
ATOM     14  C   UNL     1       3.285   4.519   3.627  1.00  0.00     0.231 A 
ATOM     15  N   UNL     1       2.353   3.990   4.451  1.00  0.00    -0.212 NA
BRANCH  13  16
ATOM     16  C   UNL     1       0.895   2.084   4.986  1.00  0.00     0.000 A 
ATOM     17  C   UNL     1      -0.336   2.730   5.155  1.00  0.00     0.010 A 
ATOM     18  C   UNL     1       0.990   0.734   5.396  1.00  0.00     0.010 A 
ATOM     19  C   UNL     1      -1.438   2.043   5.680  1.00  0.00     0.001 A 
ATOM     20  C   UNL     1      -0.109   0.046   5.911  1.00  0.00     0.001 A 
ATOM     21  C   UNL     1      -1.326   0.702   6.048  1.00  0.00     0.000 A 
ENDBRANCH  13  16
BRANCH  14  22
ATOM     22  N   UNL     1       3.741   5.819   3.812  1.00  0.00    -0.323 N 
ATOM     23  H   UNL     1       3.394   6.321   4.585  1.00  0.00     0.170 HD
BRANCH  22  24
ATOM     24  C   UNL     1       4.666   6.466   2.969  1.00  0.00     0.055 A 
ATOM     25  C   UNL     1       5.960   6.712   3.456  1.00  0.00     0.027 A 
ATOM     26  C   UNL     1       4.382   6.817   1.632  1.00  0.00     0.041 A 
ATOM     27  C   UNL     1       6.951   7.253   2.630  1.00  0.00     0.002 A 
ATOM     28  C   UNL     1       5.374   7.365   0.812  1.00  0.00     0.018 A 
ATOM     29  Br  UNL     1       2.653   6.595   0.864  1.00  0.00    -0.049 Br
ATOM     30  C   UNL     1       6.657   7.579   1.309  1.00  0.00     0.001 A 
ENDBRANCH  22  24
ENDBRANCH  14  22
ENDBRANCH   9  10
ENDBRANCH   8   9
ENDBRANCH   6   8
ENDBRANCH   5   6
ENDBRANCH   4   5
ENDBRANCH   3   4
ENDBRANCH   2   3
ENDBRANCH   1   2
BRANCH   1  31
ATOM     31  C   UNL     1       2.472  -1.842  -2.046  1.00  0.00     0.188 C 
BRANCH  31  32
ATOM     32  O   UNL     1       2.988  -3.164  -2.147  1.00  0.00    -0.376 OA
BRANCH  32  33
ATOM     33  C   UNL     1       4.250  -3.369  -2.757  1.00  0.00     0.202 C 
BRANCH  33  34
ATOM     34  C   UNL     1       4.378  -3.059  -4.259  1.00  0.00     0.261 C 
BRANCH  34  35
ATOM     35  O   UNL     1       4.011  -1.727  -4.674  1.00  0.00    -0.460 OA
BRANCH  35  36
ATOM     36  C   UNL     1       2.804  -1.588  -5.285  1.00  0.00     0.338 C 
ATOM     37  O   UNL     1       2.024  -2.482  -5.555  1.00  0.00    -0.246 OA
BRANCH  36  38
ATOM     38  C   UNL     1       2.458  -0.146  -5.451  1.00  0.00     0.060 A 
ATOM     39  C   UNL     1       1.284   0.342  -4.855  1.00  0.00     0.016 A 
ATOM     40  C   UNL     1       3.236   0.710  -6.231  1.00  0.00     0.016 A 
ATOM     41  C   UNL     1       0.879   1.671  -5.050  1.00  0.00     0.010 A 
ATOM     42  C   UNL     1       2.813   2.034  -6.448  1.00  0.00     0.010 A 
ATOM     43  C   UNL     1       1.621   2.522  -5.877  1.00  0.00    -0.014 A 
BRANCH  43  44
ATOM     44  C   UNL     1       1.105   3.873  -6.249  1.00  0.00     0.031 A 
ATOM     45  C   UNL     1       0.421   4.061  -7.582  1.00  0.00     0.074 A 
ATOM     46  C   UNL     1       1.253   4.936  -5.433  1.00  0.00     0.049 A 
ATOM     47  N   UNL     1       0.007   5.164  -8.154  1.00  0.00    -0.248 NA
ATOM     48  C   UNL     1       0.174   2.845  -8.374  1.00  0.00     0.031 C 
ATOM     49  C   UNL     1       1.844   4.904  -4.096  1.00  0.00     0.029 A 
ATOM     50  N   UNL     1       0.933   6.262  -5.624  1.00  0.00    -0.354 N 
ATOM     51  C   UNL     1      -0.531   4.780  -9.379  1.00  0.00     0.074 A 
ATOM     52  C   UNL     1      -0.383   3.343  -9.470  1.00  0.00     0.031 C 
ATOM     53  C   UNL     1       1.872   6.154  -3.600  1.00  0.00     0.029 A 
ATOM     54  C   UNL     1       1.339   7.083  -4.596  1.00  0.00     0.049 A 
ATOM     55  H   UNL     1       0.459   6.591  -6.421  1.00  0.00     0.167 HD
ATOM     56  C   UNL     1      -1.091   5.551 -10.343  1.00  0.00     0.031 A 
ATOM     57  C   UNL     1       1.324   8.429  -4.484  1.00  0.00     0.031 A 
ATOM     58  C   UNL     1      -1.241   6.981 -10.262  1.00  0.00     0.049 A 
ATOM     59  C   UNL     1       0.776   9.272  -5.611  1.00  0.00     0.074 A 
ATOM     60  C   UNL     1      -1.832   7.834 -11.180  1.00  0.00     0.029 A 
ATOM     61  N   UNL     1      -0.788   7.773  -9.220  1.00  0.00    -0.354 N 
ATOM     62  N   UNL     1       0.239   8.889  -6.744  1.00  0.00    -0.248 NA
ATOM     63  C   UNL     1       0.839  10.733  -5.443  1.00  0.00     0.031 C 
ATOM     64  C   UNL     1      -1.671   9.147 -10.728  1.00  0.00     0.029 A 
ATOM     65  C   UNL     1      -1.043   9.107  -9.494  1.00  0.00     0.049 A 
ATOM     66  H   UNL     1      -0.349   7.437  -8.405  1.00  0.00     0.167 HD
ATOM     67  C   UNL     1      -0.116  10.059  -7.412  1.00  0.00     0.074 A 
ATOM     68  C   UNL     1       0.243  11.162  -6.548  1.00  0.00     0.031 C 
ATOM     69  C   UNL     1      -0.684  10.205  -8.634  1.00  0.00     0.031 A 
BRANCH  56  70
ATOM     70  C   UNL     1      -1.562   4.878 -11.606  1.00  0.00    -0.014 A 
ATOM     71  C   UNL     1      -2.734   4.102 -11.629  1.00  0.00     0.010 A 
ATOM     72  C   UNL     1      -0.875   5.117 -12.812  1.00  0.00     0.010 A 
ATOM     73  C   UNL     1      -3.202   3.566 -12.833  1.00  0.00     0.020 A 
ATOM     74  C   UNL     1      -1.353   4.604 -14.021  1.00  0.00     0.020 A 
ATOM     75  C   UNL     1      -2.511   3.825 -14.022  1.00  0.00     0.054 A 
BRANCH  75  76
ATOM     76  S   UNL     1      -3.180   3.171 -15.577  1.00  0.00     0.124 S 
ATOM     77  O   UNL     1      -2.937   1.738 -15.431  1.00  0.00    -0.237 OA
ATOM     78  O   UNL     1      -4.581   3.579 -15.518  1.00  0.00    -0.237 OA
ATOM     79  O   UNL     1      -2.384   3.836 -16.605  1.00  0.00    -0.744 OA
ENDBRANCH  75  76
ENDBRANCH  56  70
BRANCH  57  80
ATOM     80  C   UNL     1       1.918   9.093  -3.287  1.00  0.00    -0.014 A 
ATOM     81  C   UNL     1       1.118   9.819  -2.386  1.00  0.00     0.010 A 
ATOM     82  C   UNL     1       3.310   9.056  -3.083  1.00  0.00     0.010 A 
ATOM     83  C   UNL     1       1.701  10.518  -1.323  1.00  0.00     0.020 A 
ATOM     84  C   UNL     1       3.893   9.732  -2.009  1.00  0.00     0.020 A 
ATOM     85  C   UNL     1       3.086  10.471  -1.142  1.00  0.00     0.054 A 
BRANCH  85  86
ATOM     86  S   UNL     1       3.827  11.372   0.247  1.00  0.00     0.124 S 
ATOM     87  O   UNL     1       3.719  12.758  -0.198  1.00  0.00    -0.237 OA
ATOM     88  O   UNL     1       2.965  10.998   1.366  1.00  0.00    -0.237 OA
ATOM     89  O   UNL     1       5.187  10.841   0.308  1.00  0.00    -0.744 OA
ENDBRANCH  85  86
ENDBRANCH  57  80
BRANCH  69  90
ATOM     90  C   UNL     1      -0.979  11.605  -9.114  1.00  0.00    -0.014 A 
ATOM     91  C   UNL     1       0.057  12.476  -9.497  1.00  0.00     0.010 A 
ATOM     92  C   UNL     1      -2.313  12.033  -9.244  1.00  0.00     0.010 A 
ATOM     93  C   UNL     1      -0.236  13.757  -9.976  1.00  0.00     0.020 A 
ATOM     94  C   UNL     1      -2.611  13.302  -9.751  1.00  0.00     0.020 A 
ATOM     95  C   UNL     1      -1.569  14.162 -10.102  1.00  0.00     0.054 A 
BRANCH  95  96
ATOM     96  S   UNL     1      -1.921  15.810 -10.774  1.00  0.00     0.124 S 
ATOM     97  O   UNL     1      -1.506  16.681  -9.678  1.00  0.00    -0.237 OA
ATOM     98  O   UNL     1      -1.078  15.857 -11.966  1.00  0.00    -0.237 OA
ATOM     99  O   UNL     1      -3.358  15.780 -11.035  1.00  0.00    -0.744 OA
ENDBRANCH  95  96
ENDBRANCH  69  90
ENDBRANCH  43  44
ENDBRANCH  36  38
ENDBRANCH  35  36
ENDBRANCH  34  35
ENDBRANCH  33  34
ENDBRANCH  32  33
ENDBRANCH  31  32
ENDBRANCH   1  31
TORSDOF 25
