REMARK SMILES Cc1ccc(-c2nn(CCC(=O)OCCOCCOCCOC(=O)c3ccc(-c4c5nc(c(-c6ccc(S(=O)(=O)[O-])cc6)c6ccc([nH]6)c(-c6ccc(S(=O)(=O)[O-])cc6)c6nc(c(-c7ccc(S(=O)(=O)[O-])cc7)c7ccc4[nH]7)C=C6)C=C5)cc3)c(=O)c3noc(C)c23)cc1C
REMARK SMILES IDX 17 1 16 2 15 3 14 4 13 5 11 6 12 7 10 8 9 9 8 10 6 11 7 12
REMARK SMILES IDX 92 13 87 14 90 15 85 16 88 17 89 18 91 19 86 20 5 21 1 22
REMARK SMILES IDX 2 23 3 24 94 25 4 26 93 27 95 28 18 29 19 30 20 31 21 32
REMARK SMILES IDX 22 33 23 34 24 35 25 36 26 37 84 38 27 39 83 40 28 41 29 42
REMARK SMILES IDX 30 43 77 44 31 45 82 46 76 47 78 48 32 49 81 50 75 51 74 52
REMARK SMILES IDX 33 54 63 55 44 56 62 57 45 58 48 59 61 60 79 61 46 62 47 63
REMARK SMILES IDX 60 65 80 66 49 67 34 68 35 69 43 70 36 71 42 72 37 73 38 74
REMARK SMILES IDX 39 75 40 76 41 77 64 78 65 79 73 80 66 81 72 82 67 83 68 84
REMARK SMILES IDX 69 85 70 86 71 87 50 88 51 89 59 90 52 91 58 92 53 93 54 94
REMARK SMILES IDX 55 95 56 96 57 97
REMARK H PARENT 78 53 48 64
REMARK Flexibility Score: inf
ROOT
ATOM      1  C   UNL     1      -8.677  -4.200  -1.641  1.00  0.00     0.188 C 
ENDROOT
BRANCH   1   2
ATOM      2  O   UNL     1      -8.954  -5.449  -1.027  1.00  0.00    -0.376 OA
BRANCH   2   3
ATOM      3  C   UNL     1      -7.872  -6.027  -0.293  1.00  0.00     0.202 C 
BRANCH   3   4
ATOM      4  C   UNL     1      -6.643  -6.505  -1.109  1.00  0.00     0.261 C 
BRANCH   4   5
ATOM      5  O   UNL     1      -5.785  -5.450  -1.614  1.00  0.00    -0.463 OA
BRANCH   5   6
ATOM      6  C   UNL     1      -5.941  -5.060  -2.900  1.00  0.00     0.307 C 
ATOM      7  O   UNL     1      -6.582  -5.685  -3.739  1.00  0.00    -0.252 OA
BRANCH   6   8
ATOM      8  C   UNL     1      -5.227  -3.759  -3.224  1.00  0.00     0.146 C 
BRANCH   8   9
ATOM      9  C   UNL     1      -5.413  -2.548  -2.295  1.00  0.00     0.160 C 
BRANCH   9  10
ATOM     10  N   UNL     1      -4.617  -2.548  -1.064  1.00  0.00    -0.227 N 
ATOM     11  C   UNL     1      -2.712  -1.653  -0.021  1.00  0.00     0.104 A 
ATOM     12  N   UNL     1      -3.460  -1.752  -1.085  1.00  0.00    -0.169 NA
ATOM     13  C   UNL     1      -3.017  -2.413   1.158  1.00  0.00     0.078 A 
ATOM     14  C   UNL     1      -4.196  -3.155   1.206  1.00  0.00     0.183 A 
ATOM     15  C   UNL     1      -2.418  -2.659   2.371  1.00  0.00     0.143 A 
ATOM     16  C   UNL     1      -5.109  -3.174   0.097  1.00  0.00     0.296 A 
ATOM     17  N   UNL     1      -4.334  -3.832   2.351  1.00  0.00    -0.074 NA
ATOM     18  O   UNL     1      -3.208  -3.514   3.087  1.00  0.00    -0.360 OA
ATOM     19  C   UNL     1      -1.172  -2.262   3.047  1.00  0.00     0.091 C 
ATOM     20  O   UNL     1      -6.197  -3.721   0.192  1.00  0.00    -0.265 OA
BRANCH  11  21
ATOM     21  C   UNL     1      -1.531  -0.792  -0.037  1.00  0.00     0.003 A 
ATOM     22  C   UNL     1       1.990   1.657   0.008  1.00  0.00     0.044 C 
ATOM     23  C   UNL     1       0.773   0.775  -0.009  1.00  0.00    -0.048 A 
ATOM     24  C   UNL     1      -0.503   1.373   0.005  1.00  0.00     0.004 A 
ATOM     25  C   UNL     1       0.883  -0.630  -0.047  1.00  0.00    -0.048 A 
ATOM     26  C   UNL     1      -1.659   0.593  -0.009  1.00  0.00     0.011 A 
ATOM     27  C   UNL     1      -0.281  -1.403  -0.081  1.00  0.00     0.014 A 
ATOM     28  C   UNL     1       2.187  -1.374  -0.038  1.00  0.00     0.044 C 
ENDBRANCH  11  21
ENDBRANCH   9  10
ENDBRANCH   8   9
ENDBRANCH   6   8
ENDBRANCH   5   6
ENDBRANCH   4   5
ENDBRANCH   3   4
ENDBRANCH   2   3
ENDBRANCH   1   2
BRANCH   1  29
ATOM     29  C   UNL     1      -9.285  -2.979  -0.973  1.00  0.00     0.188 C 
BRANCH  29  30
ATOM     30  O   UNL     1      -8.489  -2.405   0.060  1.00  0.00    -0.376 OA
BRANCH  30  31
ATOM     31  C   UNL     1      -8.873  -2.721   1.395  1.00  0.00     0.202 C 
BRANCH  31  32
ATOM     32  C   UNL     1     -10.215  -2.130   1.871  1.00  0.00     0.261 C 
BRANCH  32  33
ATOM     33  O   UNL     1     -11.012  -1.535   0.838  1.00  0.00    -0.460 OA
BRANCH  33  34
ATOM     34  C   UNL     1     -10.489  -0.386   0.342  1.00  0.00     0.338 C 
ATOM     35  O   UNL     1      -9.517   0.222   0.761  1.00  0.00    -0.246 OA
BRANCH  34  36
ATOM     36  C   UNL     1     -11.203   0.002  -0.885  1.00  0.00     0.060 A 
ATOM     37  C   UNL     1     -10.463   0.281  -2.043  1.00  0.00     0.016 A 
ATOM     38  C   UNL     1     -12.571   0.235  -0.845  1.00  0.00     0.016 A 
ATOM     39  C   UNL     1     -11.083   0.864  -3.148  1.00  0.00     0.010 A 
ATOM     40  C   UNL     1     -13.171   0.873  -1.928  1.00  0.00     0.010 A 
ATOM     41  C   UNL     1     -12.433   1.221  -3.078  1.00  0.00    -0.014 A 
BRANCH  41  42
ATOM     42  C   UNL     1     -13.057   1.954  -4.218  1.00  0.00     0.031 A 
ATOM     43  C   UNL     1     -14.439   1.483  -4.539  1.00  0.00     0.074 A 
ATOM     44  C   UNL     1     -12.702   3.232  -4.515  1.00  0.00     0.049 A 
ATOM     45  N   UNL     1     -15.432   1.808  -3.766  1.00  0.00    -0.248 NA
ATOM     46  C   UNL     1     -14.756   0.394  -5.461  1.00  0.00     0.031 C 
ATOM     47  C   UNL     1     -12.034   4.115  -3.543  1.00  0.00     0.029 A 
ATOM     48  N   UNL     1     -13.024   4.084  -5.558  1.00  0.00    -0.354 N 
ATOM     49  C   UNL     1     -16.464   0.927  -4.007  1.00  0.00     0.074 A 
ATOM     50  C   UNL     1     -16.024   0.103  -5.112  1.00  0.00     0.031 C 
ATOM     51  C   UNL     1     -12.162   5.395  -3.947  1.00  0.00     0.029 A 
ATOM     52  C   UNL     1     -12.799   5.440  -5.265  1.00  0.00     0.049 A 
ATOM     53  H   UNL     1     -13.377   3.770  -6.422  1.00  0.00     0.167 HD
ATOM     54  C   UNL     1     -17.585   0.921  -3.236  1.00  0.00     0.031 A 
ATOM     55  C   UNL     1     -13.604   6.479  -5.641  1.00  0.00     0.031 A 
ATOM     56  C   UNL     1     -17.554   1.817  -2.111  1.00  0.00     0.049 A 
ATOM     57  C   UNL     1     -14.862   6.182  -4.865  1.00  0.00     0.074 A 
ATOM     58  C   UNL     1     -17.331   1.742  -0.752  1.00  0.00     0.029 A 
ATOM     59  N   UNL     1     -17.717   3.159  -2.354  1.00  0.00    -0.354 N 
ATOM     60  N   UNL     1     -15.062   6.391  -3.593  1.00  0.00    -0.248 NA
ATOM     61  C   UNL     1     -15.822   5.279  -5.501  1.00  0.00     0.031 C 
ATOM     62  C   UNL     1     -16.906   3.053  -0.361  1.00  0.00     0.029 A 
ATOM     63  C   UNL     1     -16.876   3.840  -1.511  1.00  0.00     0.049 A 
ATOM     64  H   UNL     1     -18.328   3.560  -3.014  1.00  0.00     0.167 HD
ATOM     65  C   UNL     1     -15.976   5.413  -3.200  1.00  0.00     0.074 A 
ATOM     66  C   UNL     1     -16.410   4.771  -4.427  1.00  0.00     0.031 C 
ATOM     67  C   UNL     1     -16.200   5.059  -1.901  1.00  0.00     0.031 A 
BRANCH  54  68
ATOM     68  C   UNL     1     -18.850   0.244  -3.587  1.00  0.00    -0.014 A 
ATOM     69  C   UNL     1     -19.806   1.041  -4.244  1.00  0.00     0.010 A 
ATOM     70  C   UNL     1     -19.220  -1.018  -3.105  1.00  0.00     0.010 A 
ATOM     71  C   UNL     1     -21.125   0.618  -4.369  1.00  0.00     0.020 A 
ATOM     72  C   UNL     1     -20.546  -1.458  -3.247  1.00  0.00     0.020 A 
ATOM     73  C   UNL     1     -21.492  -0.625  -3.856  1.00  0.00     0.054 A 
BRANCH  73  74
ATOM     74  S   UNL     1     -23.241  -1.091  -3.962  1.00  0.00     0.124 S 
ATOM     75  O   UNL     1     -23.889  -0.053  -3.166  1.00  0.00    -0.237 OA
ATOM     76  O   UNL     1     -23.490  -1.028  -5.400  1.00  0.00    -0.237 OA
ATOM     77  O   UNL     1     -23.278  -2.433  -3.385  1.00  0.00    -0.744 OA
ENDBRANCH  73  74
ENDBRANCH  54  68
BRANCH  55  78
ATOM     78  C   UNL     1     -13.670   6.870  -7.090  1.00  0.00    -0.014 A 
ATOM     79  C   UNL     1     -12.476   6.949  -7.834  1.00  0.00     0.010 A 
ATOM     80  C   UNL     1     -14.867   7.204  -7.756  1.00  0.00     0.010 A 
ATOM     81  C   UNL     1     -12.492   7.189  -9.213  1.00  0.00     0.020 A 
ATOM     82  C   UNL     1     -14.898   7.413  -9.143  1.00  0.00     0.020 A 
ATOM     83  C   UNL     1     -13.710   7.369  -9.868  1.00  0.00     0.054 A 
BRANCH  83  84
ATOM     84  S   UNL     1     -13.719   7.458 -11.680  1.00  0.00     0.124 S 
ATOM     85  O   UNL     1     -12.990   8.697 -11.936  1.00  0.00    -0.237 OA
ATOM     86  O   UNL     1     -13.020   6.229 -12.049  1.00  0.00    -0.237 OA
ATOM     87  O   UNL     1     -15.139   7.486 -12.018  1.00  0.00    -0.744 OA
ENDBRANCH  83  84
ENDBRANCH  55  78
BRANCH  67  88
ATOM     88  C   UNL     1     -15.552   5.905  -0.847  1.00  0.00    -0.014 A 
ATOM     89  C   UNL     1     -16.020   7.211  -0.632  1.00  0.00     0.010 A 
ATOM     90  C   UNL     1     -14.563   5.385   0.008  1.00  0.00     0.010 A 
ATOM     91  C   UNL     1     -15.564   7.957   0.456  1.00  0.00     0.020 A 
ATOM     92  C   UNL     1     -14.110   6.123   1.108  1.00  0.00     0.020 A 
ATOM     93  C   UNL     1     -14.634   7.397   1.337  1.00  0.00     0.054 A 
BRANCH  93  94
ATOM     94  S   UNL     1     -14.192   8.335   2.825  1.00  0.00     0.124 S 
ATOM     95  O   UNL     1     -13.564   9.532   2.273  1.00  0.00    -0.237 OA
ATOM     96  O   UNL     1     -15.492   8.545   3.460  1.00  0.00    -0.237 OA
ATOM     97  O   UNL     1     -13.292   7.440   3.550  1.00  0.00    -0.744 OA
ENDBRANCH  93  94
ENDBRANCH  67  88
ENDBRANCH  41  42
ENDBRANCH  34  36
ENDBRANCH  33  34
ENDBRANCH  32  33
ENDBRANCH  31  32
ENDBRANCH  30  31
ENDBRANCH  29  30
ENDBRANCH   1  29
TORSDOF 23
