REMARK SMILES O=C(CSc1nnnn1-c1ccc(C(=O)OCCOCCOCCOC(=O)c2ccc(-c3c4nc(c(-c5ccc(S(=O)(=O)[O-])cc5)c5ccc([nH]5)c(-c5ccc(S(=O)(=O)[O-])cc5)c5nc(c(-c6ccc(S(=O)(=O)[O-])cc6)c6ccc3[nH]6)C=C5)C=C4)cc2)cc1)Nc1nc(-c2ccccc2)cs1
REMARK SMILES IDX 19 1 18 2 17 3 16 4 14 5 15 6 13 7 10 8 11 9 89 10 12 11
REMARK SMILES IDX 88 12 9 13 5 14 6 15 7 16 8 17 4 18 3 19 2 20 1 21 90 22
REMARK SMILES IDX 91 24 92 25 101 26 93 27 100 28 94 29 95 30 99 31 96 32
REMARK SMILES IDX 98 33 97 34 20 35 21 36 22 37 23 38 24 39 25 40 26 41 27 42
REMARK SMILES IDX 28 43 29 44 87 45 30 46 86 47 31 48 32 49 33 50 80 51 34 52
REMARK SMILES IDX 85 53 79 54 81 55 35 56 84 57 78 58 77 59 36 61 66 62 47 63
REMARK SMILES IDX 65 64 48 65 51 66 64 67 82 68 49 69 50 70 63 72 83 73 52 74
REMARK SMILES IDX 37 75 38 76 46 77 39 78 45 79 40 80 41 81 42 82 43 83 44 84
REMARK SMILES IDX 67 85 68 86 76 87 69 88 75 89 70 90 71 91 72 92 73 93 74 94
REMARK SMILES IDX 53 95 54 96 62 97 55 98 61 99 56 100 57 101 58 102 59 103
REMARK SMILES IDX 60 104
REMARK H PARENT 90 23 81 60 51 71
REMARK Flexibility Score: inf
ROOT
ATOM      1  O   UNL     1      -1.586   6.191   6.411  1.00  0.00    -0.376 OA
ENDROOT
BRANCH   1   2
ATOM      2  C   UNL     1      -1.315   7.072   5.330  1.00  0.00     0.202 C 
BRANCH   2   3
ATOM      3  C   UNL     1       0.026   6.949   4.589  1.00  0.00     0.261 C 
BRANCH   3   4
ATOM      4  O   UNL     1       0.339   5.616   4.156  1.00  0.00    -0.460 OA
BRANCH   4   5
ATOM      5  C   UNL     1       1.433   5.051   4.718  1.00  0.00     0.338 C 
ATOM      6  O   UNL     1       2.250   5.590   5.445  1.00  0.00    -0.246 OA
BRANCH   5   7
ATOM      7  C   UNL     1       1.451   3.594   4.446  1.00  0.00     0.060 A 
ATOM      8  C   UNL     1       1.649   0.855   4.005  1.00  0.00     0.069 A 
ATOM      9  C   UNL     1       1.956   1.362   5.268  1.00  0.00     0.029 A 
ATOM     10  C   UNL     1       1.131   1.685   3.003  1.00  0.00     0.029 A 
ATOM     11  C   UNL     1       1.882   2.741   5.475  1.00  0.00     0.018 A 
ATOM     12  C   UNL     1       1.033   3.060   3.223  1.00  0.00     0.018 A 
BRANCH   8  13
ATOM     13  N   UNL     1       1.924  -0.491   3.716  1.00  0.00    -0.187 N 
ATOM     14  C   UNL     1       2.731  -1.029   2.726  1.00  0.00     0.214 A 
ATOM     15  N   UNL     1       2.654  -2.341   2.792  1.00  0.00    -0.101 NA
ATOM     16  N   UNL     1       1.877  -2.616   3.891  1.00  0.00    -0.022 NA
ATOM     17  N   UNL     1       1.509  -1.501   4.510  1.00  0.00    -0.039 NA
BRANCH  14  18
ATOM     18  S   UNL     1       4.067  -0.212   1.963  1.00  0.00    -0.074 SA
BRANCH  18  19
ATOM     19  C   UNL     1       3.341   0.779   0.646  1.00  0.00     0.178 C 
BRANCH  19  20
ATOM     20  C   UNL     1       2.320   0.043  -0.191  1.00  0.00     0.236 C 
ATOM     21  O   UNL     1       1.219   0.551  -0.384  1.00  0.00    -0.274 OA
ATOM     22  N   UNL     1       2.784  -1.148  -0.698  1.00  0.00    -0.301 N 
ATOM     23  H   UNL     1       3.654  -1.491  -0.390  1.00  0.00     0.172 HD
BRANCH  22  24
ATOM     24  C   UNL     1       2.075  -1.868  -1.613  1.00  0.00     0.189 A 
ATOM     25  N   UNL     1       1.013  -1.519  -2.288  1.00  0.00    -0.220 NA
ATOM     26  S   UNL     1       2.708  -3.421  -1.927  1.00  0.00    -0.105 S 
ATOM     27  C   UNL     1       0.605  -2.580  -3.069  1.00  0.00     0.084 A 
ATOM     28  C   UNL     1       1.400  -3.708  -3.003  1.00  0.00     0.097 A 
BRANCH  27  29
ATOM     29  C   UNL     1      -0.574  -2.487  -3.903  1.00  0.00     0.001 A 
ATOM     30  C   UNL     1      -0.584  -1.618  -5.000  1.00  0.00     0.010 A 
ATOM     31  C   UNL     1      -1.716  -3.239  -3.603  1.00  0.00     0.010 A 
ATOM     32  C   UNL     1      -1.720  -1.518  -5.804  1.00  0.00     0.001 A 
ATOM     33  C   UNL     1      -2.854  -3.129  -4.403  1.00  0.00     0.001 A 
ATOM     34  C   UNL     1      -2.854  -2.273  -5.505  1.00  0.00     0.000 A 
ENDBRANCH  27  29
ENDBRANCH  22  24
ENDBRANCH  19  20
ENDBRANCH  18  19
ENDBRANCH  14  18
ENDBRANCH   8  13
ENDBRANCH   5   7
ENDBRANCH   4   5
ENDBRANCH   3   4
ENDBRANCH   2   3
ENDBRANCH   1   2
BRANCH   1  35
ATOM     35  C   UNL     1      -1.530   4.785   6.206  1.00  0.00     0.188 C 
BRANCH  35  36
ATOM     36  C   UNL     1      -2.094   4.131   4.923  1.00  0.00     0.188 C 
BRANCH  36  37
ATOM     37  O   UNL     1      -2.487   5.025   3.889  1.00  0.00    -0.376 OA
BRANCH  37  38
ATOM     38  C   UNL     1      -3.854   4.929   3.494  1.00  0.00     0.202 C 
BRANCH  38  39
ATOM     39  C   UNL     1      -4.822   5.620   4.455  1.00  0.00     0.261 C 
BRANCH  39  40
ATOM     40  O   UNL     1      -4.698   5.195   5.809  1.00  0.00    -0.460 OA
BRANCH  40  41
ATOM     41  C   UNL     1      -5.044   3.915   6.059  1.00  0.00     0.338 C 
ATOM     42  O   UNL     1      -5.331   3.065   5.236  1.00  0.00    -0.246 OA
BRANCH  41  43
ATOM     43  C   UNL     1      -5.061   3.702   7.514  1.00  0.00     0.060 A 
ATOM     44  C   UNL     1      -5.303   2.401   7.961  1.00  0.00     0.016 A 
ATOM     45  C   UNL     1      -5.081   4.798   8.391  1.00  0.00     0.016 A 
ATOM     46  C   UNL     1      -5.800   2.228   9.235  1.00  0.00     0.010 A 
ATOM     47  C   UNL     1      -5.586   4.625   9.662  1.00  0.00     0.010 A 
ATOM     48  C   UNL     1      -6.040   3.358  10.022  1.00  0.00    -0.014 A 
BRANCH  48  49
ATOM     49  C   UNL     1      -6.963   3.195  11.129  1.00  0.00     0.031 A 
ATOM     50  C   UNL     1      -6.417   2.660  12.387  1.00  0.00     0.074 A 
ATOM     51  C   UNL     1      -8.251   3.572  11.009  1.00  0.00     0.049 A 
ATOM     52  N   UNL     1      -6.731   1.561  12.988  1.00  0.00    -0.248 NA
ATOM     53  C   UNL     1      -5.339   3.425  13.026  1.00  0.00     0.031 C 
ATOM     54  C   UNL     1      -8.837   4.401   9.948  1.00  0.00     0.029 A 
ATOM     55  N   UNL     1      -9.283   3.397  11.880  1.00  0.00    -0.354 N 
ATOM     56  C   UNL     1      -6.027   1.580  14.185  1.00  0.00     0.074 A 
ATOM     57  C   UNL     1      -5.089   2.672  14.096  1.00  0.00     0.031 C 
ATOM     58  C   UNL     1     -10.045   4.845  10.357  1.00  0.00     0.029 A 
ATOM     59  C   UNL     1     -10.361   4.232  11.636  1.00  0.00     0.049 A 
ATOM     60  H   UNL     1      -9.265   2.739  12.613  1.00  0.00     0.167 HD
ATOM     61  C   UNL     1      -6.408   0.846  15.264  1.00  0.00     0.031 A 
ATOM     62  C   UNL     1     -11.391   4.486  12.477  1.00  0.00     0.031 A 
ATOM     63  C   UNL     1      -7.332  -0.203  14.929  1.00  0.00     0.049 A 
ATOM     64  C   UNL     1     -11.455   3.388  13.471  1.00  0.00     0.074 A 
ATOM     65  C   UNL     1      -7.292  -1.318  14.118  1.00  0.00     0.029 A 
ATOM     66  N   UNL     1      -8.654  -0.003  15.246  1.00  0.00    -0.354 N 
ATOM     67  N   UNL     1     -11.776   2.156  13.186  1.00  0.00    -0.248 NA
ATOM     68  C   UNL     1     -10.816   3.577  14.765  1.00  0.00     0.031 C 
ATOM     69  C   UNL     1      -8.626  -1.504  13.659  1.00  0.00     0.029 A 
ATOM     70  C   UNL     1      -9.414  -0.492  14.213  1.00  0.00     0.049 A 
ATOM     71  H   UNL     1      -8.996   0.416  16.068  1.00  0.00     0.167 HD
ATOM     72  C   UNL     1     -11.043   1.377  14.070  1.00  0.00     0.074 A 
ATOM     73  C   UNL     1     -10.580   2.305  15.094  1.00  0.00     0.031 C 
ATOM     74  C   UNL     1     -10.648   0.112  13.745  1.00  0.00     0.031 A 
BRANCH  61  75
ATOM     75  C   UNL     1      -6.217   1.326  16.678  1.00  0.00    -0.014 A 
ATOM     76  C   UNL     1      -6.460   0.443  17.747  1.00  0.00     0.010 A 
ATOM     77  C   UNL     1      -6.073   2.695  16.990  1.00  0.00     0.010 A 
ATOM     78  C   UNL     1      -6.606   0.919  19.057  1.00  0.00     0.020 A 
ATOM     79  C   UNL     1      -6.167   3.172  18.296  1.00  0.00     0.020 A 
ATOM     80  C   UNL     1      -6.475   2.285  19.317  1.00  0.00     0.054 A 
BRANCH  80  81
ATOM     81  S   UNL     1      -6.794   2.912  20.984  1.00  0.00     0.124 S 
ATOM     82  O   UNL     1      -8.247   2.796  21.069  1.00  0.00    -0.237 OA
ATOM     83  O   UNL     1      -6.033   1.988  21.820  1.00  0.00    -0.237 OA
ATOM     84  O   UNL     1      -6.273   4.276  20.939  1.00  0.00    -0.744 OA
ENDBRANCH  80  81
ENDBRANCH  61  75
BRANCH  62  85
ATOM     85  C   UNL     1     -12.076   5.791  12.655  1.00  0.00    -0.014 A 
ATOM     86  C   UNL     1     -13.280   5.889  13.372  1.00  0.00     0.010 A 
ATOM     87  C   UNL     1     -11.411   6.992  12.324  1.00  0.00     0.010 A 
ATOM     88  C   UNL     1     -13.775   7.139  13.780  1.00  0.00     0.020 A 
ATOM     89  C   UNL     1     -11.905   8.240  12.711  1.00  0.00     0.020 A 
ATOM     90  C   UNL     1     -13.076   8.307  13.457  1.00  0.00     0.054 A 
BRANCH  90  91
ATOM     91  S   UNL     1     -13.636   9.902  14.119  1.00  0.00     0.124 S 
ATOM     92  O   UNL     1     -14.853  10.146  13.350  1.00  0.00    -0.237 OA
ATOM     93  O   UNL     1     -13.830   9.608  15.536  1.00  0.00    -0.237 OA
ATOM     94  O   UNL     1     -12.525  10.806  13.824  1.00  0.00    -0.744 OA
ENDBRANCH  90  91
ENDBRANCH  62  85
BRANCH  74  95
ATOM     95  C   UNL     1     -11.341  -0.594  12.603  1.00  0.00    -0.014 A 
ATOM     96  C   UNL     1     -11.286  -0.139  11.273  1.00  0.00     0.010 A 
ATOM     97  C   UNL     1     -11.913  -1.855  12.860  1.00  0.00     0.010 A 
ATOM     98  C   UNL     1     -11.794  -0.923  10.227  1.00  0.00     0.020 A 
ATOM     99  C   UNL     1     -12.407  -2.647  11.819  1.00  0.00     0.020 A 
ATOM    100  C   UNL     1     -12.346  -2.176  10.506  1.00  0.00     0.054 A 
BRANCH 100 101
ATOM    101  S   UNL     1     -12.903  -3.229   9.136  1.00  0.00     0.124 S 
ATOM    102  O   UNL     1     -14.146  -2.584   8.725  1.00  0.00    -0.237 OA
ATOM    103  O   UNL     1     -11.800  -3.135   8.181  1.00  0.00    -0.237 OA
ATOM    104  O   UNL     1     -13.062  -4.546   9.752  1.00  0.00    -0.744 OA
ENDBRANCH 100 101
ENDBRANCH  74  95
ENDBRANCH  48  49
ENDBRANCH  41  43
ENDBRANCH  40  41
ENDBRANCH  39  40
ENDBRANCH  38  39
ENDBRANCH  37  38
ENDBRANCH  36  37
ENDBRANCH  35  36
ENDBRANCH   1  35
TORSDOF 26
