REMARK SMILES O=C(OCCOCCOCCOC(=O)c1cccc(Nc2ccnc3ccc(Cl)cc23)c1)c1ccc(-c2c3nc(c(-c4ccc(S(=O)(=O)[O-])cc4)c4ccc([nH]4)c(-c4ccc(S(=O)(=O)[O-])cc4)c4nc(c(-c5ccc(S(=O)(=O)[O-])cc5)c5ccc2[nH]5)C=C4)C=C3)cc1
REMARK SMILES IDX 7 1 6 2 5 3 4 4 3 5 2 6 1 7 33 8 34 9 92 10 35 11 91 12
REMARK SMILES IDX 36 13 37 14 38 15 85 16 39 17 90 18 84 19 86 20 40 21 89 22
REMARK SMILES IDX 83 23 82 24 41 26 71 27 52 28 70 29 53 30 56 31 69 32 87 33
REMARK SMILES IDX 54 34 55 35 68 37 88 38 57 39 42 40 43 41 51 42 44 43 50 44
REMARK SMILES IDX 45 45 46 46 47 47 48 48 49 49 72 50 73 51 81 52 74 53 80 54
REMARK SMILES IDX 75 55 76 56 77 57 78 58 79 59 58 60 59 61 67 62 60 63 66 64
REMARK SMILES IDX 61 65 62 66 63 67 64 68 65 69 8 70 9 71 10 72 11 73 12 74
REMARK SMILES IDX 13 75 14 76 15 77 16 78 32 79 17 80 19 81 18 82 20 83 21 85
REMARK SMILES IDX 22 86 31 87 23 88 25 89 30 90 24 91 26 92 28 93 27 94 29 95
REMARK H PARENT 86 25 56 36 20 84
REMARK Flexibility Score: inf
ROOT
ATOM      1  C   UNL     1       2.558  -2.247  -0.485  1.00  0.00     0.188 C 
ENDROOT
BRANCH   1   2
ATOM      2  O   UNL     1       3.765  -1.511  -0.708  1.00  0.00    -0.376 OA
BRANCH   2   3
ATOM      3  C   UNL     1       4.647  -1.495   0.420  1.00  0.00     0.202 C 
BRANCH   3   4
ATOM      4  C   UNL     1       4.384  -0.353   1.412  1.00  0.00     0.261 C 
BRANCH   4   5
ATOM      5  O   UNL     1       2.986  -0.037   1.502  1.00  0.00    -0.460 OA
BRANCH   5   6
ATOM      6  C   UNL     1       2.318   0.933   0.825  1.00  0.00     0.338 C 
ATOM      7  O   UNL     1       1.104   1.043   0.989  1.00  0.00    -0.246 OA
BRANCH   6   8
ATOM      8  C   UNL     1       3.000   1.925  -0.059  1.00  0.00     0.060 A 
ATOM      9  C   UNL     1       4.110   1.650  -0.861  1.00  0.00     0.016 A 
ATOM     10  C   UNL     1       2.440   3.210  -0.124  1.00  0.00     0.016 A 
ATOM     11  C   UNL     1       4.748   2.657  -1.582  1.00  0.00     0.010 A 
ATOM     12  C   UNL     1       3.027   4.204  -0.913  1.00  0.00     0.010 A 
ATOM     13  C   UNL     1       4.221   3.946  -1.603  1.00  0.00    -0.014 A 
BRANCH  13  14
ATOM     14  C   UNL     1       4.972   5.055  -2.232  1.00  0.00     0.031 A 
ATOM     15  C   UNL     1       5.526   6.133  -1.349  1.00  0.00     0.074 A 
ATOM     16  C   UNL     1       5.199   5.091  -3.558  1.00  0.00     0.049 A 
ATOM     17  N   UNL     1       6.060   7.277  -1.676  1.00  0.00    -0.248 NA
ATOM     18  C   UNL     1       5.495   5.869   0.100  1.00  0.00     0.031 C 
ATOM     19  C   UNL     1       4.862   4.029  -4.501  1.00  0.00     0.029 A 
ATOM     20  N   UNL     1       5.742   6.073  -4.347  1.00  0.00    -0.354 N 
ATOM     21  C   UNL     1       6.434   7.868  -0.477  1.00  0.00     0.074 A 
ATOM     22  C   UNL     1       6.022   6.980   0.587  1.00  0.00     0.031 C 
ATOM     23  C   UNL     1       5.125   4.444  -5.749  1.00  0.00     0.029 A 
ATOM     24  C   UNL     1       5.603   5.818  -5.691  1.00  0.00     0.049 A 
ATOM     25  H   UNL     1       6.185   6.876  -3.989  1.00  0.00     0.167 HD
ATOM     26  C   UNL     1       7.083   9.040  -0.284  1.00  0.00     0.031 A 
ATOM     27  C   UNL     1       5.772   6.624  -6.754  1.00  0.00     0.031 A 
ATOM     28  C   UNL     1       7.464   9.920  -1.353  1.00  0.00     0.049 A 
ATOM     29  C   UNL     1       6.290   8.009  -6.525  1.00  0.00     0.074 A 
ATOM     30  C   UNL     1       8.103  11.143  -1.283  1.00  0.00     0.029 A 
ATOM     31  N   UNL     1       7.225   9.665  -2.697  1.00  0.00    -0.354 N 
ATOM     32  N   UNL     1       6.593   8.586  -5.387  1.00  0.00    -0.248 NA
ATOM     33  C   UNL     1       6.520   8.839  -7.712  1.00  0.00     0.031 C 
ATOM     34  C   UNL     1       8.217  11.645  -2.585  1.00  0.00     0.029 A 
ATOM     35  C   UNL     1       7.689  10.714  -3.468  1.00  0.00     0.049 A 
ATOM     36  H   UNL     1       6.789   8.855  -3.049  1.00  0.00     0.167 HD
ATOM     37  C   UNL     1       7.103   9.832  -5.722  1.00  0.00     0.074 A 
ATOM     38  C   UNL     1       7.036   9.934  -7.168  1.00  0.00     0.031 C 
ATOM     39  C   UNL     1       7.612  10.787  -4.906  1.00  0.00     0.031 A 
BRANCH  26  40
ATOM     40  C   UNL     1       7.365   9.423   1.141  1.00  0.00    -0.014 A 
ATOM     41  C   UNL     1       8.339   8.742   1.896  1.00  0.00     0.010 A 
ATOM     42  C   UNL     1       6.597  10.426   1.757  1.00  0.00     0.010 A 
ATOM     43  C   UNL     1       8.491   9.009   3.259  1.00  0.00     0.020 A 
ATOM     44  C   UNL     1       6.763  10.713   3.115  1.00  0.00     0.020 A 
ATOM     45  C   UNL     1       7.688   9.981   3.863  1.00  0.00     0.054 A 
BRANCH  45  46
ATOM     46  S   UNL     1       7.861  10.273   5.645  1.00  0.00     0.124 S 
ATOM     47  O   UNL     1       7.153   9.124   6.206  1.00  0.00    -0.237 OA
ATOM     48  O   UNL     1       9.309  10.270   5.835  1.00  0.00    -0.237 OA
ATOM     49  O   UNL     1       7.211  11.566   5.848  1.00  0.00    -0.744 OA
ENDBRANCH  45  46
ENDBRANCH  26  40
BRANCH  27  50
ATOM     50  C   UNL     1       5.364   6.148  -8.100  1.00  0.00    -0.014 A 
ATOM     51  C   UNL     1       6.302   5.643  -9.013  1.00  0.00     0.010 A 
ATOM     52  C   UNL     1       3.997   6.133  -8.439  1.00  0.00     0.010 A 
ATOM     53  C   UNL     1       5.878   5.122 -10.241  1.00  0.00     0.020 A 
ATOM     54  C   UNL     1       3.568   5.600  -9.657  1.00  0.00     0.020 A 
ATOM     55  C   UNL     1       4.515   5.100 -10.553  1.00  0.00     0.054 A 
BRANCH  55  56
ATOM     56  S   UNL     1       3.979   4.334 -12.110  1.00  0.00     0.124 S 
ATOM     57  O   UNL     1       4.241   5.395 -13.076  1.00  0.00    -0.237 OA
ATOM     58  O   UNL     1       4.848   3.163 -12.202  1.00  0.00    -0.237 OA
ATOM     59  O   UNL     1       2.570   4.032 -11.868  1.00  0.00    -0.744 OA
ENDBRANCH  55  56
ENDBRANCH  27  50
BRANCH  39  60
ATOM     60  C   UNL     1       8.211  11.993  -5.564  1.00  0.00    -0.014 A 
ATOM     61  C   UNL     1       7.408  13.035  -6.054  1.00  0.00     0.010 A 
ATOM     62  C   UNL     1       9.612  12.108  -5.620  1.00  0.00     0.010 A 
ATOM     63  C   UNL     1       8.001  14.175  -6.601  1.00  0.00     0.020 A 
ATOM     64  C   UNL     1      10.207  13.253  -6.148  1.00  0.00     0.020 A 
ATOM     65  C   UNL     1       9.396  14.277  -6.642  1.00  0.00     0.054 A 
BRANCH  65  66
ATOM     66  S   UNL     1      10.147  15.797  -7.286  1.00  0.00     0.124 S 
ATOM     67  O   UNL     1      10.009  15.615  -8.728  1.00  0.00    -0.237 OA
ATOM     68  O   UNL     1       9.311  16.843  -6.701  1.00  0.00    -0.237 OA
ATOM     69  O   UNL     1      11.516  15.747  -6.778  1.00  0.00    -0.744 OA
ENDBRANCH  65  66
ENDBRANCH  39  60
ENDBRANCH  13  14
ENDBRANCH   6   8
ENDBRANCH   5   6
ENDBRANCH   4   5
ENDBRANCH   3   4
ENDBRANCH   2   3
ENDBRANCH   1   2
BRANCH   1  70
ATOM     70  C   UNL     1       2.078  -2.962  -1.754  1.00  0.00     0.188 C 
BRANCH  70  71
ATOM     71  O   UNL     1       2.952  -3.986  -2.231  1.00  0.00    -0.376 OA
BRANCH  71  72
ATOM     72  C   UNL     1       4.199  -3.552  -2.785  1.00  0.00     0.202 C 
BRANCH  72  73
ATOM     73  C   UNL     1       4.098  -2.720  -4.068  1.00  0.00     0.261 C 
BRANCH  73  74
ATOM     74  O   UNL     1       3.552  -1.415  -3.817  1.00  0.00    -0.460 OA
BRANCH  74  75
ATOM     75  C   UNL     1       3.204  -0.750  -4.947  1.00  0.00     0.338 C 
ATOM     76  O   UNL     1       3.421  -1.124  -6.088  1.00  0.00    -0.246 OA
BRANCH  75  77
ATOM     77  C   UNL     1       2.505   0.518  -4.631  1.00  0.00     0.062 A 
ATOM     78  C   UNL     1       1.708   0.670  -3.490  1.00  0.00     0.016 A 
ATOM     79  C   UNL     1       2.574   1.551  -5.573  1.00  0.00     0.041 A 
ATOM     80  C   UNL     1       0.975   1.841  -3.299  1.00  0.00     0.003 A 
ATOM     81  C   UNL     1       1.850   2.732  -5.381  1.00  0.00     0.039 A 
ATOM     82  C   UNL     1       1.040   2.860  -4.247  1.00  0.00     0.026 A 
BRANCH  81  83
ATOM     83  N   UNL     1       1.781   3.705  -6.400  1.00  0.00    -0.355 N 
ATOM     84  H   UNL     1       2.539   4.318  -6.537  1.00  0.00     0.167 HD
BRANCH  83  85
ATOM     85  C   UNL     1       0.636   3.813  -7.229  1.00  0.00     0.050 A 
ATOM     86  C   UNL     1       0.227   2.692  -7.954  1.00  0.00     0.047 A 
ATOM     87  C   UNL     1      -0.052   5.032  -7.388  1.00  0.00     0.025 A 
ATOM     88  C   UNL     1      -0.909   2.787  -8.723  1.00  0.00     0.114 A 
ATOM     89  C   UNL     1      -1.213   5.008  -8.193  1.00  0.00     0.072 A 
ATOM     90  C   UNL     1       0.344   6.241  -6.771  1.00  0.00     0.033 A 
ATOM     91  N   UNL     1      -1.653   3.906  -8.822  1.00  0.00    -0.256 NA
ATOM     92  C   UNL     1      -1.943   6.177  -8.342  1.00  0.00     0.030 A 
ATOM     93  C   UNL     1      -0.397   7.403  -6.963  1.00  0.00     0.041 A 
ATOM     94  C   UNL     1      -1.546   7.374  -7.742  1.00  0.00     0.023 A 
ATOM     95  Cl  UNL     1       0.102   8.878  -6.235  1.00  0.00    -0.084 Cl
ENDBRANCH  83  85
ENDBRANCH  81  83
ENDBRANCH  75  77
ENDBRANCH  74  75
ENDBRANCH  73  74
ENDBRANCH  72  73
ENDBRANCH  71  72
ENDBRANCH  70  71
ENDBRANCH   1  70
TORSDOF 22
