REMARK SMILES CC(C)C[NH+]1CC[NH+]([C@@H]2CC[C@]([NH3+])(C(=O)OCCOCCOCCOC(=O)c3ccc(-c4c5nc(c(-c6ccc(S(=O)(=O)[O-])cc6)c6ccc([nH]6)c(-c6ccc(S(=O)(=O)[O-])cc6)c6nc(c(-c7ccc(S(=O)(=O)[O-])cc7)c7ccc4[nH]7)C=C6)C=C5)cc3)C2)CC1
REMARK SMILES IDX 20 1 19 2 18 3 17 4 16 5 14 6 15 7 12 8 9 9 10 10 88 11
REMARK SMILES IDX 11 12 8 13 5 14 6 15 90 16 7 18 89 19 4 21 2 22 1 23 3 24
REMARK SMILES IDX 13 25 21 29 22 30 23 31 24 32 25 33 26 34 27 35 28 36 29 37
REMARK SMILES IDX 87 38 30 39 86 40 31 41 32 42 33 43 80 44 34 45 85 46 79 47
REMARK SMILES IDX 81 48 35 49 84 50 78 51 77 52 36 54 66 55 47 56 65 57 48 58
REMARK SMILES IDX 51 59 64 60 82 61 49 62 50 63 63 65 83 66 52 67 37 68 38 69
REMARK SMILES IDX 46 70 39 71 45 72 40 73 41 74 42 75 43 76 44 77 67 78 68 79
REMARK SMILES IDX 76 80 69 81 75 82 70 83 71 84 72 85 73 86 74 87 53 88 54 89
REMARK SMILES IDX 62 90 55 91 61 92 56 93 57 94 58 95 59 96 60 97
REMARK H PARENT 5 17 8 20 13 26 13 27 13 28 81 53 51 64
REMARK Flexibility Score: inf
ROOT
ATOM      1  C   UNL     1       0.269  -7.461   2.378  1.00  0.00     0.188 C 
ENDROOT
BRANCH   1   2
ATOM      2  O   UNL     1       0.600  -8.100   3.604  1.00  0.00    -0.376 OA
BRANCH   2   3
ATOM      3  C   UNL     1      -0.443  -8.439   4.511  1.00  0.00     0.202 C 
BRANCH   3   4
ATOM      4  C   UNL     1      -1.455  -7.361   4.912  1.00  0.00     0.261 C 
BRANCH   4   5
ATOM      5  O   UNL     1      -2.211  -6.846   3.801  1.00  0.00    -0.459 OA
BRANCH   5   6
ATOM      6  C   UNL     1      -2.192  -5.491   3.654  1.00  0.00     0.368 C 
ATOM      7  O   UNL     1      -1.669  -4.722   4.455  1.00  0.00    -0.245 OA
BRANCH   6   8
ATOM      8  C   UNL     1      -2.850  -5.007   2.338  1.00  0.00     0.198 C 
ATOM      9  C   UNL     1      -2.452  -3.355   0.585  1.00  0.00     0.191 C 
ATOM     10  C   UNL     1      -3.515  -2.781   1.531  1.00  0.00     0.072 C 
ATOM     11  C   UNL     1      -1.752  -4.421   1.430  1.00  0.00     0.145 C 
ATOM     12  C   UNL     1      -3.769  -3.816   2.627  1.00  0.00     0.087 C 
BRANCH   9  13
ATOM     13  N   UNL     1      -1.571  -2.450  -0.170  1.00  0.00    -0.323 N 
ATOM     14  N   UNL     1      -1.347   0.340   0.965  1.00  0.00    -0.325 N 
ATOM     15  C   UNL     1      -2.493  -0.071   0.124  1.00  0.00     0.324 C 
ATOM     16  C   UNL     1      -0.620  -0.810   1.509  1.00  0.00     0.324 C 
ATOM     17  H   UNL     1      -1.672   0.787   1.823  1.00  0.00     0.348 HD
ATOM     18  C   UNL     1      -2.254  -1.302  -0.795  1.00  0.00     0.324 C 
ATOM     19  C   UNL     1      -0.361  -1.948   0.502  1.00  0.00     0.324 C 
ATOM     20  H   UNL     1      -1.258  -3.108  -0.884  1.00  0.00     0.348 HD
BRANCH  14  21
ATOM     21  C   UNL     1      -0.582   1.409   0.311  1.00  0.00     0.265 C 
BRANCH  21  22
ATOM     22  C   UNL     1       0.905   1.678   0.645  1.00  0.00     0.038 C 
ATOM     23  C   UNL     1       1.856   0.673  -0.017  1.00  0.00     0.013 C 
ATOM     24  C   UNL     1       1.264   3.084   0.143  1.00  0.00     0.013 C 
ENDBRANCH  21  22
ENDBRANCH  14  21
ENDBRANCH   9  13
BRANCH   8  25
ATOM     25  N   UNL     1      -3.609  -6.054   1.621  1.00  0.00    -0.343 N 
ATOM     26  H   UNL     1      -4.010  -5.661   0.770  1.00  0.00     0.345 HD
ATOM     27  H   UNL     1      -4.357  -6.402   2.220  1.00  0.00     0.345 HD
ATOM     28  H   UNL     1      -2.983  -6.822   1.378  1.00  0.00     0.345 HD
ENDBRANCH   8  25
ENDBRANCH   6   8
ENDBRANCH   5   6
ENDBRANCH   4   5
ENDBRANCH   3   4
ENDBRANCH   2   3
ENDBRANCH   1   2
BRANCH   1  29
ATOM     29  C   UNL     1      -0.796  -8.096   1.461  1.00  0.00     0.188 C 
BRANCH  29  30
ATOM     30  O   UNL     1      -1.437  -9.240   1.967  1.00  0.00    -0.376 OA
BRANCH  30  31
ATOM     31  C   UNL     1      -0.962 -10.533   1.652  1.00  0.00     0.202 C 
BRANCH  31  32
ATOM     32  C   UNL     1       0.411 -10.873   1.040  1.00  0.00     0.261 C 
BRANCH  32  33
ATOM     33  O   UNL     1       1.311  -9.808   0.737  1.00  0.00    -0.460 OA
BRANCH  33  34
ATOM     34  C   UNL     1       1.357  -9.428  -0.565  1.00  0.00     0.338 C 
ATOM     35  O   UNL     1       0.668  -9.844  -1.478  1.00  0.00    -0.246 OA
BRANCH  34  36
ATOM     36  C   UNL     1       2.291  -8.293  -0.684  1.00  0.00     0.060 A 
ATOM     37  C   UNL     1       1.800  -7.041  -1.076  1.00  0.00     0.016 A 
ATOM     38  C   UNL     1       3.652  -8.482  -0.444  1.00  0.00     0.016 A 
ATOM     39  C   UNL     1       2.682  -5.973  -1.257  1.00  0.00     0.010 A 
ATOM     40  C   UNL     1       4.534  -7.419  -0.644  1.00  0.00     0.010 A 
ATOM     41  C   UNL     1       4.058  -6.168  -1.079  1.00  0.00    -0.014 A 
BRANCH  41  42
ATOM     42  C   UNL     1       5.035  -5.142  -1.515  1.00  0.00     0.031 A 
ATOM     43  C   UNL     1       5.682  -5.302  -2.864  1.00  0.00     0.074 A 
ATOM     44  C   UNL     1       5.380  -4.117  -0.716  1.00  0.00     0.049 A 
ATOM     45  N   UNL     1       6.668  -4.628  -3.396  1.00  0.00    -0.248 NA
ATOM     46  C   UNL     1       5.149  -6.374  -3.722  1.00  0.00     0.031 C 
ATOM     47  C   UNL     1       4.792  -3.822   0.589  1.00  0.00     0.029 A 
ATOM     48  N   UNL     1       6.335  -3.144  -0.884  1.00  0.00    -0.354 N 
ATOM     49  C   UNL     1       6.887  -5.205  -4.642  1.00  0.00     0.074 A 
ATOM     50  C   UNL     1       5.943  -6.293  -4.779  1.00  0.00     0.031 C 
ATOM     51  C   UNL     1       5.417  -2.755   1.116  1.00  0.00     0.029 A 
ATOM     52  C   UNL     1       6.477  -2.320   0.206  1.00  0.00     0.049 A 
ATOM     53  H   UNL     1       6.867  -3.047  -1.707  1.00  0.00     0.167 HD
ATOM     54  C   UNL     1       7.795  -4.862  -5.585  1.00  0.00     0.031 A 
ATOM     55  C   UNL     1       7.383  -1.352   0.457  1.00  0.00     0.031 A 
ATOM     56  C   UNL     1       8.744  -3.792  -5.438  1.00  0.00     0.049 A 
ATOM     57  C   UNL     1       8.441  -1.042  -0.572  1.00  0.00     0.074 A 
ATOM     58  C   UNL     1       9.700  -3.361  -6.341  1.00  0.00     0.029 A 
ATOM     59  N   UNL     1       8.866  -2.992  -4.312  1.00  0.00    -0.354 N 
ATOM     60  N   UNL     1       8.629  -1.583  -1.752  1.00  0.00    -0.248 NA
ATOM     61  C   UNL     1       9.411   0.012  -0.235  1.00  0.00     0.031 C 
ATOM     62  C   UNL     1      10.435  -2.335  -5.740  1.00  0.00     0.029 A 
ATOM     63  C   UNL     1       9.896  -2.085  -4.487  1.00  0.00     0.049 A 
ATOM     64  H   UNL     1       8.303  -3.060  -3.507  1.00  0.00     0.167 HD
ATOM     65  C   UNL     1       9.714  -0.913  -2.311  1.00  0.00     0.074 A 
ATOM     66  C   UNL     1      10.139   0.076  -1.342  1.00  0.00     0.031 C 
ATOM     67  C   UNL     1      10.300  -1.096  -3.520  1.00  0.00     0.031 A 
BRANCH  54  68
ATOM     68  C   UNL     1       7.831  -5.684  -6.845  1.00  0.00    -0.014 A 
ATOM     69  C   UNL     1       6.805  -5.595  -7.804  1.00  0.00     0.010 A 
ATOM     70  C   UNL     1       8.925  -6.535  -7.088  1.00  0.00     0.010 A 
ATOM     71  C   UNL     1       6.855  -6.372  -8.964  1.00  0.00     0.020 A 
ATOM     72  C   UNL     1       8.991  -7.292  -8.261  1.00  0.00     0.020 A 
ATOM     73  C   UNL     1       7.946  -7.218  -9.184  1.00  0.00     0.054 A 
BRANCH  73  74
ATOM     74  S   UNL     1       7.994  -8.200 -10.708  1.00  0.00     0.124 S 
ATOM     75  O   UNL     1       6.974  -9.213 -10.445  1.00  0.00    -0.237 OA
ATOM     76  O   UNL     1       7.653  -7.217 -11.733  1.00  0.00    -0.237 OA
ATOM     77  O   UNL     1       9.366  -8.698 -10.758  1.00  0.00    -0.744 OA
ENDBRANCH  73  74
ENDBRANCH  54  68
BRANCH  55  78
ATOM     78  C   UNL     1       7.351  -0.622   1.754  1.00  0.00    -0.014 A 
ATOM     79  C   UNL     1       6.984   0.734   1.803  1.00  0.00     0.010 A 
ATOM     80  C   UNL     1       7.696  -1.279   2.950  1.00  0.00     0.010 A 
ATOM     81  C   UNL     1       6.977   1.423   3.020  1.00  0.00     0.020 A 
ATOM     82  C   UNL     1       7.663  -0.602   4.172  1.00  0.00     0.020 A 
ATOM     83  C   UNL     1       7.314   0.750   4.197  1.00  0.00     0.054 A 
BRANCH  83  84
ATOM     84  S   UNL     1       7.250   1.652   5.771  1.00  0.00     0.124 S 
ATOM     85  O   UNL     1       8.427   2.510   5.677  1.00  0.00    -0.237 OA
ATOM     86  O   UNL     1       5.961   2.334   5.690  1.00  0.00    -0.237 OA
ATOM     87  O   UNL     1       7.325   0.593   6.775  1.00  0.00    -0.744 OA
ENDBRANCH  83  84
ENDBRANCH  55  78
BRANCH  67  88
ATOM     88  C   UNL     1      11.433  -0.179  -3.902  1.00  0.00    -0.014 A 
ATOM     89  C   UNL     1      12.711  -0.315  -3.333  1.00  0.00     0.010 A 
ATOM     90  C   UNL     1      11.234   0.772  -4.920  1.00  0.00     0.010 A 
ATOM     91  C   UNL     1      13.766   0.494  -3.766  1.00  0.00     0.020 A 
ATOM     92  C   UNL     1      12.291   1.565  -5.373  1.00  0.00     0.020 A 
ATOM     93  C   UNL     1      13.551   1.426  -4.787  1.00  0.00     0.054 A 
BRANCH  93  94
ATOM     94  S   UNL     1      14.953   2.413  -5.382  1.00  0.00     0.124 S 
ATOM     95  O   UNL     1      15.149   3.356  -4.284  1.00  0.00    -0.237 OA
ATOM     96  O   UNL     1      16.003   1.411  -5.546  1.00  0.00    -0.237 OA
ATOM     97  O   UNL     1      14.461   3.000  -6.627  1.00  0.00    -0.744 OA
ENDBRANCH  93  94
ENDBRANCH  67  88
ENDBRANCH  41  42
ENDBRANCH  34  36
ENDBRANCH  33  34
ENDBRANCH  32  33
ENDBRANCH  31  32
ENDBRANCH  30  31
ENDBRANCH  29  30
ENDBRANCH   1  29
TORSDOF 24
