REMARK SMILES O=C(OCCOCCOCCOC(=O)c1cn(C2CN(C(=O)c3c[nH]nn3)C2)nn1)c1ccc(-c2c3nc(c(-c4ccc(S(=O)(=O)[O-])cc4)c4ccc([nH]4)c(-c4ccc(S(=O)(=O)[O-])cc4)c4nc(c(-c5ccc(S(=O)(=O)[O-])cc5)c5ccc2[nH]5)C=C4)C=C3)cc1
REMARK SMILES IDX 7 1 6 2 5 3 4 4 3 5 2 6 1 7 31 8 32 9 90 10 33 11 89 12
REMARK SMILES IDX 34 13 35 14 36 15 83 16 37 17 88 18 82 19 84 20 38 21 87 22
REMARK SMILES IDX 81 23 80 24 39 26 69 27 50 28 68 29 51 30 54 31 67 32 85 33
REMARK SMILES IDX 52 34 53 35 66 37 86 38 55 39 40 40 41 41 49 42 42 43 48 44
REMARK SMILES IDX 43 45 44 46 45 47 46 48 47 49 70 50 71 51 79 52 72 53 78 54
REMARK SMILES IDX 73 55 74 56 75 57 76 58 77 59 56 60 57 61 65 62 58 63 64 64
REMARK SMILES IDX 59 65 60 66 61 67 62 68 63 69 8 70 9 71 10 72 11 73 12 74
REMARK SMILES IDX 13 75 14 76 15 77 16 78 30 79 17 80 29 81 18 82 19 83 28 84
REMARK SMILES IDX 20 85 21 86 22 87 23 88 24 89 27 90 25 91 26 92
REMARK H PARENT 84 25 54 36 25 93
REMARK Flexibility Score: inf
ROOT
ATOM      1  C   UNL     1       2.572  -1.736  -1.295  1.00  0.00     0.188 C 
ENDROOT
BRANCH   1   2
ATOM      2  O   UNL     1       3.901  -1.198  -1.276  1.00  0.00    -0.376 OA
BRANCH   2   3
ATOM      3  C   UNL     1       4.702  -1.662  -0.185  1.00  0.00     0.202 C 
BRANCH   3   4
ATOM      4  C   UNL     1       4.466  -0.951   1.156  1.00  0.00     0.261 C 
BRANCH   4   5
ATOM      5  O   UNL     1       3.082  -0.629   1.369  1.00  0.00    -0.460 OA
BRANCH   5   6
ATOM      6  C   UNL     1       2.468   0.570   1.190  1.00  0.00     0.338 C 
ATOM      7  O   UNL     1       1.296   0.681   1.545  1.00  0.00    -0.246 OA
BRANCH   6   8
ATOM      8  C   UNL     1       3.149   1.773   0.613  1.00  0.00     0.060 A 
ATOM      9  C   UNL     1       4.265   1.739  -0.223  1.00  0.00     0.016 A 
ATOM     10  C   UNL     1       2.596   3.031   0.909  1.00  0.00     0.016 A 
ATOM     11  C   UNL     1       4.909   2.905  -0.624  1.00  0.00     0.010 A 
ATOM     12  C   UNL     1       3.194   4.210   0.446  1.00  0.00     0.010 A 
ATOM     13  C   UNL     1       4.388   4.151  -0.282  1.00  0.00    -0.014 A 
BRANCH  13  14
ATOM     14  C   UNL     1       5.189   5.360  -0.575  1.00  0.00     0.031 A 
ATOM     15  C   UNL     1       5.851   6.079   0.566  1.00  0.00     0.074 A 
ATOM     16  C   UNL     1       5.452   5.723  -1.845  1.00  0.00     0.049 A 
ATOM     17  N   UNL     1       6.569   7.170   0.550  1.00  0.00    -0.248 NA
ATOM     18  C   UNL     1       5.712   5.468   1.900  1.00  0.00     0.031 C 
ATOM     19  C   UNL     1       5.013   5.006  -3.045  1.00  0.00     0.029 A 
ATOM     20  N   UNL     1       6.191   6.769  -2.337  1.00  0.00    -0.354 N 
ATOM     21  C   UNL     1       6.968   7.375   1.865  1.00  0.00     0.074 A 
ATOM     22  C   UNL     1       6.387   6.317   2.659  1.00  0.00     0.031 C 
ATOM     23  C   UNL     1       5.505   5.630  -4.127  1.00  0.00     0.029 A 
ATOM     24  C   UNL     1       6.200   6.835  -3.709  1.00  0.00     0.049 A 
ATOM     25  H   UNL     1       6.667   7.411  -1.763  1.00  0.00     0.167 HD
ATOM     26  C   UNL     1       7.758   8.354   2.364  1.00  0.00     0.031 A 
ATOM     27  C   UNL     1       6.667   7.788  -4.534  1.00  0.00     0.031 A 
ATOM     28  C   UNL     1       8.316   9.413   1.570  1.00  0.00     0.049 A 
ATOM     29  C   UNL     1       7.361   8.974  -3.940  1.00  0.00     0.074 A 
ATOM     30  C   UNL     1       9.090  10.485   1.977  1.00  0.00     0.029 A 
ATOM     31  N   UNL     1       8.153   9.533   0.198  1.00  0.00    -0.354 N 
ATOM     32  N   UNL     1       7.630   9.220  -2.682  1.00  0.00    -0.248 NA
ATOM     33  C   UNL     1       7.817  10.006  -4.880  1.00  0.00     0.031 C 
ATOM     34  C   UNL     1       9.354  11.280   0.856  1.00  0.00     0.029 A 
ATOM     35  C   UNL     1       8.790  10.674  -0.255  1.00  0.00     0.049 A 
ATOM     36  H   UNL     1       7.658   8.899  -0.369  1.00  0.00     0.167 HD
ATOM     37  C   UNL     1       8.309  10.429  -2.678  1.00  0.00     0.074 A 
ATOM     38  C   UNL     1       8.401  10.867  -4.057  1.00  0.00     0.031 C 
ATOM     39  C   UNL     1       8.832  11.104  -1.627  1.00  0.00     0.031 A 
BRANCH  26  40
ATOM     40  C   UNL     1       8.000   8.343   3.847  1.00  0.00    -0.014 A 
ATOM     41  C   UNL     1       8.855   7.397   4.441  1.00  0.00     0.010 A 
ATOM     42  C   UNL     1       7.339   9.280   4.660  1.00  0.00     0.010 A 
ATOM     43  C   UNL     1       9.007   7.359   5.830  1.00  0.00     0.020 A 
ATOM     44  C   UNL     1       7.505   9.259   6.047  1.00  0.00     0.020 A 
ATOM     45  C   UNL     1       8.322   8.285   6.625  1.00  0.00     0.054 A 
BRANCH  45  46
ATOM     46  S   UNL     1       8.521   8.207   8.426  1.00  0.00     0.124 S 
ATOM     47  O   UNL     1       7.720   7.033   8.765  1.00  0.00    -0.237 OA
ATOM     48  O   UNL     1       9.964   8.048   8.583  1.00  0.00    -0.237 OA
ATOM     49  O   UNL     1       7.983   9.483   8.889  1.00  0.00    -0.744 OA
ENDBRANCH  45  46
ENDBRANCH  26  40
BRANCH  27  50
ATOM     50  C   UNL     1       6.371   7.760  -5.988  1.00  0.00    -0.014 A 
ATOM     51  C   UNL     1       7.293   7.271  -6.926  1.00  0.00     0.010 A 
ATOM     52  C   UNL     1       5.169   8.337  -6.438  1.00  0.00     0.010 A 
ATOM     53  C   UNL     1       7.032   7.395  -8.297  1.00  0.00     0.020 A 
ATOM     54  C   UNL     1       4.902   8.453  -7.801  1.00  0.00     0.020 A 
ATOM     55  C   UNL     1       5.847   8.005  -8.724  1.00  0.00     0.054 A 
BRANCH  55  56
ATOM     56  S   UNL     1       5.546   8.239 -10.499  1.00  0.00     0.124 S 
ATOM     57  O   UNL     1       6.380   9.400 -10.791  1.00  0.00    -0.237 OA
ATOM     58  O   UNL     1       5.995   6.976 -11.072  1.00  0.00    -0.237 OA
ATOM     59  O   UNL     1       4.104   8.479 -10.561  1.00  0.00    -0.744 OA
ENDBRANCH  55  56
ENDBRANCH  27  50
BRANCH  39  60
ATOM     60  C   UNL     1       9.571  12.368  -1.947  1.00  0.00    -0.014 A 
ATOM     61  C   UNL     1       8.884  13.548  -2.275  1.00  0.00     0.010 A 
ATOM     62  C   UNL     1      10.976  12.370  -1.899  1.00  0.00     0.010 A 
ATOM     63  C   UNL     1       9.596  14.710  -2.576  1.00  0.00     0.020 A 
ATOM     64  C   UNL     1      11.689  13.535  -2.176  1.00  0.00     0.020 A 
ATOM     65  C   UNL     1      10.994  14.695  -2.525  1.00  0.00     0.054 A 
BRANCH  65  66
ATOM     66  S   UNL     1      11.899  16.226  -2.874  1.00  0.00     0.124 S 
ATOM     67  O   UNL     1      11.814  16.303  -4.329  1.00  0.00    -0.237 OA
ATOM     68  O   UNL     1      11.126  17.229  -2.144  1.00  0.00    -0.237 OA
ATOM     69  O   UNL     1      13.233  15.967  -2.338  1.00  0.00    -0.744 OA
ENDBRANCH  65  66
ENDBRANCH  39  60
ENDBRANCH  13  14
ENDBRANCH   6   8
ENDBRANCH   5   6
ENDBRANCH   4   5
ENDBRANCH   3   4
ENDBRANCH   2   3
ENDBRANCH   1   2
BRANCH   1  70
ATOM     70  C   UNL     1       2.055  -1.928  -2.724  1.00  0.00     0.188 C 
BRANCH  70  71
ATOM     71  O   UNL     1       2.652  -3.006  -3.455  1.00  0.00    -0.376 OA
BRANCH  71  72
ATOM     72  C   UNL     1       4.069  -2.965  -3.615  1.00  0.00     0.202 C 
BRANCH  72  73
ATOM     73  C   UNL     1       4.604  -1.931  -4.610  1.00  0.00     0.261 C 
BRANCH  73  74
ATOM     74  O   UNL     1       4.109  -0.609  -4.363  1.00  0.00    -0.458 OA
BRANCH  74  75
ATOM     75  C   UNL     1       3.576   0.027  -5.448  1.00  0.00     0.360 C 
ATOM     76  O   UNL     1       3.564  -0.434  -6.583  1.00  0.00    -0.244 OA
BRANCH  75  77
ATOM     77  C   UNL     1       3.024   1.333  -5.138  1.00  0.00     0.190 A 
ATOM     78  C   UNL     1       2.870   2.372  -6.032  1.00  0.00     0.147 A 
ATOM     79  N   UNL     1       2.526   1.723  -3.918  1.00  0.00    -0.123 NA
ATOM     80  N   UNL     1       2.258   3.355  -5.312  1.00  0.00    -0.245 N 
ATOM     81  N   UNL     1       2.037   2.954  -4.045  1.00  0.00    -0.066 NA
BRANCH  80  82
ATOM     82  C   UNL     1       1.895   4.667  -5.773  1.00  0.00     0.148 C 
ATOM     83  C   UNL     1       3.061   5.370  -6.470  1.00  0.00     0.149 C 
ATOM     84  C   UNL     1       1.169   4.669  -7.124  1.00  0.00     0.149 C 
ATOM     85  N   UNL     1       2.267   5.463  -7.686  1.00  0.00    -0.333 N 
ATOM     86  C   UNL     1       2.766   5.178  -8.953  1.00  0.00     0.276 C 
ATOM     87  O   UNL     1       3.699   4.393  -9.114  1.00  0.00    -0.267 OA
BRANCH  86  88
ATOM     88  C   UNL     1       1.983   5.769 -10.023  1.00  0.00     0.170 A 
ATOM     89  C   UNL     1       1.286   6.961  -9.991  1.00  0.00     0.141 A 
ATOM     90  N   UNL     1       1.797   5.184 -11.254  1.00  0.00    -0.125 NA
ATOM     91  N   UNL     1       0.837   7.104 -11.265  1.00  0.00    -0.265 N 
ATOM     92  N   UNL     1       1.039   5.992 -11.987  1.00  0.00    -0.069 NA
ATOM     93  H   UNL     1       0.416   7.923 -11.615  1.00  0.00     0.191 HD
ENDBRANCH  86  88
ENDBRANCH  80  82
ENDBRANCH  75  77
ENDBRANCH  74  75
ENDBRANCH  73  74
ENDBRANCH  72  73
ENDBRANCH  71  72
ENDBRANCH  70  71
ENDBRANCH   1  70
TORSDOF 22
