REMARK SMILES O=C(OCCOCCOCCOC(=O)c1ccc(-c2c3nc(c(-c4ccc(S(=O)(=O)[O-])cc4)c4ccc([nH]4)c(-c4ccc(S(=O)(=O)[O-])cc4)c4nc(c(-c5ccc(S(=O)(=O)[O-])cc5)c5ccc2[nH]5)C=C4)C=C3)cc1)c1ccc(N[C@H]2OC[C@@H](O)[C@@H](O)[C@H]2O)cc1
REMARK SMILES IDX 7 1 6 2 5 3 4 4 3 5 2 6 1 7 75 8 76 9 90 10 77 11 89 12
REMARK SMILES IDX 78 13 79 14 80 16 81 17 87 18 82 19 85 20 83 21 88 22 86 24
REMARK SMILES IDX 84 26 8 28 9 29 10 30 11 31 12 32 13 33 14 34 15 35 16 36
REMARK SMILES IDX 74 37 17 38 73 39 18 40 19 41 20 42 67 43 21 44 72 45 66 46
REMARK SMILES IDX 68 47 22 48 71 49 65 50 64 51 23 53 53 54 34 55 52 56 35 57
REMARK SMILES IDX 38 58 51 59 69 60 36 61 37 62 50 64 70 65 39 66 24 67 25 68
REMARK SMILES IDX 33 69 26 70 32 71 27 72 28 73 29 74 30 75 31 76 54 77 55 78
REMARK SMILES IDX 63 79 56 80 62 81 57 82 58 83 59 84 60 85 61 86 40 87 41 88
REMARK SMILES IDX 49 89 42 90 48 91 43 92 44 93 45 94 46 95 47 96
REMARK H PARENT 79 15 88 23 86 25 84 27 68 52 38 63
REMARK Flexibility Score: inf
ROOT
ATOM      1  C   UNL     1       2.786   7.399   9.100  1.00  0.00     0.188 C 
ENDROOT
BRANCH   1   2
ATOM      2  O   UNL     1       2.769   6.381   8.089  1.00  0.00    -0.376 OA
BRANCH   2   3
ATOM      3  C   UNL     1       2.122   5.175   8.499  1.00  0.00     0.202 C 
BRANCH   3   4
ATOM      4  C   UNL     1       3.047   4.167   9.185  1.00  0.00     0.261 C 
BRANCH   4   5
ATOM      5  O   UNL     1       3.986   4.821  10.053  1.00  0.00    -0.460 OA
BRANCH   5   6
ATOM      6  C   UNL     1       5.303   5.040   9.805  1.00  0.00     0.338 C 
ATOM      7  O   UNL     1       5.989   5.602  10.653  1.00  0.00    -0.246 OA
BRANCH   6   8
ATOM      8  C   UNL     1       5.965   4.544   8.566  1.00  0.00     0.060 A 
ATOM      9  C   UNL     1       5.428   4.678   7.288  1.00  0.00     0.018 A 
ATOM     10  C   UNL     1       7.246   3.996   8.687  1.00  0.00     0.018 A 
ATOM     11  C   UNL     1       6.099   4.169   6.170  1.00  0.00     0.026 A 
ATOM     12  C   UNL     1       7.934   3.532   7.557  1.00  0.00     0.026 A 
ATOM     13  C   UNL     1       7.357   3.575   6.280  1.00  0.00     0.036 A 
BRANCH  13  14
ATOM     14  N   UNL     1       8.065   3.075   5.199  1.00  0.00    -0.358 N 
ATOM     15  H   UNL     1       9.041   2.986   5.284  1.00  0.00     0.163 HD
BRANCH  14  16
ATOM     16  C   UNL     1       7.445   2.673   3.946  1.00  0.00     0.244 C 
ATOM     17  O   UNL     1       6.902   3.817   3.282  1.00  0.00    -0.353 OA
ATOM     18  C   UNL     1       8.518   2.043   3.026  1.00  0.00     0.195 C 
ATOM     19  C   UNL     1       6.206   3.484   2.076  1.00  0.00     0.197 C 
ATOM     20  C   UNL     1       7.845   1.619   1.714  1.00  0.00     0.178 C 
ATOM     21  C   UNL     1       7.127   2.808   1.057  1.00  0.00     0.171 C 
BRANCH  18  22
ATOM     22  O   UNL     1       9.550   3.012   2.728  1.00  0.00    -0.386 OA
ATOM     23  H   UNL     1       9.155   3.778   2.282  1.00  0.00     0.211 HD
ENDBRANCH  18  22
BRANCH  20  24
ATOM     24  O   UNL     1       8.811   1.069   0.816  1.00  0.00    -0.387 OA
ATOM     25  H   UNL     1       9.477   1.742   0.605  1.00  0.00     0.211 HD
ENDBRANCH  20  24
BRANCH  21  26
ATOM     26  O   UNL     1       8.079   3.760   0.562  1.00  0.00    -0.388 OA
ATOM     27  H   UNL     1       8.612   4.097   1.299  1.00  0.00     0.211 HD
ENDBRANCH  21  26
ENDBRANCH  14  16
ENDBRANCH  13  14
ENDBRANCH   6   8
ENDBRANCH   5   6
ENDBRANCH   4   5
ENDBRANCH   3   4
ENDBRANCH   2   3
ENDBRANCH   1   2
BRANCH   1  28
ATOM     28  C   UNL     1       2.709   8.791   8.465  1.00  0.00     0.188 C 
BRANCH  28  29
ATOM     29  O   UNL     1       1.426   9.133   7.933  1.00  0.00    -0.376 OA
BRANCH  29  30
ATOM     30  C   UNL     1       0.970   8.366   6.820  1.00  0.00     0.202 C 
BRANCH  30  31
ATOM     31  C   UNL     1       1.601   8.697   5.463  1.00  0.00     0.261 C 
BRANCH  31  32
ATOM     32  O   UNL     1       3.026   8.501   5.408  1.00  0.00    -0.460 OA
BRANCH  32  33
ATOM     33  C   UNL     1       3.733   9.631   5.157  1.00  0.00     0.338 C 
ATOM     34  O   UNL     1       3.294  10.759   5.006  1.00  0.00    -0.246 OA
BRANCH  33  35
ATOM     35  C   UNL     1       5.179   9.361   5.093  1.00  0.00     0.060 A 
ATOM     36  C   UNL     1       5.985   9.761   6.163  1.00  0.00     0.016 A 
ATOM     37  C   UNL     1       5.753   8.954   3.885  1.00  0.00     0.016 A 
ATOM     38  C   UNL     1       7.372   9.815   6.003  1.00  0.00     0.010 A 
ATOM     39  C   UNL     1       7.144   9.003   3.731  1.00  0.00     0.010 A 
ATOM     40  C   UNL     1       7.958   9.483   4.771  1.00  0.00    -0.014 A 
BRANCH  40  41
ATOM     41  C   UNL     1       9.397   9.774   4.540  1.00  0.00     0.031 A 
ATOM     42  C   UNL     1       9.798  11.008   3.769  1.00  0.00     0.074 A 
ATOM     43  C   UNL     1      10.349   8.970   5.048  1.00  0.00     0.049 A 
ATOM     44  N   UNL     1      10.997  11.459   3.493  1.00  0.00    -0.248 NA
ATOM     45  C   UNL     1       8.707  11.842   3.241  1.00  0.00     0.031 C 
ATOM     46  C   UNL     1      10.107   7.752   5.819  1.00  0.00     0.029 A 
ATOM     47  N   UNL     1      11.718   9.068   4.989  1.00  0.00    -0.354 N 
ATOM     48  C   UNL     1      10.806  12.630   2.767  1.00  0.00     0.074 A 
ATOM     49  C   UNL     1       9.377  12.800   2.613  1.00  0.00     0.031 C 
ATOM     50  C   UNL     1      11.290   7.214   6.164  1.00  0.00     0.029 A 
ATOM     51  C   UNL     1      12.370   8.039   5.624  1.00  0.00     0.049 A 
ATOM     52  H   UNL     1      12.187   9.805   4.536  1.00  0.00     0.167 HD
ATOM     53  C   UNL     1      11.730  13.495   2.281  1.00  0.00     0.031 A 
ATOM     54  C   UNL     1      13.687   7.785   5.752  1.00  0.00     0.031 A 
ATOM     55  C   UNL     1      13.155  13.330   2.414  1.00  0.00     0.049 A 
ATOM     56  C   UNL     1      14.697   8.742   5.179  1.00  0.00     0.074 A 
ATOM     57  C   UNL     1      14.165  14.159   1.956  1.00  0.00     0.029 A 
ATOM     58  N   UNL     1      13.773  12.266   3.051  1.00  0.00    -0.354 N 
ATOM     59  N   UNL     1      14.495   9.854   4.514  1.00  0.00    -0.248 NA
ATOM     60  C   UNL     1      16.114   8.412   5.389  1.00  0.00     0.031 C 
ATOM     61  C   UNL     1      15.395  13.578   2.285  1.00  0.00     0.029 A 
ATOM     62  C   UNL     1      15.149  12.409   2.987  1.00  0.00     0.049 A 
ATOM     63  H   UNL     1      13.303  11.518   3.485  1.00  0.00     0.167 HD
ATOM     64  C   UNL     1      15.760  10.364   4.240  1.00  0.00     0.074 A 
ATOM     65  C   UNL     1      16.718   9.451   4.827  1.00  0.00     0.031 C 
ATOM     66  C   UNL     1      16.097  11.489   3.561  1.00  0.00     0.031 A 
BRANCH  53  67
ATOM     67  C   UNL     1      11.223  14.706   1.545  1.00  0.00    -0.014 A 
ATOM     68  C   UNL     1      10.645  15.782   2.243  1.00  0.00     0.010 A 
ATOM     69  C   UNL     1      11.366  14.791   0.149  1.00  0.00     0.010 A 
ATOM     70  C   UNL     1      10.187  16.908   1.553  1.00  0.00     0.020 A 
ATOM     71  C   UNL     1      10.928  15.925  -0.543  1.00  0.00     0.020 A 
ATOM     72  C   UNL     1      10.327  16.970   0.163  1.00  0.00     0.054 A 
BRANCH  72  73
ATOM     73  S   UNL     1       9.747  18.453  -0.708  1.00  0.00     0.124 S 
ATOM     74  O   UNL     1       8.300  18.254  -0.710  1.00  0.00    -0.237 OA
ATOM     75  O   UNL     1      10.230  19.538   0.143  1.00  0.00    -0.237 OA
ATOM     76  O   UNL     1      10.390  18.360  -2.016  1.00  0.00    -0.744 OA
ENDBRANCH  72  73
ENDBRANCH  53  67
BRANCH  54  77
ATOM     77  C   UNL     1      14.130   6.550   6.450  1.00  0.00    -0.014 A 
ATOM     78  C   UNL     1      14.696   6.610   7.734  1.00  0.00     0.010 A 
ATOM     79  C   UNL     1      13.980   5.300   5.822  1.00  0.00     0.010 A 
ATOM     80  C   UNL     1      15.115   5.441   8.376  1.00  0.00     0.020 A 
ATOM     81  C   UNL     1      14.377   4.129   6.469  1.00  0.00     0.020 A 
ATOM     82  C   UNL     1      14.952   4.208   7.739  1.00  0.00     0.054 A 
BRANCH  82  83
ATOM     83  S   UNL     1      15.431   2.689   8.609  1.00  0.00     0.124 S 
ATOM     84  O   UNL     1      16.870   2.644   8.371  1.00  0.00    -0.237 OA
ATOM     85  O   UNL     1      15.023   2.964   9.985  1.00  0.00    -0.237 OA
ATOM     86  O   UNL     1      14.648   1.656   7.935  1.00  0.00    -0.744 OA
ENDBRANCH  82  83
ENDBRANCH  54  77
BRANCH  66  87
ATOM     87  C   UNL     1      17.564  11.801   3.431  1.00  0.00    -0.014 A 
ATOM     88  C   UNL     1      18.389  11.063   2.564  1.00  0.00     0.010 A 
ATOM     89  C   UNL     1      18.123  12.855   4.177  1.00  0.00     0.010 A 
ATOM     90  C   UNL     1      19.756  11.343   2.479  1.00  0.00     0.020 A 
ATOM     91  C   UNL     1      19.485  13.153   4.078  1.00  0.00     0.020 A 
ATOM     92  C   UNL     1      20.298  12.380   3.245  1.00  0.00     0.054 A 
BRANCH  92  93
ATOM     93  S   UNL     1      22.073  12.734   3.117  1.00  0.00     0.124 S 
ATOM     94  O   UNL     1      22.651  11.693   3.961  1.00  0.00    -0.237 OA
ATOM     95  O   UNL     1      22.330  12.597   1.685  1.00  0.00    -0.237 OA
ATOM     96  O   UNL     1      22.191  14.095   3.636  1.00  0.00    -0.744 OA
ENDBRANCH  92  93
ENDBRANCH  66  87
ENDBRANCH  40  41
ENDBRANCH  33  35
ENDBRANCH  32  33
ENDBRANCH  31  32
ENDBRANCH  30  31
ENDBRANCH  29  30
ENDBRANCH  28  29
ENDBRANCH   1  28
TORSDOF 25
