REMARK SMILES O=C(OCCOCCOCCOC(=O)[C@@H]1[C@H](C(=O)NCc2ccncc2)[C@H]2C=C[C@@H]1O2)c1ccc(-c2c3nc(c(-c4ccc(S(=O)(=O)[O-])cc4)c4ccc([nH]4)c(-c4ccc(S(=O)(=O)[O-])cc4)c4nc(c(-c5ccc(S(=O)(=O)[O-])cc5)c5ccc2[nH]5)C=C4)C=C3)cc1
REMARK SMILES IDX 7 1 6 2 5 3 4 4 3 5 2 6 1 7 32 8 33 9 91 10 34 11 90 12
REMARK SMILES IDX 35 13 36 14 37 15 84 16 38 17 89 18 83 19 85 20 39 21 88 22
REMARK SMILES IDX 82 23 81 24 40 26 70 27 51 28 69 29 52 30 55 31 68 32 86 33
REMARK SMILES IDX 53 34 54 35 67 37 87 38 56 39 41 40 42 41 50 42 43 43 49 44
REMARK SMILES IDX 44 45 45 46 46 47 47 48 48 49 71 50 72 51 80 52 73 53 79 54
REMARK SMILES IDX 74 55 75 56 76 57 77 58 78 59 57 60 58 61 66 62 59 63 65 64
REMARK SMILES IDX 60 65 61 66 62 67 63 68 64 69 8 70 9 71 10 72 11 73 12 74
REMARK SMILES IDX 13 75 14 76 15 77 16 78 30 79 27 80 29 81 31 82 28 83 17 84
REMARK SMILES IDX 18 85 19 86 20 88 21 89 22 90 26 91 23 92 25 93 24 94
REMARK H PARENT 85 25 55 36 19 87
REMARK Flexibility Score: inf
ROOT
ATOM      1  C   UNL     1       2.087   0.206  -0.674  1.00  0.00     0.188 C 
ENDROOT
BRANCH   1   2
ATOM      2  O   UNL     1       3.498   0.295  -0.506  1.00  0.00    -0.376 OA
BRANCH   2   3
ATOM      3  C   UNL     1       4.223  -0.910  -0.744  1.00  0.00     0.202 C 
BRANCH   3   4
ATOM      4  C   UNL     1       4.158  -1.988   0.343  1.00  0.00     0.261 C 
BRANCH   4   5
ATOM      5  O   UNL     1       2.924  -2.052   1.068  1.00  0.00    -0.460 OA
BRANCH   5   6
ATOM      6  C   UNL     1       2.432  -1.216   2.013  1.00  0.00     0.338 C 
ATOM      7  O   UNL     1       1.301  -1.447   2.442  1.00  0.00    -0.246 OA
BRANCH   6   8
ATOM      8  C   UNL     1       3.136   0.006   2.529  1.00  0.00     0.060 A 
ATOM      9  C   UNL     1       4.437   0.400   2.206  1.00  0.00     0.016 A 
ATOM     10  C   UNL     1       2.411   0.819   3.427  1.00  0.00     0.016 A 
ATOM     11  C   UNL     1       5.019   1.524   2.768  1.00  0.00     0.010 A 
ATOM     12  C   UNL     1       3.003   1.926   4.041  1.00  0.00     0.010 A 
ATOM     13  C   UNL     1       4.334   2.233   3.748  1.00  0.00    -0.014 A 
BRANCH  13  14
ATOM     14  C   UNL     1       5.178   3.005   4.672  1.00  0.00     0.031 A 
ATOM     15  C   UNL     1       5.735   2.253   5.842  1.00  0.00     0.074 A 
ATOM     16  C   UNL     1       5.612   4.232   4.343  1.00  0.00     0.049 A 
ATOM     17  N   UNL     1       6.617   2.636   6.718  1.00  0.00    -0.248 NA
ATOM     18  C   UNL     1       5.288   0.855   6.005  1.00  0.00     0.031 C 
ATOM     19  C   UNL     1       5.275   4.912   3.101  1.00  0.00     0.029 A 
ATOM     20  N   UNL     1       6.448   5.103   4.979  1.00  0.00    -0.354 N 
ATOM     21  C   UNL     1       6.836   1.529   7.527  1.00  0.00     0.074 A 
ATOM     22  C   UNL     1       5.993   0.461   7.051  1.00  0.00     0.031 C 
ATOM     23  C   UNL     1       5.868   6.114   3.067  1.00  0.00     0.029 A 
ATOM     24  C   UNL     1       6.617   6.290   4.303  1.00  0.00     0.049 A 
ATOM     25  H   UNL     1       6.887   4.902   5.837  1.00  0.00     0.167 HD
ATOM     26  C   UNL     1       7.669   1.429   8.584  1.00  0.00     0.031 A 
ATOM     27  C   UNL     1       7.297   7.393   4.663  1.00  0.00     0.031 A 
ATOM     28  C   UNL     1       8.438   2.541   9.062  1.00  0.00     0.049 A 
ATOM     29  C   UNL     1       8.070   7.317   5.950  1.00  0.00     0.074 A 
ATOM     30  C   UNL     1       9.239   2.620  10.182  1.00  0.00     0.029 A 
ATOM     31  N   UNL     1       8.476   3.786   8.443  1.00  0.00    -0.354 N 
ATOM     32  N   UNL     1       8.221   6.287   6.752  1.00  0.00    -0.248 NA
ATOM     33  C   UNL     1       8.777   8.528   6.374  1.00  0.00     0.031 C 
ATOM     34  C   UNL     1       9.704   3.937  10.279  1.00  0.00     0.029 A 
ATOM     35  C   UNL     1       9.260   4.654   9.176  1.00  0.00     0.049 A 
ATOM     36  H   UNL     1       8.011   4.015   7.605  1.00  0.00     0.167 HD
ATOM     37  C   UNL     1       9.074   6.710   7.759  1.00  0.00     0.074 A 
ATOM     38  C   UNL     1       9.409   8.091   7.456  1.00  0.00     0.031 C 
ATOM     39  C   UNL     1       9.550   6.025   8.829  1.00  0.00     0.031 A 
BRANCH  26  40
ATOM     40  C   UNL     1       7.661   0.125   9.330  1.00  0.00    -0.014 A 
ATOM     41  C   UNL     1       8.214  -1.049   8.783  1.00  0.00     0.010 A 
ATOM     42  C   UNL     1       7.019   0.061  10.579  1.00  0.00     0.010 A 
ATOM     43  C   UNL     1       8.089  -2.268   9.456  1.00  0.00     0.020 A 
ATOM     44  C   UNL     1       6.915  -1.150  11.266  1.00  0.00     0.020 A 
ATOM     45  C   UNL     1       7.436  -2.311  10.692  1.00  0.00     0.054 A 
BRANCH  45  46
ATOM     46  S   UNL     1       7.288  -3.903  11.548  1.00  0.00     0.124 S 
ATOM     47  O   UNL     1       6.311  -4.603  10.718  1.00  0.00    -0.237 OA
ATOM     48  O   UNL     1       8.651  -4.425  11.487  1.00  0.00    -0.237 OA
ATOM     49  O   UNL     1       6.823  -3.537  12.883  1.00  0.00    -0.744 OA
ENDBRANCH  45  46
ENDBRANCH  26  40
BRANCH  27  50
ATOM     50  C   UNL     1       7.247   8.626   3.828  1.00  0.00    -0.014 A 
ATOM     51  C   UNL     1       8.396   9.142   3.205  1.00  0.00     0.010 A 
ATOM     52  C   UNL     1       6.022   9.302   3.651  1.00  0.00     0.010 A 
ATOM     53  C   UNL     1       8.328  10.318   2.447  1.00  0.00     0.020 A 
ATOM     54  C   UNL     1       5.944  10.461   2.873  1.00  0.00     0.020 A 
ATOM     55  C   UNL     1       7.102  10.970   2.286  1.00  0.00     0.054 A 
BRANCH  55  56
ATOM     56  S   UNL     1       7.035  12.482   1.283  1.00  0.00     0.124 S 
ATOM     57  O   UNL     1       7.771  13.431   2.112  1.00  0.00    -0.237 OA
ATOM     58  O   UNL     1       7.699  12.068   0.050  1.00  0.00    -0.237 OA
ATOM     59  O   UNL     1       5.603  12.743   1.153  1.00  0.00    -0.744 OA
ENDBRANCH  55  56
ENDBRANCH  27  50
BRANCH  39  60
ATOM     60  C   UNL     1      10.518   6.755   9.712  1.00  0.00    -0.014 A 
ATOM     61  C   UNL     1      10.098   7.800  10.552  1.00  0.00     0.010 A 
ATOM     62  C   UNL     1      11.863   6.344   9.730  1.00  0.00     0.010 A 
ATOM     63  C   UNL     1      11.023   8.455  11.364  1.00  0.00     0.020 A 
ATOM     64  C   UNL     1      12.781   6.971  10.569  1.00  0.00     0.020 A 
ATOM     65  C   UNL     1      12.358   8.036  11.366  1.00  0.00     0.054 A 
BRANCH  65  66
ATOM     66  S   UNL     1      13.532   8.880  12.456  1.00  0.00     0.124 S 
ATOM     67  O   UNL     1      13.719  10.154  11.768  1.00  0.00    -0.237 OA
ATOM     68  O   UNL     1      12.803   8.947  13.720  1.00  0.00    -0.237 OA
ATOM     69  O   UNL     1      14.696   7.996  12.461  1.00  0.00    -0.744 OA
ENDBRANCH  65  66
ENDBRANCH  39  60
ENDBRANCH  13  14
ENDBRANCH   6   8
ENDBRANCH   5   6
ENDBRANCH   4   5
ENDBRANCH   3   4
ENDBRANCH   2   3
ENDBRANCH   1   2
BRANCH   1  70
ATOM     70  C   UNL     1       1.486   0.901  -1.891  1.00  0.00     0.188 C 
BRANCH  70  71
ATOM     71  O   UNL     1       2.108   0.773  -3.149  1.00  0.00    -0.376 OA
BRANCH  71  72
ATOM     72  C   UNL     1       3.498   0.977  -3.314  1.00  0.00     0.202 C 
BRANCH  72  73
ATOM     73  C   UNL     1       4.320   2.026  -2.544  1.00  0.00     0.261 C 
BRANCH  73  74
ATOM     74  O   UNL     1       3.674   2.934  -1.655  1.00  0.00    -0.463 OA
BRANCH  74  75
ATOM     75  C   UNL     1       2.766   3.792  -2.162  1.00  0.00     0.312 C 
ATOM     76  O   UNL     1       2.252   3.688  -3.272  1.00  0.00    -0.252 OA
BRANCH  75  77
ATOM     77  C   UNL     1       2.365   4.841  -1.166  1.00  0.00     0.147 C 
ATOM     78  C   UNL     1       2.296   6.278  -1.744  1.00  0.00     0.128 C 
ATOM     79  C   UNL     1       3.374   5.032  -0.028  1.00  0.00     0.157 C 
ATOM     80  C   UNL     1       3.317   7.032  -0.880  1.00  0.00     0.155 C 
ATOM     81  C   UNL     1       2.778   5.917   1.031  1.00  0.00     0.004 C 
ATOM     82  O   UNL     1       4.288   5.982  -0.637  1.00  0.00    -0.365 OA
ATOM     83  C   UNL     1       2.768   7.154   0.518  1.00  0.00     0.004 C 
BRANCH  78  84
ATOM     84  C   UNL     1       2.419   6.516  -3.245  1.00  0.00     0.227 C 
ATOM     85  O   UNL     1       1.459   7.047  -3.824  1.00  0.00    -0.275 OA
ATOM     86  N   UNL     1       3.468   6.199  -4.038  1.00  0.00    -0.352 N 
ATOM     87  H   UNL     1       3.290   6.359  -4.993  1.00  0.00     0.163 HD
BRANCH  86  88
ATOM     88  C   UNL     1       4.797   5.676  -3.790  1.00  0.00     0.151 C 
BRANCH  88  89
ATOM     89  C   UNL     1       5.259   4.639  -4.802  1.00  0.00    -0.026 A 
ATOM     90  C   UNL     1       4.386   3.783  -5.487  1.00  0.00     0.025 A 
ATOM     91  C   UNL     1       6.632   4.389  -4.934  1.00  0.00     0.025 A 
ATOM     92  C   UNL     1       4.907   2.707  -6.200  1.00  0.00     0.111 A 
ATOM     93  C   UNL     1       7.057   3.297  -5.681  1.00  0.00     0.111 A 
ATOM     94  N   UNL     1       6.224   2.437  -6.302  1.00  0.00    -0.265 NA
ENDBRANCH  88  89
ENDBRANCH  86  88
ENDBRANCH  78  84
ENDBRANCH  75  77
ENDBRANCH  74  75
ENDBRANCH  73  74
ENDBRANCH  72  73
ENDBRANCH  71  72
ENDBRANCH  70  71
ENDBRANCH   1  70
TORSDOF 23
