REMARK SMILES [NH3+][C@@]1(C(=O)OCCOCCOCCOC(=O)c2ccc(-c3c4nc(c(-c5ccc(S(=O)(=O)[O-])cc5)c5ccc([nH]5)c(-c5ccc(S(=O)(=O)[O-])cc5)c5nc(c(-c6ccc(S(=O)(=O)[O-])cc6)c6ccc3[nH]6)C=C5)C=C4)cc2)CCC[C@@H](Oc2ccccc2[N+](=O)[O-])C1
REMARK SMILES IDX 9 1 8 2 7 3 6 4 5 5 3 6 4 7 2 8 77 9 91 10 78 11 80 12 79 13
REMARK SMILES IDX 1 14 81 18 82 19 83 20 87 21 84 22 86 23 85 24 88 25 89 26
REMARK SMILES IDX 90 27 10 28 11 29 12 30 13 31 14 32 15 33 16 34 17 35 18 36
REMARK SMILES IDX 76 37 19 38 75 39 20 40 21 41 22 42 69 43 23 44 74 45 68 46
REMARK SMILES IDX 70 47 24 48 73 49 67 50 66 51 25 53 55 54 36 55 54 56 37 57
REMARK SMILES IDX 40 58 53 59 71 60 38 61 39 62 52 64 72 65 41 66 26 67 27 68
REMARK SMILES IDX 35 69 28 70 34 71 29 72 30 73 31 74 32 75 33 76 56 77 57 78
REMARK SMILES IDX 65 79 58 80 64 81 59 82 60 83 61 84 62 85 63 86 42 87 43 88
REMARK SMILES IDX 51 89 44 90 50 91 45 92 46 93 47 94 48 95 49 96
REMARK H PARENT 1 15 1 16 1 17 70 52 40 63
REMARK Flexibility Score: inf
ROOT
ATOM      1  C   UNL     1      -3.520  -1.647   1.841  1.00  0.00     0.188 C 
ENDROOT
BRANCH   1   2
ATOM      2  O   UNL     1      -4.674  -0.860   2.103  1.00  0.00    -0.376 OA
BRANCH   2   3
ATOM      3  C   UNL     1      -5.338  -0.200   1.043  1.00  0.00     0.202 C 
BRANCH   3   4
ATOM      4  C   UNL     1      -4.569   0.865   0.255  1.00  0.00     0.261 C 
BRANCH   4   5
ATOM      5  O   UNL     1      -3.245   0.495  -0.139  1.00  0.00    -0.459 OA
BRANCH   5   6
ATOM      6  C   UNL     1      -2.195   0.943   0.624  1.00  0.00     0.368 C 
ATOM      7  O   UNL     1      -2.307   1.602   1.646  1.00  0.00    -0.245 OA
BRANCH   6   8
ATOM      8  C   UNL     1      -0.838   0.477  -0.005  1.00  0.00     0.196 C 
ATOM      9  C   UNL     1      -0.053  -0.511   0.876  1.00  0.00     0.081 C 
ATOM     10  C   UNL     1       0.010   1.744  -0.211  1.00  0.00     0.126 C 
ATOM     11  C   UNL     1       1.301  -0.882   0.251  1.00  0.00     0.011 C 
ATOM     12  C   UNL     1       1.429   1.514  -0.748  1.00  0.00     0.180 C 
ATOM     13  C   UNL     1       2.163   0.337  -0.079  1.00  0.00     0.046 C 
BRANCH   8  14
ATOM     14  N   UNL     1      -1.114  -0.206  -1.288  1.00  0.00    -0.343 N 
ATOM     15  H   UNL     1      -0.236  -0.513  -1.705  1.00  0.00     0.345 HD
ATOM     16  H   UNL     1      -1.585   0.440  -1.922  1.00  0.00     0.345 HD
ATOM     17  H   UNL     1      -1.712  -1.015  -1.121  1.00  0.00     0.345 HD
ENDBRANCH   8  14
BRANCH  12  18
ATOM     18  O   UNL     1       1.594   1.661  -2.179  1.00  0.00    -0.483 OA
BRANCH  18  19
ATOM     19  C   UNL     1       1.015   0.751  -3.010  1.00  0.00     0.197 A 
ATOM     20  C   UNL     1       1.722  -0.420  -3.295  1.00  0.00     0.054 A 
ATOM     21  C   UNL     1      -0.215   0.960  -3.654  1.00  0.00     0.310 A 
ATOM     22  C   UNL     1       1.154  -1.422  -4.090  1.00  0.00     0.004 A 
ATOM     23  C   UNL     1      -0.797  -0.051  -4.444  1.00  0.00     0.090 A 
ATOM     24  C   UNL     1      -0.116  -1.251  -4.640  1.00  0.00     0.007 A 
BRANCH  21  25
ATOM     25  N   UNL     1      -0.998   2.169  -3.429  1.00  0.00     0.066 N 
ATOM     26  O   UNL     1      -2.231   2.039  -3.326  1.00  0.00    -0.258 OA
ATOM     27  O   UNL     1      -0.406   3.257  -3.404  1.00  0.00    -0.258 OA
ENDBRANCH  21  25
ENDBRANCH  18  19
ENDBRANCH  12  18
ENDBRANCH   6   8
ENDBRANCH   5   6
ENDBRANCH   4   5
ENDBRANCH   3   4
ENDBRANCH   2   3
ENDBRANCH   1   2
BRANCH   1  28
ATOM     28  C   UNL     1      -3.358  -2.379   0.495  1.00  0.00     0.188 C 
BRANCH  28  29
ATOM     29  O   UNL     1      -4.588  -2.745  -0.106  1.00  0.00    -0.376 OA
BRANCH  29  30
ATOM     30  C   UNL     1      -4.804  -4.143  -0.203  1.00  0.00     0.202 C 
BRANCH  30  31
ATOM     31  C   UNL     1      -5.141  -4.809   1.138  1.00  0.00     0.261 C 
BRANCH  31  32
ATOM     32  O   UNL     1      -4.196  -4.610   2.213  1.00  0.00    -0.460 OA
BRANCH  32  33
ATOM     33  C   UNL     1      -2.973  -5.189   2.113  1.00  0.00     0.338 C 
ATOM     34  O   UNL     1      -2.587  -5.888   1.199  1.00  0.00    -0.246 OA
BRANCH  33  35
ATOM     35  C   UNL     1      -2.095  -4.648   3.194  1.00  0.00     0.060 A 
ATOM     36  C   UNL     1      -0.869  -4.065   2.840  1.00  0.00     0.016 A 
ATOM     37  C   UNL     1      -2.470  -4.688   4.540  1.00  0.00     0.016 A 
ATOM     38  C   UNL     1      -0.011  -3.553   3.826  1.00  0.00     0.010 A 
ATOM     39  C   UNL     1      -1.600  -4.192   5.528  1.00  0.00     0.010 A 
ATOM     40  C   UNL     1      -0.350  -3.643   5.185  1.00  0.00    -0.014 A 
BRANCH  40  41
ATOM     41  C   UNL     1       0.659  -3.308   6.237  1.00  0.00     0.031 A 
ATOM     42  C   UNL     1       1.421  -4.427   6.907  1.00  0.00     0.074 A 
ATOM     43  C   UNL     1       0.936  -2.035   6.585  1.00  0.00     0.049 A 
ATOM     44  N   UNL     1       2.345  -4.369   7.835  1.00  0.00    -0.248 NA
ATOM     45  C   UNL     1       1.099  -5.793   6.468  1.00  0.00     0.031 C 
ATOM     46  C   UNL     1       0.316  -0.842   6.011  1.00  0.00     0.029 A 
ATOM     47  N   UNL     1       1.819  -1.535   7.516  1.00  0.00    -0.354 N 
ATOM     48  C   UNL     1       2.711  -5.686   8.093  1.00  0.00     0.074 A 
ATOM     49  C   UNL     1       1.887  -6.522   7.245  1.00  0.00     0.031 C 
ATOM     50  C   UNL     1       0.837   0.249   6.602  1.00  0.00     0.029 A 
ATOM     51  C   UNL     1       1.804  -0.162   7.619  1.00  0.00     0.049 A 
ATOM     52  H   UNL     1       2.408  -2.107   8.059  1.00  0.00     0.167 HD
ATOM     53  C   UNL     1       3.648  -6.165   8.949  1.00  0.00     0.031 A 
ATOM     54  C   UNL     1       2.476   0.670   8.444  1.00  0.00     0.031 A 
ATOM     55  C   UNL     1       4.460  -5.349   9.816  1.00  0.00     0.049 A 
ATOM     56  C   UNL     1       3.459   0.109   9.445  1.00  0.00     0.074 A 
ATOM     57  C   UNL     1       5.445  -5.754  10.703  1.00  0.00     0.029 A 
ATOM     58  N   UNL     1       4.377  -3.970   9.921  1.00  0.00    -0.354 N 
ATOM     59  N   UNL     1       3.815  -1.137   9.648  1.00  0.00    -0.248 NA
ATOM     60  C   UNL     1       4.142   1.076  10.319  1.00  0.00     0.031 C 
ATOM     61  C   UNL     1       5.909  -4.628  11.391  1.00  0.00     0.029 A 
ATOM     62  C   UNL     1       5.268  -3.511  10.880  1.00  0.00     0.049 A 
ATOM     63  H   UNL     1       3.774  -3.399   9.392  1.00  0.00     0.167 HD
ATOM     64  C   UNL     1       4.780  -1.099  10.653  1.00  0.00     0.074 A 
ATOM     65  C   UNL     1       4.971   0.294  10.997  1.00  0.00     0.031 C 
ATOM     66  C   UNL     1       5.449  -2.126  11.237  1.00  0.00     0.031 A 
BRANCH  53  67
ATOM     67  C   UNL     1       3.823  -7.662   9.019  1.00  0.00    -0.014 A 
ATOM     68  C   UNL     1       4.398  -8.382   7.956  1.00  0.00     0.010 A 
ATOM     69  C   UNL     1       3.445  -8.352  10.185  1.00  0.00     0.010 A 
ATOM     70  C   UNL     1       4.551  -9.769   8.041  1.00  0.00     0.020 A 
ATOM     71  C   UNL     1       3.625  -9.735  10.287  1.00  0.00     0.020 A 
ATOM     72  C   UNL     1       4.161 -10.437   9.207  1.00  0.00     0.054 A 
BRANCH  72  73
ATOM     73  S   UNL     1       4.387 -12.235   9.295  1.00  0.00     0.124 S 
ATOM     74  O   UNL     1       3.368 -12.712   8.364  1.00  0.00    -0.237 OA
ATOM     75  O   UNL     1       5.769 -12.405   8.855  1.00  0.00    -0.237 OA
ATOM     76  O   UNL     1       4.140 -12.548  10.700  1.00  0.00    -0.744 OA
ENDBRANCH  72  73
ENDBRANCH  53  67
BRANCH  54  77
ATOM     77  C   UNL     1       2.235   2.143   8.383  1.00  0.00    -0.014 A 
ATOM     78  C   UNL     1       3.243   3.023   7.949  1.00  0.00     0.010 A 
ATOM     79  C   UNL     1       0.998   2.675   8.792  1.00  0.00     0.010 A 
ATOM     80  C   UNL     1       3.024   4.405   7.939  1.00  0.00     0.020 A 
ATOM     81  C   UNL     1       0.764   4.053   8.752  1.00  0.00     0.020 A 
ATOM     82  C   UNL     1       1.783   4.911   8.336  1.00  0.00     0.054 A 
BRANCH  82  83
ATOM     83  S   UNL     1       1.503   6.703   8.263  1.00  0.00     0.124 S 
ATOM     84  O   UNL     1       2.323   7.185   9.370  1.00  0.00    -0.237 OA
ATOM     85  O   UNL     1       1.984   7.040   6.925  1.00  0.00    -0.237 OA
ATOM     86  O   UNL     1       0.060   6.832   8.451  1.00  0.00    -0.744 OA
ENDBRANCH  82  83
ENDBRANCH  54  77
BRANCH  66  87
ATOM     87  C   UNL     1       6.478  -1.782  12.289  1.00  0.00    -0.014 A 
ATOM     88  C   UNL     1       6.106  -1.246  13.536  1.00  0.00     0.010 A 
ATOM     89  C   UNL     1       7.843  -2.009  12.029  1.00  0.00     0.010 A 
ATOM     90  C   UNL     1       7.080  -0.886  14.474  1.00  0.00     0.020 A 
ATOM     91  C   UNL     1       8.818  -1.683  12.977  1.00  0.00     0.020 A 
ATOM     92  C   UNL     1       8.431  -1.099  14.185  1.00  0.00     0.054 A 
BRANCH  92  93
ATOM     93  S   UNL     1       9.677  -0.616  15.412  1.00  0.00     0.124 S 
ATOM     94  O   UNL     1       9.659   0.840  15.307  1.00  0.00    -0.237 OA
ATOM     95  O   UNL     1       9.135  -1.164  16.653  1.00  0.00    -0.237 OA
ATOM     96  O   UNL     1      10.900  -1.259  14.937  1.00  0.00    -0.744 OA
ENDBRANCH  92  93
ENDBRANCH  66  87
ENDBRANCH  40  41
ENDBRANCH  33  35
ENDBRANCH  32  33
ENDBRANCH  31  32
ENDBRANCH  30  31
ENDBRANCH  29  30
ENDBRANCH  28  29
ENDBRANCH   1  28
TORSDOF 24
