REMARK SMILES CCOC(=O)C1=NN(c2ccc(Br)cc2F)[C@](C)(C(=O)OCCOCCOCCOC(=O)c2ccc(-c3c4nc(c(-c5ccc(S(=O)(=O)[O-])cc5)c5ccc([nH]5)c(-c5ccc(S(=O)(=O)[O-])cc5)c5nc(c(-c6ccc(S(=O)(=O)[O-])cc6)c6ccc3[nH]6)C=C5)C=C4)cc2)C1
REMARK SMILES IDX 25 1 24 2 23 3 22 4 21 5 19 6 20 7 17 8 6 9 7 10 93 11 8 12
REMARK SMILES IDX 18 13 4 14 5 15 3 16 2 17 1 18 9 19 10 20 15 21 11 22 14 23
REMARK SMILES IDX 16 24 12 25 13 26 26 27 27 28 28 29 29 30 30 31 31 32 32 33
REMARK SMILES IDX 33 34 34 35 92 36 35 37 91 38 36 39 37 40 38 41 85 42 39 43
REMARK SMILES IDX 90 44 84 45 86 46 40 47 89 48 83 49 82 50 41 52 71 53 52 54
REMARK SMILES IDX 70 55 53 56 56 57 69 58 87 59 54 60 55 61 68 63 88 64 57 65
REMARK SMILES IDX 42 66 43 67 51 68 44 69 50 70 45 71 46 72 47 73 48 74 49 75
REMARK SMILES IDX 72 76 73 77 81 78 74 79 80 80 75 81 76 82 77 83 78 84 79 85
REMARK SMILES IDX 58 86 59 87 67 88 60 89 66 90 61 91 62 92 63 93 64 94 65 95
REMARK H PARENT 86 51 56 62
REMARK Flexibility Score: inf
ROOT
ATOM      1  C   UNL     1       5.790  -6.537   0.979  1.00  0.00     0.188 C 
ENDROOT
BRANCH   1   2
ATOM      2  O   UNL     1       6.458  -7.787   0.881  1.00  0.00    -0.376 OA
BRANCH   2   3
ATOM      3  C   UNL     1       5.909  -8.722  -0.033  1.00  0.00     0.202 C 
BRANCH   3   4
ATOM      4  C   UNL     1       6.215  -8.392  -1.496  1.00  0.00     0.261 C 
BRANCH   4   5
ATOM      5  O   UNL     1       5.665  -7.158  -1.995  1.00  0.00    -0.461 OA
BRANCH   5   6
ATOM      6  C   UNL     1       4.304  -7.031  -2.016  1.00  0.00     0.334 C 
ATOM      7  O   UNL     1       3.568  -7.851  -1.507  1.00  0.00    -0.249 OA
BRANCH   6   8
ATOM      8  C   UNL     1       3.894  -5.698  -2.684  1.00  0.00     0.163 C 
ATOM      9  C   UNL     1       2.528  -3.878  -2.357  1.00  0.00     0.149 C 
ATOM     10  N   UNL     1       1.905  -4.556  -3.275  1.00  0.00    -0.169 NA
ATOM     11  C   UNL     1       3.642  -4.590  -1.650  1.00  0.00     0.108 C 
ATOM     12  N   UNL     1       2.571  -5.745  -3.335  1.00  0.00    -0.245 N 
ATOM     13  C   UNL     1       4.945  -5.239  -3.715  1.00  0.00     0.050 C 
BRANCH   9  14
ATOM     14  C   UNL     1       2.234  -2.447  -2.025  1.00  0.00     0.354 C 
ATOM     15  O   UNL     1       3.122  -1.604  -2.101  1.00  0.00    -0.245 OA
BRANCH  14  16
ATOM     16  O   UNL     1       0.962  -2.285  -1.644  1.00  0.00    -0.461 OA
BRANCH  16  17
ATOM     17  C   UNL     1       0.541  -0.928  -1.434  1.00  0.00     0.230 C 
ATOM     18  C   UNL     1       0.925  -0.440  -0.050  1.00  0.00     0.049 C 
ENDBRANCH  16  17
ENDBRANCH  14  16
ENDBRANCH   9  14
BRANCH  12  19
ATOM     19  C   UNL     1       2.049  -6.813  -4.043  1.00  0.00     0.097 A 
ATOM     20  C   UNL     1       2.263  -6.932  -5.419  1.00  0.00     0.032 A 
ATOM     21  C   UNL     1       1.321  -7.828  -3.400  1.00  0.00     0.149 A 
ATOM     22  C   UNL     1       1.821  -8.063  -6.114  1.00  0.00     0.018 A 
ATOM     23  C   UNL     1       0.901  -8.971  -4.071  1.00  0.00     0.057 A 
ATOM     24  F   UNL     1       1.034  -7.721  -2.093  1.00  0.00    -0.205 F 
ATOM     25  C   UNL     1       1.164  -9.087  -5.430  1.00  0.00     0.021 A 
ATOM     26  Br  UNL     1       0.634 -10.645  -6.358  1.00  0.00    -0.051 Br
ENDBRANCH  12  19
ENDBRANCH   6   8
ENDBRANCH   5   6
ENDBRANCH   4   5
ENDBRANCH   3   4
ENDBRANCH   2   3
ENDBRANCH   1   2
BRANCH   1  27
ATOM     27  C   UNL     1       6.598  -5.381   0.360  1.00  0.00     0.188 C 
BRANCH  27  28
ATOM     28  O   UNL     1       8.021  -5.419   0.396  1.00  0.00    -0.376 OA
BRANCH  28  29
ATOM     29  C   UNL     1       8.668  -6.009   1.514  1.00  0.00     0.202 C 
BRANCH  29  30
ATOM     30  C   UNL     1       8.563  -5.270   2.850  1.00  0.00     0.261 C 
BRANCH  30  31
ATOM     31  O   UNL     1       7.210  -5.057   3.293  1.00  0.00    -0.460 OA
BRANCH  31  32
ATOM     32  C   UNL     1       6.779  -3.777   3.230  1.00  0.00     0.338 C 
ATOM     33  O   UNL     1       7.434  -2.801   2.875  1.00  0.00    -0.246 OA
BRANCH  32  34
ATOM     34  C   UNL     1       5.327  -3.693   3.489  1.00  0.00     0.060 A 
ATOM     35  C   UNL     1       4.555  -2.931   2.602  1.00  0.00     0.016 A 
ATOM     36  C   UNL     1       4.736  -4.268   4.618  1.00  0.00     0.016 A 
ATOM     37  C   UNL     1       3.208  -2.692   2.869  1.00  0.00     0.010 A 
ATOM     38  C   UNL     1       3.385  -4.013   4.894  1.00  0.00     0.010 A 
ATOM     39  C   UNL     1       2.625  -3.190   4.042  1.00  0.00    -0.014 A 
BRANCH  39  40
ATOM     40  C   UNL     1       1.284  -2.693   4.444  1.00  0.00     0.031 A 
ATOM     41  C   UNL     1       1.194  -1.514   5.378  1.00  0.00     0.074 A 
ATOM     42  C   UNL     1       0.160  -3.233   3.939  1.00  0.00     0.049 A 
ATOM     43  N   UNL     1       0.135  -0.872   5.802  1.00  0.00    -0.248 NA
ATOM     44  C   UNL     1       2.467  -0.984   5.895  1.00  0.00     0.031 C 
ATOM     45  C   UNL     1       0.102  -4.354   3.003  1.00  0.00     0.029 A 
ATOM     46  N   UNL     1      -1.156  -2.898   4.146  1.00  0.00    -0.354 N 
ATOM     47  C   UNL     1       0.612   0.141   6.627  1.00  0.00     0.074 A 
ATOM     48  C   UNL     1       2.053   0.007   6.670  1.00  0.00     0.031 C 
ATOM     49  C   UNL     1      -1.186  -4.617   2.718  1.00  0.00     0.029 A 
ATOM     50  C   UNL     1      -2.043  -3.695   3.462  1.00  0.00     0.049 A 
ATOM     51  H   UNL     1      -1.437  -2.157   4.729  1.00  0.00     0.167 HD
ATOM     52  C   UNL     1      -0.080   1.104   7.283  1.00  0.00     0.031 A 
ATOM     53  C   UNL     1      -3.391  -3.686   3.443  1.00  0.00     0.031 A 
ATOM     54  C   UNL     1      -1.514   1.229   7.270  1.00  0.00     0.049 A 
ATOM     55  C   UNL     1      -4.142  -2.647   4.236  1.00  0.00     0.074 A 
ATOM     56  C   UNL     1      -2.301   2.177   7.901  1.00  0.00     0.029 A 
ATOM     57  N   UNL     1      -2.377   0.375   6.601  1.00  0.00    -0.354 N 
ATOM     58  N   UNL     1      -3.672  -1.676   4.982  1.00  0.00    -0.248 NA
ATOM     59  C   UNL     1      -5.610  -2.698   4.168  1.00  0.00     0.031 C 
ATOM     60  C   UNL     1      -3.644   1.869   7.651  1.00  0.00     0.029 A 
ATOM     61  C   UNL     1      -3.689   0.761   6.821  1.00  0.00     0.049 A 
ATOM     62  H   UNL     1      -2.098  -0.392   6.051  1.00  0.00     0.167 HD
ATOM     63  C   UNL     1      -4.787  -0.985   5.450  1.00  0.00     0.074 A 
ATOM     64  C   UNL     1      -5.951  -1.639   4.890  1.00  0.00     0.031 C 
ATOM     65  C   UNL     1      -4.841   0.097   6.268  1.00  0.00     0.031 A 
BRANCH  52  66
ATOM     66  C   UNL     1       0.714   2.090   8.096  1.00  0.00    -0.014 A 
ATOM     67  C   UNL     1       1.473   3.096   7.473  1.00  0.00     0.010 A 
ATOM     68  C   UNL     1       0.677   2.029   9.501  1.00  0.00     0.010 A 
ATOM     69  C   UNL     1       2.210   4.003   8.239  1.00  0.00     0.020 A 
ATOM     70  C   UNL     1       1.394   2.948  10.271  1.00  0.00     0.020 A 
ATOM     71  C   UNL     1       2.170   3.920   9.635  1.00  0.00     0.054 A 
BRANCH  71  72
ATOM     72  S   UNL     1       3.120   5.120  10.607  1.00  0.00     0.124 S 
ATOM     73  O   UNL     1       4.486   4.634  10.432  1.00  0.00    -0.237 OA
ATOM     74  O   UNL     1       2.814   6.385   9.946  1.00  0.00    -0.237 OA
ATOM     75  O   UNL     1       2.578   4.979  11.957  1.00  0.00    -0.744 OA
ENDBRANCH  71  72
ENDBRANCH  52  66
BRANCH  53  76
ATOM     76  C   UNL     1      -4.132  -4.702   2.648  1.00  0.00    -0.014 A 
ATOM     77  C   UNL     1      -4.832  -4.335   1.485  1.00  0.00     0.010 A 
ATOM     78  C   UNL     1      -4.163  -6.043   3.072  1.00  0.00     0.010 A 
ATOM     79  C   UNL     1      -5.571  -5.286   0.775  1.00  0.00     0.020 A 
ATOM     80  C   UNL     1      -4.881  -7.001   2.350  1.00  0.00     0.020 A 
ATOM     81  C   UNL     1      -5.593  -6.613   1.214  1.00  0.00     0.054 A 
BRANCH  81  82
ATOM     82  S   UNL     1      -6.533  -7.840   0.262  1.00  0.00     0.124 S 
ATOM     83  O   UNL     1      -7.906  -7.544   0.660  1.00  0.00    -0.237 OA
ATOM     84  O   UNL     1      -6.188  -7.506  -1.118  1.00  0.00    -0.237 OA
ATOM     85  O   UNL     1      -6.004  -9.116   0.737  1.00  0.00    -0.744 OA
ENDBRANCH  81  82
ENDBRANCH  53  76
BRANCH  65  86
ATOM     86  C   UNL     1      -6.205   0.658   6.578  1.00  0.00    -0.014 A 
ATOM     87  C   UNL     1      -7.102  -0.023   7.421  1.00  0.00     0.010 A 
ATOM     88  C   UNL     1      -6.591   1.893   6.024  1.00  0.00     0.010 A 
ATOM     89  C   UNL     1      -8.379   0.494   7.660  1.00  0.00     0.020 A 
ATOM     90  C   UNL     1      -7.856   2.426   6.283  1.00  0.00     0.020 A 
ATOM     91  C   UNL     1      -8.752   1.711   7.081  1.00  0.00     0.054 A 
BRANCH  91  92
ATOM     92  S   UNL     1     -10.413   2.365   7.402  1.00  0.00     0.124 S 
ATOM     93  O   UNL     1     -11.235   1.558   6.504  1.00  0.00    -0.237 OA
ATOM     94  O   UNL     1     -10.596   2.103   8.828  1.00  0.00    -0.237 OA
ATOM     95  O   UNL     1     -10.302   3.778   7.045  1.00  0.00    -0.744 OA
ENDBRANCH  91  92
ENDBRANCH  65  86
ENDBRANCH  39  40
ENDBRANCH  32  34
ENDBRANCH  31  32
ENDBRANCH  30  31
ENDBRANCH  29  30
ENDBRANCH  28  29
ENDBRANCH  27  28
ENDBRANCH   1  27
TORSDOF 24
