REMARK SMILES O=C(OCCOCCOCCOC(=O)[C@H]1CS[C@@H](c2cccc(OCc3ccc(Cl)cc3Cl)c2)[NH2+]1)c1ccc(-c2c3nc(c(-c4ccc(S(=O)(=O)[O-])cc4)c4ccc([nH]4)c(-c4ccc(S(=O)(=O)[O-])cc4)c4nc(c(-c5ccc(S(=O)(=O)[O-])cc5)c5ccc2[nH]5)C=C4)C=C3)cc1
REMARK SMILES IDX 8 1 7 2 6 3 5 4 4 5 3 6 2 7 1 8 36 9 37 10 95 11 38 12 94 13
REMARK SMILES IDX 39 14 40 15 41 16 88 17 42 18 93 19 87 20 89 21 43 22 92 23
REMARK SMILES IDX 86 24 85 25 44 27 74 28 55 29 73 30 56 31 59 32 72 33 90 34
REMARK SMILES IDX 57 35 58 36 71 38 91 39 60 40 45 41 46 42 54 43 47 44 53 45
REMARK SMILES IDX 48 46 49 47 50 48 51 49 52 50 75 51 76 52 84 53 77 54 83 55
REMARK SMILES IDX 78 56 79 57 80 58 81 59 82 60 61 61 62 62 70 63 63 64 69 65
REMARK SMILES IDX 64 66 65 67 66 68 67 69 68 70 9 71 10 72 11 73 12 74 13 75
REMARK SMILES IDX 14 76 15 77 16 78 35 79 17 80 18 81 19 84 20 85 34 86 21 87
REMARK SMILES IDX 23 88 22 89 24 90 25 91 26 92 27 93 32 94 28 95 31 96 33 97
REMARK SMILES IDX 29 98 30 99
REMARK H PARENT 89 26 59 37 35 82 35 83
REMARK Flexibility Score: inf
ROOT
ATOM      1  C   UNL     1       1.965   2.884  -1.290  1.00  0.00     0.188 C 
ENDROOT
BRANCH   1   2
ATOM      2  C   UNL     1       2.639   1.510  -1.315  1.00  0.00     0.188 C 
BRANCH   2   3
ATOM      3  O   UNL     1       3.876   1.486  -0.587  1.00  0.00    -0.376 OA
BRANCH   3   4
ATOM      4  C   UNL     1       4.875   0.656  -1.192  1.00  0.00     0.202 C 
BRANCH   4   5
ATOM      5  C   UNL     1       4.652  -0.863  -1.079  1.00  0.00     0.261 C 
BRANCH   5   6
ATOM      6  O   UNL     1       3.282  -1.228  -0.853  1.00  0.00    -0.460 OA
BRANCH   6   7
ATOM      7  C   UNL     1       2.629  -1.412   0.320  1.00  0.00     0.338 C 
ATOM      8  O   UNL     1       1.439  -1.724   0.275  1.00  0.00    -0.246 OA
BRANCH   7   9
ATOM      9  C   UNL     1       3.267  -1.292   1.668  1.00  0.00     0.060 A 
ATOM     10  C   UNL     1       4.371  -0.498   1.973  1.00  0.00     0.016 A 
ATOM     11  C   UNL     1       2.654  -1.996   2.723  1.00  0.00     0.016 A 
ATOM     12  C   UNL     1       4.914  -0.489   3.260  1.00  0.00     0.010 A 
ATOM     13  C   UNL     1       3.161  -1.949   4.029  1.00  0.00     0.010 A 
ATOM     14  C   UNL     1       4.318  -1.218   4.296  1.00  0.00    -0.014 A 
BRANCH  14  15
ATOM     15  C   UNL     1       5.052  -1.335   5.578  1.00  0.00     0.031 A 
ATOM     16  C   UNL     1       5.994  -2.485   5.718  1.00  0.00     0.074 A 
ATOM     17  C   UNL     1       4.941  -0.400   6.541  1.00  0.00     0.049 A 
ATOM     18  N   UNL     1       6.823  -2.745   6.687  1.00  0.00    -0.248 NA
ATOM     19  C   UNL     1       5.946  -3.515   4.664  1.00  0.00     0.031 C 
ATOM     20  C   UNL     1       3.932   0.643   6.550  1.00  0.00     0.029 A 
ATOM     21  N   UNL     1       5.697  -0.115   7.652  1.00  0.00    -0.354 N 
ATOM     22  C   UNL     1       7.303  -4.019   6.426  1.00  0.00     0.074 A 
ATOM     23  C   UNL     1       6.733  -4.451   5.171  1.00  0.00     0.031 C 
ATOM     24  C   UNL     1       4.252   1.575   7.462  1.00  0.00     0.029 A 
ATOM     25  C   UNL     1       5.435   1.140   8.185  1.00  0.00     0.049 A 
ATOM     26  H   UNL     1       6.357  -0.739   8.031  1.00  0.00     0.167 HD
ATOM     27  C   UNL     1       8.090  -4.776   7.222  1.00  0.00     0.031 A 
ATOM     28  C   UNL     1       6.106   1.834   9.132  1.00  0.00     0.031 A 
ATOM     29  C   UNL     1       8.596  -4.301   8.481  1.00  0.00     0.049 A 
ATOM     30  C   UNL     1       7.172   1.048   9.863  1.00  0.00     0.074 A 
ATOM     31  C   UNL     1       9.324  -4.980   9.438  1.00  0.00     0.029 A 
ATOM     32  N   UNL     1       8.421  -3.004   8.949  1.00  0.00    -0.354 N 
ATOM     33  N   UNL     1       7.641  -0.151   9.593  1.00  0.00    -0.248 NA
ATOM     34  C   UNL     1       7.745   1.661  11.068  1.00  0.00     0.031 C 
ATOM     35  C   UNL     1       9.564  -4.098  10.499  1.00  0.00     0.029 A 
ATOM     36  C   UNL     1       9.035  -2.857  10.177  1.00  0.00     0.049 A 
ATOM     37  H   UNL     1       7.931  -2.294   8.475  1.00  0.00     0.167 HD
ATOM     38  C   UNL     1       8.509  -0.457  10.630  1.00  0.00     0.074 A 
ATOM     39  C   UNL     1       8.607   0.732  11.454  1.00  0.00     0.031 C 
ATOM     40  C   UNL     1       9.105  -1.635  10.936  1.00  0.00     0.031 A 
BRANCH  27  41
ATOM     41  C   UNL     1       8.315  -6.199   6.799  1.00  0.00    -0.014 A 
ATOM     42  C   UNL     1       9.110  -6.523   5.685  1.00  0.00     0.010 A 
ATOM     43  C   UNL     1       7.666  -7.232   7.500  1.00  0.00     0.010 A 
ATOM     44  C   UNL     1       9.216  -7.849   5.256  1.00  0.00     0.020 A 
ATOM     45  C   UNL     1       7.793  -8.562   7.092  1.00  0.00     0.020 A 
ATOM     46  C   UNL     1       8.553  -8.860   5.960  1.00  0.00     0.054 A 
BRANCH  46  47
ATOM     47  S   UNL     1       8.715 -10.571   5.383  1.00  0.00     0.124 S 
ATOM     48  O   UNL     1       7.891 -10.562   4.177  1.00  0.00    -0.237 OA
ATOM     49  O   UNL     1      10.153 -10.698   5.159  1.00  0.00    -0.237 OA
ATOM     50  O   UNL     1       8.188 -11.363   6.492  1.00  0.00    -0.744 OA
ENDBRANCH  46  47
ENDBRANCH  27  41
BRANCH  28  51
ATOM     51  C   UNL     1       5.835   3.273   9.491  1.00  0.00    -0.014 A 
ATOM     52  C   UNL     1       6.906   4.194   9.560  1.00  0.00     0.010 A 
ATOM     53  C   UNL     1       4.554   3.759   9.806  1.00  0.00     0.010 A 
ATOM     54  C   UNL     1       6.717   5.525   9.963  1.00  0.00     0.020 A 
ATOM     55  C   UNL     1       4.345   5.107  10.146  1.00  0.00     0.020 A 
ATOM     56  C   UNL     1       5.432   5.977  10.248  1.00  0.00     0.054 A 
BRANCH  56  57
ATOM     57  S   UNL     1       5.146   7.722  10.666  1.00  0.00     0.124 S 
ATOM     58  O   UNL     1       5.057   7.682  12.121  1.00  0.00    -0.237 OA
ATOM     59  O   UNL     1       6.319   8.404  10.123  1.00  0.00    -0.237 OA
ATOM     60  O   UNL     1       3.899   8.019   9.963  1.00  0.00    -0.744 OA
ENDBRANCH  56  57
ENDBRANCH  28  51
BRANCH  40  61
ATOM     61  C   UNL     1       9.879  -1.665  12.220  1.00  0.00    -0.014 A 
ATOM     62  C   UNL     1       9.208  -1.631  13.457  1.00  0.00     0.010 A 
ATOM     63  C   UNL     1      11.279  -1.756  12.188  1.00  0.00     0.010 A 
ATOM     64  C   UNL     1       9.933  -1.639  14.646  1.00  0.00     0.020 A 
ATOM     65  C   UNL     1      12.005  -1.796  13.378  1.00  0.00     0.020 A 
ATOM     66  C   UNL     1      11.327  -1.720  14.598  1.00  0.00     0.054 A 
BRANCH  66  67
ATOM     67  S   UNL     1      12.246  -1.763  16.159  1.00  0.00     0.124 S 
ATOM     68  O   UNL     1      12.151  -0.376  16.604  1.00  0.00    -0.237 OA
ATOM     69  O   UNL     1      11.490  -2.732  16.949  1.00  0.00    -0.237 OA
ATOM     70  O   UNL     1      13.582  -2.200  15.760  1.00  0.00    -0.744 OA
ENDBRANCH  66  67
ENDBRANCH  40  61
ENDBRANCH  14  15
ENDBRANCH   7   9
ENDBRANCH   6   7
ENDBRANCH   5   6
ENDBRANCH   4   5
ENDBRANCH   3   4
ENDBRANCH   2   3
ENDBRANCH   1   2
BRANCH   1  71
ATOM     71  O   UNL     1       2.557   3.902  -2.094  1.00  0.00    -0.376 OA
BRANCH  71  72
ATOM     72  C   UNL     1       3.942   4.164  -1.906  1.00  0.00     0.202 C 
BRANCH  72  73
ATOM     73  C   UNL     1       4.365   4.923  -0.645  1.00  0.00     0.261 C 
BRANCH  73  74
ATOM     74  O   UNL     1       3.865   4.387   0.581  1.00  0.00    -0.459 OA
BRANCH  74  75
ATOM     75  C   UNL     1       2.789   5.042   1.117  1.00  0.00     0.365 C 
ATOM     76  O   UNL     1       2.134   5.915   0.558  1.00  0.00    -0.245 OA
BRANCH  75  77
ATOM     77  C   UNL     1       2.523   4.549   2.532  1.00  0.00     0.304 C 
ATOM     78  C   UNL     1       2.066   3.095   2.542  1.00  0.00     0.153 C 
ATOM     79  N   UNL     1       3.769   4.695   3.305  1.00  0.00    -0.319 N 
ATOM     80  S   UNL     1       2.943   2.331   3.912  1.00  0.00    -0.087 SA
ATOM     81  C   UNL     1       3.631   3.868   4.499  1.00  0.00     0.274 C 
ATOM     82  H   UNL     1       3.906   5.671   3.569  1.00  0.00     0.348 HD
ATOM     83  H   UNL     1       4.576   4.404   2.753  1.00  0.00     0.348 HD
BRANCH  81  84
ATOM     84  C   UNL     1       4.960   3.887   5.215  1.00  0.00     0.024 A 
ATOM     85  C   UNL     1       6.074   3.103   4.904  1.00  0.00     0.011 A 
ATOM     86  C   UNL     1       5.140   4.965   6.091  1.00  0.00     0.057 A 
ATOM     87  C   UNL     1       7.330   3.439   5.421  1.00  0.00     0.004 A 
ATOM     88  C   UNL     1       6.398   5.423   6.441  1.00  0.00     0.120 A 
ATOM     89  C   UNL     1       7.498   4.624   6.146  1.00  0.00     0.046 A 
BRANCH  88  90
ATOM     90  O   UNL     1       6.630   6.647   7.011  1.00  0.00    -0.489 OA
BRANCH  90  91
ATOM     91  C   UNL     1       5.550   7.620   6.983  1.00  0.00     0.267 C 
BRANCH  91  92
ATOM     92  C   UNL     1       5.273   8.109   5.568  1.00  0.00     0.008 A 
ATOM     93  C   UNL     1       6.337   8.716   4.877  1.00  0.00     0.010 A 
ATOM     94  C   UNL     1       4.061   7.915   4.883  1.00  0.00     0.049 A 
ATOM     95  C   UNL     1       6.231   9.019   3.520  1.00  0.00     0.021 A 
ATOM     96  C   UNL     1       3.975   8.162   3.509  1.00  0.00     0.041 A 
ATOM     97  Cl  UNL     1       2.601   7.404   5.661  1.00  0.00    -0.084 Cl
ATOM     98  C   UNL     1       5.067   8.694   2.832  1.00  0.00     0.042 A 
ATOM     99  Cl  UNL     1       4.975   8.958   1.134  1.00  0.00    -0.084 Cl
ENDBRANCH  91  92
ENDBRANCH  90  91
ENDBRANCH  88  90
ENDBRANCH  81  84
ENDBRANCH  75  77
ENDBRANCH  74  75
ENDBRANCH  73  74
ENDBRANCH  72  73
ENDBRANCH  71  72
ENDBRANCH   1  71
TORSDOF 24
