REMARK SMILES C[NH+]1CCN(C(=O)c2ccc3c(c2)N(CC(=O)OCCOCCOCCOC(=O)c2ccc(-c4c5nc(c(-c6ccc(S(=O)(=O)[O-])cc6)c6ccc([nH]6)c(-c6ccc(S(=O)(=O)[O-])cc6)c6nc(c(-c7ccc(S(=O)(=O)[O-])cc7)c7ccc4[nH]7)C=C6)C=C5)cc2)C(=O)CO3)CC1
REMARK SMILES IDX 23 1 22 2 21 3 20 4 19 5 18 6 16 7 17 8 15 9 14 10 8 11 9 12
REMARK SMILES IDX 13 13 10 14 12 15 11 16 93 17 90 18 92 19 91 20 6 21 1 22
REMARK SMILES IDX 2 23 3 24 95 25 4 27 94 28 5 29 7 30 24 31 25 32 26 33 27 34
REMARK SMILES IDX 28 35 29 36 30 37 31 38 89 39 32 40 88 41 33 42 34 43 35 44
REMARK SMILES IDX 82 45 36 46 87 47 81 48 83 49 37 50 86 51 80 52 79 53 38 55
REMARK SMILES IDX 68 56 49 57 67 58 50 59 53 60 66 61 84 62 51 63 52 64 65 66
REMARK SMILES IDX 85 67 54 68 39 69 40 70 48 71 41 72 47 73 42 74 43 75 44 76
REMARK SMILES IDX 45 77 46 78 69 79 70 80 78 81 71 82 77 83 72 84 73 85 74 86
REMARK SMILES IDX 75 87 76 88 55 89 56 90 64 91 57 92 63 93 58 94 59 95 60 96
REMARK SMILES IDX 61 97 62 98
REMARK H PARENT 2 26 83 54 53 65
REMARK Flexibility Score: inf
ROOT
ATOM      1  C   UNL     1       0.020  -3.863  -0.213  1.00  0.00     0.188 C 
ENDROOT
BRANCH   1   2
ATOM      2  C   UNL     1       1.287  -4.133   0.552  1.00  0.00     0.188 C 
BRANCH   2   3
ATOM      3  O   UNL     1       1.791  -5.441   0.466  1.00  0.00    -0.376 OA
BRANCH   3   4
ATOM      4  C   UNL     1       0.837  -6.493   0.607  1.00  0.00     0.202 C 
BRANCH   4   5
ATOM      5  C   UNL     1      -0.048  -6.517   1.884  1.00  0.00     0.261 C 
BRANCH   5   6
ATOM      6  O   UNL     1      -1.302  -5.734   1.858  1.00  0.00    -0.462 OA
BRANCH   6   7
ATOM      7  C   UNL     1      -1.580  -5.021   2.998  1.00  0.00     0.326 C 
ATOM      8  O   UNL     1      -0.786  -4.970   3.942  1.00  0.00    -0.250 OA
BRANCH   7   9
ATOM      9  C   UNL     1      -2.926  -4.176   3.077  1.00  0.00     0.248 C 
BRANCH   9  10
ATOM     10  N   UNL     1      -4.182  -4.291   2.317  1.00  0.00    -0.295 N 
ATOM     11  C   UNL     1      -4.651  -1.322  -0.198  1.00  0.00     0.042 A 
ATOM     12  C   UNL     1      -5.854  -1.760  -0.750  1.00  0.00     0.018 A 
ATOM     13  C   UNL     1      -4.375  -1.998   1.067  1.00  0.00     0.044 A 
ATOM     14  C   UNL     1      -6.556  -2.875  -0.215  1.00  0.00     0.049 A 
ATOM     15  C   UNL     1      -4.864  -3.288   1.467  1.00  0.00     0.087 A 
ATOM     16  C   UNL     1      -6.035  -3.667   0.826  1.00  0.00     0.143 A 
ATOM     17  O   UNL     1      -6.727  -4.816   1.103  1.00  0.00    -0.482 OA
ATOM     18  C   UNL     1      -4.853  -5.481   2.613  1.00  0.00     0.265 C 
ATOM     19  C   UNL     1      -6.333  -5.455   2.303  1.00  0.00     0.330 C 
ATOM     20  O   UNL     1      -4.329  -6.431   3.198  1.00  0.00    -0.270 OA
BRANCH  11  21
ATOM     21  C   UNL     1      -3.950  -0.043  -0.926  1.00  0.00     0.254 C 
ATOM     22  C   UNL     1       1.524   1.232  -0.629  1.00  0.00     0.332 C 
ATOM     23  N   UNL     1       0.367   1.017  -1.529  1.00  0.00    -0.334 N 
ATOM     24  C   UNL     1      -0.719   1.985  -1.249  1.00  0.00     0.283 C 
ATOM     25  C   UNL     1      -0.111  -0.367  -1.397  1.00  0.00     0.283 C 
ATOM     26  H   UNL     1       0.667   1.172  -2.491  1.00  0.00     0.347 HD
ATOM     27  C   UNL     1      -2.176   1.624  -1.796  1.00  0.00     0.181 C 
ATOM     28  C   UNL     1      -1.489  -0.643  -2.092  1.00  0.00     0.181 C 
ATOM     29  N   UNL     1      -2.604   0.196  -1.555  1.00  0.00    -0.327 N 
ATOM     30  O   UNL     1      -4.734   0.922  -0.957  1.00  0.00    -0.269 OA
ENDBRANCH  11  21
ENDBRANCH   9  10
ENDBRANCH   7   9
ENDBRANCH   6   7
ENDBRANCH   5   6
ENDBRANCH   4   5
ENDBRANCH   3   4
ENDBRANCH   2   3
ENDBRANCH   1   2
BRANCH   1  31
ATOM     31  O   UNL     1      -0.316  -4.471  -1.430  1.00  0.00    -0.376 OA
BRANCH  31  32
ATOM     32  C   UNL     1      -1.721  -4.309  -1.621  1.00  0.00     0.202 C 
BRANCH  32  33
ATOM     33  C   UNL     1      -2.534  -3.285  -0.752  1.00  0.00     0.261 C 
BRANCH  33  34
ATOM     34  O   UNL     1      -2.016  -2.049   0.052  1.00  0.00    -0.460 OA
BRANCH  34  35
ATOM     35  C   UNL     1      -1.472  -1.812   1.300  1.00  0.00     0.338 C 
ATOM     36  O   UNL     1      -0.835  -2.635   1.948  1.00  0.00    -0.246 OA
BRANCH  35  37
ATOM     37  C   UNL     1      -1.821  -0.527   2.045  1.00  0.00     0.060 A 
ATOM     38  C   UNL     1      -1.978  -0.560   3.434  1.00  0.00     0.016 A 
ATOM     39  C   UNL     1      -2.174   0.663   1.440  1.00  0.00     0.016 A 
ATOM     40  C   UNL     1      -2.508   0.538   4.138  1.00  0.00     0.010 A 
ATOM     41  C   UNL     1      -2.620   1.801   2.111  1.00  0.00     0.010 A 
ATOM     42  C   UNL     1      -2.762   1.760   3.484  1.00  0.00    -0.014 A 
BRANCH  42  43
ATOM     43  C   UNL     1      -2.815   3.048   4.219  1.00  0.00     0.031 A 
ATOM     44  C   UNL     1      -3.916   4.062   4.038  1.00  0.00     0.074 A 
ATOM     45  C   UNL     1      -1.689   3.360   4.895  1.00  0.00     0.049 A 
ATOM     46  N   UNL     1      -4.032   5.247   4.582  1.00  0.00    -0.248 NA
ATOM     47  C   UNL     1      -4.984   3.749   3.074  1.00  0.00     0.031 C 
ATOM     48  C   UNL     1      -0.471   2.534   4.914  1.00  0.00     0.029 A 
ATOM     49  N   UNL     1      -1.364   4.424   5.686  1.00  0.00    -0.354 N 
ATOM     50  C   UNL     1      -5.152   5.838   3.998  1.00  0.00     0.074 A 
ATOM     51  C   UNL     1      -5.662   4.891   3.031  1.00  0.00     0.031 C 
ATOM     52  C   UNL     1       0.414   3.056   5.766  1.00  0.00     0.029 A 
ATOM     53  C   UNL     1      -0.137   4.290   6.294  1.00  0.00     0.049 A 
ATOM     54  H   UNL     1      -1.948   5.207   5.809  1.00  0.00     0.167 HD
ATOM     55  C   UNL     1      -5.692   7.056   4.261  1.00  0.00     0.031 A 
ATOM     56  C   UNL     1       0.477   5.067   7.199  1.00  0.00     0.031 A 
ATOM     57  C   UNL     1      -5.151   7.944   5.265  1.00  0.00     0.049 A 
ATOM     58  C   UNL     1      -0.249   6.294   7.639  1.00  0.00     0.074 A 
ATOM     59  C   UNL     1      -5.664   9.139   5.738  1.00  0.00     0.029 A 
ATOM     60  N   UNL     1      -3.969   7.715   5.962  1.00  0.00    -0.354 N 
ATOM     61  N   UNL     1      -1.375   6.779   7.171  1.00  0.00    -0.248 NA
ATOM     62  C   UNL     1       0.351   7.063   8.729  1.00  0.00     0.031 C 
ATOM     63  C   UNL     1      -4.779   9.644   6.698  1.00  0.00     0.029 A 
ATOM     64  C   UNL     1      -3.739   8.741   6.861  1.00  0.00     0.049 A 
ATOM     65  H   UNL     1      -3.382   6.936   5.834  1.00  0.00     0.167 HD
ATOM     66  C   UNL     1      -1.623   7.923   7.908  1.00  0.00     0.074 A 
ATOM     67  C   UNL     1      -0.546   8.028   8.880  1.00  0.00     0.031 C 
ATOM     68  C   UNL     1      -2.637   8.814   7.787  1.00  0.00     0.031 A 
BRANCH  55  69
ATOM     69  C   UNL     1      -6.927   7.494   3.498  1.00  0.00    -0.014 A 
ATOM     70  C   UNL     1      -8.153   6.818   3.641  1.00  0.00     0.010 A 
ATOM     71  C   UNL     1      -6.894   8.652   2.695  1.00  0.00     0.010 A 
ATOM     72  C   UNL     1      -9.303   7.264   2.976  1.00  0.00     0.020 A 
ATOM     73  C   UNL     1      -8.049   9.121   2.051  1.00  0.00     0.020 A 
ATOM     74  C   UNL     1      -9.245   8.415   2.186  1.00  0.00     0.054 A 
BRANCH  74  75
ATOM     75  S   UNL     1     -10.767   9.000   1.385  1.00  0.00     0.124 S 
ATOM     76  O   UNL     1     -10.948   8.016   0.321  1.00  0.00    -0.237 OA
ATOM     77  O   UNL     1     -11.745   8.936   2.469  1.00  0.00    -0.237 OA
ATOM     78  O   UNL     1     -10.429  10.348   0.936  1.00  0.00    -0.744 OA
ENDBRANCH  74  75
ENDBRANCH  55  69
BRANCH  56  79
ATOM     79  C   UNL     1       1.770   4.620   7.779  1.00  0.00    -0.014 A 
ATOM     80  C   UNL     1       1.802   4.062   9.069  1.00  0.00     0.010 A 
ATOM     81  C   UNL     1       2.938   4.599   6.995  1.00  0.00     0.010 A 
ATOM     82  C   UNL     1       2.978   3.493   9.565  1.00  0.00     0.020 A 
ATOM     83  C   UNL     1       4.109   4.005   7.477  1.00  0.00     0.020 A 
ATOM     84  C   UNL     1       4.122   3.462   8.763  1.00  0.00     0.054 A 
BRANCH  84  85
ATOM     85  S   UNL     1       5.611   2.638   9.394  1.00  0.00     0.124 S 
ATOM     86  O   UNL     1       6.124   3.624  10.339  1.00  0.00    -0.237 OA
ATOM     87  O   UNL     1       5.071   1.415   9.986  1.00  0.00    -0.237 OA
ATOM     88  O   UNL     1       6.421   2.434   8.195  1.00  0.00    -0.744 OA
ENDBRANCH  84  85
ENDBRANCH  56  79
BRANCH  68  89
ATOM     89  C   UNL     1      -2.598   9.973   8.736  1.00  0.00    -0.014 A 
ATOM     90  C   UNL     1      -1.661  11.007   8.562  1.00  0.00     0.010 A 
ATOM     91  C   UNL     1      -3.503  10.022   9.808  1.00  0.00     0.010 A 
ATOM     92  C   UNL     1      -1.598  12.052   9.481  1.00  0.00     0.020 A 
ATOM     93  C   UNL     1      -3.460  11.081  10.714  1.00  0.00     0.020 A 
ATOM     94  C   UNL     1      -2.494  12.078  10.555  1.00  0.00     0.054 A 
BRANCH  94  95
ATOM     95  S   UNL     1      -2.398  13.452  11.731  1.00  0.00     0.124 S 
ATOM     96  O   UNL     1      -1.214  13.099  12.509  1.00  0.00    -0.237 OA
ATOM     97  O   UNL     1      -2.253  14.613  10.857  1.00  0.00    -0.237 OA
ATOM     98  O   UNL     1      -3.666  13.377  12.453  1.00  0.00    -0.744 OA
ENDBRANCH  94  95
ENDBRANCH  68  89
ENDBRANCH  42  43
ENDBRANCH  35  37
ENDBRANCH  34  35
ENDBRANCH  33  34
ENDBRANCH  32  33
ENDBRANCH  31  32
ENDBRANCH   1  31
TORSDOF 22
