REMARK SMILES C#CC[N@@H+](CC(=O)OCCOCCOCCOC(=O)c1ccc(-c2c3nc(c(-c4ccc(S(=O)(=O)[O-])cc4)c4ccc([nH]4)c(-c4ccc(S(=O)(=O)[O-])cc4)c4nc(c(-c5ccc(S(=O)(=O)[O-])cc5)c5ccc2[nH]5)C=C4)C=C3)cc1)Cc1ccc(C(C)C)cc1
REMARK SMILES IDX 12 1 11 2 10 3 9 4 8 5 6 6 7 7 5 8 4 9 3 11 2 12 1 13 80 14
REMARK SMILES IDX 81 15 82 16 89 17 83 18 88 19 84 20 85 21 86 22 87 23 13 24
REMARK SMILES IDX 14 25 15 26 16 27 17 28 18 29 19 30 20 31 21 32 79 33 22 34
REMARK SMILES IDX 78 35 23 36 24 37 25 38 72 39 26 40 77 41 71 42 73 43 27 44
REMARK SMILES IDX 76 45 70 46 69 47 28 49 58 50 39 51 57 52 40 53 43 54 56 55
REMARK SMILES IDX 74 56 41 57 42 58 55 60 75 61 44 62 29 63 30 64 38 65 31 66
REMARK SMILES IDX 37 67 32 68 33 69 34 70 35 71 36 72 59 73 60 74 68 75 61 76
REMARK SMILES IDX 67 77 62 78 63 79 64 80 65 81 66 82 45 83 46 84 54 85 47 86
REMARK SMILES IDX 53 87 48 88 49 89 50 90 51 91 52 92
REMARK H PARENT 4 10 73 48 43 59
REMARK Flexibility Score: inf
ROOT
ATOM      1  C   UNL     1      -4.676  -3.026  -1.894  1.00  0.00     0.188 C 
ENDROOT
BRANCH   1   2
ATOM      2  O   UNL     1      -5.690  -2.521  -2.894  1.00  0.00    -0.376 OA
BRANCH   2   3
ATOM      3  C   UNL     1      -6.257  -1.220  -2.843  1.00  0.00     0.202 C 
BRANCH   3   4
ATOM      4  C   UNL     1      -6.019  -0.019  -1.879  1.00  0.00     0.261 C 
BRANCH   4   5
ATOM      5  O   UNL     1      -4.935   0.052  -0.940  1.00  0.00    -0.459 OA
BRANCH   5   6
ATOM      6  C   UNL     1      -5.183  -0.367   0.333  1.00  0.00     0.361 C 
ATOM      7  O   UNL     1      -6.256  -0.838   0.693  1.00  0.00    -0.245 OA
BRANCH   6   8
ATOM      8  C   UNL     1      -4.020  -0.092   1.299  1.00  0.00     0.387 C 
BRANCH   8   9
ATOM      9  N   UNL     1      -2.679  -0.686   1.029  1.00  0.00    -0.312 N 
ATOM     10  H   UNL     1      -2.181  -0.546   1.908  1.00  0.00     0.349 HD
BRANCH   9  11
ATOM     11  C   UNL     1      -1.867   0.036   0.083  1.00  0.00     0.354 C 
BRANCH  11  12
ATOM     12  C   UNL     1      -0.347   0.036   0.083  1.00  0.00    -0.047 C 
ATOM     13  C   UNL     1       0.957   0.036   0.083  1.00  0.00     0.010 C 
ENDBRANCH  11  12
ENDBRANCH   9  11
BRANCH   9  14
ATOM     14  C   UNL     1      -2.675  -2.118   0.869  1.00  0.00     0.300 C 
BRANCH  14  15
ATOM     15  C   UNL     1      -3.193  -2.619  -0.447  1.00  0.00     0.006 A 
ATOM     16  C   UNL     1      -3.160  -1.633  -1.973  1.00  0.00     0.010 A 
ATOM     17  C   UNL     1      -3.732  -4.343  -0.538  1.00  0.00     0.010 A 
ATOM     18  C   UNL     1      -3.525  -2.361  -3.554  1.00  0.00     0.004 A 
ATOM     19  C   UNL     1      -4.116  -5.074  -2.147  1.00  0.00     0.004 A 
ATOM     20  C   UNL     1      -4.027  -4.071  -3.647  1.00  0.00    -0.045 A 
BRANCH  20  21
ATOM     21  C   UNL     1      -4.242  -4.651  -5.016  1.00  0.00     0.013 C 
ATOM     22  C   UNL     1      -5.731  -4.610  -5.305  1.00  0.00     0.012 C 
ATOM     23  C   UNL     1      -3.465  -3.888  -6.100  1.00  0.00     0.012 C 
ENDBRANCH  20  21
ENDBRANCH  14  15
ENDBRANCH   9  14
ENDBRANCH   8   9
ENDBRANCH   6   8
ENDBRANCH   5   6
ENDBRANCH   4   5
ENDBRANCH   3   4
ENDBRANCH   2   3
ENDBRANCH   1   2
BRANCH   1  24
ATOM     24  C   UNL     1      -2.583  -3.623  -2.179  1.00  0.00     0.188 C 
BRANCH  24  25
ATOM     25  O   UNL     1      -1.316  -2.765  -2.505  1.00  0.00    -0.376 OA
BRANCH  25  26
ATOM     26  C   UNL     1      -0.393  -3.394  -3.395  1.00  0.00     0.202 C 
BRANCH  26  27
ATOM     27  C   UNL     1       0.159  -4.818  -3.113  1.00  0.00     0.261 C 
BRANCH  27  28
ATOM     28  O   UNL     1      -0.540  -5.655  -2.172  1.00  0.00    -0.460 OA
BRANCH  28  29
ATOM     29  C   UNL     1      -0.159  -5.526  -0.874  1.00  0.00     0.338 C 
ATOM     30  O   UNL     1       0.761  -4.830  -0.473  1.00  0.00    -0.246 OA
BRANCH  29  31
ATOM     31  C   UNL     1      -1.097  -6.247   0.045  1.00  0.00     0.060 A 
ATOM     32  C   UNL     1      -1.212  -5.764   1.357  1.00  0.00     0.016 A 
ATOM     33  C   UNL     1      -1.869  -7.355  -0.337  1.00  0.00     0.016 A 
ATOM     34  C   UNL     1      -2.033  -6.406   2.293  1.00  0.00     0.010 A 
ATOM     35  C   UNL     1      -2.692  -8.007   0.606  1.00  0.00     0.010 A 
ATOM     36  C   UNL     1      -2.737  -7.568   1.944  1.00  0.00    -0.014 A 
BRANCH  36  37
ATOM     37  C   UNL     1      -3.177  -8.470   3.055  1.00  0.00     0.031 A 
ATOM     38  C   UNL     1      -2.179  -9.513   3.508  1.00  0.00     0.074 A 
ATOM     39  C   UNL     1      -4.327  -8.313   3.743  1.00  0.00     0.049 A 
ATOM     40  N   UNL     1      -2.224 -10.331   4.528  1.00  0.00    -0.248 NA
ATOM     41  C   UNL     1      -0.951  -9.632   2.701  1.00  0.00     0.031 C 
ATOM     42  C   UNL     1      -5.359  -7.315   3.469  1.00  0.00     0.029 A 
ATOM     43  N   UNL     1      -4.807  -8.989   4.846  1.00  0.00    -0.354 N 
ATOM     44  C   UNL     1      -1.029 -11.043   4.490  1.00  0.00     0.074 A 
ATOM     45  C   UNL     1      -0.303 -10.600   3.324  1.00  0.00     0.031 C 
ATOM     46  C   UNL     1      -6.340  -7.434   4.386  1.00  0.00     0.029 A 
ATOM     47  C   UNL     1      -6.022  -8.528   5.305  1.00  0.00     0.049 A 
ATOM     48  H   UNL     1      -4.324  -9.737   5.267  1.00  0.00     0.167 HD
ATOM     49  C   UNL     1      -0.558 -11.974   5.353  1.00  0.00     0.031 A 
ATOM     50  C   UNL     1      -6.786  -8.937   6.344  1.00  0.00     0.031 A 
ATOM     51  C   UNL     1      -1.284 -12.450   6.497  1.00  0.00     0.049 A 
ATOM     52  C   UNL     1      -6.287 -10.056   7.235  1.00  0.00     0.074 A 
ATOM     53  C   UNL     1      -0.903 -13.409   7.418  1.00  0.00     0.029 A 
ATOM     54  N   UNL     1      -2.546 -12.014   6.868  1.00  0.00    -0.354 N 
ATOM     55  N   UNL     1      -5.144 -10.701   7.194  1.00  0.00    -0.248 NA
ATOM     56  C   UNL     1      -7.178 -10.491   8.322  1.00  0.00     0.031 C 
ATOM     57  C   UNL     1      -1.967 -13.607   8.303  1.00  0.00     0.029 A 
ATOM     58  C   UNL     1      -2.975 -12.710   7.985  1.00  0.00     0.049 A 
ATOM     59  H   UNL     1      -3.061 -11.314   6.406  1.00  0.00     0.167 HD
ATOM     60  C   UNL     1      -5.169 -11.593   8.266  1.00  0.00     0.074 A 
ATOM     61  C   UNL     1      -6.427 -11.385   8.950  1.00  0.00     0.031 C 
ATOM     62  C   UNL     1      -4.236 -12.501   8.652  1.00  0.00     0.031 A 
BRANCH  49  63
ATOM     63  C   UNL     1       0.790 -12.573   5.046  1.00  0.00    -0.014 A 
ATOM     64  C   UNL     1       1.972 -11.815   5.147  1.00  0.00     0.010 A 
ATOM     65  C   UNL     1       0.873 -13.919   4.648  1.00  0.00     0.010 A 
ATOM     66  C   UNL     1       3.206 -12.380   4.811  1.00  0.00     0.020 A 
ATOM     67  C   UNL     1       2.108 -14.498   4.345  1.00  0.00     0.020 A 
ATOM     68  C   UNL     1       3.265 -13.720   4.412  1.00  0.00     0.054 A 
BRANCH  68  69
ATOM     69  S   UNL     1       4.881 -14.434   4.004  1.00  0.00     0.124 S 
ATOM     70  O   UNL     1       5.210 -13.745   2.758  1.00  0.00    -0.237 OA
ATOM     71  O   UNL     1       5.693 -14.063   5.160  1.00  0.00    -0.237 OA
ATOM     72  O   UNL     1       4.606 -15.862   3.871  1.00  0.00    -0.744 OA
ENDBRANCH  68  69
ENDBRANCH  49  63
BRANCH  50  73
ATOM     73  C   UNL     1      -8.123  -8.313   6.607  1.00  0.00    -0.014 A 
ATOM     74  C   UNL     1      -8.385  -7.605   7.796  1.00  0.00     0.010 A 
ATOM     75  C   UNL     1      -9.170  -8.475   5.680  1.00  0.00     0.010 A 
ATOM     76  C   UNL     1      -9.663  -7.090   8.058  1.00  0.00     0.020 A 
ATOM     77  C   UNL     1     -10.438  -7.934   5.921  1.00  0.00     0.020 A 
ATOM     78  C   UNL     1     -10.680  -7.252   7.114  1.00  0.00     0.054 A 
BRANCH  78  79
ATOM     79  S   UNL     1     -12.315  -6.533   7.448  1.00  0.00     0.124 S 
ATOM     80  O   UNL     1     -12.802  -7.370   8.540  1.00  0.00    -0.237 OA
ATOM     81  O   UNL     1     -11.983  -5.156   7.805  1.00  0.00    -0.237 OA
ATOM     82  O   UNL     1     -13.023  -6.686   6.179  1.00  0.00    -0.744 OA
ENDBRANCH  78  79
ENDBRANCH  50  73
BRANCH  62  83
ATOM     83  C   UNL     1      -4.519 -13.317   9.890  1.00  0.00    -0.014 A 
ATOM     84  C   UNL     1      -5.546 -14.277   9.923  1.00  0.00     0.010 A 
ATOM     85  C   UNL     1      -3.713 -13.145  11.032  1.00  0.00     0.010 A 
ATOM     86  C   UNL     1      -5.799 -15.005  11.090  1.00  0.00     0.020 A 
ATOM     87  C   UNL     1      -3.936 -13.899  12.187  1.00  0.00     0.020 A 
ATOM     88  C   UNL     1      -4.994 -14.808  12.216  1.00  0.00     0.054 A 
BRANCH  88  89
ATOM     89  S   UNL     1      -5.338 -15.769  13.715  1.00  0.00     0.124 S 
ATOM     90  O   UNL     1      -6.587 -15.171  14.179  1.00  0.00    -0.237 OA
ATOM     91  O   UNL     1      -5.447 -17.133  13.202  1.00  0.00    -0.237 OA
ATOM     92  O   UNL     1      -4.176 -15.519  14.564  1.00  0.00    -0.744 OA
ENDBRANCH  88  89
ENDBRANCH  62  83
ENDBRANCH  36  37
ENDBRANCH  29  31
ENDBRANCH  28  29
ENDBRANCH  27  28
ENDBRANCH  26  27
ENDBRANCH  25  26
ENDBRANCH  24  25
ENDBRANCH   1  24
TORSDOF 26
