REMARK SMILES C[C@@](O)(CNC(=O)CC1([NH3+])CCC1)C(=O)OCCOCCOCCOC(=O)c1ccc(-c2c3nc(c(-c4ccc(S(=O)(=O)[O-])cc4)c4ccc([nH]4)c(-c4ccc(S(=O)(=O)[O-])cc4)c4nc(c(-c5ccc(S(=O)(=O)[O-])cc5)c5ccc2[nH]5)C=C4)C=C3)cc1
REMARK SMILES IDX 20 1 19 2 18 3 17 4 16 5 14 6 15 7 2 8 1 9 3 10 4 12 5 13
REMARK SMILES IDX 6 14 7 16 8 17 9 18 11 19 13 20 12 21 10 22 21 26 22 27
REMARK SMILES IDX 23 28 24 29 25 30 26 31 27 32 28 33 29 34 87 35 30 36 86 37
REMARK SMILES IDX 31 38 32 39 33 40 80 41 34 42 85 43 79 44 81 45 35 46 84 47
REMARK SMILES IDX 78 48 77 49 36 51 66 52 47 53 65 54 48 55 51 56 64 57 82 58
REMARK SMILES IDX 49 59 50 60 63 62 83 63 52 64 37 65 38 66 46 67 39 68 45 69
REMARK SMILES IDX 40 70 41 71 42 72 43 73 44 74 67 75 68 76 76 77 69 78 75 79
REMARK SMILES IDX 70 80 71 81 72 82 73 83 74 84 53 85 54 86 62 87 55 88 61 89
REMARK SMILES IDX 56 90 57 91 58 92 59 93 60 94
REMARK H PARENT 3 11 5 15 10 23 10 24 10 25 81 50 51 61
REMARK Flexibility Score: inf
ROOT
ATOM      1  C   UNL     1       1.499  -3.645  -0.054  1.00  0.00     0.188 C 
ENDROOT
BRANCH   1   2
ATOM      2  O   UNL     1       2.380  -4.457   0.713  1.00  0.00    -0.376 OA
BRANCH   2   3
ATOM      3  C   UNL     1       2.108  -4.504   2.112  1.00  0.00     0.202 C 
BRANCH   3   4
ATOM      4  C   UNL     1       2.506  -3.218   2.861  1.00  0.00     0.261 C 
BRANCH   4   5
ATOM      5  O   UNL     1       1.534  -2.159   2.648  1.00  0.00    -0.461 OA
BRANCH   5   6
ATOM      6  C   UNL     1       1.960  -0.994   2.119  1.00  0.00     0.339 C 
ATOM      7  O   UNL     1       3.153  -0.725   1.968  1.00  0.00    -0.249 OA
BRANCH   6   8
ATOM      8  C   UNL     1       0.867   0.029   1.693  1.00  0.00     0.176 C 
ATOM      9  C   UNL     1       1.040   0.332   0.197  1.00  0.00     0.057 C 
BRANCH   8  10
ATOM     10  O   UNL     1       1.302   1.241   2.389  1.00  0.00    -0.377 OA
ATOM     11  H   UNL     1       0.685   1.964   2.196  1.00  0.00     0.212 HD
ENDBRANCH   8  10
BRANCH   8  12
ATOM     12  C   UNL     1      -0.633  -0.141   2.073  1.00  0.00     0.162 C 
BRANCH  12  13
ATOM     13  N   UNL     1      -1.546  -0.751   1.100  1.00  0.00    -0.352 N 
ATOM     14  C   UNL     1      -2.703  -1.452   1.270  1.00  0.00     0.226 C 
ATOM     15  H   UNL     1      -1.277  -0.633   0.160  1.00  0.00     0.163 HD
ATOM     16  O   UNL     1      -3.484  -1.422   0.309  1.00  0.00    -0.275 OA
BRANCH  14  17
ATOM     17  C   UNL     1      -3.130  -2.193   2.538  1.00  0.00     0.168 C 
BRANCH  17  18
ATOM     18  C   UNL     1      -2.099  -2.832   3.446  1.00  0.00     0.103 C 
ATOM     19  C   UNL     1      -1.869  -2.192   4.849  1.00  0.00     0.069 C 
ATOM     20  C   UNL     1      -2.334  -4.176   4.217  1.00  0.00     0.069 C 
ATOM     21  C   UNL     1      -1.511  -3.588   5.393  1.00  0.00     0.013 C 
BRANCH  18  22
ATOM     22  N   UNL     1      -0.841  -3.026   2.766  1.00  0.00    -0.352 N 
ATOM     23  H   UNL     1      -0.610  -2.188   2.233  1.00  0.00     0.344 HD
ATOM     24  H   UNL     1      -0.917  -3.822   2.132  1.00  0.00     0.344 HD
ATOM     25  H   UNL     1      -0.108  -3.207   3.452  1.00  0.00     0.344 HD
ENDBRANCH  18  22
ENDBRANCH  17  18
ENDBRANCH  14  17
ENDBRANCH  12  13
ENDBRANCH   8  12
ENDBRANCH   6   8
ENDBRANCH   5   6
ENDBRANCH   4   5
ENDBRANCH   3   4
ENDBRANCH   2   3
ENDBRANCH   1   2
BRANCH   1  26
ATOM     26  C   UNL     1       0.238  -4.365  -0.507  1.00  0.00     0.188 C 
BRANCH  26  27
ATOM     27  O   UNL     1      -0.669  -4.670   0.556  1.00  0.00    -0.376 OA
BRANCH  27  28
ATOM     28  C   UNL     1      -1.282  -5.957   0.432  1.00  0.00     0.202 C 
BRANCH  28  29
ATOM     29  C   UNL     1      -2.348  -6.109  -0.666  1.00  0.00     0.261 C 
BRANCH  29  30
ATOM     30  O   UNL     1      -1.898  -5.603  -1.930  1.00  0.00    -0.460 OA
BRANCH  30  31
ATOM     31  C   UNL     1      -2.443  -4.415  -2.303  1.00  0.00     0.338 C 
ATOM     32  O   UNL     1      -3.389  -3.851  -1.782  1.00  0.00    -0.246 OA
BRANCH  31  33
ATOM     33  C   UNL     1      -1.568  -3.790  -3.322  1.00  0.00     0.060 A 
ATOM     34  C   UNL     1      -1.289  -2.416  -3.214  1.00  0.00     0.016 A 
ATOM     35  C   UNL     1      -0.964  -4.556  -4.320  1.00  0.00     0.016 A 
ATOM     36  C   UNL     1      -0.419  -1.803  -4.117  1.00  0.00     0.010 A 
ATOM     37  C   UNL     1      -0.112  -3.938  -5.234  1.00  0.00     0.010 A 
ATOM     38  C   UNL     1       0.141  -2.557  -5.155  1.00  0.00    -0.014 A 
BRANCH  38  39
ATOM     39  C   UNL     1       0.796  -1.902  -6.311  1.00  0.00     0.031 A 
ATOM     40  C   UNL     1      -0.041  -1.687  -7.541  1.00  0.00     0.074 A 
ATOM     41  C   UNL     1       2.102  -1.583  -6.302  1.00  0.00     0.049 A 
ATOM     42  N   UNL     1       0.326  -1.343  -8.746  1.00  0.00    -0.248 NA
ATOM     43  C   UNL     1      -1.489  -1.914  -7.390  1.00  0.00     0.031 C 
ATOM     44  C   UNL     1       2.998  -1.695  -5.152  1.00  0.00     0.029 A 
ATOM     45  N   UNL     1       2.908  -1.123  -7.314  1.00  0.00    -0.354 N 
ATOM     46  C   UNL     1      -0.840  -1.343  -9.503  1.00  0.00     0.074 A 
ATOM     47  C   UNL     1      -1.921  -1.736  -8.628  1.00  0.00     0.031 C 
ATOM     48  C   UNL     1       4.239  -1.339  -5.532  1.00  0.00     0.029 A 
ATOM     49  C   UNL     1       4.233  -1.024  -6.960  1.00  0.00     0.049 A 
ATOM     50  H   UNL     1       2.569  -0.887  -8.208  1.00  0.00     0.167 HD
ATOM     51  C   UNL     1      -0.993  -1.047 -10.815  1.00  0.00     0.031 A 
ATOM     52  C   UNL     1       5.317  -0.753  -7.715  1.00  0.00     0.031 A 
ATOM     53  C   UNL     1       0.094  -0.674 -11.677  1.00  0.00     0.049 A 
ATOM     54  C   UNL     1       5.136  -0.500  -9.193  1.00  0.00     0.074 A 
ATOM     55  C   UNL     1       0.053  -0.343 -13.019  1.00  0.00     0.029 A 
ATOM     56  N   UNL     1       1.420  -0.588 -11.280  1.00  0.00    -0.354 N 
ATOM     57  N   UNL     1       4.029  -0.494  -9.900  1.00  0.00    -0.248 NA
ATOM     58  C   UNL     1       6.348  -0.217  -9.975  1.00  0.00     0.031 C 
ATOM     59  C   UNL     1       1.364  -0.115 -13.448  1.00  0.00     0.029 A 
ATOM     60  C   UNL     1       2.212  -0.233 -12.357  1.00  0.00     0.049 A 
ATOM     61  H   UNL     1       1.750  -0.756 -10.368  1.00  0.00     0.167 HD
ATOM     62  C   UNL     1       4.409  -0.174 -11.200  1.00  0.00     0.074 A 
ATOM     63  C   UNL     1       5.845   0.013 -11.181  1.00  0.00     0.031 C 
ATOM     64  C   UNL     1       3.640  -0.041 -12.310  1.00  0.00     0.031 A 
BRANCH  51  65
ATOM     65  C   UNL     1      -2.377  -1.164 -11.397  1.00  0.00    -0.014 A 
ATOM     66  C   UNL     1      -3.400  -0.266 -11.043  1.00  0.00     0.010 A 
ATOM     67  C   UNL     1      -2.651  -2.178 -12.333  1.00  0.00     0.010 A 
ATOM     68  C   UNL     1      -4.681  -0.405 -11.582  1.00  0.00     0.020 A 
ATOM     69  C   UNL     1      -3.923  -2.301 -12.899  1.00  0.00     0.020 A 
ATOM     70  C   UNL     1      -4.934  -1.423 -12.507  1.00  0.00     0.054 A 
BRANCH  70  71
ATOM     71  S   UNL     1      -6.600  -1.562 -13.211  1.00  0.00     0.124 S 
ATOM     72  O   UNL     1      -7.369  -2.058 -12.072  1.00  0.00    -0.237 OA
ATOM     73  O   UNL     1      -6.891  -0.189 -13.616  1.00  0.00    -0.237 OA
ATOM     74  O   UNL     1      -6.435  -2.511 -14.310  1.00  0.00    -0.744 OA
ENDBRANCH  70  71
ENDBRANCH  51  65
BRANCH  52  75
ATOM     75  C   UNL     1       6.675  -0.736  -7.100  1.00  0.00    -0.014 A 
ATOM     76  C   UNL     1       7.395   0.466  -6.987  1.00  0.00     0.010 A 
ATOM     77  C   UNL     1       7.259  -1.925  -6.625  1.00  0.00     0.010 A 
ATOM     78  C   UNL     1       8.675   0.478  -6.424  1.00  0.00     0.020 A 
ATOM     79  C   UNL     1       8.527  -1.913  -6.034  1.00  0.00     0.020 A 
ATOM     80  C   UNL     1       9.232  -0.712  -5.946  1.00  0.00     0.054 A 
BRANCH  80  81
ATOM     81  S   UNL     1      10.872  -0.660  -5.170  1.00  0.00     0.124 S 
ATOM     82  O   UNL     1      11.744  -0.425  -6.317  1.00  0.00    -0.237 OA
ATOM     83  O   UNL     1      10.742   0.453  -4.234  1.00  0.00    -0.237 OA
ATOM     84  O   UNL     1      10.998  -1.977  -4.548  1.00  0.00    -0.744 OA
ENDBRANCH  80  81
ENDBRANCH  52  75
BRANCH  64  85
ATOM     85  C   UNL     1       4.318   0.378 -13.588  1.00  0.00    -0.014 A 
ATOM     86  C   UNL     1       5.131  -0.510 -14.313  1.00  0.00     0.010 A 
ATOM     87  C   UNL     1       4.054   1.656 -14.118  1.00  0.00     0.010 A 
ATOM     88  C   UNL     1       5.684  -0.119 -15.537  1.00  0.00     0.020 A 
ATOM     89  C   UNL     1       4.580   2.038 -15.353  1.00  0.00     0.020 A 
ATOM     90  C   UNL     1       5.400   1.150 -16.051  1.00  0.00     0.054 A 
BRANCH  90  91
ATOM     91  S   UNL     1       6.072   1.605 -17.674  1.00  0.00     0.124 S 
ATOM     92  O   UNL     1       7.490   1.785 -17.376  1.00  0.00    -0.237 OA
ATOM     93  O   UNL     1       5.745   0.440 -18.493  1.00  0.00    -0.237 OA
ATOM     94  O   UNL     1       5.348   2.826 -18.020  1.00  0.00    -0.744 OA
ENDBRANCH  90  91
ENDBRANCH  64  85
ENDBRANCH  38  39
ENDBRANCH  31  33
ENDBRANCH  30  31
ENDBRANCH  29  30
ENDBRANCH  28  29
ENDBRANCH  27  28
ENDBRANCH  26  27
ENDBRANCH   1  26
TORSDOF 26
