REMARK SMILES O=C(OCCOCCOCCOC(=O)c1cc(-c2ccn(C(F)F)c(=O)c2)ccc1O)c1ccc(-c2c3nc(c(-c4ccc(S(=O)(=O)[O-])cc4)c4ccc([nH]4)c(-c4ccc(S(=O)(=O)[O-])cc4)c4nc(c(-c5ccc(S(=O)(=O)[O-])cc5)c5ccc2[nH]5)C=C4)C=C3)cc1
REMARK SMILES IDX 7 1 6 2 5 3 4 4 3 5 2 6 1 7 32 8 33 9 91 10 34 11 90 12
REMARK SMILES IDX 35 13 36 14 37 15 84 16 38 17 89 18 83 19 85 20 39 21 88 22
REMARK SMILES IDX 82 23 81 24 40 26 70 27 51 28 69 29 52 30 55 31 68 32 86 33
REMARK SMILES IDX 53 34 54 35 67 37 87 38 56 39 41 40 42 41 50 42 43 43 49 44
REMARK SMILES IDX 44 45 45 46 46 47 47 48 48 49 71 50 72 51 80 52 73 53 79 54
REMARK SMILES IDX 74 55 75 56 76 57 77 58 78 59 57 60 58 61 66 62 59 63 65 64
REMARK SMILES IDX 60 65 61 66 62 67 63 68 64 69 8 70 9 71 10 72 11 73 12 74
REMARK SMILES IDX 13 75 14 76 15 77 16 78 30 79 17 80 29 81 28 82 31 83 18 85
REMARK SMILES IDX 19 86 27 87 20 88 25 89 21 90 26 91 22 92 23 93 24 94
REMARK H PARENT 85 25 55 36 31 84
REMARK Flexibility Score: inf
ROOT
ATOM      1  C   UNL     1       2.519  -0.262   1.994  1.00  0.00     0.188 C 
ENDROOT
BRANCH   1   2
ATOM      2  O   UNL     1       3.775  -0.522   1.352  1.00  0.00    -0.376 OA
BRANCH   2   3
ATOM      3  C   UNL     1       4.713   0.550   1.462  1.00  0.00     0.202 C 
BRANCH   3   4
ATOM      4  C   UNL     1       4.673   1.529   0.284  1.00  0.00     0.261 C 
BRANCH   4   5
ATOM      5  O   UNL     1       3.332   1.757  -0.167  1.00  0.00    -0.460 OA
BRANCH   5   6
ATOM      6  C   UNL     1       2.666   1.108  -1.154  1.00  0.00     0.338 C 
ATOM      7  O   UNL     1       1.498   1.433  -1.363  1.00  0.00    -0.246 OA
BRANCH   6   8
ATOM      8  C   UNL     1       3.261   0.037  -2.021  1.00  0.00     0.060 A 
ATOM      9  C   UNL     1       2.651  -0.164  -3.268  1.00  0.00     0.016 A 
ATOM     10  C   UNL     1       4.309  -0.822  -1.677  1.00  0.00     0.016 A 
ATOM     11  C   UNL     1       3.075  -1.185  -4.130  1.00  0.00     0.010 A 
ATOM     12  C   UNL     1       4.776  -1.802  -2.558  1.00  0.00     0.010 A 
ATOM     13  C   UNL     1       4.153  -2.007  -3.788  1.00  0.00    -0.014 A 
BRANCH  13  14
ATOM     14  C   UNL     1       4.724  -2.976  -4.752  1.00  0.00     0.031 A 
ATOM     15  C   UNL     1       4.749  -4.455  -4.496  1.00  0.00     0.074 A 
ATOM     16  C   UNL     1       5.345  -2.481  -5.838  1.00  0.00     0.049 A 
ATOM     17  N   UNL     1       5.138  -5.413  -5.300  1.00  0.00    -0.248 NA
ATOM     18  C   UNL     1       4.305  -4.928  -3.177  1.00  0.00     0.031 C 
ATOM     19  C   UNL     1       5.473  -1.057  -6.150  1.00  0.00     0.029 A 
ATOM     20  N   UNL     1       6.013  -3.111  -6.855  1.00  0.00    -0.354 N 
ATOM     21  C   UNL     1       4.928  -6.598  -4.610  1.00  0.00     0.074 A 
ATOM     22  C   UNL     1       4.480  -6.240  -3.288  1.00  0.00     0.031 C 
ATOM     23  C   UNL     1       6.182  -0.920  -7.276  1.00  0.00     0.029 A 
ATOM     24  C   UNL     1       6.585  -2.241  -7.749  1.00  0.00     0.049 A 
ATOM     25  H   UNL     1       6.077  -4.090  -6.936  1.00  0.00     0.167 HD
ATOM     26  C   UNL     1       5.067  -7.869  -5.053  1.00  0.00     0.031 A 
ATOM     27  C   UNL     1       7.364  -2.466  -8.823  1.00  0.00     0.031 A 
ATOM     28  C   UNL     1       5.620  -8.207  -6.334  1.00  0.00     0.049 A 
ATOM     29  C   UNL     1       7.659  -3.875  -9.229  1.00  0.00     0.074 A 
ATOM     30  C   UNL     1       5.724  -9.453  -6.925  1.00  0.00     0.029 A 
ATOM     31  N   UNL     1       6.232  -7.302  -7.185  1.00  0.00    -0.354 N 
ATOM     32  N   UNL     1       7.231  -4.986  -8.679  1.00  0.00    -0.248 NA
ATOM     33  C   UNL     1       8.527  -4.072 -10.396  1.00  0.00     0.031 C 
ATOM     34  C   UNL     1       6.491  -9.313  -8.085  1.00  0.00     0.029 A 
ATOM     35  C   UNL     1       6.808  -7.972  -8.247  1.00  0.00     0.049 A 
ATOM     36  H   UNL     1       6.253  -6.326  -7.053  1.00  0.00     0.167 HD
ATOM     37  C   UNL     1       7.770  -6.017  -9.435  1.00  0.00     0.074 A 
ATOM     38  C   UNL     1       8.553  -5.398 -10.486  1.00  0.00     0.031 C 
ATOM     39  C   UNL     1       7.617  -7.353  -9.269  1.00  0.00     0.031 A 
BRANCH  26  40
ATOM     40  C   UNL     1       4.594  -8.995  -4.176  1.00  0.00    -0.014 A 
ATOM     41  C   UNL     1       5.514  -9.859  -3.558  1.00  0.00     0.010 A 
ATOM     42  C   UNL     1       3.218  -9.275  -4.080  1.00  0.00     0.010 A 
ATOM     43  C   UNL     1       5.068 -10.984  -2.857  1.00  0.00     0.020 A 
ATOM     44  C   UNL     1       2.768 -10.393  -3.371  1.00  0.00     0.020 A 
ATOM     45  C   UNL     1       3.697 -11.246  -2.773  1.00  0.00     0.054 A 
BRANCH  45  46
ATOM     46  S   UNL     1       3.131 -12.699  -1.845  1.00  0.00     0.124 S 
ATOM     47  O   UNL     1       3.407 -13.789  -2.774  1.00  0.00    -0.237 OA
ATOM     48  O   UNL     1       3.967 -12.651  -0.648  1.00  0.00    -0.237 OA
ATOM     49  O   UNL     1       1.716 -12.412  -1.612  1.00  0.00    -0.744 OA
ENDBRANCH  45  46
ENDBRANCH  26  40
BRANCH  27  50
ATOM     50  C   UNL     1       7.863  -1.277  -9.560  1.00  0.00    -0.014 A 
ATOM     51  C   UNL     1       8.840  -0.450  -8.969  1.00  0.00     0.010 A 
ATOM     52  C   UNL     1       7.182  -0.831 -10.704  1.00  0.00     0.010 A 
ATOM     53  C   UNL     1       9.052   0.844  -9.449  1.00  0.00     0.020 A 
ATOM     54  C   UNL     1       7.409   0.457 -11.200  1.00  0.00     0.020 A 
ATOM     55  C   UNL     1       8.307   1.300 -10.540  1.00  0.00     0.054 A 
BRANCH  55  56
ATOM     56  S   UNL     1       8.466   3.038 -11.036  1.00  0.00     0.124 S 
ATOM     57  O   UNL     1       7.697   3.716  -9.996  1.00  0.00    -0.237 OA
ATOM     58  O   UNL     1       9.910   3.253 -10.991  1.00  0.00    -0.237 OA
ATOM     59  O   UNL     1       7.876   3.067 -12.371  1.00  0.00    -0.744 OA
ENDBRANCH  55  56
ENDBRANCH  27  50
BRANCH  39  60
ATOM     60  C   UNL     1       8.350  -8.276 -10.199  1.00  0.00    -0.014 A 
ATOM     61  C   UNL     1       7.634  -9.047 -11.132  1.00  0.00     0.010 A 
ATOM     62  C   UNL     1       9.725  -8.505 -10.022  1.00  0.00     0.010 A 
ATOM     63  C   UNL     1       8.269 -10.074 -11.832  1.00  0.00     0.020 A 
ATOM     64  C   UNL     1      10.369  -9.515 -10.740  1.00  0.00     0.020 A 
ATOM     65  C   UNL     1       9.629 -10.313 -11.616  1.00  0.00     0.054 A 
BRANCH  65  66
ATOM     66  S   UNL     1      10.420 -11.699 -12.477  1.00  0.00     0.124 S 
ATOM     67  O   UNL     1       9.957 -12.846 -11.701  1.00  0.00    -0.237 OA
ATOM     68  O   UNL     1       9.876 -11.592 -13.828  1.00  0.00    -0.237 OA
ATOM     69  O   UNL     1      11.847 -11.402 -12.363  1.00  0.00    -0.744 OA
ENDBRANCH  65  66
ENDBRANCH  39  60
ENDBRANCH  13  14
ENDBRANCH   6   8
ENDBRANCH   5   6
ENDBRANCH   4   5
ENDBRANCH   3   4
ENDBRANCH   2   3
ENDBRANCH   1   2
BRANCH   1  70
ATOM     70  C   UNL     1       1.902  -1.565   2.507  1.00  0.00     0.188 C 
BRANCH  70  71
ATOM     71  O   UNL     1       2.563  -2.136   3.639  1.00  0.00    -0.376 OA
BRANCH  71  72
ATOM     72  C   UNL     1       3.902  -2.579   3.446  1.00  0.00     0.202 C 
BRANCH  72  73
ATOM     73  C   UNL     1       4.117  -3.901   2.696  1.00  0.00     0.261 C 
BRANCH  73  74
ATOM     74  O   UNL     1       3.478  -4.029   1.417  1.00  0.00    -0.460 OA
BRANCH  74  75
ATOM     75  C   UNL     1       2.317  -4.735   1.464  1.00  0.00     0.342 C 
ATOM     76  O   UNL     1       1.656  -5.000   2.454  1.00  0.00    -0.246 OA
BRANCH  75  77
ATOM     77  C   UNL     1       1.942  -5.202   0.122  1.00  0.00     0.102 A 
ATOM     78  C   UNL     1       1.138  -4.410  -0.718  1.00  0.00     0.028 A 
ATOM     79  C   UNL     1       2.266  -6.514  -0.230  1.00  0.00     0.130 A 
ATOM     80  C   UNL     1       0.651  -4.942  -1.925  1.00  0.00    -0.017 A 
ATOM     81  C   UNL     1       1.765  -7.056  -1.404  1.00  0.00     0.048 A 
ATOM     82  C   UNL     1       0.979  -6.271  -2.249  1.00  0.00     0.012 A 
BRANCH  79  83
ATOM     83  O   UNL     1       3.088  -7.261   0.565  1.00  0.00    -0.507 OA
ATOM     84  H   UNL     1       3.429  -6.897   1.359  1.00  0.00     0.293 HD
ENDBRANCH  79  83
BRANCH  80  85
ATOM     85  C   UNL     1      -0.195  -4.183  -2.886  1.00  0.00    -0.011 A 
ATOM     86  C   UNL     1      -1.347  -4.779  -3.547  1.00  0.00     0.027 A 
ATOM     87  C   UNL     1       0.163  -2.940  -3.250  1.00  0.00     0.080 A 
ATOM     88  C   UNL     1      -1.952  -4.167  -4.571  1.00  0.00     0.095 A 
ATOM     89  C   UNL     1      -0.528  -2.222  -4.364  1.00  0.00     0.255 A 
ATOM     90  N   UNL     1      -1.537  -2.923  -5.001  1.00  0.00    -0.258 N 
ATOM     91  O   UNL     1      -0.156  -1.093  -4.667  1.00  0.00    -0.269 OA
BRANCH  90  92
ATOM     92  C   UNL     1      -2.129  -2.313  -6.164  1.00  0.00     0.451 C 
ATOM     93  F   UNL     1      -2.686  -1.113  -5.867  1.00  0.00    -0.185 F 
ATOM     94  F   UNL     1      -1.206  -2.118  -7.137  1.00  0.00    -0.185 F 
ENDBRANCH  90  92
ENDBRANCH  80  85
ENDBRANCH  75  77
ENDBRANCH  74  75
ENDBRANCH  73  74
ENDBRANCH  72  73
ENDBRANCH  71  72
ENDBRANCH  70  71
ENDBRANCH   1  70
TORSDOF 23
