REMARK SMILES C[C@@H](C(=O)OCCOCCOCCOC(=O)c1ccc(-c2c3nc(c(-c4ccc(S(=O)(=O)[O-])cc4)c4ccc([nH]4)c(-c4ccc(S(=O)(=O)[O-])cc4)c4nc(c(-c5ccc(S(=O)(=O)[O-])cc5)c5ccc2[nH]5)C=C4)C=C3)cc1)c1ccc(-c2cccc(OC(=O)NCCCc3ccccc3)c2)c(F)c1
REMARK SMILES IDX 7 1 6 2 5 3 3 4 4 5 2 6 1 7 77 8 78 9 102 10 79 11 100 12
REMARK SMILES IDX 80 13 101 14 81 15 82 16 99 17 83 18 85 19 84 20 86 21 87 22
REMARK SMILES IDX 88 23 89 24 90 26 91 27 92 28 93 29 94 30 98 31 95 32 97 33
REMARK SMILES IDX 96 34 8 35 9 36 10 37 11 38 12 39 13 40 14 41 15 42 16 43
REMARK SMILES IDX 17 44 18 45 76 46 19 47 75 48 20 49 21 50 22 51 69 52 23 53
REMARK SMILES IDX 74 54 68 55 70 56 24 57 73 58 67 59 66 60 25 62 55 63 36 64
REMARK SMILES IDX 54 65 37 66 40 67 53 68 71 69 38 70 39 71 52 73 72 74 41 75
REMARK SMILES IDX 26 76 27 77 35 78 28 79 34 80 29 81 30 82 31 83 32 84 33 85
REMARK SMILES IDX 56 86 57 87 65 88 58 89 64 90 59 91 60 92 61 93 62 94 63 95
REMARK SMILES IDX 42 96 43 97 51 98 44 99 50 100 45 101 46 102 47 103 48 104
REMARK SMILES IDX 49 105
REMARK H PARENT 89 25 70 61 40 72
REMARK Flexibility Score: inf
ROOT
ATOM      1  C   UNL     1       2.417   4.539  -1.592  1.00  0.00     0.202 C 
ENDROOT
BRANCH   1   2
ATOM      2  C   UNL     1       2.583   4.182  -0.101  1.00  0.00     0.261 C 
BRANCH   2   3
ATOM      3  O   UNL     1       2.152   2.848   0.239  1.00  0.00    -0.463 OA
BRANCH   3   4
ATOM      4  C   UNL     1       1.475   2.702   1.408  1.00  0.00     0.313 C 
ATOM      5  O   UNL     1       1.327   3.607   2.224  1.00  0.00    -0.252 OA
BRANCH   4   6
ATOM      6  C   UNL     1       0.840   1.313   1.589  1.00  0.00     0.126 C 
ATOM      7  C   UNL     1       1.681   0.165   1.000  1.00  0.00     0.025 C 
BRANCH   6   8
ATOM      8  C   UNL     1      -0.661   1.235   1.267  1.00  0.00    -0.031 A 
ATOM      9  C   UNL     1      -1.480   2.378   1.234  1.00  0.00     0.005 A 
ATOM     10  C   UNL     1      -1.300  -0.009   1.135  1.00  0.00     0.044 A 
ATOM     11  C   UNL     1      -2.875   2.280   1.113  1.00  0.00     0.012 A 
ATOM     12  C   UNL     1      -2.690  -0.102   1.029  1.00  0.00     0.131 A 
ATOM     13  C   UNL     1      -3.505   1.032   1.055  1.00  0.00     0.018 A 
ATOM     14  F   UNL     1      -3.238  -1.325   0.950  1.00  0.00    -0.206 F 
BRANCH  13  15
ATOM     15  C   UNL     1      -4.962   0.923   1.158  1.00  0.00    -0.012 A 
ATOM     16  C   UNL     1      -5.812   1.341   0.130  1.00  0.00     0.009 A 
ATOM     17  C   UNL     1      -5.538   0.407   2.327  1.00  0.00     0.056 A 
ATOM     18  C   UNL     1      -7.201   1.270   0.264  1.00  0.00     0.004 A 
ATOM     19  C   UNL     1      -6.920   0.339   2.450  1.00  0.00     0.133 A 
ATOM     20  C   UNL     1      -7.759   0.786   1.435  1.00  0.00     0.047 A 
BRANCH  19  21
ATOM     21  O   UNL     1      -7.594  -0.213   3.553  1.00  0.00    -0.410 OA
BRANCH  21  22
ATOM     22  C   UNL     1      -7.043  -0.875   4.635  1.00  0.00     0.412 C 
ATOM     23  O   UNL     1      -5.854  -0.972   4.921  1.00  0.00    -0.224 OA
ATOM     24  N   UNL     1      -8.007  -1.455   5.407  1.00  0.00    -0.321 N 
ATOM     25  H   UNL     1      -7.717  -1.972   6.194  1.00  0.00     0.167 HD
BRANCH  24  26
ATOM     26  C   UNL     1      -9.426  -1.360   5.145  1.00  0.00     0.120 C 
BRANCH  26  27
ATOM     27  C   UNL     1     -10.229  -2.575   5.598  1.00  0.00     0.026 C 
BRANCH  27  28
ATOM     28  C   UNL     1      -9.785  -3.293   6.876  1.00  0.00     0.037 C 
BRANCH  28  29
ATOM     29  C   UNL     1      -9.867  -2.597   8.214  1.00  0.00    -0.048 A 
ATOM     30  C   UNL     1     -10.069  -1.225   8.391  1.00  0.00     0.004 A 
ATOM     31  C   UNL     1      -9.678  -3.385   9.363  1.00  0.00     0.004 A 
ATOM     32  C   UNL     1     -10.055  -0.652   9.666  1.00  0.00     0.000 A 
ATOM     33  C   UNL     1      -9.684  -2.819  10.639  1.00  0.00     0.000 A 
ATOM     34  C   UNL     1      -9.863  -1.448  10.790  1.00  0.00     0.000 A 
ENDBRANCH  28  29
ENDBRANCH  27  28
ENDBRANCH  26  27
ENDBRANCH  24  26
ENDBRANCH  21  22
ENDBRANCH  19  21
ENDBRANCH  13  15
ENDBRANCH   6   8
ENDBRANCH   4   6
ENDBRANCH   3   4
ENDBRANCH   2   3
ENDBRANCH   1   2
BRANCH   1  35
ATOM     35  O   UNL     1       1.139   4.402  -2.213  1.00  0.00    -0.376 OA
BRANCH  35  36
ATOM     36  C   UNL     1       0.380   3.230  -1.941  1.00  0.00     0.188 C 
BRANCH  36  37
ATOM     37  C   UNL     1       1.052   1.863  -2.138  1.00  0.00     0.188 C 
BRANCH  37  38
ATOM     38  O   UNL     1       2.435   1.908  -2.390  1.00  0.00    -0.376 OA
BRANCH  38  39
ATOM     39  C   UNL     1       2.927   1.643  -3.692  1.00  0.00     0.202 C 
BRANCH  39  40
ATOM     40  C   UNL     1       2.168   1.991  -4.988  1.00  0.00     0.261 C 
BRANCH  40  41
ATOM     41  O   UNL     1       0.737   2.019  -4.954  1.00  0.00    -0.460 OA
BRANCH  41  42
ATOM     42  C   UNL     1       0.094   0.828  -5.035  1.00  0.00     0.338 C 
ATOM     43  O   UNL     1       0.603  -0.274  -5.115  1.00  0.00    -0.246 OA
BRANCH  42  44
ATOM     44  C   UNL     1      -1.340   1.094  -4.772  1.00  0.00     0.060 A 
ATOM     45  C   UNL     1      -1.951   0.535  -3.640  1.00  0.00     0.016 A 
ATOM     46  C   UNL     1      -2.067   1.920  -5.631  1.00  0.00     0.016 A 
ATOM     47  C   UNL     1      -3.299   0.790  -3.375  1.00  0.00     0.010 A 
ATOM     48  C   UNL     1      -3.421   2.152  -5.379  1.00  0.00     0.010 A 
ATOM     49  C   UNL     1      -4.050   1.569  -4.266  1.00  0.00    -0.014 A 
BRANCH  49  50
ATOM     50  C   UNL     1      -5.529   1.621  -4.158  1.00  0.00     0.031 A 
ATOM     51  C   UNL     1      -6.328   0.592  -4.912  1.00  0.00     0.074 A 
ATOM     52  C   UNL     1      -6.148   2.566  -3.427  1.00  0.00     0.049 A 
ATOM     53  N   UNL     1      -7.622   0.419  -4.959  1.00  0.00    -0.248 NA
ATOM     54  C   UNL     1      -5.562  -0.348  -5.748  1.00  0.00     0.031 C 
ATOM     55  C   UNL     1      -5.472   3.596  -2.639  1.00  0.00     0.029 A 
ATOM     56  N   UNL     1      -7.484   2.772  -3.176  1.00  0.00    -0.354 N 
ATOM     57  C   UNL     1      -7.830  -0.601  -5.882  1.00  0.00     0.074 A 
ATOM     58  C   UNL     1      -6.529  -1.022  -6.351  1.00  0.00     0.031 C 
ATOM     59  C   UNL     1      -6.391   4.255  -1.909  1.00  0.00     0.029 A 
ATOM     60  C   UNL     1      -7.722   3.732  -2.216  1.00  0.00     0.049 A 
ATOM     61  H   UNL     1      -8.201   2.281  -3.637  1.00  0.00     0.167 HD
ATOM     62  C   UNL     1      -9.002  -1.113  -6.325  1.00  0.00     0.031 A 
ATOM     63  C   UNL     1      -8.877   4.088  -1.611  1.00  0.00     0.031 A 
ATOM     64  C   UNL     1     -10.293  -0.688  -5.852  1.00  0.00     0.049 A 
ATOM     65  C   UNL     1     -10.166   3.433  -2.054  1.00  0.00     0.074 A 
ATOM     66  C   UNL     1     -11.542  -1.137  -6.243  1.00  0.00     0.029 A 
ATOM     67  N   UNL     1     -10.500   0.283  -4.885  1.00  0.00    -0.354 N 
ATOM     68  N   UNL     1     -10.348   2.447  -2.902  1.00  0.00    -0.248 NA
ATOM     69  C   UNL     1     -11.410   3.949  -1.462  1.00  0.00     0.031 C 
ATOM     70  C   UNL     1     -12.506  -0.390  -5.559  1.00  0.00     0.029 A 
ATOM     71  C   UNL     1     -11.857   0.469  -4.686  1.00  0.00     0.049 A 
ATOM     72  H   UNL     1      -9.788   0.768  -4.409  1.00  0.00     0.167 HD
ATOM     73  C   UNL     1     -11.724   2.236  -2.953  1.00  0.00     0.074 A 
ATOM     74  C   UNL     1     -12.321   3.149  -2.000  1.00  0.00     0.031 C 
ATOM     75  C   UNL     1     -12.436   1.387  -3.737  1.00  0.00     0.031 A 
BRANCH  62  76
ATOM     76  C   UNL     1      -8.947  -2.126  -7.439  1.00  0.00    -0.014 A 
ATOM     77  C   UNL     1      -8.461  -3.430  -7.238  1.00  0.00     0.010 A 
ATOM     78  C   UNL     1      -9.426  -1.764  -8.713  1.00  0.00     0.010 A 
ATOM     79  C   UNL     1      -8.425  -4.341  -8.299  1.00  0.00     0.020 A 
ATOM     80  C   UNL     1      -9.422  -2.681  -9.766  1.00  0.00     0.020 A 
ATOM     81  C   UNL     1      -8.907  -3.960  -9.556  1.00  0.00     0.054 A 
BRANCH  81  82
ATOM     82  S   UNL     1      -8.877  -5.173 -10.904  1.00  0.00     0.124 S 
ATOM     83  O   UNL     1      -7.448  -5.272 -11.189  1.00  0.00    -0.237 OA
ATOM     84  O   UNL     1      -9.479  -6.351 -10.286  1.00  0.00    -0.237 OA
ATOM     85  O   UNL     1      -9.677  -4.546 -11.954  1.00  0.00    -0.744 OA
ENDBRANCH  81  82
ENDBRANCH  62  76
BRANCH  63  86
ATOM     86  C   UNL     1      -8.876   5.048  -0.464  1.00  0.00    -0.014 A 
ATOM     87  C   UNL     1      -9.323   4.631   0.806  1.00  0.00     0.010 A 
ATOM     88  C   UNL     1      -8.446   6.377  -0.622  1.00  0.00     0.010 A 
ATOM     89  C   UNL     1      -9.368   5.525   1.881  1.00  0.00     0.020 A 
ATOM     90  C   UNL     1      -8.449   7.264   0.461  1.00  0.00     0.020 A 
ATOM     91  C   UNL     1      -8.928   6.838   1.701  1.00  0.00     0.054 A 
BRANCH  91  92
ATOM     92  S   UNL     1      -8.963   7.976   3.114  1.00  0.00     0.124 S 
ATOM     93  O   UNL     1     -10.389   8.261   3.237  1.00  0.00    -0.237 OA
ATOM     94  O   UNL     1      -8.385   7.170   4.186  1.00  0.00    -0.237 OA
ATOM     95  O   UNL     1      -8.136   9.096   2.670  1.00  0.00    -0.744 OA
ENDBRANCH  91  92
ENDBRANCH  63  86
BRANCH  75  96
ATOM     96  C   UNL     1     -13.941   1.410  -3.617  1.00  0.00    -0.014 A 
ATOM     97  C   UNL     1     -14.685   2.520  -4.056  1.00  0.00     0.010 A 
ATOM     98  C   UNL     1     -14.626   0.279  -3.135  1.00  0.00     0.010 A 
ATOM     99  C   UNL     1     -16.081   2.514  -3.982  1.00  0.00     0.020 A 
ATOM    100  C   UNL     1     -16.023   0.255  -3.090  1.00  0.00     0.020 A 
ATOM    101  C   UNL     1     -16.742   1.380  -3.500  1.00  0.00     0.054 A 
BRANCH 101 102
ATOM    102  S   UNL     1     -18.556   1.383  -3.457  1.00  0.00     0.124 S 
ATOM    103  O   UNL     1     -18.832   2.319  -2.370  1.00  0.00    -0.237 OA
ATOM    104  O   UNL     1     -18.907   1.852  -4.795  1.00  0.00    -0.237 OA
ATOM    105  O   UNL     1     -18.899  -0.010  -3.180  1.00  0.00    -0.744 OA
ENDBRANCH 101 102
ENDBRANCH  75  96
ENDBRANCH  49  50
ENDBRANCH  42  44
ENDBRANCH  41  42
ENDBRANCH  40  41
ENDBRANCH  39  40
ENDBRANCH  38  39
ENDBRANCH  37  38
ENDBRANCH  36  37
ENDBRANCH  35  36
ENDBRANCH   1  35
TORSDOF 28
