REMARK SMILES C[C@H](NC(=O)N(CC(=O)OCCOCCOCCOC(=O)c1ccc(-c2c3nc(c(-c4ccc(S(=O)(=O)[O-])cc4)c4ccc([nH]4)c(-c4ccc(S(=O)(=O)[O-])cc4)c4nc(c(-c5ccc(S(=O)(=O)[O-])cc5)c5ccc2[nH]5)C=C4)C=C3)cc1)CC(F)(F)F)[C@@H]1CCCO1
REMARK SMILES IDX 14 1 13 2 12 3 11 4 10 5 8 6 9 7 7 8 6 9 4 10 3 11 5 13 2 14
REMARK SMILES IDX 1 15 87 16 88 17 91 18 89 19 90 20 82 21 83 22 84 23 85 24
REMARK SMILES IDX 86 25 15 26 16 27 17 28 18 29 19 30 20 31 21 32 22 33 23 34
REMARK SMILES IDX 81 35 24 36 80 37 25 38 26 39 27 40 74 41 28 42 79 43 73 44
REMARK SMILES IDX 75 45 29 46 78 47 72 48 71 49 30 51 60 52 41 53 59 54 42 55
REMARK SMILES IDX 45 56 58 57 76 58 43 59 44 60 57 62 77 63 46 64 31 65 32 66
REMARK SMILES IDX 40 67 33 68 39 69 34 70 35 71 36 72 37 73 38 74 61 75 62 76
REMARK SMILES IDX 70 77 63 78 69 79 64 80 65 81 66 82 67 83 68 84 47 85 48 86
REMARK SMILES IDX 56 87 49 88 55 89 50 90 51 91 52 92 53 93 54 94
REMARK H PARENT 3 12 75 50 45 61
REMARK Flexibility Score: inf
ROOT
ATOM      1  C   UNL     1       6.084  -0.806   4.057  1.00  0.00     0.188 C 
ENDROOT
BRANCH   1   2
ATOM      2  O   UNL     1       6.250  -2.172   4.418  1.00  0.00    -0.376 OA
BRANCH   2   3
ATOM      3  C   UNL     1       5.968  -3.210   3.489  1.00  0.00     0.202 C 
BRANCH   3   4
ATOM      4  C   UNL     1       4.511  -3.380   3.031  1.00  0.00     0.261 C 
BRANCH   4   5
ATOM      5  O   UNL     1       3.966  -2.281   2.258  1.00  0.00    -0.462 OA
BRANCH   5   6
ATOM      6  C   UNL     1       3.049  -1.530   2.914  1.00  0.00     0.325 C 
ATOM      7  O   UNL     1       2.661  -1.775   4.056  1.00  0.00    -0.250 OA
BRANCH   6   8
ATOM      8  C   UNL     1       2.613  -0.214   2.244  1.00  0.00     0.244 C 
BRANCH   8   9
ATOM      9  N   UNL     1       2.647   0.241   0.843  1.00  0.00    -0.305 N 
BRANCH   9  10
ATOM     10  C   UNL     1       1.611   0.235  -0.051  1.00  0.00     0.318 C 
ATOM     11  N   UNL     1       0.339  -0.022   0.280  1.00  0.00    -0.333 N 
ATOM     12  H   UNL     1      -0.247   0.064  -0.507  1.00  0.00     0.165 HD
ATOM     13  O   UNL     1       1.788   0.586  -1.222  1.00  0.00    -0.249 OA
BRANCH  11  14
ATOM     14  C   UNL     1      -0.444  -0.394   1.472  1.00  0.00     0.109 C 
ATOM     15  C   UNL     1      -0.458   0.732   2.528  1.00  0.00     0.034 C 
BRANCH  14  16
ATOM     16  C   UNL     1      -1.898  -0.713   1.076  1.00  0.00     0.140 C 
ATOM     17  C   UNL     1      -2.071  -1.903   0.145  1.00  0.00     0.036 C 
ATOM     18  O   UNL     1      -2.473   0.424   0.392  1.00  0.00    -0.376 OA
ATOM     19  C   UNL     1      -3.353  -1.537  -0.564  1.00  0.00     0.031 C 
ATOM     20  C   UNL     1      -3.183  -0.047  -0.757  1.00  0.00     0.160 C 
ENDBRANCH  14  16
ENDBRANCH  11  14
ENDBRANCH   9  10
BRANCH   9  21
ATOM     21  C   UNL     1       3.733   1.180   0.454  1.00  0.00     0.237 C 
BRANCH  21  22
ATOM     22  C   UNL     1       4.623   0.846  -0.753  1.00  0.00     0.406 C 
ATOM     23  F   UNL     1       4.210   1.420  -1.902  1.00  0.00    -0.169 F 
ATOM     24  F   UNL     1       5.867   1.339  -0.519  1.00  0.00    -0.169 F 
ATOM     25  F   UNL     1       4.759  -0.481  -0.954  1.00  0.00    -0.169 F 
ENDBRANCH  21  22
ENDBRANCH   9  21
ENDBRANCH   8   9
ENDBRANCH   6   8
ENDBRANCH   5   6
ENDBRANCH   4   5
ENDBRANCH   3   4
ENDBRANCH   2   3
ENDBRANCH   1   2
BRANCH   1  26
ATOM     26  C   UNL     1       6.141  -0.398   2.584  1.00  0.00     0.188 C 
BRANCH  26  27
ATOM     27  O   UNL     1       6.915  -1.267   1.790  1.00  0.00    -0.376 OA
BRANCH  27  28
ATOM     28  C   UNL     1       7.895  -0.684   0.957  1.00  0.00     0.202 C 
BRANCH  28  29
ATOM     29  C   UNL     1       9.079  -0.104   1.732  1.00  0.00     0.261 C 
BRANCH  29  30
ATOM     30  O   UNL     1       8.742   0.898   2.713  1.00  0.00    -0.460 OA
BRANCH  30  31
ATOM     31  C   UNL     1       8.302   2.092   2.258  1.00  0.00     0.338 C 
ATOM     32  O   UNL     1       8.188   2.435   1.086  1.00  0.00    -0.246 OA
BRANCH  31  33
ATOM     33  C   UNL     1       7.755   2.847   3.407  1.00  0.00     0.060 A 
ATOM     34  C   UNL     1       6.411   3.251   3.394  1.00  0.00     0.016 A 
ATOM     35  C   UNL     1       8.562   3.132   4.508  1.00  0.00     0.016 A 
ATOM     36  C   UNL     1       5.873   3.946   4.482  1.00  0.00     0.010 A 
ATOM     37  C   UNL     1       8.030   3.847   5.584  1.00  0.00     0.010 A 
ATOM     38  C   UNL     1       6.689   4.272   5.573  1.00  0.00    -0.014 A 
BRANCH  38  39
ATOM     39  C   UNL     1       6.208   5.162   6.660  1.00  0.00     0.031 A 
ATOM     40  C   UNL     1       6.635   6.604   6.655  1.00  0.00     0.074 A 
ATOM     41  C   UNL     1       5.453   4.687   7.668  1.00  0.00     0.049 A 
ATOM     42  N   UNL     1       6.485   7.519   7.577  1.00  0.00    -0.248 NA
ATOM     43  C   UNL     1       7.333   7.073   5.446  1.00  0.00     0.031 C 
ATOM     44  C   UNL     1       4.916   3.330   7.758  1.00  0.00     0.029 A 
ATOM     45  N   UNL     1       5.024   5.296   8.822  1.00  0.00    -0.354 N 
ATOM     46  C   UNL     1       7.099   8.662   7.077  1.00  0.00     0.074 A 
ATOM     47  C   UNL     1       7.627   8.322   5.773  1.00  0.00     0.031 C 
ATOM     48  C   UNL     1       4.238   3.207   8.913  1.00  0.00     0.029 A 
ATOM     49  C   UNL     1       4.343   4.454   9.668  1.00  0.00     0.049 A 
ATOM     50  H   UNL     1       5.189   6.246   9.023  1.00  0.00     0.167 HD
ATOM     51  C   UNL     1       7.223   9.879   7.659  1.00  0.00     0.031 A 
ATOM     52  C   UNL     1       3.890   4.653  10.924  1.00  0.00     0.031 A 
ATOM     53  C   UNL     1       6.707  10.204   8.963  1.00  0.00     0.049 A 
ATOM     54  C   UNL     1       4.129   5.984  11.592  1.00  0.00     0.074 A 
ATOM     55  C   UNL     1       6.753  11.416   9.629  1.00  0.00     0.029 A 
ATOM     56  N   UNL     1       6.067   9.308   9.807  1.00  0.00    -0.354 N 
ATOM     57  N   UNL     1       4.695   7.062  11.104  1.00  0.00    -0.248 NA
ATOM     58  C   UNL     1       3.676   6.119  12.984  1.00  0.00     0.031 C 
ATOM     59  C   UNL     1       6.205  11.235  10.903  1.00  0.00     0.029 A 
ATOM     60  C   UNL     1       5.755   9.928  11.005  1.00  0.00     0.049 A 
ATOM     61  H   UNL     1       5.865   8.370   9.587  1.00  0.00     0.167 HD
ATOM     62  C   UNL     1       4.644   8.011  12.121  1.00  0.00     0.074 A 
ATOM     63  C   UNL     1       3.981   7.383  13.246  1.00  0.00     0.031 C 
ATOM     64  C   UNL     1       5.101   9.289  12.121  1.00  0.00     0.031 A 
BRANCH  51  65
ATOM     65  C   UNL     1       8.006  10.930   6.914  1.00  0.00    -0.014 A 
ATOM     66  C   UNL     1       7.514  11.525   5.739  1.00  0.00     0.010 A 
ATOM     67  C   UNL     1       9.255  11.341   7.417  1.00  0.00     0.010 A 
ATOM     68  C   UNL     1       8.280  12.473   5.053  1.00  0.00     0.020 A 
ATOM     69  C   UNL     1      10.009  12.310   6.751  1.00  0.00     0.020 A 
ATOM     70  C   UNL     1       9.525  12.855   5.561  1.00  0.00     0.054 A 
BRANCH  70  71
ATOM     71  S   UNL     1      10.498  14.086   4.651  1.00  0.00     0.124 S 
ATOM     72  O   UNL     1      10.934  13.322   3.484  1.00  0.00    -0.237 OA
ATOM     73  O   UNL     1       9.517  15.135   4.383  1.00  0.00    -0.237 OA
ATOM     74  O   UNL     1      11.558  14.453   5.586  1.00  0.00    -0.744 OA
ENDBRANCH  70  71
ENDBRANCH  51  65
BRANCH  52  75
ATOM     75  C   UNL     1       3.184   3.557  11.644  1.00  0.00    -0.014 A 
ATOM     76  C   UNL     1       1.810   3.662  11.921  1.00  0.00     0.010 A 
ATOM     77  C   UNL     1       3.874   2.398  12.045  1.00  0.00     0.010 A 
ATOM     78  C   UNL     1       1.138   2.630  12.583  1.00  0.00     0.020 A 
ATOM     79  C   UNL     1       3.200   1.351  12.682  1.00  0.00     0.020 A 
ATOM     80  C   UNL     1       1.837   1.476  12.952  1.00  0.00     0.054 A 
BRANCH  80  81
ATOM     81  S   UNL     1       0.924   0.120  13.741  1.00  0.00     0.124 S 
ATOM     82  O   UNL     1       0.640   0.673  15.062  1.00  0.00    -0.237 OA
ATOM     83  O   UNL     1      -0.229  -0.036  12.858  1.00  0.00    -0.237 OA
ATOM     84  O   UNL     1       1.873  -0.991  13.718  1.00  0.00    -0.744 OA
ENDBRANCH  80  81
ENDBRANCH  52  75
BRANCH  64  85
ATOM     85  C   UNL     1       4.881  10.110  13.365  1.00  0.00    -0.014 A 
ATOM     86  C   UNL     1       5.622   9.873  14.536  1.00  0.00     0.010 A 
ATOM     87  C   UNL     1       3.971  11.184  13.337  1.00  0.00     0.010 A 
ATOM     88  C   UNL     1       5.442  10.682  15.663  1.00  0.00     0.020 A 
ATOM     89  C   UNL     1       3.810  12.012  14.450  1.00  0.00     0.020 A 
ATOM     90  C   UNL     1       4.540  11.749  15.611  1.00  0.00     0.054 A 
BRANCH  90  91
ATOM     91  S   UNL     1       4.372  12.821  17.065  1.00  0.00     0.124 S 
ATOM     92  O   UNL     1       3.657  11.956  18.000  1.00  0.00    -0.237 OA
ATOM     93  O   UNL     1       5.762  13.108  17.413  1.00  0.00    -0.237 OA
ATOM     94  O   UNL     1       3.611  13.965  16.568  1.00  0.00    -0.744 OA
ENDBRANCH  90  91
ENDBRANCH  64  85
ENDBRANCH  38  39
ENDBRANCH  31  33
ENDBRANCH  30  31
ENDBRANCH  29  30
ENDBRANCH  28  29
ENDBRANCH  27  28
ENDBRANCH  26  27
ENDBRANCH   1  26
TORSDOF 26
