REMARK SMILES [NH3+]C[C@H]1CC[C@@H](C(=O)N[C@H](C(=O)OCCOCCOCCOC(=O)c2ccc(-c3c4nc(c(-c5ccc(S(=O)(=O)[O-])cc5)c5ccc([nH]5)c(-c5ccc(S(=O)(=O)[O-])cc5)c5nc(c(-c6ccc(S(=O)(=O)[O-])cc6)c6ccc3[nH]6)C=C5)C=C4)cc2)C2CCCCC2)O1
REMARK SMILES IDX 17 1 16 2 15 3 14 4 13 5 11 6 12 7 10 8 9 9 7 10 8 11 6 13
REMARK SMILES IDX 3 14 4 15 91 16 5 17 2 18 1 19 85 23 86 24 90 25 87 26 89 27
REMARK SMILES IDX 88 28 18 29 19 30 20 31 21 32 22 33 23 34 24 35 25 36 26 37
REMARK SMILES IDX 84 38 27 39 83 40 28 41 29 42 30 43 77 44 31 45 82 46 76 47
REMARK SMILES IDX 78 48 32 49 81 50 75 51 74 52 33 54 63 55 44 56 62 57 45 58
REMARK SMILES IDX 48 59 61 60 79 61 46 62 47 63 60 65 80 66 49 67 34 68 35 69
REMARK SMILES IDX 43 70 36 71 42 72 37 73 38 74 39 75 40 76 41 77 64 78 65 79
REMARK SMILES IDX 73 80 66 81 72 82 67 83 68 84 69 85 70 86 71 87 50 88 51 89
REMARK SMILES IDX 59 90 52 91 58 92 53 93 54 94 55 95 56 96 57 97
REMARK H PARENT 9 12 1 20 1 21 1 22 78 53 48 64
REMARK Flexibility Score: inf
ROOT
ATOM      1  C   UNL     1       2.102  -2.830  -2.940  1.00  0.00     0.188 C 
ENDROOT
BRANCH   1   2
ATOM      2  O   UNL     1       3.065  -2.792  -3.986  1.00  0.00    -0.376 OA
BRANCH   2   3
ATOM      3  C   UNL     1       3.224  -3.908  -4.852  1.00  0.00     0.202 C 
BRANCH   3   4
ATOM      4  C   UNL     1       3.183  -5.341  -4.306  1.00  0.00     0.261 C 
BRANCH   4   5
ATOM      5  O   UNL     1       2.212  -5.546  -3.277  1.00  0.00    -0.462 OA
BRANCH   5   6
ATOM      6  C   UNL     1       2.674  -5.954  -2.056  1.00  0.00     0.329 C 
ATOM      7  O   UNL     1       3.853  -6.130  -1.788  1.00  0.00    -0.250 OA
BRANCH   6   8
ATOM      8  C   UNL     1       1.498  -6.007  -1.052  1.00  0.00     0.195 C 
BRANCH   8   9
ATOM      9  N   UNL     1       0.279  -6.787  -1.324  1.00  0.00    -0.340 N 
ATOM     10  C   UNL     1      -0.009  -7.796  -2.200  1.00  0.00     0.249 C 
ATOM     11  O   UNL     1      -1.157  -8.249  -2.186  1.00  0.00    -0.272 OA
ATOM     12  H   UNL     1      -0.485  -6.529  -0.759  1.00  0.00     0.164 HD
BRANCH  10  13
ATOM     13  C   UNL     1       1.050  -8.344  -3.160  1.00  0.00     0.207 C 
ATOM     14  C   UNL     1       2.146 -10.334  -3.641  1.00  0.00     0.174 C 
ATOM     15  C   UNL     1       1.694  -9.692  -4.947  1.00  0.00     0.041 C 
ATOM     16  O   UNL     1       1.807  -9.408  -2.586  1.00  0.00    -0.359 OA
ATOM     17  C   UNL     1       0.524  -8.846  -4.493  1.00  0.00     0.045 C 
BRANCH  14  18
ATOM     18  C   UNL     1       1.434 -11.672  -3.372  1.00  0.00     0.291 C 
BRANCH  18  19
ATOM     19  N   UNL     1       1.436 -12.015  -1.945  1.00  0.00    -0.355 N 
ATOM     20  H   UNL     1       0.957 -12.905  -1.809  1.00  0.00     0.344 HD
ATOM     21  H   UNL     1       0.955 -11.286  -1.419  1.00  0.00     0.344 HD
ATOM     22  H   UNL     1       2.398 -12.093  -1.616  1.00  0.00     0.344 HD
ENDBRANCH  18  19
ENDBRANCH  14  18
ENDBRANCH  10  13
ENDBRANCH   8   9
BRANCH   8  23
ATOM     23  C   UNL     1       1.971  -5.928   0.423  1.00  0.00     0.023 C 
ATOM     24  C   UNL     1       1.472  -4.623   1.093  1.00  0.00     0.006 C 
ATOM     25  C   UNL     1       1.593  -7.128   1.291  1.00  0.00     0.006 C 
ATOM     26  C   UNL     1       2.066  -4.455   2.488  1.00  0.00     0.000 C 
ATOM     27  C   UNL     1       2.215  -6.980   2.682  1.00  0.00     0.000 C 
ATOM     28  C   UNL     1       1.803  -5.675   3.363  1.00  0.00     0.000 C 
ENDBRANCH   8  23
ENDBRANCH   6   8
ENDBRANCH   5   6
ENDBRANCH   4   5
ENDBRANCH   3   4
ENDBRANCH   2   3
ENDBRANCH   1   2
BRANCH   1  29
ATOM     29  C   UNL     1       0.627  -3.168  -3.268  1.00  0.00     0.188 C 
BRANCH  29  30
ATOM     30  O   UNL     1       0.442  -3.707  -4.554  1.00  0.00    -0.376 OA
BRANCH  30  31
ATOM     31  C   UNL     1      -0.035  -2.847  -5.573  1.00  0.00     0.202 C 
BRANCH  31  32
ATOM     32  C   UNL     1       0.236  -1.323  -5.627  1.00  0.00     0.261 C 
BRANCH  32  33
ATOM     33  O   UNL     1       0.793  -0.671  -4.476  1.00  0.00    -0.460 OA
BRANCH  33  34
ATOM     34  C   UNL     1      -0.075  -0.065  -3.628  1.00  0.00     0.338 C 
ATOM     35  O   UNL     1      -1.294  -0.046  -3.725  1.00  0.00    -0.246 OA
BRANCH  34  36
ATOM     36  C   UNL     1       0.664   0.378  -2.424  1.00  0.00     0.060 A 
ATOM     37  C   UNL     1       0.371  -0.220  -1.188  1.00  0.00     0.016 A 
ATOM     38  C   UNL     1       1.646   1.366  -2.510  1.00  0.00     0.016 A 
ATOM     39  C   UNL     1       1.046   0.183  -0.032  1.00  0.00     0.010 A 
ATOM     40  C   UNL     1       2.299   1.790  -1.346  1.00  0.00     0.010 A 
ATOM     41  C   UNL     1       1.981   1.223  -0.097  1.00  0.00    -0.014 A 
BRANCH  41  42
ATOM     42  C   UNL     1       2.473   1.859   1.153  1.00  0.00     0.031 A 
ATOM     43  C   UNL     1       1.811   3.130   1.613  1.00  0.00     0.074 A 
ATOM     44  C   UNL     1       3.485   1.335   1.867  1.00  0.00     0.049 A 
ATOM     45  N   UNL     1       2.097   3.896   2.634  1.00  0.00    -0.248 NA
ATOM     46  C   UNL     1       0.676   3.602   0.803  1.00  0.00     0.031 C 
ATOM     47  C   UNL     1       4.194   0.097   1.553  1.00  0.00     0.029 A 
ATOM     48  N   UNL     1       4.105   1.801   3.003  1.00  0.00    -0.354 N 
ATOM     49  C   UNL     1       1.193   4.951   2.578  1.00  0.00     0.074 A 
ATOM     50  C   UNL     1       0.369   4.739   1.407  1.00  0.00     0.031 C 
ATOM     51  C   UNL     1       5.170  -0.086   2.459  1.00  0.00     0.029 A 
ATOM     52  C   UNL     1       5.178   1.037   3.397  1.00  0.00     0.049 A 
ATOM     53  H   UNL     1       3.808   2.605   3.488  1.00  0.00     0.167 HD
ATOM     54  C   UNL     1       1.059   6.003   3.421  1.00  0.00     0.031 A 
ATOM     55  C   UNL     1       6.082   1.236   4.379  1.00  0.00     0.031 A 
ATOM     56  C   UNL     1       1.898   6.227   4.569  1.00  0.00     0.049 A 
ATOM     57  C   UNL     1       5.957   2.442   5.274  1.00  0.00     0.074 A 
ATOM     58  C   UNL     1       1.821   7.245   5.503  1.00  0.00     0.029 A 
ATOM     59  N   UNL     1       2.980   5.436   4.927  1.00  0.00    -0.354 N 
ATOM     60  N   UNL     1       5.065   3.405   5.242  1.00  0.00    -0.248 NA
ATOM     61  C   UNL     1       6.953   2.583   6.346  1.00  0.00     0.031 C 
ATOM     62  C   UNL     1       2.902   7.112   6.382  1.00  0.00     0.029 A 
ATOM     63  C   UNL     1       3.604   5.965   6.045  1.00  0.00     0.049 A 
ATOM     64  H   UNL     1       3.262   4.619   4.456  1.00  0.00     0.167 HD
ATOM     65  C   UNL     1       5.379   4.252   6.302  1.00  0.00     0.074 A 
ATOM     66  C   UNL     1       6.532   3.679   6.965  1.00  0.00     0.031 C 
ATOM     67  C   UNL     1       4.762   5.397   6.692  1.00  0.00     0.031 A 
BRANCH  54  68
ATOM     68  C   UNL     1      -0.001   7.022   3.087  1.00  0.00    -0.014 A 
ATOM     69  C   UNL     1      -1.372   6.710   3.151  1.00  0.00     0.010 A 
ATOM     70  C   UNL     1       0.385   8.317   2.695  1.00  0.00     0.010 A 
ATOM     71  C   UNL     1      -2.331   7.651   2.765  1.00  0.00     0.020 A 
ATOM     72  C   UNL     1      -0.572   9.272   2.343  1.00  0.00     0.020 A 
ATOM     73  C   UNL     1      -1.924   8.924   2.355  1.00  0.00     0.054 A 
BRANCH  73  74
ATOM     74  S   UNL     1      -3.187  10.118   1.841  1.00  0.00     0.124 S 
ATOM     75  O   UNL     1      -3.620   9.565   0.560  1.00  0.00    -0.237 OA
ATOM     76  O   UNL     1      -4.165  10.035   2.922  1.00  0.00    -0.237 OA
ATOM     77  O   UNL     1      -2.459  11.382   1.758  1.00  0.00    -0.744 OA
ENDBRANCH  73  74
ENDBRANCH  54  68
BRANCH  55  78
ATOM     78  C   UNL     1       7.207   0.273   4.541  1.00  0.00    -0.014 A 
ATOM     79  C   UNL     1       7.265  -0.597   5.644  1.00  0.00     0.010 A 
ATOM     80  C   UNL     1       8.215   0.199   3.560  1.00  0.00     0.010 A 
ATOM     81  C   UNL     1       8.303  -1.528   5.757  1.00  0.00     0.020 A 
ATOM     82  C   UNL     1       9.237  -0.749   3.655  1.00  0.00     0.020 A 
ATOM     83  C   UNL     1       9.276  -1.607   4.755  1.00  0.00     0.054 A 
BRANCH  83  84
ATOM     84  S   UNL     1      10.554  -2.889   4.875  1.00  0.00     0.124 S 
ATOM     85  O   UNL     1      11.373  -2.403   5.981  1.00  0.00    -0.237 OA
ATOM     86  O   UNL     1       9.767  -4.089   5.149  1.00  0.00    -0.237 OA
ATOM     87  O   UNL     1      11.194  -2.859   3.561  1.00  0.00    -0.744 OA
ENDBRANCH  83  84
ENDBRANCH  55  78
BRANCH  67  88
ATOM     88  C   UNL     1       5.298   6.103   7.913  1.00  0.00    -0.014 A 
ATOM     89  C   UNL     1       6.537   6.769   7.895  1.00  0.00     0.010 A 
ATOM     90  C   UNL     1       4.515   6.155   9.082  1.00  0.00     0.010 A 
ATOM     91  C   UNL     1       6.995   7.446   9.031  1.00  0.00     0.020 A 
ATOM     92  C   UNL     1       4.954   6.857  10.208  1.00  0.00     0.020 A 
ATOM     93  C   UNL     1       6.199   7.487  10.180  1.00  0.00     0.054 A 
BRANCH  93  94
ATOM     94  S   UNL     1       6.797   8.406  11.625  1.00  0.00     0.124 S 
ATOM     95  O   UNL     1       7.881   7.553  12.102  1.00  0.00    -0.237 OA
ATOM     96  O   UNL     1       7.210   9.681  11.044  1.00  0.00    -0.237 OA
ATOM     97  O   UNL     1       5.629   8.476  12.501  1.00  0.00    -0.744 OA
ENDBRANCH  93  94
ENDBRANCH  67  88
ENDBRANCH  41  42
ENDBRANCH  34  36
ENDBRANCH  33  34
ENDBRANCH  32  33
ENDBRANCH  31  32
ENDBRANCH  30  31
ENDBRANCH  29  30
ENDBRANCH   1  29
TORSDOF 25
