REMARK SMILES O=C(OCCOCCOCCOC(=O)c1ccc(-c2c3nc(c(-c4ccc(S(=O)(=O)[O-])cc4)c4ccc([nH]4)c(-c4ccc(S(=O)(=O)[O-])cc4)c4nc(c(-c5ccc(S(=O)(=O)[O-])cc5)c5ccc2[nH]5)C=C4)C=C3)cc1)C1=Cc2cc(Cl)cc(C#Cc3ccccc3)c2O[C@@H]1C(F)(F)F
REMARK SMILES IDX 8 1 7 2 6 3 5 4 4 5 3 6 2 7 1 8 75 9 76 10 93 11 77 12 92 13
REMARK SMILES IDX 78 14 91 15 79 16 82 17 80 18 81 19 94 20 95 21 96 22 97 23
REMARK SMILES IDX 83 24 84 25 85 26 86 27 90 28 87 29 89 30 88 31 9 32 10 33
REMARK SMILES IDX 11 34 12 35 13 36 14 37 15 38 16 39 74 40 17 41 73 42 18 43
REMARK SMILES IDX 19 44 20 45 67 46 21 47 72 48 66 49 68 50 22 51 71 52 65 53
REMARK SMILES IDX 64 54 23 56 53 57 34 58 52 59 35 60 38 61 51 62 69 63 36 64
REMARK SMILES IDX 37 65 50 67 70 68 39 69 24 70 25 71 33 72 26 73 32 74 27 75
REMARK SMILES IDX 28 76 29 77 30 78 31 79 54 80 55 81 63 82 56 83 62 84 57 85
REMARK SMILES IDX 58 86 59 87 60 88 61 89 40 90 41 91 49 92 42 93 48 94 43 95
REMARK SMILES IDX 44 96 45 97 46 98 47 99
REMARK H PARENT 68 55 38 66
REMARK Flexibility Score: inf
ROOT
ATOM      1  C   UNL     1       2.231  -0.183   3.539  1.00  0.00     0.188 C 
ENDROOT
BRANCH   1   2
ATOM      2  C   UNL     1       2.454  -0.939   2.224  1.00  0.00     0.188 C 
BRANCH   2   3
ATOM      3  O   UNL     1       3.786  -1.239   1.665  1.00  0.00    -0.376 OA
BRANCH   3   4
ATOM      4  C   UNL     1       4.510  -0.682   0.246  1.00  0.00     0.202 C 
BRANCH   4   5
ATOM      5  C   UNL     1       3.796   0.932  -1.023  1.00  0.00     0.261 C 
BRANCH   5   6
ATOM      6  O   UNL     1       2.894   0.784  -2.252  1.00  0.00    -0.460 OA
BRANCH   6   7
ATOM      7  C   UNL     1       3.113  -0.362  -2.914  1.00  0.00     0.338 C 
ATOM      8  O   UNL     1       2.475  -0.846  -3.813  1.00  0.00    -0.246 OA
BRANCH   7   9
ATOM      9  C   UNL     1       3.965  -0.959  -1.906  1.00  0.00     0.087 C 
ATOM     10  C   UNL     1       5.344  -0.465  -1.889  1.00  0.00     0.027 C 
ATOM     11  C   UNL     1       2.691  -0.717  -0.483  1.00  0.00     0.316 C 
ATOM     12  C   UNL     1       5.981   0.690  -0.656  1.00  0.00     0.020 A 
ATOM     13  O   UNL     1       3.303   0.638   0.779  1.00  0.00    -0.474 OA
ATOM     14  C   UNL     1       7.262   1.147  -0.802  1.00  0.00     0.032 A 
ATOM     15  C   UNL     1       4.997   1.312   0.641  1.00  0.00     0.143 A 
ATOM     16  C   UNL     1       7.668   2.074   0.168  1.00  0.00     0.043 A 
ATOM     17  C   UNL     1       5.493   2.224   1.547  1.00  0.00     0.069 A 
ATOM     18  Cl  UNL     1       9.290   2.678   0.039  1.00  0.00    -0.084 Cl
ATOM     19  C   UNL     1       6.849   2.569   1.264  1.00  0.00     0.041 A 
BRANCH  11  20
ATOM     20  C   UNL     1       2.391  -2.352  -0.324  1.00  0.00     0.430 C 
ATOM     21  F   UNL     1       2.287  -2.932   0.870  1.00  0.00    -0.167 F 
ATOM     22  F   UNL     1       1.222  -2.626  -0.963  1.00  0.00    -0.167 F 
ATOM     23  F   UNL     1       3.331  -3.099  -0.978  1.00  0.00    -0.167 F 
ENDBRANCH  11  20
BRANCH  17  24
ATOM     24  C   UNL     1       4.896   2.796   2.710  1.00  0.00    -0.058 C 
ATOM     25  C   UNL     1       4.613   3.293   3.776  1.00  0.00    -0.062 C 
BRANCH  25  26
ATOM     26  C   UNL     1       4.391   3.834   5.091  1.00  0.00     0.025 A 
ATOM     27  C   UNL     1       4.453   5.212   5.312  1.00  0.00     0.017 A 
ATOM     28  C   UNL     1       4.139   2.992   6.181  1.00  0.00     0.017 A 
ATOM     29  C   UNL     1       4.247   5.733   6.596  1.00  0.00     0.001 A 
ATOM     30  C   UNL     1       3.943   3.508   7.464  1.00  0.00     0.001 A 
ATOM     31  C   UNL     1       3.993   4.882   7.671  1.00  0.00     0.000 A 
ENDBRANCH  25  26
ENDBRANCH  17  24
ENDBRANCH   7   9
ENDBRANCH   6   7
ENDBRANCH   5   6
ENDBRANCH   4   5
ENDBRANCH   3   4
ENDBRANCH   2   3
ENDBRANCH   1   2
BRANCH   1  32
ATOM     32  O   UNL     1       3.280   0.538   4.128  1.00  0.00    -0.376 OA
BRANCH  32  33
ATOM     33  C   UNL     1       4.543  -0.100   4.223  1.00  0.00     0.202 C 
BRANCH  33  34
ATOM     34  C   UNL     1       4.617  -1.363   5.069  1.00  0.00     0.261 C 
BRANCH  34  35
ATOM     35  O   UNL     1       4.092  -2.507   4.388  1.00  0.00    -0.460 OA
BRANCH  35  36
ATOM     36  C   UNL     1       2.957  -3.051   4.884  1.00  0.00     0.338 C 
ATOM     37  O   UNL     1       2.296  -2.672   5.832  1.00  0.00    -0.246 OA
BRANCH  36  38
ATOM     38  C   UNL     1       2.566  -4.145   3.981  1.00  0.00     0.060 A 
ATOM     39  C   UNL     1       1.288  -4.148   3.402  1.00  0.00     0.016 A 
ATOM     40  C   UNL     1       3.479  -5.166   3.720  1.00  0.00     0.016 A 
ATOM     41  C   UNL     1       0.923  -5.181   2.542  1.00  0.00     0.010 A 
ATOM     42  C   UNL     1       3.098  -6.222   2.903  1.00  0.00     0.010 A 
ATOM     43  C   UNL     1       1.810  -6.246   2.341  1.00  0.00    -0.014 A 
BRANCH  43  44
ATOM     44  C   UNL     1       1.304  -7.538   1.840  1.00  0.00     0.031 A 
ATOM     45  C   UNL     1       0.794  -8.503   2.871  1.00  0.00     0.074 A 
ATOM     46  C   UNL     1       1.367  -7.867   0.541  1.00  0.00     0.049 A 
ATOM     47  N   UNL     1       0.423  -9.746   2.733  1.00  0.00    -0.248 NA
ATOM     48  C   UNL     1       0.713  -7.998   4.255  1.00  0.00     0.031 C 
ATOM     49  C   UNL     1       1.813  -6.988  -0.538  1.00  0.00     0.029 A 
ATOM     50  N   UNL     1       1.072  -9.051  -0.082  1.00  0.00    -0.354 N 
ATOM     51  C   UNL     1       0.080 -10.173   4.010  1.00  0.00     0.074 A 
ATOM     52  C   UNL     1       0.316  -9.072   4.913  1.00  0.00     0.031 C 
ATOM     53  C   UNL     1       1.780  -7.675  -1.695  1.00  0.00     0.029 A 
ATOM     54  C   UNL     1       1.354  -9.048  -1.427  1.00  0.00     0.049 A 
ATOM     55  H   UNL     1       0.695  -9.830   0.388  1.00  0.00     0.167 HD
ATOM     56  C   UNL     1      -0.387 -11.382   4.395  1.00  0.00     0.031 A 
ATOM     57  C   UNL     1       1.299 -10.054  -2.323  1.00  0.00     0.031 A 
ATOM     58  C   UNL     1      -0.567 -12.482   3.489  1.00  0.00     0.049 A 
ATOM     59  C   UNL     1       0.851 -11.418  -1.860  1.00  0.00     0.074 A 
ATOM     60  C   UNL     1      -1.040 -13.751   3.761  1.00  0.00     0.029 A 
ATOM     61  N   UNL     1      -0.260 -12.445   2.136  1.00  0.00    -0.354 N 
ATOM     62  N   UNL     1       0.495 -11.807  -0.657  1.00  0.00    -0.248 NA
ATOM     63  C   UNL     1       0.789 -12.478  -2.875  1.00  0.00     0.031 C 
ATOM     64  C   UNL     1      -0.947 -14.505   2.588  1.00  0.00     0.029 A 
ATOM     65  C   UNL     1      -0.505 -13.679   1.564  1.00  0.00     0.049 A 
ATOM     66  H   UNL     1       0.081 -11.656   1.655  1.00  0.00     0.167 HD
ATOM     67  C   UNL     1       0.126 -13.144  -0.780  1.00  0.00     0.074 A 
ATOM     68  C   UNL     1       0.301 -13.494  -2.176  1.00  0.00     0.031 C 
ATOM     69  C   UNL     1      -0.327 -14.002   0.169  1.00  0.00     0.031 A 
BRANCH  56  70
ATOM     70  C   UNL     1      -0.669 -11.578   5.861  1.00  0.00    -0.014 A 
ATOM     71  C   UNL     1      -1.703 -10.876   6.510  1.00  0.00     0.010 A 
ATOM     72  C   UNL     1       0.117 -12.476   6.605  1.00  0.00     0.010 A 
ATOM     73  C   UNL     1      -1.913 -11.033   7.882  1.00  0.00     0.020 A 
ATOM     74  C   UNL     1      -0.115 -12.665   7.969  1.00  0.00     0.020 A 
ATOM     75  C   UNL     1      -1.116 -11.927   8.603  1.00  0.00     0.054 A 
BRANCH  75  76
ATOM     76  S   UNL     1      -1.424 -12.124  10.378  1.00  0.00     0.124 S 
ATOM     77  O   UNL     1      -0.973 -10.839  10.908  1.00  0.00    -0.237 OA
ATOM     78  O   UNL     1      -2.865 -12.352  10.428  1.00  0.00    -0.237 OA
ATOM     79  O   UNL     1      -0.600 -13.272  10.749  1.00  0.00    -0.744 OA
ENDBRANCH  75  76
ENDBRANCH  56  70
BRANCH  57  80
ATOM     80  C   UNL     1       1.686  -9.808  -3.740  1.00  0.00    -0.014 A 
ATOM     81  C   UNL     1       0.723  -9.848  -4.764  1.00  0.00     0.010 A 
ATOM     82  C   UNL     1       3.021  -9.513  -4.074  1.00  0.00     0.010 A 
ATOM     83  C   UNL     1       1.087  -9.605  -6.093  1.00  0.00     0.020 A 
ATOM     84  C   UNL     1       3.384  -9.238  -5.396  1.00  0.00     0.020 A 
ATOM     85  C   UNL     1       2.415  -9.293  -6.399  1.00  0.00     0.054 A 
BRANCH  85  86
ATOM     86  S   UNL     1       2.848  -8.913  -8.120  1.00  0.00     0.124 S 
ATOM     87  O   UNL     1       2.694 -10.212  -8.768  1.00  0.00    -0.237 OA
ATOM     88  O   UNL     1       1.854  -7.905  -8.478  1.00  0.00    -0.237 OA
ATOM     89  O   UNL     1       4.221  -8.420  -8.028  1.00  0.00    -0.744 OA
ENDBRANCH  85  86
ENDBRANCH  57  80
BRANCH  69  90
ATOM     90  C   UNL     1      -0.729 -15.387  -0.268  1.00  0.00    -0.014 A 
ATOM     91  C   UNL     1       0.219 -16.343  -0.672  1.00  0.00     0.010 A 
ATOM     92  C   UNL     1      -2.085 -15.760  -0.184  1.00  0.00     0.010 A 
ATOM     93  C   UNL     1      -0.186 -17.638  -1.008  1.00  0.00     0.020 A 
ATOM     94  C   UNL     1      -2.488 -17.063  -0.483  1.00  0.00     0.020 A 
ATOM     95  C   UNL     1      -1.536 -17.991  -0.905  1.00  0.00     0.054 A 
BRANCH  95  96
ATOM     96  S   UNL     1      -2.024 -19.695  -1.288  1.00  0.00     0.124 S 
ATOM     97  O   UNL     1      -1.829 -19.750  -2.734  1.00  0.00    -0.237 OA
ATOM     98  O   UNL     1      -1.082 -20.482  -0.496  1.00  0.00    -0.237 OA
ATOM     99  O   UNL     1      -3.415 -19.767  -0.845  1.00  0.00    -0.744 OA
ENDBRANCH  95  96
ENDBRANCH  69  90
ENDBRANCH  43  44
ENDBRANCH  36  38
ENDBRANCH  35  36
ENDBRANCH  34  35
ENDBRANCH  33  34
ENDBRANCH  32  33
ENDBRANCH   1  32
TORSDOF 23
