REMARK SMILES Cc1ccc2c(c1)=N[C@H](/C(C#N)=C/c1ccccc1C(=O)OCCOCCOCCOC(=O)c1ccc(-c3c4nc(c(-c5ccc(S(=O)(=O)[O-])cc5)c5ccc([nH]5)c(-c5ccc(S(=O)(=O)[O-])cc5)c5nc(c(-c6ccc(S(=O)(=O)[O-])cc6)c6ccc3[nH]6)C=C5)C=C4)cc1)N=2
REMARK SMILES IDX 27 1 26 2 25 3 24 4 23 5 22 6 20 7 21 8 19 9 14 10 15 11
REMARK SMILES IDX 16 12 18 13 17 14 13 15 10 16 9 17 1 18 2 19 3 20 7 21 4 22
REMARK SMILES IDX 6 23 5 24 8 25 94 26 11 27 12 28 28 29 29 30 30 31 31 32
REMARK SMILES IDX 32 33 33 34 34 35 35 36 93 37 36 38 92 39 37 40 38 41 39 42
REMARK SMILES IDX 86 43 40 44 91 45 85 46 87 47 41 48 90 49 84 50 83 51 42 53
REMARK SMILES IDX 72 54 53 55 71 56 54 57 57 58 70 59 88 60 55 61 56 62 69 64
REMARK SMILES IDX 89 65 58 66 43 67 44 68 52 69 45 70 51 71 46 72 47 73 48 74
REMARK SMILES IDX 49 75 50 76 73 77 74 78 82 79 75 80 81 81 76 82 77 83 78 84
REMARK SMILES IDX 79 85 80 86 59 87 60 88 68 89 61 90 67 91 62 92 63 93 64 94
REMARK SMILES IDX 65 95 66 96
REMARK H PARENT 87 52 57 63
REMARK Flexibility Score: inf
ROOT
ATOM      1  C   UNL     1      -4.662  -7.377  -0.197  1.00  0.00     0.188 C 
ENDROOT
BRANCH   1   2
ATOM      2  C   UNL     1      -4.936  -8.894  -0.290  1.00  0.00     0.188 C 
BRANCH   2   3
ATOM      3  O   UNL     1      -3.913  -9.754   0.154  1.00  0.00    -0.376 OA
BRANCH   3   4
ATOM      4  C   UNL     1      -2.818 -10.057  -0.694  1.00  0.00     0.202 C 
BRANCH   4   5
ATOM      5  C   UNL     1      -2.640  -9.569  -2.148  1.00  0.00     0.261 C 
BRANCH   5   6
ATOM      6  O   UNL     1      -3.395  -8.424  -2.561  1.00  0.00    -0.460 OA
BRANCH   6   7
ATOM      7  C   UNL     1      -4.352  -8.655  -3.495  1.00  0.00     0.338 C 
ATOM      8  O   UNL     1      -4.579  -9.723  -4.042  1.00  0.00    -0.246 OA
BRANCH   7   9
ATOM      9  C   UNL     1      -5.270  -7.496  -3.624  1.00  0.00     0.067 A 
ATOM     10  C   UNL     1      -4.868  -6.166  -3.851  1.00  0.00    -0.010 A 
ATOM     11  C   UNL     1      -5.882  -5.212  -4.072  1.00  0.00     0.009 A 
ATOM     12  C   UNL     1      -7.233  -5.521  -3.896  1.00  0.00     0.001 A 
ATOM     13  C   UNL     1      -6.638  -7.802  -3.459  1.00  0.00     0.016 A 
ATOM     14  C   UNL     1      -7.611  -6.810  -3.553  1.00  0.00     0.001 A 
BRANCH  10  15
ATOM     15  C   UNL     1      -3.454  -5.724  -3.870  1.00  0.00     0.028 C 
ATOM     16  C   UNL     1      -2.948  -4.626  -3.255  1.00  0.00     0.076 C 
BRANCH  16  17
ATOM     17  C   UNL     1      -1.481  -4.257  -3.370  1.00  0.00     0.263 C 
ATOM     18  C   UNL     1       1.012  -0.072   0.089  1.00  0.00     0.044 C 
ATOM     19  C   UNL     1       0.576  -1.328  -0.611  1.00  0.00    -0.049 A 
ATOM     20  C   UNL     1       1.031  -2.586  -0.027  1.00  0.00     0.006 A 
ATOM     21  C   UNL     1      -0.199  -1.294  -1.710  1.00  0.00     0.033 A 
ATOM     22  C   UNL     1       0.668  -3.792  -0.487  1.00  0.00     0.030 A 
ATOM     23  C   UNL     1      -0.610  -2.570  -2.306  1.00  0.00     0.086 A 
ATOM     24  C   UNL     1      -0.213  -3.835  -1.655  1.00  0.00     0.086 A 
ATOM     25  N   UNL     1      -1.305  -2.774  -3.372  1.00  0.00    -0.251 NA
ATOM     26  N   UNL     1      -0.702  -4.863  -2.256  1.00  0.00    -0.251 NA
ENDBRANCH  16  17
BRANCH  16  27
ATOM     27  C   UNL     1      -3.770  -3.735  -2.494  1.00  0.00     0.099 C 
ATOM     28  N   UNL     1      -4.438  -2.972  -1.921  1.00  0.00    -0.193 NA
ENDBRANCH  16  27
ENDBRANCH  10  15
ENDBRANCH   7   9
ENDBRANCH   6   7
ENDBRANCH   5   6
ENDBRANCH   4   5
ENDBRANCH   3   4
ENDBRANCH   2   3
ENDBRANCH   1   2
BRANCH   1  29
ATOM     29  O   UNL     1      -3.339  -6.917  -0.019  1.00  0.00    -0.376 OA
BRANCH  29  30
ATOM     30  C   UNL     1      -2.635  -7.234   1.168  1.00  0.00     0.202 C 
BRANCH  30  31
ATOM     31  C   UNL     1      -3.296  -7.516   2.535  1.00  0.00     0.261 C 
BRANCH  31  32
ATOM     32  O   UNL     1      -4.603  -8.100   2.545  1.00  0.00    -0.460 OA
BRANCH  32  33
ATOM     33  C   UNL     1      -5.627  -7.258   2.844  1.00  0.00     0.338 C 
ATOM     34  O   UNL     1      -5.553  -6.067   3.086  1.00  0.00    -0.246 OA
BRANCH  33  35
ATOM     35  C   UNL     1      -6.899  -7.985   2.649  1.00  0.00     0.060 A 
ATOM     36  C   UNL     1      -7.223  -9.054   3.481  1.00  0.00     0.016 A 
ATOM     37  C   UNL     1      -7.773  -7.596   1.622  1.00  0.00     0.016 A 
ATOM     38  C   UNL     1      -8.433  -9.727   3.292  1.00  0.00     0.010 A 
ATOM     39  C   UNL     1      -8.977  -8.281   1.426  1.00  0.00     0.010 A 
ATOM     40  C   UNL     1      -9.327  -9.340   2.274  1.00  0.00    -0.014 A 
BRANCH  40  41
ATOM     41  C   UNL     1     -10.680  -9.955   2.211  1.00  0.00     0.031 A 
ATOM     42  C   UNL     1     -11.055 -10.944   1.146  1.00  0.00     0.074 A 
ATOM     43  C   UNL     1     -11.572  -9.623   3.167  1.00  0.00     0.049 A 
ATOM     44  N   UNL     1     -12.153 -11.649   1.040  1.00  0.00    -0.248 NA
ATOM     45  C   UNL     1     -10.086 -11.174   0.064  1.00  0.00     0.031 C 
ATOM     46  C   UNL     1     -11.319  -8.660   4.241  1.00  0.00     0.029 A 
ATOM     47  N   UNL     1     -12.846 -10.071   3.416  1.00  0.00    -0.354 N 
ATOM     48  C   UNL     1     -11.998 -12.431  -0.098  1.00  0.00     0.074 A 
ATOM     49  C   UNL     1     -10.725 -12.066  -0.685  1.00  0.00     0.031 C 
ATOM     50  C   UNL     1     -12.375  -8.637   5.067  1.00  0.00     0.029 A 
ATOM     51  C   UNL     1     -13.402  -9.544   4.560  1.00  0.00     0.049 A 
ATOM     52  H   UNL     1     -13.316 -10.709   2.832  1.00  0.00     0.167 HD
ATOM     53  C   UNL     1     -12.830 -13.384  -0.585  1.00  0.00     0.031 A 
ATOM     54  C   UNL     1     -14.594  -9.771   5.150  1.00  0.00     0.031 A 
ATOM     55  C   UNL     1     -14.101 -13.729   0.008  1.00  0.00     0.049 A 
ATOM     56  C   UNL     1     -15.524 -10.790   4.548  1.00  0.00     0.074 A 
ATOM     57  C   UNL     1     -14.999 -14.699  -0.404  1.00  0.00     0.029 A 
ATOM     58  N   UNL     1     -14.656 -13.128   1.130  1.00  0.00    -0.354 N 
ATOM     59  N   UNL     1     -15.329 -11.573   3.514  1.00  0.00    -0.248 NA
ATOM     60  C   UNL     1     -16.829 -10.973   5.201  1.00  0.00     0.031 C 
ATOM     61  C   UNL     1     -16.130 -14.626   0.410  1.00  0.00     0.029 A 
ATOM     62  C   UNL     1     -15.898 -13.684   1.398  1.00  0.00     0.049 A 
ATOM     63  H   UNL     1     -14.231 -12.414   1.657  1.00  0.00     0.167 HD
ATOM     64  C   UNL     1     -16.468 -12.364   3.415  1.00  0.00     0.074 A 
ATOM     65  C   UNL     1     -17.340 -11.981   4.506  1.00  0.00     0.031 C 
ATOM     66  C   UNL     1     -16.762 -13.318   2.498  1.00  0.00     0.031 A 
BRANCH  53  67
ATOM     67  C   UNL     1     -12.400 -14.175  -1.799  1.00  0.00    -0.014 A 
ATOM     68  C   UNL     1     -13.170 -14.136  -2.978  1.00  0.00     0.010 A 
ATOM     69  C   UNL     1     -11.344 -15.101  -1.709  1.00  0.00     0.010 A 
ATOM     70  C   UNL     1     -12.933 -15.045  -4.015  1.00  0.00     0.020 A 
ATOM     71  C   UNL     1     -11.080 -15.987  -2.758  1.00  0.00     0.020 A 
ATOM     72  C   UNL     1     -11.898 -15.975  -3.890  1.00  0.00     0.054 A 
BRANCH  72  73
ATOM     73  S   UNL     1     -11.662 -17.201  -5.207  1.00  0.00     0.124 S 
ATOM     74  O   UNL     1     -12.849 -18.038  -5.068  1.00  0.00    -0.237 OA
ATOM     75  O   UNL     1     -11.611 -16.370  -6.407  1.00  0.00    -0.237 OA
ATOM     76  O   UNL     1     -10.399 -17.847  -4.854  1.00  0.00    -0.744 OA
ENDBRANCH  72  73
ENDBRANCH  53  67
BRANCH  54  77
ATOM     77  C   UNL     1     -14.935  -9.061   6.418  1.00  0.00    -0.014 A 
ATOM     78  C   UNL     1     -15.048  -7.658   6.447  1.00  0.00     0.010 A 
ATOM     79  C   UNL     1     -15.088  -9.777   7.619  1.00  0.00     0.010 A 
ATOM     80  C   UNL     1     -15.244  -6.983   7.655  1.00  0.00     0.020 A 
ATOM     81  C   UNL     1     -15.329  -9.109   8.824  1.00  0.00     0.020 A 
ATOM     82  C   UNL     1     -15.374  -7.714   8.838  1.00  0.00     0.054 A 
BRANCH  82  83
ATOM     83  S   UNL     1     -15.578  -6.811  10.398  1.00  0.00     0.124 S 
ATOM     84  O   UNL     1     -14.253  -6.224  10.580  1.00  0.00    -0.237 OA
ATOM     85  O   UNL     1     -16.646  -5.868  10.079  1.00  0.00    -0.237 OA
ATOM     86  O   UNL     1     -15.935  -7.854  11.356  1.00  0.00    -0.744 OA
ENDBRANCH  82  83
ENDBRANCH  54  77
BRANCH  66  87
ATOM     87  C   UNL     1     -18.077 -14.055   2.613  1.00  0.00    -0.014 A 
ATOM     88  C   UNL     1     -18.079 -15.450   2.810  1.00  0.00     0.010 A 
ATOM     89  C   UNL     1     -19.299 -13.402   2.374  1.00  0.00     0.010 A 
ATOM     90  C   UNL     1     -19.264 -16.184   2.706  1.00  0.00     0.020 A 
ATOM     91  C   UNL     1     -20.494 -14.128   2.311  1.00  0.00     0.020 A 
ATOM     92  C   UNL     1     -20.463 -15.518   2.444  1.00  0.00     0.054 A 
BRANCH  92  93
ATOM     93  S   UNL     1     -21.977 -16.496   2.240  1.00  0.00     0.124 S 
ATOM     94  O   UNL     1     -21.747 -17.157   0.959  1.00  0.00    -0.237 OA
ATOM     95  O   UNL     1     -21.955 -17.368   3.412  1.00  0.00    -0.237 OA
ATOM     96  O   UNL     1     -23.039 -15.492   2.240  1.00  0.00    -0.744 OA
ENDBRANCH  92  93
ENDBRANCH  66  87
ENDBRANCH  40  41
ENDBRANCH  33  35
ENDBRANCH  32  33
ENDBRANCH  31  32
ENDBRANCH  30  31
ENDBRANCH  29  30
ENDBRANCH   1  29
TORSDOF 23
