REMARK SMILES [NH3+][C@@H]1CCCCC[C@H]1C(=O)NCC(=O)OCCOCCOCCOC(=O)c1ccc(-c2c3nc(c(-c4ccc(S(=O)(=O)[O-])cc4)c4ccc([nH]4)c(-c4ccc(S(=O)(=O)[O-])cc4)c4nc(c(-c5ccc(S(=O)(=O)[O-])cc5)c5ccc2[nH]5)C=C4)C=C3)cc1
REMARK SMILES IDX 18 1 17 2 16 3 15 4 13 5 14 6 12 7 11 8 9 9 10 10 8 12 2 13
REMARK SMILES IDX 1 14 3 18 7 20 6 21 5 22 4 23 19 25 20 26 21 27 22 28 23 29
REMARK SMILES IDX 24 30 25 31 26 32 27 33 28 34 86 35 29 36 85 37 30 38 31 39
REMARK SMILES IDX 32 40 79 41 33 42 84 43 78 44 80 45 34 46 83 47 77 48 76 49
REMARK SMILES IDX 35 51 65 52 46 53 64 54 47 55 50 56 63 57 81 58 48 59 49 60
REMARK SMILES IDX 62 62 82 63 51 64 36 65 37 66 45 67 38 68 44 69 39 70 40 71
REMARK SMILES IDX 41 72 42 73 43 74 66 75 67 76 75 77 68 78 74 79 69 80 70 81
REMARK SMILES IDX 71 82 72 83 73 84 52 85 53 86 61 87 54 88 60 89 55 90 56 91
REMARK SMILES IDX 57 92 58 93 59 94
REMARK H PARENT 11 11 1 15 1 16 1 17 80 50 50 61
REMARK Flexibility Score: 90.00
ROOT
ATOM      1  O   UNL     1      -5.088   1.850  -0.726  1.00  0.00    -0.376 OA
ENDROOT
BRANCH   1   2
ATOM      2  C   UNL     1      -4.429   1.424   0.462  1.00  0.00     0.202 C 
BRANCH   2   3
ATOM      3  C   UNL     1      -3.510   0.192   0.394  1.00  0.00     0.261 C 
BRANCH   3   4
ATOM      4  O   UNL     1      -2.509   0.235  -0.646  1.00  0.00    -0.462 OA
BRANCH   4   5
ATOM      5  C   UNL     1      -2.538  -0.769  -1.557  1.00  0.00     0.325 C 
ATOM      6  O   UNL     1      -3.258  -1.759  -1.469  1.00  0.00    -0.250 OA
BRANCH   5   7
ATOM      7  C   UNL     1      -1.674  -0.525  -2.813  1.00  0.00     0.238 C 
BRANCH   7   8
ATOM      8  N   UNL     1      -0.624   0.497  -2.921  1.00  0.00    -0.345 N 
ATOM      9  C   UNL     1       0.722   0.468  -2.726  1.00  0.00     0.229 C 
ATOM     10  O   UNL     1       1.359   1.485  -3.018  1.00  0.00    -0.275 OA
ATOM     11  H   UNL     1      -0.963   1.381  -3.190  1.00  0.00     0.164 HD
BRANCH   9  12
ATOM     12  C   UNL     1       1.444  -0.792  -2.264  1.00  0.00     0.136 C 
BRANCH  12  13
ATOM     13  C   UNL     1       0.940  -1.207  -0.865  1.00  0.00     0.193 C 
BRANCH  13  14
ATOM     14  N   UNL     1       1.490  -0.293   0.151  1.00  0.00    -0.354 N 
ATOM     15  H   UNL     1       1.156  -0.569   1.074  1.00  0.00     0.344 HD
ATOM     16  H   UNL     1       1.187   0.660  -0.050  1.00  0.00     0.344 HD
ATOM     17  H   UNL     1       2.509  -0.337   0.131  1.00  0.00     0.344 HD
ENDBRANCH  13  14
BRANCH  13  18
ATOM     18  C   UNL     1       1.216  -2.649  -0.432  1.00  0.00     0.066 CG0
ATOM     19  G   UNL     1       0.448  -3.654  -1.284  1.00  0.00     0.000 G0
ENDBRANCH  13  18
ENDBRANCH  12  13
BRANCH  12  20
ATOM     20  C   UNL     1       1.430  -1.778  -3.449  1.00  0.00     0.020 C 
BRANCH  20  21
ATOM     21  C   UNL     1       2.101  -3.118  -3.203  1.00  0.00     0.001 C 
BRANCH  21  22
ATOM     22  C   UNL     1       1.199  -4.138  -2.518  1.00  0.00     0.000 C 
BRANCH  22  23
ATOM     23  C   UNL     1       0.448  -3.654  -1.284  1.00  0.00     0.006 CG0
ATOM     24  G   UNL     1       1.216  -2.649  -0.432  1.00  0.00     0.000 G0
ENDBRANCH  22  23
ENDBRANCH  21  22
ENDBRANCH  20  21
ENDBRANCH  12  20
ENDBRANCH   9  12
ENDBRANCH   7   8
ENDBRANCH   5   7
ENDBRANCH   4   5
ENDBRANCH   3   4
ENDBRANCH   2   3
ENDBRANCH   1   2
BRANCH   1  25
ATOM     25  C   UNL     1      -4.321   2.091  -1.902  1.00  0.00     0.188 C 
BRANCH  25  26
ATOM     26  C   UNL     1      -2.938   2.752  -1.771  1.00  0.00     0.188 C 
BRANCH  26  27
ATOM     27  O   UNL     1      -2.635   3.200  -0.473  1.00  0.00    -0.376 OA
BRANCH  27  28
ATOM     28  C   UNL     1      -2.404   4.581  -0.296  1.00  0.00     0.202 C 
BRANCH  28  29
ATOM     29  C   UNL     1      -3.527   5.544  -0.713  1.00  0.00     0.261 C 
BRANCH  29  30
ATOM     30  O   UNL     1      -4.162   5.294  -1.981  1.00  0.00    -0.460 OA
BRANCH  30  31
ATOM     31  C   UNL     1      -3.482   5.638  -3.100  1.00  0.00     0.338 C 
ATOM     32  O   UNL     1      -2.375   6.154  -3.148  1.00  0.00    -0.246 OA
BRANCH  31  33
ATOM     33  C   UNL     1      -4.199   5.066  -4.266  1.00  0.00     0.060 A 
ATOM     34  C   UNL     1      -3.550   4.124  -5.080  1.00  0.00     0.016 A 
ATOM     35  C   UNL     1      -5.512   5.446  -4.550  1.00  0.00     0.016 A 
ATOM     36  C   UNL     1      -4.205   3.578  -6.190  1.00  0.00     0.010 A 
ATOM     37  C   UNL     1      -6.155   4.919  -5.676  1.00  0.00     0.010 A 
ATOM     38  C   UNL     1      -5.498   4.004  -6.519  1.00  0.00    -0.014 A 
BRANCH  38  39
ATOM     39  C   UNL     1      -6.100   3.651  -7.833  1.00  0.00     0.031 A 
ATOM     40  C   UNL     1      -6.040   4.670  -8.942  1.00  0.00     0.074 A 
ATOM     41  C   UNL     1      -6.708   2.467  -8.043  1.00  0.00     0.049 A 
ATOM     42  N   UNL     1      -6.583   4.636 -10.131  1.00  0.00    -0.248 NA
ATOM     43  C   UNL     1      -5.269   5.894  -8.666  1.00  0.00     0.031 C 
ATOM     44  C   UNL     1      -6.800   1.376  -7.075  1.00  0.00     0.029 A 
ATOM     45  N   UNL     1      -7.385   1.996  -9.144  1.00  0.00    -0.354 N 
ATOM     46  C   UNL     1      -6.246   5.844 -10.733  1.00  0.00     0.074 A 
ATOM     47  C   UNL     1      -5.461   6.591  -9.776  1.00  0.00     0.031 C 
ATOM     48  C   UNL     1      -7.513   0.371  -7.617  1.00  0.00     0.029 A 
ATOM     49  C   UNL     1      -7.965   0.764  -8.952  1.00  0.00     0.049 A 
ATOM     50  H   UNL     1      -7.448   2.495  -9.991  1.00  0.00     0.167 HD
ATOM     51  C   UNL     1      -6.567   6.293 -11.970  1.00  0.00     0.031 A 
ATOM     52  C   UNL     1      -8.794   0.051  -9.743  1.00  0.00     0.031 A 
ATOM     53  C   UNL     1      -7.350   5.550 -12.921  1.00  0.00     0.049 A 
ATOM     54  C   UNL     1      -9.189   0.602 -11.093  1.00  0.00     0.074 A 
ATOM     55  C   UNL     1      -7.690   5.907 -14.214  1.00  0.00     0.029 A 
ATOM     56  N   UNL     1      -7.926   4.313 -12.682  1.00  0.00    -0.354 N 
ATOM     57  N   UNL     1      -8.824   1.724 -11.667  1.00  0.00    -0.248 NA
ATOM     58  C   UNL     1     -10.104  -0.215 -11.906  1.00  0.00     0.031 C 
ATOM     59  C   UNL     1      -8.534   4.920 -14.731  1.00  0.00     0.029 A 
ATOM     60  C   UNL     1      -8.653   3.910 -13.790  1.00  0.00     0.049 A 
ATOM     61  H   UNL     1      -7.833   3.797 -11.849  1.00  0.00     0.167 HD
ATOM     62  C   UNL     1      -9.437   1.730 -12.918  1.00  0.00     0.074 A 
ATOM     63  C   UNL     1     -10.183   0.494 -13.024  1.00  0.00     0.031 C 
ATOM     64  C   UNL     1      -9.385   2.673 -13.891  1.00  0.00     0.031 A 
BRANCH  51  65
ATOM     65  C   UNL     1      -6.115   7.677 -12.357  1.00  0.00    -0.014 A 
ATOM     66  C   UNL     1      -4.764   7.966 -12.615  1.00  0.00     0.010 A 
ATOM     67  C   UNL     1      -7.078   8.688 -12.533  1.00  0.00     0.010 A 
ATOM     68  C   UNL     1      -4.382   9.249 -13.020  1.00  0.00     0.020 A 
ATOM     69  C   UNL     1      -6.704   9.963 -12.966  1.00  0.00     0.020 A 
ATOM     70  C   UNL     1      -5.355  10.238 -13.197  1.00  0.00     0.054 A 
BRANCH  70  71
ATOM     71  S   UNL     1      -4.836  11.877 -13.773  1.00  0.00     0.124 S 
ATOM     72  O   UNL     1      -4.128  12.397 -12.605  1.00  0.00    -0.237 OA
ATOM     73  O   UNL     1      -3.997  11.558 -14.925  1.00  0.00    -0.237 OA
ATOM     74  O   UNL     1      -6.093  12.550 -14.088  1.00  0.00    -0.744 OA
ENDBRANCH  70  71
ENDBRANCH  51  65
BRANCH  52  75
ATOM     75  C   UNL     1      -9.353  -1.250  -9.271  1.00  0.00    -0.014 A 
ATOM     76  C   UNL     1      -9.018  -2.458  -9.910  1.00  0.00     0.010 A 
ATOM     77  C   UNL     1     -10.261  -1.281  -8.196  1.00  0.00     0.010 A 
ATOM     78  C   UNL     1      -9.600  -3.663  -9.502  1.00  0.00     0.020 A 
ATOM     79  C   UNL     1     -10.818  -2.487  -7.763  1.00  0.00     0.020 A 
ATOM     80  C   UNL     1     -10.496  -3.670  -8.430  1.00  0.00     0.054 A 
BRANCH  80  81
ATOM     81  S   UNL     1     -11.215  -5.249  -7.899  1.00  0.00     0.124 S 
ATOM     82  O   UNL     1     -12.137  -5.546  -8.991  1.00  0.00    -0.237 OA
ATOM     83  O   UNL     1     -10.041  -6.114  -7.809  1.00  0.00    -0.237 OA
ATOM     84  O   UNL     1     -11.842  -4.927  -6.619  1.00  0.00    -0.744 OA
ENDBRANCH  80  81
ENDBRANCH  52  75
BRANCH  64  85
ATOM     85  C   UNL     1     -10.109   2.393 -15.185  1.00  0.00    -0.014 A 
ATOM     86  C   UNL     1     -11.513   2.396 -15.261  1.00  0.00     0.010 A 
ATOM     87  C   UNL     1      -9.363   2.194 -16.363  1.00  0.00     0.010 A 
ATOM     88  C   UNL     1     -12.156   2.174 -16.483  1.00  0.00     0.020 A 
ATOM     89  C   UNL     1     -10.001   2.005 -17.591  1.00  0.00     0.020 A 
ATOM     90  C   UNL     1     -11.396   1.982 -17.641  1.00  0.00     0.054 A 
BRANCH  90  91
ATOM     91  S   UNL     1     -12.255   1.743 -19.221  1.00  0.00     0.124 S 
ATOM     92  O   UNL     1     -12.812   0.403 -19.065  1.00  0.00    -0.237 OA
ATOM     93  O   UNL     1     -13.227   2.833 -19.224  1.00  0.00    -0.237 OA
ATOM     94  O   UNL     1     -11.191   1.862 -20.216  1.00  0.00    -0.744 OA
ENDBRANCH  90  91
ENDBRANCH  64  85
ENDBRANCH  38  39
ENDBRANCH  31  33
ENDBRANCH  30  31
ENDBRANCH  29  30
ENDBRANCH  28  29
ENDBRANCH  27  28
ENDBRANCH  26  27
ENDBRANCH  25  26
ENDBRANCH   1  25
TORSDOF 23
