REMARK SMILES CS(=O)(=O)c1ccc(-c2cc(Cl)cc3c2O[C@H](C(F)(F)F)C(C(=O)OCCOCCOCCOC(=O)c2ccc(-c4c5nc(c(-c6ccc(S(=O)(=O)[O-])cc6)c6ccc([nH]6)c(-c6ccc(S(=O)(=O)[O-])cc6)c6nc(c(-c7ccc(S(=O)(=O)[O-])cc7)c7ccc4[nH]7)C=C6)C=C5)cc2)=C3)cc1
REMARK SMILES IDX 30 1 29 2 28 3 27 4 26 5 25 6 23 7 24 8 22 9 9 10 10 11
REMARK SMILES IDX 15 12 11 13 14 14 16 15 12 16 13 17 97 18 17 19 8 20 5 21
REMARK SMILES IDX 6 22 99 23 7 24 98 25 2 26 1 27 3 28 4 29 18 30 19 31 20 32
REMARK SMILES IDX 21 33 31 34 32 35 33 36 34 37 35 38 36 39 37 40 38 41 96 42
REMARK SMILES IDX 39 43 95 44 40 45 41 46 42 47 89 48 43 49 94 50 88 51 90 52
REMARK SMILES IDX 44 53 93 54 87 55 86 56 45 58 75 59 56 60 74 61 57 62 60 63
REMARK SMILES IDX 73 64 91 65 58 66 59 67 72 69 92 70 61 71 46 72 47 73 55 74
REMARK SMILES IDX 48 75 54 76 49 77 50 78 51 79 52 80 53 81 76 82 77 83 85 84
REMARK SMILES IDX 78 85 84 86 79 87 80 88 81 89 82 90 83 91 62 92 63 93 71 94
REMARK SMILES IDX 64 95 70 96 65 97 66 98 67 99 68 100 69 101
REMARK H PARENT 90 57 60 68
REMARK Flexibility Score: inf
ROOT
ATOM      1  C   UNL     1       2.890 -12.447   1.238  1.00  0.00     0.188 C 
ENDROOT
BRANCH   1   2
ATOM      2  C   UNL     1       2.275 -11.805  -0.027  1.00  0.00     0.188 C 
BRANCH   2   3
ATOM      3  O   UNL     1       1.923 -12.724  -1.044  1.00  0.00    -0.376 OA
BRANCH   3   4
ATOM      4  C   UNL     1       2.860 -12.876  -2.107  1.00  0.00     0.202 C 
BRANCH   4   5
ATOM      5  C   UNL     1       4.301 -13.197  -1.684  1.00  0.00     0.261 C 
BRANCH   5   6
ATOM      6  O   UNL     1       4.926 -12.081  -0.995  1.00  0.00    -0.460 OA
BRANCH   6   7
ATOM      7  C   UNL     1       5.572 -11.200  -1.789  1.00  0.00     0.338 C 
ATOM      8  O   UNL     1       5.764 -11.369  -2.986  1.00  0.00    -0.246 OA
BRANCH   7   9
ATOM      9  C   UNL     1       5.934  -9.939  -1.082  1.00  0.00     0.087 C 
ATOM     10  C   UNL     1       3.293  -6.937   0.035  1.00  0.00     0.026 A 
ATOM     11  C   UNL     1       2.167  -7.200  -0.774  1.00  0.00     0.033 A 
ATOM     12  C   UNL     1       4.425  -7.709  -0.273  1.00  0.00     0.135 A 
ATOM     13  C   UNL     1       2.216  -7.989  -1.923  1.00  0.00     0.042 A 
ATOM     14  C   UNL     1       4.540  -8.274  -1.562  1.00  0.00     0.019 A 
ATOM     15  O   UNL     1       5.351  -8.190   0.660  1.00  0.00    -0.475 OA
ATOM     16  Cl  UNL     1       0.795  -8.340  -2.817  1.00  0.00    -0.084 Cl
ATOM     17  C   UNL     1       3.432  -8.452  -2.376  1.00  0.00     0.032 A 
ATOM     18  C   UNL     1       5.832  -8.897  -1.921  1.00  0.00     0.027 C 
ATOM     19  C   UNL     1       5.670  -9.654   0.397  1.00  0.00     0.316 C 
BRANCH  10  20
ATOM     20  C   UNL     1       3.186  -5.640   0.788  1.00  0.00    -0.015 A 
ATOM     21  C   UNL     1       2.347  -2.996   1.569  1.00  0.00     0.067 A 
ATOM     22  C   UNL     1       1.759  -4.130   2.134  1.00  0.00     0.021 A 
ATOM     23  C   UNL     1       3.361  -3.166   0.626  1.00  0.00     0.021 A 
ATOM     24  C   UNL     1       2.185  -5.422   1.754  1.00  0.00     0.010 A 
ATOM     25  C   UNL     1       3.768  -4.471   0.246  1.00  0.00     0.010 A 
BRANCH  21  26
ATOM     26  S   UNL     1       1.884  -1.383   2.202  1.00  0.00     0.175 S 
ATOM     27  C   UNL     1       1.676  -0.236   0.870  1.00  0.00     0.163 C 
ATOM     28  O   UNL     1       3.037  -0.936   2.972  1.00  0.00    -0.224 OA
ATOM     29  O   UNL     1       0.591  -1.526   2.831  1.00  0.00    -0.224 OA
ENDBRANCH  21  26
ENDBRANCH  10  20
BRANCH  19  30
ATOM     30  C   UNL     1       6.880 -10.153   1.199  1.00  0.00     0.430 C 
ATOM     31  F   UNL     1       8.018  -9.500   0.875  1.00  0.00    -0.167 F 
ATOM     32  F   UNL     1       6.695 -10.032   2.532  1.00  0.00    -0.167 F 
ATOM     33  F   UNL     1       7.103 -11.473   0.959  1.00  0.00    -0.167 F 
ENDBRANCH  19  30
ENDBRANCH   7   9
ENDBRANCH   6   7
ENDBRANCH   5   6
ENDBRANCH   4   5
ENDBRANCH   3   4
ENDBRANCH   2   3
ENDBRANCH   1   2
BRANCH   1  34
ATOM     34  O   UNL     1       3.007 -13.860   1.343  1.00  0.00    -0.376 OA
BRANCH  34  35
ATOM     35  C   UNL     1       1.909 -14.683   0.974  1.00  0.00     0.202 C 
BRANCH  35  36
ATOM     36  C   UNL     1       0.533 -14.436   1.607  1.00  0.00     0.261 C 
BRANCH  36  37
ATOM     37  O   UNL     1       0.017 -13.101   1.462  1.00  0.00    -0.460 OA
BRANCH  37  38
ATOM     38  C   UNL     1      -0.090 -12.389   2.605  1.00  0.00     0.338 C 
ATOM     39  O   UNL     1       0.231 -12.759   3.737  1.00  0.00    -0.246 OA
BRANCH  38  40
ATOM     40  C   UNL     1      -0.493 -11.001   2.322  1.00  0.00     0.060 A 
ATOM     41  C   UNL     1       0.372  -9.972   2.704  1.00  0.00     0.016 A 
ATOM     42  C   UNL     1      -1.743 -10.699   1.773  1.00  0.00     0.016 A 
ATOM     43  C   UNL     1      -0.021  -8.642   2.557  1.00  0.00     0.010 A 
ATOM     44  C   UNL     1      -2.137  -9.359   1.637  1.00  0.00     0.010 A 
ATOM     45  C   UNL     1      -1.285  -8.318   2.039  1.00  0.00    -0.014 A 
BRANCH  45  46
ATOM     46  C   UNL     1      -1.753  -6.904   2.070  1.00  0.00     0.031 A 
ATOM     47  C   UNL     1      -2.318  -6.357   3.347  1.00  0.00     0.074 A 
ATOM     48  C   UNL     1      -1.672  -6.107   0.988  1.00  0.00     0.049 A 
ATOM     49  N   UNL     1      -2.712  -5.142   3.620  1.00  0.00    -0.248 NA
ATOM     50  C   UNL     1      -2.499  -7.318   4.445  1.00  0.00     0.031 C 
ATOM     51  C   UNL     1      -1.197  -6.537  -0.319  1.00  0.00     0.029 A 
ATOM     52  N   UNL     1      -1.928  -4.767   0.819  1.00  0.00    -0.354 N 
ATOM     53  C   UNL     1      -3.264  -5.205   4.893  1.00  0.00     0.074 A 
ATOM     54  C   UNL     1      -3.105  -6.569   5.354  1.00  0.00     0.031 C 
ATOM     55  C   UNL     1      -1.047  -5.461  -1.112  1.00  0.00     0.029 A 
ATOM     56  C   UNL     1      -1.500  -4.275  -0.397  1.00  0.00     0.049 A 
ATOM     57  H   UNL     1      -2.373  -4.212   1.499  1.00  0.00     0.167 HD
ATOM     58  C   UNL     1      -3.900  -4.231   5.587  1.00  0.00     0.031 A 
ATOM     59  C   UNL     1      -1.456  -3.013  -0.869  1.00  0.00     0.031 A 
ATOM     60  C   UNL     1      -4.093  -2.889   5.102  1.00  0.00     0.049 A 
ATOM     61  C   UNL     1      -2.071  -1.913  -0.036  1.00  0.00     0.074 A 
ATOM     62  C   UNL     1      -4.760  -1.842   5.714  1.00  0.00     0.029 A 
ATOM     63  N   UNL     1      -3.624  -2.406   3.888  1.00  0.00    -0.354 N 
ATOM     64  N   UNL     1      -2.599  -1.986   1.162  1.00  0.00    -0.248 NA
ATOM     65  C   UNL     1      -2.114  -0.569  -0.630  1.00  0.00     0.031 C 
ATOM     66  C   UNL     1      -4.761  -0.752   4.838  1.00  0.00     0.029 A 
ATOM     67  C   UNL     1      -4.024  -1.091   3.713  1.00  0.00     0.049 A 
ATOM     68  H   UNL     1      -3.087  -2.923   3.244  1.00  0.00     0.167 HD
ATOM     69  C   UNL     1      -3.036  -0.701   1.470  1.00  0.00     0.074 A 
ATOM     70  C   UNL     1      -2.683   0.137   0.341  1.00  0.00     0.031 C 
ATOM     71  C   UNL     1      -3.685  -0.262   2.579  1.00  0.00     0.031 A 
BRANCH  58  72
ATOM     72  C   UNL     1      -4.545  -4.631   6.889  1.00  0.00    -0.014 A 
ATOM     73  C   UNL     1      -3.790  -4.961   8.028  1.00  0.00     0.010 A 
ATOM     74  C   UNL     1      -5.950  -4.695   6.960  1.00  0.00     0.010 A 
ATOM     75  C   UNL     1      -4.425  -5.400   9.194  1.00  0.00     0.020 A 
ATOM     76  C   UNL     1      -6.590  -5.101   8.132  1.00  0.00     0.020 A 
ATOM     77  C   UNL     1      -5.822  -5.475   9.235  1.00  0.00     0.054 A 
BRANCH  77  78
ATOM     78  S   UNL     1      -6.622  -6.059  10.755  1.00  0.00     0.124 S 
ATOM     79  O   UNL     1      -6.311  -7.487  10.728  1.00  0.00    -0.237 OA
ATOM     80  O   UNL     1      -5.942  -5.289  11.792  1.00  0.00    -0.237 OA
ATOM     81  O   UNL     1      -8.030  -5.726  10.557  1.00  0.00    -0.744 OA
ENDBRANCH  77  78
ENDBRANCH  58  72
BRANCH  59  82
ATOM     82  C   UNL     1      -0.741  -2.697  -2.144  1.00  0.00    -0.014 A 
ATOM     83  C   UNL     1       0.482  -2.007  -2.079  1.00  0.00     0.010 A 
ATOM     84  C   UNL     1      -1.219  -3.074  -3.408  1.00  0.00     0.010 A 
ATOM     85  C   UNL     1       1.180  -1.635  -3.228  1.00  0.00     0.020 A 
ATOM     86  C   UNL     1      -0.498  -2.750  -4.570  1.00  0.00     0.020 A 
ATOM     87  C   UNL     1       0.683  -2.009  -4.473  1.00  0.00     0.054 A 
BRANCH  87  88
ATOM     88  S   UNL     1       1.641  -1.578  -5.952  1.00  0.00     0.124 S 
ATOM     89  O   UNL     1       1.227  -0.199  -6.187  1.00  0.00    -0.237 OA
ATOM     90  O   UNL     1       3.021  -1.754  -5.500  1.00  0.00    -0.237 OA
ATOM     91  O   UNL     1       1.189  -2.552  -6.941  1.00  0.00    -0.744 OA
ENDBRANCH  87  88
ENDBRANCH  59  82
BRANCH  71  92
ATOM     92  C   UNL     1      -4.085   1.193   2.642  1.00  0.00    -0.014 A 
ATOM     93  C   UNL     1      -5.098   1.710   1.814  1.00  0.00     0.010 A 
ATOM     94  C   UNL     1      -3.513   2.031   3.619  1.00  0.00     0.010 A 
ATOM     95  C   UNL     1      -5.510   3.041   1.941  1.00  0.00     0.020 A 
ATOM     96  C   UNL     1      -3.943   3.354   3.769  1.00  0.00     0.020 A 
ATOM     97  C   UNL     1      -4.931   3.854   2.920  1.00  0.00     0.054 A 
BRANCH  97  98
ATOM     98  S   UNL     1      -5.526   5.560   3.102  1.00  0.00     0.124 S 
ATOM     99  O   UNL     1      -4.958   6.207   1.923  1.00  0.00    -0.237 OA
ATOM    100  O   UNL     1      -6.978   5.397   3.091  1.00  0.00    -0.237 OA
ATOM    101  O   UNL     1      -4.963   5.990   4.380  1.00  0.00    -0.744 OA
ENDBRANCH  97  98
ENDBRANCH  71  92
ENDBRANCH  45  46
ENDBRANCH  38  40
ENDBRANCH  37  38
ENDBRANCH  36  37
ENDBRANCH  35  36
ENDBRANCH  34  35
ENDBRANCH   1  34
TORSDOF 23
