REMARK SMILES C[C@H]1[C@H](C)CC[C@@]2(C(=O)OCCOCCOCCOC(=O)c3ccc(-c4c5nc(c(-c6ccc(S(=O)(=O)[O-])cc6)c6ccc([nH]6)c(-c6ccc(S(=O)(=O)[O-])cc6)c6nc(c(-c7ccc(S(=O)(=O)[O-])cc7)c7ccc4[nH]7)C=C6)C=C5)cc3)CC[C@@]3(C)C(=CC[C@@H]4[C@@]5(C)CC[C@H](O)C(C)(C)[C@@H]5CC[C@]43C)[C@H]12
REMARK SMILES IDX 15 1 14 2 13 3 12 4 11 5 10 6 8 7 9 8 7 9 1 10 2 11 3 12
REMARK SMILES IDX 104 13 4 14 5 15 86 16 6 17 82 18 84 19 87 20 83 21 85 22
REMARK SMILES IDX 102 23 88 24 89 25 101 26 103 27 90 28 100 29 91 30 92 31
REMARK SMILES IDX 99 32 93 33 96 34 94 35 97 36 98 37 95 38 16 40 17 41 18 42
REMARK SMILES IDX 19 43 20 44 21 45 22 46 23 47 81 48 24 49 80 50 25 51 26 52
REMARK SMILES IDX 27 53 74 54 28 55 79 56 73 57 75 58 29 59 78 60 72 61 71 62
REMARK SMILES IDX 30 64 60 65 41 66 59 67 42 68 45 69 58 70 76 71 43 72 44 73
REMARK SMILES IDX 57 75 77 76 46 77 31 78 32 79 40 80 33 81 39 82 34 83 35 84
REMARK SMILES IDX 36 85 37 86 38 87 61 88 62 89 70 90 63 91 69 92 64 93 65 94
REMARK SMILES IDX 66 95 67 96 68 97 47 98 48 99 56 100 49 101 55 102 50 103
REMARK SMILES IDX 51 104 52 105 53 106 54 107
REMARK H PARENT 95 39 75 63 45 74
REMARK Flexibility Score: inf
ROOT
ATOM      1  C   UNL     1      -3.091  -0.627   3.003  1.00  0.00     0.188 C 
ENDROOT
BRANCH   1   2
ATOM      2  C   UNL     1      -3.040   0.930   3.112  1.00  0.00     0.188 C 
BRANCH   2   3
ATOM      3  O   UNL     1      -3.438   1.574   1.921  1.00  0.00    -0.376 OA
BRANCH   3   4
ATOM      4  C   UNL     1      -2.365   1.752   1.030  1.00  0.00     0.202 C 
BRANCH   4   5
ATOM      5  C   UNL     1      -1.382   0.594   0.895  1.00  0.00     0.261 C 
BRANCH   5   6
ATOM      6  O   UNL     1      -0.343   0.286   1.918  1.00  0.00    -0.463 OA
BRANCH   6   7
ATOM      7  C   UNL     1      -0.007  -0.056   3.186  1.00  0.00     0.312 C 
ATOM      8  O   UNL     1      -0.728  -0.086   4.175  1.00  0.00    -0.252 OA
BRANCH   7   9
ATOM      9  C   UNL     1       1.460  -0.547   3.258  1.00  0.00     0.075 C 
ATOM     10  C   UNL     1       2.769  -0.074  -0.470  1.00  0.00     0.008 C 
ATOM     11  C   UNL     1       1.910  -0.552   0.702  1.00  0.00    -0.003 C 
ATOM     12  C   UNL     1       1.791  -2.120   0.721  1.00  0.00    -0.011 C 
ATOM     13  C   UNL     1       2.299   0.121   2.126  1.00  0.00     0.036 C 
ATOM     14  C   UNL     1       1.088  -2.703  -0.524  1.00  0.00     0.008 C 
ATOM     15  C   UNL     1       0.994  -2.661   1.912  1.00  0.00     0.005 C 
ATOM     16  C   UNL     1       2.105   1.676   2.416  1.00  0.00    -0.063 C 
ATOM     17  C   UNL     1       1.452  -2.084   3.224  1.00  0.00     0.020 C 
ATOM     18  C   UNL     1       2.069  -0.187   4.634  1.00  0.00     0.020 C 
ATOM     19  C   UNL     1       2.458   2.247   3.859  1.00  0.00    -0.006 C 
ATOM     20  C   UNL     1       1.399   2.443   1.564  1.00  0.00    -0.027 C 
ATOM     21  C   UNL     1       1.955   1.289   4.971  1.00  0.00     0.013 C 
ATOM     22  C   UNL     1       4.004   2.272   3.964  1.00  0.00     0.017 C 
ATOM     23  C   UNL     1       1.829   3.760   4.138  1.00  0.00    -0.020 C 
ATOM     24  C   UNL     1       0.630   3.664   1.975  1.00  0.00     0.032 C 
ATOM     25  C   UNL     1       0.388   3.782   3.508  1.00  0.00     0.006 C 
ATOM     26  C   UNL     1       1.716   4.146   5.636  1.00  0.00     0.008 C 
ATOM     27  C   UNL     1       2.753   4.835   3.493  1.00  0.00     0.012 C 
ATOM     28  C   UNL     1      -0.647   4.944   3.944  1.00  0.00    -0.025 C 
ATOM     29  C   UNL     1       1.036   5.511   5.858  1.00  0.00     0.005 C 
ATOM     30  C   UNL     1      -0.651   6.033   2.848  1.00  0.00     0.012 C 
ATOM     31  C   UNL     1      -2.115   4.386   4.007  1.00  0.00     0.010 C 
ATOM     32  C   UNL     1      -0.432   5.462   5.423  1.00  0.00     0.003 C 
ATOM     33  C   UNL     1      -3.167   5.436   4.413  1.00  0.00     0.033 C 
ATOM     34  C   UNL     1      -1.326   6.711   5.819  1.00  0.00    -0.006 C 
ATOM     35  C   UNL     1      -2.824   6.282   5.652  1.00  0.00     0.120 C 
ATOM     36  C   UNL     1      -0.978   8.022   5.070  1.00  0.00     0.014 C 
ATOM     37  C   UNL     1      -1.133   7.081   7.318  1.00  0.00     0.014 C 
BRANCH  35  38
ATOM     38  O   UNL     1      -3.704   7.409   5.696  1.00  0.00    -0.393 OA
ATOM     39  H   UNL     1      -3.547   7.973   4.923  1.00  0.00     0.210 HD
ENDBRANCH  35  38
ENDBRANCH   7   9
ENDBRANCH   6   7
ENDBRANCH   5   6
ENDBRANCH   4   5
ENDBRANCH   3   4
ENDBRANCH   2   3
ENDBRANCH   1   2
BRANCH   1  40
ATOM     40  O   UNL     1      -3.920  -1.235   2.022  1.00  0.00    -0.376 OA
BRANCH  40  41
ATOM     41  C   UNL     1      -5.166  -0.631   1.752  1.00  0.00     0.202 C 
BRANCH  41  42
ATOM     42  C   UNL     1      -6.119  -0.409   2.940  1.00  0.00     0.261 C 
BRANCH  42  43
ATOM     43  O   UNL     1      -5.585   0.295   4.091  1.00  0.00    -0.460 OA
BRANCH  43  44
ATOM     44  C   UNL     1      -5.261  -0.462   5.182  1.00  0.00     0.338 C 
ATOM     45  O   UNL     1      -5.483  -1.651   5.303  1.00  0.00    -0.246 OA
BRANCH  44  46
ATOM     46  C   UNL     1      -4.399   0.283   6.165  1.00  0.00     0.060 A 
ATOM     47  C   UNL     1      -3.226  -0.339   6.631  1.00  0.00     0.016 A 
ATOM     48  C   UNL     1      -4.759   1.521   6.700  1.00  0.00     0.016 A 
ATOM     49  C   UNL     1      -2.487   0.201   7.696  1.00  0.00     0.010 A 
ATOM     50  C   UNL     1      -4.029   2.054   7.784  1.00  0.00     0.010 A 
ATOM     51  C   UNL     1      -2.933   1.359   8.341  1.00  0.00    -0.014 A 
BRANCH  51  52
ATOM     52  C   UNL     1      -2.481   1.649   9.741  1.00  0.00     0.031 A 
ATOM     53  C   UNL     1      -3.382   1.203  10.876  1.00  0.00     0.074 A 
ATOM     54  C   UNL     1      -1.307   2.237  10.047  1.00  0.00     0.049 A 
ATOM     55  N   UNL     1      -3.249   1.369  12.169  1.00  0.00    -0.248 NA
ATOM     56  C   UNL     1      -4.602   0.473  10.491  1.00  0.00     0.031 C 
ATOM     57  C   UNL     1      -0.290   2.665   9.091  1.00  0.00     0.029 A 
ATOM     58  N   UNL     1      -0.776   2.580  11.274  1.00  0.00    -0.354 N 
ATOM     59  C   UNL     1      -4.375   0.786  12.745  1.00  0.00     0.074 A 
ATOM     60  C   UNL     1      -5.193   0.291  11.660  1.00  0.00     0.031 C 
ATOM     61  C   UNL     1       0.733   3.228   9.762  1.00  0.00     0.029 A 
ATOM     62  C   UNL     1       0.437   3.228  11.198  1.00  0.00     0.049 A 
ATOM     63  H   UNL     1      -1.224   2.380  12.127  1.00  0.00     0.167 HD
ATOM     64  C   UNL     1      -4.707   0.661  14.053  1.00  0.00     0.031 A 
ATOM     65  C   UNL     1       1.211   3.772  12.163  1.00  0.00     0.031 A 
ATOM     66  C   UNL     1      -3.910   1.146  15.148  1.00  0.00     0.049 A 
ATOM     67  C   UNL     1       0.788   3.691  13.614  1.00  0.00     0.074 A 
ATOM     68  C   UNL     1      -4.166   1.046  16.506  1.00  0.00     0.029 A 
ATOM     69  N   UNL     1      -2.712   1.828  15.018  1.00  0.00    -0.354 N 
ATOM     70  N   UNL     1      -0.271   3.121  14.139  1.00  0.00    -0.248 NA
ATOM     71  C   UNL     1       1.677   4.320  14.606  1.00  0.00     0.031 C 
ATOM     72  C   UNL     1      -3.154   1.723  17.194  1.00  0.00     0.029 A 
ATOM     73  C   UNL     1      -2.230   2.180  16.269  1.00  0.00     0.049 A 
ATOM     74  H   UNL     1      -2.268   2.032  14.163  1.00  0.00     0.167 HD
ATOM     75  C   UNL     1      -0.155   3.293  15.518  1.00  0.00     0.074 A 
ATOM     76  C   UNL     1       1.082   4.007  15.749  1.00  0.00     0.031 C 
ATOM     77  C   UNL     1      -0.998   2.890  16.503  1.00  0.00     0.031 A 
BRANCH  64  78
ATOM     78  C   UNL     1      -6.024  -0.000  14.373  1.00  0.00    -0.014 A 
ATOM     79  C   UNL     1      -6.225  -1.378  14.169  1.00  0.00     0.010 A 
ATOM     80  C   UNL     1      -7.070   0.769  14.918  1.00  0.00     0.010 A 
ATOM     81  C   UNL     1      -7.459  -1.964  14.461  1.00  0.00     0.020 A 
ATOM     82  C   UNL     1      -8.295   0.180  15.242  1.00  0.00     0.020 A 
ATOM     83  C   UNL     1      -8.488  -1.180  14.994  1.00  0.00     0.054 A 
BRANCH  83  84
ATOM     84  S   UNL     1     -10.073  -1.972  15.383  1.00  0.00     0.124 S 
ATOM     85  O   UNL     1     -10.616  -2.228  14.051  1.00  0.00    -0.237 OA
ATOM     86  O   UNL     1      -9.663  -3.156  16.133  1.00  0.00    -0.237 OA
ATOM     87  O   UNL     1     -10.785  -0.961  16.161  1.00  0.00    -0.744 OA
ENDBRANCH  83  84
ENDBRANCH  64  78
BRANCH  65  88
ATOM     88  C   UNL     1       2.478   4.476  11.800  1.00  0.00    -0.014 A 
ATOM     89  C   UNL     1       3.730   3.954  12.176  1.00  0.00     0.010 A 
ATOM     90  C   UNL     1       2.436   5.695  11.098  1.00  0.00     0.010 A 
ATOM     91  C   UNL     1       4.910   4.641  11.868  1.00  0.00     0.020 A 
ATOM     92  C   UNL     1       3.614   6.369  10.762  1.00  0.00     0.020 A 
ATOM     93  C   UNL     1       4.845   5.841  11.156  1.00  0.00     0.054 A 
BRANCH  93  94
ATOM     94  S   UNL     1       6.391   6.680  10.709  1.00  0.00     0.124 S 
ATOM     95  O   UNL     1       6.846   7.194  11.997  1.00  0.00    -0.237 OA
ATOM     96  O   UNL     1       7.186   5.593  10.143  1.00  0.00    -0.237 OA
ATOM     97  O   UNL     1       5.964   7.693   9.746  1.00  0.00    -0.744 OA
ENDBRANCH  93  94
ENDBRANCH  65  88
BRANCH  77  98
ATOM     98  C   UNL     1      -0.599   3.161  17.935  1.00  0.00    -0.014 A 
ATOM     99  C   UNL     1      -0.588   4.463  18.467  1.00  0.00     0.010 A 
ATOM    100  C   UNL     1      -0.281   2.081  18.781  1.00  0.00     0.010 A 
ATOM    101  C   UNL     1      -0.224   4.683  19.801  1.00  0.00     0.020 A 
ATOM    102  C   UNL     1       0.052   2.292  20.123  1.00  0.00     0.020 A 
ATOM    103  C   UNL     1       0.097   3.596  20.620  1.00  0.00     0.054 A 
BRANCH 103 104
ATOM    104  S   UNL     1       0.544   3.904  22.352  1.00  0.00     0.124 S 
ATOM    105  O   UNL     1       1.874   4.494  22.223  1.00  0.00    -0.237 OA
ATOM    106  O   UNL     1      -0.507   4.816  22.797  1.00  0.00    -0.237 OA
ATOM    107  O   UNL     1       0.509   2.577  22.962  1.00  0.00    -0.744 OA
ENDBRANCH 103 104
ENDBRANCH  77  98
ENDBRANCH  51  52
ENDBRANCH  44  46
ENDBRANCH  43  44
ENDBRANCH  42  43
ENDBRANCH  41  42
ENDBRANCH  40  41
ENDBRANCH   1  40
TORSDOF 21
