REMARK SMILES O=C(CN1C(=O)c2ccccc2[C@@H]1O)OCCOCCOCCOC(=O)c1ccc(-c2c3nc(c(-c4ccc(S(=O)(=O)[O-])cc4)c4ccc([nH]4)c(-c4ccc(S(=O)(=O)[O-])cc4)c4nc(c(-c5ccc(S(=O)(=O)[O-])cc5)c5ccc2[nH]5)C=C4)C=C3)cc1
REMARK SMILES IDX 20 1 19 2 18 3 17 4 16 5 15 6 2 7 1 8 3 9 4 10 5 11 13 12
REMARK SMILES IDX 6 13 7 14 12 15 8 16 11 17 9 18 10 19 14 20 21 22 22 23
REMARK SMILES IDX 23 24 24 25 25 26 26 27 27 28 28 29 86 30 29 31 85 32 30 33
REMARK SMILES IDX 31 34 32 35 79 36 33 37 84 38 78 39 80 40 34 41 83 42 77 43
REMARK SMILES IDX 76 44 35 46 65 47 46 48 64 49 47 50 50 51 63 52 81 53 48 54
REMARK SMILES IDX 49 55 62 57 82 58 51 59 36 60 37 61 45 62 38 63 44 64 39 65
REMARK SMILES IDX 40 66 41 67 42 68 43 69 66 70 67 71 75 72 68 73 74 74 69 75
REMARK SMILES IDX 70 76 71 77 72 78 73 79 52 80 53 81 61 82 54 83 60 84 55 85
REMARK SMILES IDX 56 86 57 87 58 88 59 89
REMARK H PARENT 14 21 80 45 50 56
REMARK Flexibility Score: inf
ROOT
ATOM      1  C   UNL     1       2.356   1.510  -2.400  1.00  0.00     0.188 C 
ENDROOT
BRANCH   1   2
ATOM      2  C   UNL     1       3.200   1.790  -1.146  1.00  0.00     0.188 C 
BRANCH   2   3
ATOM      3  O   UNL     1       4.557   1.421  -1.278  1.00  0.00    -0.376 OA
BRANCH   3   4
ATOM      4  C   UNL     1       5.042   0.432  -0.398  1.00  0.00     0.202 C 
BRANCH   4   5
ATOM      5  C   UNL     1       4.431  -0.958  -0.565  1.00  0.00     0.261 C 
BRANCH   5   6
ATOM      6  O   UNL     1       2.992  -1.083  -0.517  1.00  0.00    -0.462 OA
BRANCH   6   7
ATOM      7  C   UNL     1       2.114  -0.802   0.470  1.00  0.00     0.325 C 
ATOM      8  O   UNL     1       0.908  -0.852   0.219  1.00  0.00    -0.250 OA
BRANCH   7   9
ATOM      9  C   UNL     1       2.586  -0.216   1.793  1.00  0.00     0.245 C 
BRANCH   9  10
ATOM     10  N   UNL     1       3.687  -0.874   2.448  1.00  0.00    -0.298 N 
ATOM     11  C   UNL     1       4.727  -0.207   3.064  1.00  0.00     0.257 C 
ATOM     12  C   UNL     1       3.565  -2.238   2.882  1.00  0.00     0.247 C 
ATOM     13  O   UNL     1       5.021   0.972   2.996  1.00  0.00    -0.269 OA
ATOM     14  C   UNL     1       5.464  -1.207   3.833  1.00  0.00     0.047 A 
ATOM     15  C   UNL     1       4.796  -2.423   3.699  1.00  0.00     0.014 A 
ATOM     16  C   UNL     1       6.614  -1.061   4.579  1.00  0.00     0.014 A 
ATOM     17  C   UNL     1       5.284  -3.562   4.307  1.00  0.00     0.009 A 
ATOM     18  C   UNL     1       7.107  -2.205   5.206  1.00  0.00     0.001 A 
ATOM     19  C   UNL     1       6.451  -3.444   5.066  1.00  0.00     0.001 A 
BRANCH  12  20
ATOM     20  O   UNL     1       3.538  -3.067   1.748  1.00  0.00    -0.369 OA
ATOM     21  H   UNL     1       4.323  -2.897   1.204  1.00  0.00     0.213 HD
ENDBRANCH  12  20
ENDBRANCH   9  10
ENDBRANCH   7   9
ENDBRANCH   6   7
ENDBRANCH   5   6
ENDBRANCH   4   5
ENDBRANCH   3   4
ENDBRANCH   2   3
ENDBRANCH   1   2
BRANCH   1  22
ATOM     22  O   UNL     1       2.986   1.078  -3.599  1.00  0.00    -0.376 OA
BRANCH  22  23
ATOM     23  C   UNL     1       4.266   1.587  -3.939  1.00  0.00     0.202 C 
BRANCH  23  24
ATOM     24  C   UNL     1       4.494   3.112  -3.998  1.00  0.00     0.261 C 
BRANCH  24  25
ATOM     25  O   UNL     1       4.089   3.882  -2.846  1.00  0.00    -0.460 OA
BRANCH  25  26
ATOM     26  C   UNL     1       2.981   4.651  -3.004  1.00  0.00     0.338 C 
ATOM     27  O   UNL     1       2.321   4.769  -4.024  1.00  0.00    -0.246 OA
BRANCH  26  28
ATOM     28  C   UNL     1       2.531   5.229  -1.711  1.00  0.00     0.060 A 
ATOM     29  C   UNL     1       1.254   4.883  -1.245  1.00  0.00     0.016 A 
ATOM     30  C   UNL     1       3.295   6.163  -1.008  1.00  0.00     0.016 A 
ATOM     31  C   UNL     1       0.717   5.504  -0.116  1.00  0.00     0.010 A 
ATOM     32  C   UNL     1       2.743   6.804   0.116  1.00  0.00     0.010 A 
ATOM     33  C   UNL     1       1.433   6.512   0.543  1.00  0.00    -0.014 A 
BRANCH  33  34
ATOM     34  C   UNL     1       0.723   7.363   1.541  1.00  0.00     0.031 A 
ATOM     35  C   UNL     1       0.211   8.718   1.114  1.00  0.00     0.074 A 
ATOM     36  C   UNL     1       0.454   6.915   2.783  1.00  0.00     0.049 A 
ATOM     37  N   UNL     1      -0.476   9.600   1.796  1.00  0.00    -0.248 NA
ATOM     38  C   UNL     1       0.512   9.131  -0.266  1.00  0.00     0.031 C 
ATOM     39  C   UNL     1       0.852   5.614   3.318  1.00  0.00     0.029 A 
ATOM     40  N   UNL     1      -0.229   7.508   3.818  1.00  0.00    -0.354 N 
ATOM     41  C   UNL     1      -0.697  10.665   0.928  1.00  0.00     0.074 A 
ATOM     42  C   UNL     1      -0.031  10.339  -0.314  1.00  0.00     0.031 C 
ATOM     43  C   UNL     1       0.410   5.509   4.584  1.00  0.00     0.029 A 
ATOM     44  C   UNL     1      -0.280   6.742   4.960  1.00  0.00     0.049 A 
ATOM     45  H   UNL     1      -0.643   8.399   3.750  1.00  0.00     0.167 HD
ATOM     46  C   UNL     1      -1.402  11.804   1.134  1.00  0.00     0.031 A 
ATOM     47  C   UNL     1      -0.807   7.006   6.174  1.00  0.00     0.031 A 
ATOM     48  C   UNL     1      -2.050  12.145   2.375  1.00  0.00     0.049 A 
ATOM     49  C   UNL     1      -1.524   8.314   6.404  1.00  0.00     0.074 A 
ATOM     50  C   UNL     1      -2.785  13.279   2.679  1.00  0.00     0.029 A 
ATOM     51  N   UNL     1      -2.040  11.361   3.519  1.00  0.00    -0.354 N 
ATOM     52  N   UNL     1      -1.742   9.298   5.563  1.00  0.00    -0.248 NA
ATOM     53  C   UNL     1      -2.083   8.537   7.745  1.00  0.00     0.031 C 
ATOM     54  C   UNL     1      -3.166  13.209   4.024  1.00  0.00     0.029 A 
ATOM     55  C   UNL     1      -2.732  11.997   4.537  1.00  0.00     0.049 A 
ATOM     56  H   UNL     1      -1.604  10.481   3.596  1.00  0.00     0.167 HD
ATOM     57  C   UNL     1      -2.481  10.245   6.268  1.00  0.00     0.074 A 
ATOM     58  C   UNL     1      -2.701   9.700   7.591  1.00  0.00     0.031 C 
ATOM     59  C   UNL     1      -2.935  11.457   5.858  1.00  0.00     0.031 A 
BRANCH  46  60
ATOM     60  C   UNL     1      -1.495  12.785  -0.009  1.00  0.00    -0.014 A 
ATOM     61  C   UNL     1      -2.255  12.493  -1.157  1.00  0.00     0.010 A 
ATOM     62  C   UNL     1      -0.863  14.038   0.089  1.00  0.00     0.010 A 
ATOM     63  C   UNL     1      -2.355  13.423  -2.197  1.00  0.00     0.020 A 
ATOM     64  C   UNL     1      -0.985  14.982  -0.935  1.00  0.00     0.020 A 
ATOM     65  C   UNL     1      -1.721  14.663  -2.078  1.00  0.00     0.054 A 
BRANCH  65  66
ATOM     66  S   UNL     1      -1.903  15.864  -3.425  1.00  0.00     0.124 S 
ATOM     67  O   UNL     1      -1.119  15.244  -4.491  1.00  0.00    -0.237 OA
ATOM     68  O   UNL     1      -3.348  15.886  -3.640  1.00  0.00    -0.237 OA
ATOM     69  O   UNL     1      -1.339  17.094  -2.874  1.00  0.00    -0.744 OA
ENDBRANCH  65  66
ENDBRANCH  46  60
BRANCH  47  70
ATOM     70  C   UNL     1      -0.652   6.024   7.287  1.00  0.00    -0.014 A 
ATOM     71  C   UNL     1      -1.763   5.364   7.841  1.00  0.00     0.010 A 
ATOM     72  C   UNL     1       0.626   5.766   7.818  1.00  0.00     0.010 A 
ATOM     73  C   UNL     1      -1.602   4.484   8.918  1.00  0.00     0.020 A 
ATOM     74  C   UNL     1       0.795   4.861   8.870  1.00  0.00     0.020 A 
ATOM     75  C   UNL     1      -0.322   4.236   9.423  1.00  0.00     0.054 A 
BRANCH  75  76
ATOM     76  S   UNL     1      -0.130   3.056  10.789  1.00  0.00     0.124 S 
ATOM     77  O   UNL     1      -0.694   3.796  11.913  1.00  0.00    -0.237 OA
ATOM     78  O   UNL     1      -0.911   1.911  10.327  1.00  0.00    -0.237 OA
ATOM     79  O   UNL     1       1.313   2.831  10.847  1.00  0.00    -0.744 OA
ENDBRANCH  75  76
ENDBRANCH  47  70
BRANCH  59  80
ATOM     80  C   UNL     1      -3.740  12.265   6.848  1.00  0.00    -0.014 A 
ATOM     81  C   UNL     1      -3.152  12.805   8.007  1.00  0.00     0.010 A 
ATOM     82  C   UNL     1      -5.108  12.497   6.609  1.00  0.00     0.010 A 
ATOM     83  C   UNL     1      -3.929  13.502   8.937  1.00  0.00     0.020 A 
ATOM     84  C   UNL     1      -5.880  13.225   7.519  1.00  0.00     0.020 A 
ATOM     85  C   UNL     1      -5.290  13.701   8.691  1.00  0.00     0.054 A 
BRANCH  85  86
ATOM     86  S   UNL     1      -6.277  14.602   9.918  1.00  0.00     0.124 S 
ATOM     87  O   UNL     1      -6.372  13.630  11.004  1.00  0.00    -0.237 OA
ATOM     88  O   UNL     1      -5.452  15.775  10.194  1.00  0.00    -0.237 OA
ATOM     89  O   UNL     1      -7.531  14.879   9.220  1.00  0.00    -0.744 OA
ENDBRANCH  85  86
ENDBRANCH  59  80
ENDBRANCH  33  34
ENDBRANCH  26  28
ENDBRANCH  25  26
ENDBRANCH  24  25
ENDBRANCH  23  24
ENDBRANCH  22  23
ENDBRANCH   1  22
TORSDOF 22
