REMARK SMILES O=C(Cn1cc(NC(=O)N2CC[N@@H+]3CCC[C@@H]3C2)cn1)OCCOCCOCCOC(=O)c1ccc(-c2c3nc(c(-c4ccc(S(=O)(=O)[O-])cc4)c4ccc([nH]4)c(-c4ccc(S(=O)(=O)[O-])cc4)c4nc(c(-c5ccc(S(=O)(=O)[O-])cc5)c5ccc2[nH]5)C=C4)C=C3)cc1
REMARK SMILES IDX 25 1 24 2 23 3 22 4 21 5 2 6 1 7 3 8 4 9 5 10 20 11 6 12
REMARK SMILES IDX 19 13 7 14 8 15 9 17 10 18 11 19 18 20 12 21 17 22 13 23
REMARK SMILES IDX 16 24 14 25 15 27 26 28 27 29 28 30 29 31 30 32 31 33 32 34
REMARK SMILES IDX 33 35 34 36 92 37 35 38 91 39 36 40 37 41 38 42 85 43 39 44
REMARK SMILES IDX 90 45 84 46 86 47 40 48 89 49 83 50 82 51 41 53 71 54 52 55
REMARK SMILES IDX 70 56 53 57 56 58 69 59 87 60 54 61 55 62 68 64 88 65 57 66
REMARK SMILES IDX 42 67 43 68 51 69 44 70 50 71 45 72 46 73 47 74 48 75 49 76
REMARK SMILES IDX 72 77 73 78 81 79 74 80 80 81 75 82 76 83 77 84 78 85 79 86
REMARK SMILES IDX 58 87 59 88 67 89 60 90 66 91 61 92 62 93 63 94 64 95 65 96
REMARK H PARENT 7 16 13 26 86 52 56 63
REMARK Flexibility Score: inf
ROOT
ATOM      1  C   UNL     1       2.460   1.809   0.790  1.00  0.00     0.188 C 
ENDROOT
BRANCH   1   2
ATOM      2  O   UNL     1       3.829   1.599   1.060  1.00  0.00    -0.376 OA
BRANCH   2   3
ATOM      3  C   UNL     1       4.709   1.030   0.115  1.00  0.00     0.202 C 
BRANCH   3   4
ATOM      4  C   UNL     1       4.213   0.191  -1.065  1.00  0.00     0.261 C 
BRANCH   4   5
ATOM      5  O   UNL     1       3.001  -0.597  -1.002  1.00  0.00    -0.462 OA
BRANCH   5   6
ATOM      6  C   UNL     1       2.407  -1.383  -0.086  1.00  0.00     0.327 C 
ATOM      7  O   UNL     1       1.401  -2.009  -0.427  1.00  0.00    -0.250 OA
BRANCH   6   8
ATOM      8  C   UNL     1       2.899  -1.444   1.329  1.00  0.00     0.266 C 
BRANCH   8   9
ATOM      9  N   UNL     1       3.962  -2.396   1.498  1.00  0.00    -0.259 N 
ATOM     10  C   UNL     1       5.208  -2.348   0.952  1.00  0.00     0.135 A 
ATOM     11  N   UNL     1       3.752  -3.497   2.241  1.00  0.00    -0.179 NA
ATOM     12  C   UNL     1       5.699  -3.613   1.067  1.00  0.00     0.081 A 
ATOM     13  C   UNL     1       4.821  -4.247   1.972  1.00  0.00     0.161 A 
BRANCH  12  14
ATOM     14  N   UNL     1       6.787  -4.059   0.356  1.00  0.00    -0.305 N 
ATOM     15  C   UNL     1       7.044  -5.368   0.075  1.00  0.00     0.322 C 
ATOM     16  H   UNL     1       7.426  -3.386   0.026  1.00  0.00     0.171 HD
ATOM     17  O   UNL     1       8.189  -5.744  -0.162  1.00  0.00    -0.248 OA
BRANCH  15  18
ATOM     18  N   UNL     1       5.964  -6.216   0.082  1.00  0.00    -0.313 N 
ATOM     19  C   UNL     1       4.787  -6.019  -0.782  1.00  0.00     0.183 C 
ATOM     20  C   UNL     1       6.047  -7.433   0.852  1.00  0.00     0.186 C 
ATOM     21  C   UNL     1       3.728  -7.130  -0.654  1.00  0.00     0.284 C 
ATOM     22  C   UNL     1       5.540  -8.653   0.090  1.00  0.00     0.204 C 
ATOM     23  N   UNL     1       4.273  -8.495  -0.661  1.00  0.00    -0.330 N 
ATOM     24  C   UNL     1       5.317  -9.819   1.050  1.00  0.00     0.073 C 
ATOM     25  C   UNL     1       3.313  -9.479  -0.152  1.00  0.00     0.262 C 
ATOM     26  H   UNL     1       4.469  -8.668  -1.647  1.00  0.00     0.348 HD
ATOM     27  C   UNL     1       4.183 -10.588   0.411  1.00  0.00     0.068 C 
ENDBRANCH  15  18
ENDBRANCH  12  14
ENDBRANCH   8   9
ENDBRANCH   6   8
ENDBRANCH   5   6
ENDBRANCH   4   5
ENDBRANCH   3   4
ENDBRANCH   2   3
ENDBRANCH   1   2
BRANCH   1  28
ATOM     28  C   UNL     1       2.000   2.978  -0.077  1.00  0.00     0.188 C 
BRANCH  28  29
ATOM     29  O   UNL     1       2.750   3.306  -1.224  1.00  0.00    -0.376 OA
BRANCH  29  30
ATOM     30  C   UNL     1       3.979   4.018  -1.158  1.00  0.00     0.202 C 
BRANCH  30  31
ATOM     31  C   UNL     1       4.482   4.834   0.037  1.00  0.00     0.261 C 
BRANCH  31  32
ATOM     32  O   UNL     1       4.306   4.200   1.290  1.00  0.00    -0.460 OA
BRANCH  32  33
ATOM     33  C   UNL     1       3.288   4.717   2.011  1.00  0.00     0.338 C 
ATOM     34  O   UNL     1       2.533   5.608   1.663  1.00  0.00    -0.246 OA
BRANCH  33  35
ATOM     35  C   UNL     1       3.222   4.085   3.341  1.00  0.00     0.060 A 
ATOM     36  C   UNL     1       2.151   4.556   4.106  1.00  0.00     0.016 A 
ATOM     37  C   UNL     1       4.450   3.727   3.905  1.00  0.00     0.016 A 
ATOM     38  C   UNL     1       2.464   5.136   5.306  1.00  0.00     0.010 A 
ATOM     39  C   UNL     1       4.764   4.309   5.104  1.00  0.00     0.010 A 
ATOM     40  C   UNL     1       3.803   5.124   5.700  1.00  0.00    -0.014 A 
BRANCH  40  41
ATOM     41  C   UNL     1       4.192   6.019   6.762  1.00  0.00     0.031 A 
ATOM     42  C   UNL     1       3.838   5.492   8.089  1.00  0.00     0.074 A 
ATOM     43  C   UNL     1       4.891   7.144   6.519  1.00  0.00     0.049 A 
ATOM     44  N   UNL     1       2.924   5.918   8.894  1.00  0.00    -0.248 NA
ATOM     45  C   UNL     1       4.428   4.195   8.461  1.00  0.00     0.031 C 
ATOM     46  C   UNL     1       5.512   7.580   5.263  1.00  0.00     0.029 A 
ATOM     47  N   UNL     1       5.316   8.080   7.404  1.00  0.00    -0.354 N 
ATOM     48  C   UNL     1       2.990   5.064   9.985  1.00  0.00     0.074 A 
ATOM     49  C   UNL     1       3.728   3.904   9.554  1.00  0.00     0.031 C 
ATOM     50  C   UNL     1       6.441   8.526   5.537  1.00  0.00     0.029 A 
ATOM     51  C   UNL     1       6.387   8.842   6.956  1.00  0.00     0.049 A 
ATOM     52  H   UNL     1       4.901   8.208   8.287  1.00  0.00     0.167 HD
ATOM     53  C   UNL     1       2.732   5.497  11.247  1.00  0.00     0.031 A 
ATOM     54  C   UNL     1       7.226   9.575   7.735  1.00  0.00     0.031 A 
ATOM     55  C   UNL     1       2.034   6.755  11.257  1.00  0.00     0.049 A 
ATOM     56  C   UNL     1       6.538   9.783   9.038  1.00  0.00     0.074 A 
ATOM     57  C   UNL     1       0.824   7.194  10.757  1.00  0.00     0.029 A 
ATOM     58  N   UNL     1       2.781   7.886  11.494  1.00  0.00    -0.354 N 
ATOM     59  N   UNL     1       5.445  10.484   9.167  1.00  0.00    -0.248 NA
ATOM     60  C   UNL     1       6.779   8.816  10.101  1.00  0.00     0.031 C 
ATOM     61  C   UNL     1       1.075   8.515  10.286  1.00  0.00     0.029 A 
ATOM     62  C   UNL     1       2.404   8.835  10.576  1.00  0.00     0.049 A 
ATOM     63  H   UNL     1       3.464   7.995  12.195  1.00  0.00     0.167 HD
ATOM     64  C   UNL     1       4.660   9.770  10.063  1.00  0.00     0.074 A 
ATOM     65  C   UNL     1       5.570   8.800  10.672  1.00  0.00     0.031 C 
ATOM     66  C   UNL     1       3.295   9.832  10.019  1.00  0.00     0.031 A 
BRANCH  53  67
ATOM     67  C   UNL     1       3.507   4.986  12.432  1.00  0.00    -0.014 A 
ATOM     68  C   UNL     1       3.097   5.345  13.726  1.00  0.00     0.010 A 
ATOM     69  C   UNL     1       4.777   4.380  12.303  1.00  0.00     0.010 A 
ATOM     70  C   UNL     1       3.940   5.146  14.828  1.00  0.00     0.020 A 
ATOM     71  C   UNL     1       5.601   4.130  13.396  1.00  0.00     0.020 A 
ATOM     72  C   UNL     1       5.190   4.548  14.650  1.00  0.00     0.054 A 
BRANCH  72  73
ATOM     73  S   UNL     1       6.313   4.391  16.057  1.00  0.00     0.124 S 
ATOM     74  O   UNL     1       6.619   5.788  16.350  1.00  0.00    -0.237 OA
ATOM     75  O   UNL     1       5.483   3.700  17.038  1.00  0.00    -0.237 OA
ATOM     76  O   UNL     1       7.423   3.605  15.522  1.00  0.00    -0.744 OA
ENDBRANCH  72  73
ENDBRANCH  53  67
BRANCH  54  77
ATOM     77  C   UNL     1       8.698   9.719   7.566  1.00  0.00    -0.014 A 
ATOM     78  C   UNL     1       9.435  10.671   8.296  1.00  0.00     0.010 A 
ATOM     79  C   UNL     1       9.427   8.726   6.875  1.00  0.00     0.010 A 
ATOM     80  C   UNL     1      10.840  10.601   8.370  1.00  0.00     0.020 A 
ATOM     81  C   UNL     1      10.823   8.654   6.938  1.00  0.00     0.020 A 
ATOM     82  C   UNL     1      11.524   9.580   7.704  1.00  0.00     0.054 A 
BRANCH  82  83
ATOM     83  S   UNL     1      13.318   9.391   7.935  1.00  0.00     0.124 S 
ATOM     84  O   UNL     1      13.848  10.547   7.218  1.00  0.00    -0.237 OA
ATOM     85  O   UNL     1      13.458   9.428   9.388  1.00  0.00    -0.237 OA
ATOM     86  O   UNL     1      13.609   8.096   7.321  1.00  0.00    -0.744 OA
ENDBRANCH  82  83
ENDBRANCH  54  77
BRANCH  66  87
ATOM     87  C   UNL     1       2.657  10.880   9.130  1.00  0.00    -0.014 A 
ATOM     88  C   UNL     1       2.799  10.905   7.727  1.00  0.00     0.010 A 
ATOM     89  C   UNL     1       1.752  11.775   9.725  1.00  0.00     0.010 A 
ATOM     90  C   UNL     1       2.073  11.820   6.947  1.00  0.00     0.020 A 
ATOM     91  C   UNL     1       1.015  12.677   8.953  1.00  0.00     0.020 A 
ATOM     92  C   UNL     1       1.185  12.703   7.568  1.00  0.00     0.054 A 
BRANCH  92  93
ATOM     93  S   UNL     1       0.217  13.858   6.556  1.00  0.00     0.124 S 
ATOM     94  O   UNL     1       1.238  14.773   6.053  1.00  0.00    -0.237 OA
ATOM     95  O   UNL     1      -0.392  12.984   5.556  1.00  0.00    -0.237 OA
ATOM     96  O   UNL     1      -0.727  14.447   7.506  1.00  0.00    -0.744 OA
ENDBRANCH  92  93
ENDBRANCH  66  87
ENDBRANCH  40  41
ENDBRANCH  33  35
ENDBRANCH  32  33
ENDBRANCH  31  32
ENDBRANCH  30  31
ENDBRANCH  29  30
ENDBRANCH  28  29
ENDBRANCH   1  28
TORSDOF 23
