REMARK SMILES CN(Cc1ccncc1)C(=O)c1cccn1CC(=O)OCCOCCOCCOC(=O)c1ccc(-c2c3nc(c(-c4ccc(S(=O)(=O)[O-])cc4)c4ccc([nH]4)c(-c4ccc(S(=O)(=O)[O-])cc4)c4nc(c(-c5ccc(S(=O)(=O)[O-])cc5)c5ccc2[nH]5)C=C4)C=C3)cc1
REMARK SMILES IDX 24 1 23 2 22 3 21 4 20 5 18 6 19 7 17 8 16 9 12 10 13 11
REMARK SMILES IDX 14 12 15 13 10 14 11 15 2 16 1 17 3 18 4 19 5 20 9 21 6 22
REMARK SMILES IDX 8 23 7 24 25 25 26 26 27 27 28 28 29 29 30 30 31 31 32 32
REMARK SMILES IDX 33 33 91 34 34 35 90 36 35 37 36 38 37 39 84 40 38 41 89 42
REMARK SMILES IDX 83 43 85 44 39 45 88 46 82 47 81 48 40 50 70 51 51 52 69 53
REMARK SMILES IDX 52 54 55 55 68 56 86 57 53 58 54 59 67 61 87 62 56 63 41 64
REMARK SMILES IDX 42 65 50 66 43 67 49 68 44 69 45 70 46 71 47 72 48 73 71 74
REMARK SMILES IDX 72 75 80 76 73 77 79 78 74 79 75 80 76 81 77 82 78 83 57 84
REMARK SMILES IDX 58 85 66 86 59 87 65 88 60 89 61 90 62 91 63 92 64 93
REMARK H PARENT 85 49 55 60
REMARK Flexibility Score: inf
ROOT
ATOM      1  C   UNL     1       3.120   4.619   6.416  1.00  0.00     0.188 C 
ENDROOT
BRANCH   1   2
ATOM      2  O   UNL     1       4.512   4.553   6.098  1.00  0.00    -0.376 OA
BRANCH   2   3
ATOM      3  C   UNL     1       4.936   5.160   4.892  1.00  0.00     0.202 C 
BRANCH   3   4
ATOM      4  C   UNL     1       4.872   4.196   3.695  1.00  0.00     0.261 C 
BRANCH   4   5
ATOM      5  O   UNL     1       3.840   3.183   3.792  1.00  0.00    -0.462 OA
BRANCH   5   6
ATOM      6  C   UNL     1       4.209   1.980   4.298  1.00  0.00     0.326 C 
ATOM      7  O   UNL     1       5.380   1.668   4.513  1.00  0.00    -0.250 OA
BRANCH   6   8
ATOM      8  C   UNL     1       3.087   1.001   4.576  1.00  0.00     0.244 C 
BRANCH   8   9
ATOM      9  N   UNL     1       1.694   1.456   4.494  1.00  0.00    -0.332 N 
ATOM     10  C   UNL     1       0.818   1.363   3.407  1.00  0.00     0.107 A 
ATOM     11  C   UNL     1      -0.391   1.871   3.876  1.00  0.00     0.033 A 
ATOM     12  C   UNL     1      -0.288   2.165   5.250  1.00  0.00     0.020 A 
ATOM     13  C   UNL     1       0.985   1.826   5.622  1.00  0.00     0.087 A 
BRANCH  10  14
ATOM     14  C   UNL     1       1.136   0.706   2.137  1.00  0.00     0.270 C 
ATOM     15  O   UNL     1       1.994  -0.180   2.102  1.00  0.00    -0.267 OA
BRANCH  14  16
ATOM     16  N   UNL     1       0.468   1.020   0.942  1.00  0.00    -0.336 N 
ATOM     17  C   UNL     1       0.782   0.178  -0.204  1.00  0.00     0.147 C 
BRANCH  16  18
ATOM     18  C   UNL     1      -0.361   2.198   0.689  1.00  0.00     0.155 C 
BRANCH  18  19
ATOM     19  C   UNL     1      -1.839   2.021   0.958  1.00  0.00    -0.026 A 
ATOM     20  C   UNL     1      -2.626   3.167   1.149  1.00  0.00     0.025 A 
ATOM     21  C   UNL     1      -2.449   0.772   1.123  1.00  0.00     0.025 A 
ATOM     22  C   UNL     1      -3.942   3.017   1.560  1.00  0.00     0.111 A 
ATOM     23  C   UNL     1      -3.773   0.727   1.537  1.00  0.00     0.111 A 
ATOM     24  N   UNL     1      -4.530   1.821   1.758  1.00  0.00    -0.265 NA
ENDBRANCH  18  19
ENDBRANCH  16  18
ENDBRANCH  14  16
ENDBRANCH  10  14
ENDBRANCH   8   9
ENDBRANCH   6   8
ENDBRANCH   5   6
ENDBRANCH   4   5
ENDBRANCH   3   4
ENDBRANCH   2   3
ENDBRANCH   1   2
BRANCH   1  25
ATOM     25  C   UNL     1       2.072   4.894   5.319  1.00  0.00     0.188 C 
BRANCH  25  26
ATOM     26  O   UNL     1       2.301   6.114   4.615  1.00  0.00    -0.376 OA
BRANCH  26  27
ATOM     27  C   UNL     1       1.169   6.966   4.507  1.00  0.00     0.202 C 
BRANCH  27  28
ATOM     28  C   UNL     1       1.097   7.885   5.720  1.00  0.00     0.261 C 
BRANCH  28  29
ATOM     29  O   UNL     1       1.043   7.173   6.954  1.00  0.00    -0.460 OA
BRANCH  29  30
ATOM     30  C   UNL     1      -0.060   6.436   7.124  1.00  0.00     0.338 C 
ATOM     31  O   UNL     1      -0.902   6.117   6.274  1.00  0.00    -0.246 OA
BRANCH  30  32
ATOM     32  C   UNL     1      -0.241   6.149   8.528  1.00  0.00     0.060 A 
ATOM     33  C   UNL     1      -1.034   5.045   8.857  1.00  0.00     0.016 A 
ATOM     34  C   UNL     1      -0.008   7.220   9.398  1.00  0.00     0.016 A 
ATOM     35  C   UNL     1      -1.771   5.108  10.014  1.00  0.00     0.010 A 
ATOM     36  C   UNL     1      -0.798   7.316  10.510  1.00  0.00     0.010 A 
ATOM     37  C   UNL     1      -1.700   6.279  10.778  1.00  0.00    -0.014 A 
BRANCH  37  38
ATOM     38  C   UNL     1      -2.523   6.387  11.975  1.00  0.00     0.031 A 
ATOM     39  C   UNL     1      -1.745   5.910  13.198  1.00  0.00     0.074 A 
ATOM     40  C   UNL     1      -3.781   6.881  11.769  1.00  0.00     0.049 A 
ATOM     41  N   UNL     1      -2.185   5.572  14.364  1.00  0.00    -0.248 NA
ATOM     42  C   UNL     1      -0.263   5.724  13.111  1.00  0.00     0.031 C 
ATOM     43  C   UNL     1      -4.336   7.295  10.452  1.00  0.00     0.029 A 
ATOM     44  N   UNL     1      -4.846   7.140  12.598  1.00  0.00    -0.354 N 
ATOM     45  C   UNL     1      -1.064   5.343  15.185  1.00  0.00     0.074 A 
ATOM     46  C   UNL     1       0.089   5.363  14.344  1.00  0.00     0.031 C 
ATOM     47  C   UNL     1      -5.632   7.661  10.565  1.00  0.00     0.029 A 
ATOM     48  C   UNL     1      -6.035   7.568  11.954  1.00  0.00     0.049 A 
ATOM     49  H   UNL     1      -4.788   7.035  13.576  1.00  0.00     0.167 HD
ATOM     50  C   UNL     1      -1.149   5.278  16.540  1.00  0.00     0.031 A 
ATOM     51  C   UNL     1      -7.264   7.798  12.504  1.00  0.00     0.031 A 
ATOM     52  C   UNL     1      -2.510   5.332  16.951  1.00  0.00     0.049 A 
ATOM     53  C   UNL     1      -7.066   7.703  13.958  1.00  0.00     0.074 A 
ATOM     54  C   UNL     1      -3.541   4.437  16.827  1.00  0.00     0.029 A 
ATOM     55  N   UNL     1      -3.023   6.583  17.202  1.00  0.00    -0.354 N 
ATOM     56  N   UNL     1      -6.448   8.583  14.684  1.00  0.00    -0.248 NA
ATOM     57  C   UNL     1      -7.531   6.499  14.657  1.00  0.00     0.031 C 
ATOM     58  C   UNL     1      -4.652   5.255  16.531  1.00  0.00     0.029 A 
ATOM     59  C   UNL     1      -4.294   6.600  16.681  1.00  0.00     0.049 A 
ATOM     60  H   UNL     1      -2.567   7.323  17.665  1.00  0.00     0.167 HD
ATOM     61  C   UNL     1      -6.115   7.860  15.801  1.00  0.00     0.074 A 
ATOM     62  C   UNL     1      -7.052   6.758  15.871  1.00  0.00     0.031 C 
ATOM     63  C   UNL     1      -4.833   7.869  16.248  1.00  0.00     0.031 A 
BRANCH  50  64
ATOM     64  C   UNL     1      -0.087   5.411  17.587  1.00  0.00    -0.014 A 
ATOM     65  C   UNL     1      -0.448   5.034  18.902  1.00  0.00     0.010 A 
ATOM     66  C   UNL     1       1.067   6.190  17.419  1.00  0.00     0.010 A 
ATOM     67  C   UNL     1       0.217   5.544  20.013  1.00  0.00     0.020 A 
ATOM     68  C   UNL     1       1.769   6.673  18.534  1.00  0.00     0.020 A 
ATOM     69  C   UNL     1       1.300   6.396  19.820  1.00  0.00     0.054 A 
BRANCH  69  70
ATOM     70  S   UNL     1       2.016   7.205  21.273  1.00  0.00     0.124 S 
ATOM     71  O   UNL     1       0.985   8.180  21.618  1.00  0.00    -0.237 OA
ATOM     72  O   UNL     1       2.166   6.095  22.212  1.00  0.00    -0.237 OA
ATOM     73  O   UNL     1       3.270   7.761  20.773  1.00  0.00    -0.744 OA
ENDBRANCH  69  70
ENDBRANCH  50  64
BRANCH  51  74
ATOM     74  C   UNL     1      -8.691   8.001  12.052  1.00  0.00    -0.014 A 
ATOM     75  C   UNL     1      -9.150   8.029  10.731  1.00  0.00     0.010 A 
ATOM     76  C   UNL     1      -9.700   8.003  13.058  1.00  0.00     0.010 A 
ATOM     77  C   UNL     1     -10.532   7.903  10.439  1.00  0.00     0.020 A 
ATOM     78  C   UNL     1     -11.056   7.821  12.786  1.00  0.00     0.020 A 
ATOM     79  C   UNL     1     -11.466   7.741  11.469  1.00  0.00     0.054 A 
BRANCH  79  80
ATOM     80  S   UNL     1     -13.185   7.270  11.119  1.00  0.00     0.124 S 
ATOM     81  O   UNL     1     -13.838   8.564  10.953  1.00  0.00    -0.237 OA
ATOM     82  O   UNL     1     -13.062   6.463   9.907  1.00  0.00    -0.237 OA
ATOM     83  O   UNL     1     -13.578   6.519  12.311  1.00  0.00    -0.744 OA
ENDBRANCH  79  80
ENDBRANCH  51  74
BRANCH  63  84
ATOM     84  C   UNL     1      -4.008   9.088  15.851  1.00  0.00    -0.014 A 
ATOM     85  C   UNL     1      -4.416  10.369  16.265  1.00  0.00     0.010 A 
ATOM     86  C   UNL     1      -2.883   9.013  15.005  1.00  0.00     0.010 A 
ATOM     87  C   UNL     1      -3.738  11.526  15.850  1.00  0.00     0.020 A 
ATOM     88  C   UNL     1      -2.195  10.166  14.582  1.00  0.00     0.020 A 
ATOM     89  C   UNL     1      -2.628  11.420  15.010  1.00  0.00     0.054 A 
BRANCH  89  90
ATOM     90  S   UNL     1      -1.783  12.940  14.479  1.00  0.00     0.124 S 
ATOM     91  O   UNL     1      -2.850  13.695  13.828  1.00  0.00    -0.237 OA
ATOM     92  O   UNL     1      -1.309  13.496  15.744  1.00  0.00    -0.237 OA
ATOM     93  O   UNL     1      -0.733  12.464  13.579  1.00  0.00    -0.744 OA
ENDBRANCH  89  90
ENDBRANCH  63  84
ENDBRANCH  37  38
ENDBRANCH  30  32
ENDBRANCH  29  30
ENDBRANCH  28  29
ENDBRANCH  27  28
ENDBRANCH  26  27
ENDBRANCH  25  26
ENDBRANCH   1  25
TORSDOF 25
