REMARK SMILES O=C(OCCOCCOCCOC(=O)[C@H](CCc1ccccn1)c1ccccc1Br)c1ccc(-c2c3nc(c(-c4ccc(S(=O)(=O)[O-])cc4)c4ccc([nH]4)c(-c4ccc(S(=O)(=O)[O-])cc4)c4nc(c(-c5ccc(S(=O)(=O)[O-])cc5)c5ccc2[nH]5)C=C4)C=C3)cc1
REMARK SMILES IDX 7 1 6 2 5 3 4 4 3 5 2 6 1 7 31 8 32 9 90 10 33 11 89 12
REMARK SMILES IDX 34 13 35 14 36 15 83 16 37 17 88 18 82 19 84 20 38 21 87 22
REMARK SMILES IDX 81 23 80 24 39 26 69 27 50 28 68 29 51 30 54 31 67 32 85 33
REMARK SMILES IDX 52 34 53 35 66 37 86 38 55 39 40 40 41 41 49 42 42 43 48 44
REMARK SMILES IDX 43 45 44 46 45 47 46 48 47 49 70 50 71 51 79 52 72 53 78 54
REMARK SMILES IDX 73 55 74 56 75 57 76 58 77 59 56 60 57 61 65 62 58 63 64 64
REMARK SMILES IDX 59 65 60 66 61 67 62 68 63 69 8 70 9 71 10 72 11 73 12 74
REMARK SMILES IDX 13 75 14 76 15 77 24 78 25 79 29 80 26 81 28 82 30 83 27 84
REMARK SMILES IDX 16 85 17 86 18 87 19 88 23 89 20 90 22 91 21 92
REMARK H PARENT 84 25 54 36
REMARK Flexibility Score: inf
ROOT
ATOM      1  C   UNL     1       6.723  -1.972  -4.034  1.00  0.00     0.188 C 
ENDROOT
BRANCH   1   2
ATOM      2  O   UNL     1       6.300  -1.464  -2.761  1.00  0.00    -0.376 OA
BRANCH   2   3
ATOM      3  C   UNL     1       7.383  -1.011  -1.945  1.00  0.00     0.202 C 
BRANCH   3   4
ATOM      4  C   UNL     1       8.095  -2.111  -1.149  1.00  0.00     0.261 C 
BRANCH   4   5
ATOM      5  O   UNL     1       8.137  -3.357  -1.854  1.00  0.00    -0.460 OA
BRANCH   5   6
ATOM      6  C   UNL     1       7.398  -4.464  -1.597  1.00  0.00     0.338 C 
ATOM      7  O   UNL     1       7.823  -5.541  -2.016  1.00  0.00    -0.246 OA
BRANCH   6   8
ATOM      8  C   UNL     1       6.085  -4.458  -0.858  1.00  0.00     0.060 A 
ATOM      9  C   UNL     1       5.353  -3.336  -0.453  1.00  0.00     0.016 A 
ATOM     10  C   UNL     1       5.519  -5.718  -0.596  1.00  0.00     0.016 A 
ATOM     11  C   UNL     1       4.143  -3.451   0.243  1.00  0.00     0.010 A 
ATOM     12  C   UNL     1       4.275  -5.843   0.034  1.00  0.00     0.010 A 
ATOM     13  C   UNL     1       3.597  -4.705   0.499  1.00  0.00    -0.014 A 
BRANCH  13  14
ATOM     14  C   UNL     1       2.468  -4.848   1.450  1.00  0.00     0.031 A 
ATOM     15  C   UNL     1       2.782  -5.521   2.754  1.00  0.00     0.074 A 
ATOM     16  C   UNL     1       1.228  -4.391   1.187  1.00  0.00     0.049 A 
ATOM     17  N   UNL     1       1.976  -5.941   3.688  1.00  0.00    -0.248 NA
ATOM     18  C   UNL     1       4.204  -5.825   3.002  1.00  0.00     0.031 C 
ATOM     19  C   UNL     1       0.816  -3.719  -0.042  1.00  0.00     0.029 A 
ATOM     20  N   UNL     1       0.081  -4.417   1.939  1.00  0.00    -0.354 N 
ATOM     21  C   UNL     1       2.785  -6.635   4.579  1.00  0.00     0.074 A 
ATOM     22  C   UNL     1       4.124  -6.633   4.042  1.00  0.00     0.031 C 
ATOM     23  C   UNL     1      -0.477  -3.365   0.047  1.00  0.00     0.029 A 
ATOM     24  C   UNL     1      -1.003  -3.828   1.324  1.00  0.00     0.049 A 
ATOM     25  H   UNL     1       0.036  -4.819   2.837  1.00  0.00     0.167 HD
ATOM     26  C   UNL     1       2.445  -7.200   5.758  1.00  0.00     0.031 A 
ATOM     27  C   UNL     1      -2.277  -3.694   1.746  1.00  0.00     0.031 A 
ATOM     28  C   UNL     1       1.122  -7.108   6.302  1.00  0.00     0.049 A 
ATOM     29  C   UNL     1      -2.626  -4.261   3.097  1.00  0.00     0.074 A 
ATOM     30  C   UNL     1       0.645  -7.589   7.504  1.00  0.00     0.029 A 
ATOM     31  N   UNL     1       0.068  -6.453   5.675  1.00  0.00    -0.354 N 
ATOM     32  N   UNL     1      -1.854  -4.920   3.933  1.00  0.00    -0.248 NA
ATOM     33  C   UNL     1      -4.004  -4.074   3.568  1.00  0.00     0.031 C 
ATOM     34  C   UNL     1      -0.708  -7.244   7.593  1.00  0.00     0.029 A 
ATOM     35  C   UNL     1      -1.060  -6.508   6.468  1.00  0.00     0.049 A 
ATOM     36  H   UNL     1       0.118  -6.015   4.795  1.00  0.00     0.167 HD
ATOM     37  C   UNL     1      -2.647  -5.217   5.033  1.00  0.00     0.074 A 
ATOM     38  C   UNL     1      -3.954  -4.646   4.765  1.00  0.00     0.031 C 
ATOM     39  C   UNL     1      -2.333  -5.904   6.159  1.00  0.00     0.031 A 
BRANCH  26  40
ATOM     40  C   UNL     1       3.523  -7.967   6.476  1.00  0.00    -0.014 A 
ATOM     41  C   UNL     1       4.670  -7.323   6.981  1.00  0.00     0.010 A 
ATOM     42  C   UNL     1       3.441  -9.368   6.547  1.00  0.00     0.010 A 
ATOM     43  C   UNL     1       5.755  -8.071   7.446  1.00  0.00     0.020 A 
ATOM     44  C   UNL     1       4.507 -10.118   7.053  1.00  0.00     0.020 A 
ATOM     45  C   UNL     1       5.672  -9.466   7.463  1.00  0.00     0.054 A 
BRANCH  45  46
ATOM     46  S   UNL     1       7.112 -10.417   8.018  1.00  0.00     0.124 S 
ATOM     47  O   UNL     1       7.999 -10.320   6.861  1.00  0.00    -0.237 OA
ATOM     48  O   UNL     1       7.547  -9.681   9.203  1.00  0.00    -0.237 OA
ATOM     49  O   UNL     1       6.569 -11.747   8.279  1.00  0.00    -0.744 OA
ENDBRANCH  45  46
ENDBRANCH  26  40
BRANCH  27  50
ATOM     50  C   UNL     1      -3.291  -3.006   0.891  1.00  0.00    -0.014 A 
ATOM     51  C   UNL     1      -3.812  -1.750   1.252  1.00  0.00     0.010 A 
ATOM     52  C   UNL     1      -3.717  -3.589  -0.318  1.00  0.00     0.010 A 
ATOM     53  C   UNL     1      -4.738  -1.096   0.427  1.00  0.00     0.020 A 
ATOM     54  C   UNL     1      -4.621  -2.927  -1.159  1.00  0.00     0.020 A 
ATOM     55  C   UNL     1      -5.132  -1.686  -0.777  1.00  0.00     0.054 A 
BRANCH  55  56
ATOM     56  S   UNL     1      -6.281  -0.787  -1.861  1.00  0.00     0.124 S 
ATOM     57  O   UNL     1      -7.537  -0.888  -1.125  1.00  0.00    -0.237 OA
ATOM     58  O   UNL     1      -5.685   0.545  -1.914  1.00  0.00    -0.237 OA
ATOM     59  O   UNL     1      -6.228  -1.537  -3.114  1.00  0.00    -0.744 OA
ENDBRANCH  55  56
ENDBRANCH  27  50
BRANCH  39  60
ATOM     60  C   UNL     1      -3.405  -6.043   7.201  1.00  0.00    -0.014 A 
ATOM     61  C   UNL     1      -4.453  -6.965   7.040  1.00  0.00     0.010 A 
ATOM     62  C   UNL     1      -3.284  -5.330   8.407  1.00  0.00     0.010 A 
ATOM     63  C   UNL     1      -5.367  -7.170   8.073  1.00  0.00     0.020 A 
ATOM     64  C   UNL     1      -4.181  -5.552   9.451  1.00  0.00     0.020 A 
ATOM     65  C   UNL     1      -5.220  -6.469   9.275  1.00  0.00     0.054 A 
BRANCH  65  66
ATOM     66  S   UNL     1      -6.362  -6.827  10.636  1.00  0.00     0.124 S 
ATOM     67  O   UNL     1      -7.586  -6.173  10.185  1.00  0.00    -0.237 OA
ATOM     68  O   UNL     1      -6.395  -8.287  10.651  1.00  0.00    -0.237 OA
ATOM     69  O   UNL     1      -5.718  -6.213  11.798  1.00  0.00    -0.744 OA
ENDBRANCH  65  66
ENDBRANCH  39  60
ENDBRANCH  13  14
ENDBRANCH   6   8
ENDBRANCH   5   6
ENDBRANCH   4   5
ENDBRANCH   3   4
ENDBRANCH   2   3
ENDBRANCH   1   2
BRANCH   1  70
ATOM     70  C   UNL     1       5.766  -1.584  -5.167  1.00  0.00     0.188 C 
BRANCH  70  71
ATOM     71  O   UNL     1       5.652  -0.192  -5.471  1.00  0.00    -0.376 OA
BRANCH  71  72
ATOM     72  C   UNL     1       5.189   0.662  -4.426  1.00  0.00     0.202 C 
BRANCH  72  73
ATOM     73  C   UNL     1       3.708   0.577  -4.012  1.00  0.00     0.261 C 
BRANCH  73  74
ATOM     74  O   UNL     1       3.241  -0.755  -3.752  1.00  0.00    -0.463 OA
BRANCH  74  75
ATOM     75  C   UNL     1       2.256  -1.239  -4.570  1.00  0.00     0.313 C 
ATOM     76  O   UNL     1       1.673  -0.560  -5.407  1.00  0.00    -0.252 OA
BRANCH  75  77
ATOM     77  C   UNL     1       1.971  -2.741  -4.334  1.00  0.00     0.131 C 
BRANCH  77  78
ATOM     78  C   UNL     1       1.881  -3.545  -5.635  1.00  0.00    -0.020 A 
ATOM     79  C   UNL     1       2.748  -3.245  -6.703  1.00  0.00     0.006 A 
ATOM     80  C   UNL     1       1.091  -4.705  -5.750  1.00  0.00     0.022 A 
ATOM     81  C   UNL     1       2.945  -4.143  -7.752  1.00  0.00     0.000 A 
ATOM     82  C   UNL     1       1.332  -5.631  -6.772  1.00  0.00     0.016 A 
ATOM     83  Br  UNL     1      -0.340  -5.112  -4.556  1.00  0.00    -0.051 Br
ATOM     84  C   UNL     1       2.281  -5.363  -7.755  1.00  0.00     0.001 A 
ENDBRANCH  77  78
BRANCH  77  85
ATOM     85  C   UNL     1       2.981  -3.362  -3.325  1.00  0.00     0.026 C 
BRANCH  85  86
ATOM     86  C   UNL     1       3.092  -4.888  -3.219  1.00  0.00     0.057 C 
BRANCH  86  87
ATOM     87  C   UNL     1       4.223  -5.525  -4.000  1.00  0.00     0.040 A 
ATOM     88  C   UNL     1       4.649  -6.809  -3.662  1.00  0.00     0.024 A 
ATOM     89  N   UNL     1       4.799  -4.827  -5.005  1.00  0.00    -0.261 NA
ATOM     90  C   UNL     1       5.715  -7.376  -4.355  1.00  0.00     0.003 A 
ATOM     91  C   UNL     1       5.795  -5.421  -5.695  1.00  0.00     0.111 A 
ATOM     92  C   UNL     1       6.295  -6.675  -5.402  1.00  0.00     0.020 A 
ENDBRANCH  86  87
ENDBRANCH  85  86
ENDBRANCH  77  85
ENDBRANCH  75  77
ENDBRANCH  74  75
ENDBRANCH  73  74
ENDBRANCH  72  73
ENDBRANCH  71  72
ENDBRANCH  70  71
ENDBRANCH   1  70
TORSDOF 24
