REMARK SMILES [NH3+]Cc1c(-c2ccccc2)c(C(=O)OCCOCCOCCOC(=O)c2ccc(-c3c4nc(c(-c5ccc(S(=O)(=O)[O-])cc5)c5ccc([nH]5)c(-c5ccc(S(=O)(=O)[O-])cc5)c5nc(c(-c6ccc(S(=O)(=O)[O-])cc6)c6ccc3[nH]6)C=C5)C=C4)cc2)c2ccccn12
REMARK SMILES IDX 19 1 18 2 17 3 16 4 15 5 14 6 12 7 13 8 11 9 3 10 4 11 91 12
REMARK SMILES IDX 86 13 90 14 87 15 89 16 88 17 2 18 1 19 5 23 6 24 10 25 7 26
REMARK SMILES IDX 9 27 8 28 20 29 21 30 22 31 23 32 24 33 25 34 26 35 27 36
REMARK SMILES IDX 85 37 28 38 84 39 29 40 30 41 31 42 78 43 32 44 83 45 77 46
REMARK SMILES IDX 79 47 33 48 82 49 76 50 75 51 34 53 64 54 45 55 63 56 46 57
REMARK SMILES IDX 49 58 62 59 80 60 47 61 48 62 61 64 81 65 50 66 35 67 36 68
REMARK SMILES IDX 44 69 37 70 43 71 38 72 39 73 40 74 41 75 42 76 65 77 66 78
REMARK SMILES IDX 74 79 67 80 73 81 68 82 69 83 70 84 71 85 72 86 51 87 52 88
REMARK SMILES IDX 60 89 53 90 59 91 54 92 55 93 56 94 57 95 58 96
REMARK H PARENT 1 20 1 21 1 22 79 52 49 63
REMARK Flexibility Score: inf
ROOT
ATOM      1  C   UNL     1       4.516   0.235  -4.992  1.00  0.00     0.188 C 
ENDROOT
BRANCH   1   2
ATOM      2  C   UNL     1       4.161  -1.083  -5.702  1.00  0.00     0.188 C 
BRANCH   2   3
ATOM      3  O   UNL     1       4.082  -0.961  -7.121  1.00  0.00    -0.376 OA
BRANCH   3   4
ATOM      4  C   UNL     1       2.781  -1.172  -7.666  1.00  0.00     0.202 C 
BRANCH   4   5
ATOM      5  C   UNL     1       2.041   0.154  -7.840  1.00  0.00     0.261 C 
BRANCH   5   6
ATOM      6  O   UNL     1       1.798   0.840  -6.602  1.00  0.00    -0.460 OA
BRANCH   6   7
ATOM      7  C   UNL     1       0.889   0.279  -5.757  1.00  0.00     0.341 C 
ATOM      8  O   UNL     1       0.244  -0.724  -6.037  1.00  0.00    -0.246 OA
BRANCH   7   9
ATOM      9  C   UNL     1       0.830   0.960  -4.464  1.00  0.00     0.093 A 
ATOM     10  C   UNL     1       0.587   1.350  -2.211  1.00  0.00     0.086 A 
ATOM     11  C   UNL     1       0.555   0.362  -3.191  1.00  0.00     0.024 A 
ATOM     12  N   UNL     1       0.848   2.556  -2.858  1.00  0.00    -0.314 N 
ATOM     13  C   UNL     1       1.062   2.304  -4.216  1.00  0.00     0.061 A 
ATOM     14  C   UNL     1       0.916   3.854  -2.330  1.00  0.00     0.092 A 
ATOM     15  C   UNL     1       1.431   3.413  -5.042  1.00  0.00     0.027 A 
ATOM     16  C   UNL     1       1.230   4.893  -3.120  1.00  0.00     0.018 A 
ATOM     17  C   UNL     1       1.517   4.648  -4.517  1.00  0.00     0.004 A 
BRANCH  10  18
ATOM     18  C   UNL     1       0.367   1.269  -0.731  1.00  0.00     0.315 C 
BRANCH  18  19
ATOM     19  N   UNL     1       1.187   0.243  -0.107  1.00  0.00    -0.353 N 
ATOM     20  H   UNL     1       1.003   0.225   0.896  1.00  0.00     0.344 HD
ATOM     21  H   UNL     1       2.172   0.451  -0.269  1.00  0.00     0.344 HD
ATOM     22  H   UNL     1       0.960  -0.665  -0.510  1.00  0.00     0.344 HD
ENDBRANCH  18  19
ENDBRANCH  10  18
BRANCH  11  23
ATOM     23  C   UNL     1       0.395  -1.058  -2.926  1.00  0.00    -0.015 A 
ATOM     24  C   UNL     1       1.504  -1.899  -3.078  1.00  0.00     0.009 A 
ATOM     25  C   UNL     1      -0.849  -1.607  -2.611  1.00  0.00     0.009 A 
ATOM     26  C   UNL     1       1.353  -3.282  -3.017  1.00  0.00     0.001 A 
ATOM     27  C   UNL     1      -0.984  -2.992  -2.488  1.00  0.00     0.001 A 
ATOM     28  C   UNL     1       0.109  -3.828  -2.715  1.00  0.00     0.000 A 
ENDBRANCH  11  23
ENDBRANCH   7   9
ENDBRANCH   6   7
ENDBRANCH   5   6
ENDBRANCH   4   5
ENDBRANCH   3   4
ENDBRANCH   2   3
ENDBRANCH   1   2
BRANCH   1  29
ATOM     29  O   UNL     1       5.643   1.007  -5.406  1.00  0.00    -0.376 OA
BRANCH  29  30
ATOM     30  C   UNL     1       6.614   0.415  -6.250  1.00  0.00     0.202 C 
BRANCH  30  31
ATOM     31  C   UNL     1       7.654  -0.472  -5.560  1.00  0.00     0.261 C 
BRANCH  31  32
ATOM     32  O   UNL     1       7.102  -1.374  -4.590  1.00  0.00    -0.460 OA
BRANCH  32  33
ATOM     33  C   UNL     1       7.127  -0.906  -3.317  1.00  0.00     0.338 C 
ATOM     34  O   UNL     1       7.591   0.157  -2.938  1.00  0.00    -0.246 OA
BRANCH  33  35
ATOM     35  C   UNL     1       6.411  -1.832  -2.410  1.00  0.00     0.060 A 
ATOM     36  C   UNL     1       5.632  -1.268  -1.393  1.00  0.00     0.016 A 
ATOM     37  C   UNL     1       6.571  -3.220  -2.485  1.00  0.00     0.016 A 
ATOM     38  C   UNL     1       5.068  -2.080  -0.409  1.00  0.00     0.010 A 
ATOM     39  C   UNL     1       6.013  -4.034  -1.491  1.00  0.00     0.010 A 
ATOM     40  C   UNL     1       5.300  -3.462  -0.423  1.00  0.00    -0.014 A 
BRANCH  40  41
ATOM     41  C   UNL     1       4.952  -4.261   0.781  1.00  0.00     0.031 A 
ATOM     42  C   UNL     1       5.989  -4.445   1.851  1.00  0.00     0.074 A 
ATOM     43  C   UNL     1       3.719  -4.767   0.958  1.00  0.00     0.049 A 
ATOM     44  N   UNL     1       5.866  -5.002   3.028  1.00  0.00    -0.248 NA
ATOM     45  C   UNL     1       7.335  -3.927   1.562  1.00  0.00     0.031 C 
ATOM     46  C   UNL     1       2.623  -4.631   0.010  1.00  0.00     0.029 A 
ATOM     47  N   UNL     1       3.178  -5.484   1.994  1.00  0.00    -0.354 N 
ATOM     48  C   UNL     1       7.110  -4.879   3.631  1.00  0.00     0.074 A 
ATOM     49  C   UNL     1       7.985  -4.238   2.673  1.00  0.00     0.031 C 
ATOM     50  C   UNL     1       1.534  -5.247   0.498  1.00  0.00     0.029 A 
ATOM     51  C   UNL     1       1.860  -5.825   1.798  1.00  0.00     0.049 A 
ATOM     52  H   UNL     1       3.684  -5.731   2.801  1.00  0.00     0.167 HD
ATOM     53  C   UNL     1       7.486  -5.250   4.878  1.00  0.00     0.031 A 
ATOM     54  C   UNL     1       1.007  -6.515   2.579  1.00  0.00     0.031 A 
ATOM     55  C   UNL     1       6.631  -5.923   5.817  1.00  0.00     0.049 A 
ATOM     56  C   UNL     1       1.468  -6.980   3.933  1.00  0.00     0.074 A 
ATOM     57  C   UNL     1       6.924  -6.341   7.103  1.00  0.00     0.029 A 
ATOM     58  N   UNL     1       5.317  -6.291   5.568  1.00  0.00    -0.354 N 
ATOM     59  N   UNL     1       2.635  -6.810   4.508  1.00  0.00    -0.248 NA
ATOM     60  C   UNL     1       0.489  -7.706   4.754  1.00  0.00     0.031 C 
ATOM     61  C   UNL     1       5.801  -7.003   7.615  1.00  0.00     0.029 A 
ATOM     62  C   UNL     1       4.793  -6.952   6.666  1.00  0.00     0.049 A 
ATOM     63  H   UNL     1       4.829  -6.108   4.733  1.00  0.00     0.167 HD
ATOM     64  C   UNL     1       2.521  -7.381   5.770  1.00  0.00     0.074 A 
ATOM     65  C   UNL     1       1.169  -7.892   5.877  1.00  0.00     0.031 C 
ATOM     66  C   UNL     1       3.450  -7.466   6.755  1.00  0.00     0.031 A 
BRANCH  53  67
ATOM     67  C   UNL     1       8.905  -4.952   5.272  1.00  0.00    -0.014 A 
ATOM     68  C   UNL     1       9.313  -3.635   5.553  1.00  0.00     0.010 A 
ATOM     69  C   UNL     1       9.842  -5.996   5.357  1.00  0.00     0.010 A 
ATOM     70  C   UNL     1      10.646  -3.362   5.870  1.00  0.00     0.020 A 
ATOM     71  C   UNL     1      11.171  -5.729   5.696  1.00  0.00     0.020 A 
ATOM     72  C   UNL     1      11.568  -4.411   5.931  1.00  0.00     0.054 A 
BRANCH  72  73
ATOM     73  S   UNL     1      13.293  -4.033   6.343  1.00  0.00     0.124 S 
ATOM     74  O   UNL     1      13.781  -3.455   5.093  1.00  0.00    -0.237 OA
ATOM     75  O   UNL     1      13.162  -3.098   7.458  1.00  0.00    -0.237 OA
ATOM     76  O   UNL     1      13.859  -5.334   6.690  1.00  0.00    -0.744 OA
ENDBRANCH  72  73
ENDBRANCH  53  67
BRANCH  54  77
ATOM     77  C   UNL     1      -0.375  -6.798   2.106  1.00  0.00    -0.014 A 
ATOM     78  C   UNL     1      -1.480  -6.140   2.673  1.00  0.00     0.010 A 
ATOM     79  C   UNL     1      -0.590  -7.737   1.081  1.00  0.00     0.010 A 
ATOM     80  C   UNL     1      -2.777  -6.430   2.238  1.00  0.00     0.020 A 
ATOM     81  C   UNL     1      -1.883  -8.013   0.627  1.00  0.00     0.020 A 
ATOM     82  C   UNL     1      -2.970  -7.366   1.217  1.00  0.00     0.054 A 
BRANCH  82  83
ATOM     83  S   UNL     1      -4.656  -7.693   0.631  1.00  0.00     0.124 S 
ATOM     84  O   UNL     1      -5.194  -8.525   1.702  1.00  0.00    -0.237 OA
ATOM     85  O   UNL     1      -5.221  -6.349   0.527  1.00  0.00    -0.237 OA
ATOM     86  O   UNL     1      -4.446  -8.371  -0.646  1.00  0.00    -0.744 OA
ENDBRANCH  82  83
ENDBRANCH  54  77
BRANCH  66  87
ATOM     87  C   UNL     1       3.023  -8.114   8.044  1.00  0.00    -0.014 A 
ATOM     88  C   UNL     1       2.824  -9.503   8.132  1.00  0.00     0.010 A 
ATOM     89  C   UNL     1       2.836  -7.320   9.190  1.00  0.00     0.010 A 
ATOM     90  C   UNL     1       2.401 -10.081   9.332  1.00  0.00     0.020 A 
ATOM     91  C   UNL     1       2.438  -7.897  10.398  1.00  0.00     0.020 A 
ATOM     92  C   UNL     1       2.203  -9.273  10.456  1.00  0.00     0.054 A 
BRANCH  92  93
ATOM     93  S   UNL     1       1.669 -10.043  12.008  1.00  0.00     0.124 S 
ATOM     94  O   UNL     1       0.242 -10.242  11.772  1.00  0.00    -0.237 OA
ATOM     95  O   UNL     1       2.473 -11.261  12.061  1.00  0.00    -0.237 OA
ATOM     96  O   UNL     1       2.000  -9.043  13.021  1.00  0.00    -0.744 OA
ENDBRANCH  92  93
ENDBRANCH  66  87
ENDBRANCH  40  41
ENDBRANCH  33  35
ENDBRANCH  32  33
ENDBRANCH  31  32
ENDBRANCH  30  31
ENDBRANCH  29  30
ENDBRANCH   1  29
TORSDOF 23
