REMARK SMILES Cc1cccc(O[C@H](C)C(=O)N2CCC[C@@H](C(=O)OCCOCCOCCOC(=O)c3ccc(-c4c5nc(c(-c6ccc(S(=O)(=O)[O-])cc6)c6ccc([nH]6)c(-c6ccc(S(=O)(=O)[O-])cc6)c6nc(c(-c7ccc(S(=O)(=O)[O-])cc7)c7ccc4[nH]7)C=C6)C=C5)cc3)C2)c1
REMARK SMILES IDX 23 1 22 2 21 3 20 4 19 5 17 6 18 7 16 8 12 9 13 10 91 11
REMARK SMILES IDX 14 12 15 13 10 14 11 15 8 16 9 17 7 18 6 19 1 20 2 21 3 22
REMARK SMILES IDX 92 23 4 24 5 25 24 26 25 27 26 28 27 29 28 30 29 31 30 32
REMARK SMILES IDX 31 33 32 34 90 35 33 36 89 37 34 38 35 39 36 40 83 41 37 42
REMARK SMILES IDX 88 43 82 44 84 45 38 46 87 47 81 48 80 49 39 51 69 52 50 53
REMARK SMILES IDX 68 54 51 55 54 56 67 57 85 58 52 59 53 60 66 62 86 63 55 64
REMARK SMILES IDX 40 65 41 66 49 67 42 68 48 69 43 70 44 71 45 72 46 73 47 74
REMARK SMILES IDX 70 75 71 76 79 77 72 78 78 79 73 80 74 81 75 82 76 83 77 84
REMARK SMILES IDX 56 85 57 86 65 87 58 88 64 89 59 90 60 91 61 92 62 93 63 94
REMARK H PARENT 84 50 54 61
REMARK Flexibility Score: inf
ROOT
ATOM      1  C   UNL     1      -4.481  -2.774  -2.200  1.00  0.00     0.188 C 
ENDROOT
BRANCH   1   2
ATOM      2  O   UNL     1      -4.255  -4.036  -1.586  1.00  0.00    -0.376 OA
BRANCH   2   3
ATOM      3  C   UNL     1      -3.067  -4.114  -0.802  1.00  0.00     0.202 C 
BRANCH   3   4
ATOM      4  C   UNL     1      -1.742  -3.462  -1.242  1.00  0.00     0.261 C 
BRANCH   4   5
ATOM      5  O   UNL     1      -1.465  -2.033  -1.368  1.00  0.00    -0.463 OA
BRANCH   5   6
ATOM      6  C   UNL     1      -1.711  -1.055  -2.287  1.00  0.00     0.310 C 
ATOM      7  O   UNL     1      -2.542  -1.132  -3.184  1.00  0.00    -0.252 OA
BRANCH   6   8
ATOM      8  C   UNL     1      -0.701   0.329  -2.316  1.00  0.00     0.119 C 
ATOM      9  N   UNL     1       1.354   2.722  -0.918  1.00  0.00    -0.339 N 
ATOM     10  C   UNL     1       2.512   2.429  -2.081  1.00  0.00     0.119 C 
ATOM     11  C   UNL     1       0.115   1.544  -0.652  1.00  0.00     0.134 C 
ATOM     12  C   UNL     1       2.196   1.424  -3.585  1.00  0.00     0.022 C 
ATOM     13  C   UNL     1       0.549   0.522  -3.919  1.00  0.00     0.019 C 
BRANCH   9  14
ATOM     14  C   UNL     1       1.107   4.019  -0.427  1.00  0.00     0.263 C 
ATOM     15  O   UNL     1       1.709   4.982  -0.927  1.00  0.00    -0.271 OA
BRANCH  14  16
ATOM     16  C   UNL     1       0.031   4.322   0.774  1.00  0.00     0.259 C 
ATOM     17  C   UNL     1      -1.490   4.282   0.539  1.00  0.00     0.064 C 
BRANCH  16  18
ATOM     18  O   UNL     1       0.292   4.069   2.158  1.00  0.00    -0.481 OA
BRANCH  18  19
ATOM     19  C   UNL     1       0.549   2.826   2.639  1.00  0.00     0.120 A 
ATOM     20  C   UNL     1       3.020   1.526   5.207  1.00  0.00     0.044 C 
ATOM     21  C   UNL     1       1.970   1.550   4.144  1.00  0.00    -0.047 A 
ATOM     22  C   UNL     1       1.305   0.375   3.793  1.00  0.00     0.003 A 
ATOM     23  C   UNL     1       1.615   2.757   3.527  1.00  0.00     0.049 A 
ATOM     24  C   UNL     1       0.180   0.451   2.987  1.00  0.00     0.004 A 
ATOM     25  C   UNL     1      -0.237   1.692   2.485  1.00  0.00     0.046 A 
ENDBRANCH  18  19
ENDBRANCH  16  18
ENDBRANCH  14  16
ENDBRANCH   9  14
ENDBRANCH   6   8
ENDBRANCH   5   6
ENDBRANCH   4   5
ENDBRANCH   3   4
ENDBRANCH   2   3
ENDBRANCH   1   2
BRANCH   1  26
ATOM     26  C   UNL     1      -4.645  -1.595  -1.218  1.00  0.00     0.188 C 
BRANCH  26  27
ATOM     27  O   UNL     1      -3.739  -1.659  -0.114  1.00  0.00    -0.376 OA
BRANCH  27  28
ATOM     28  C   UNL     1      -4.245  -1.253   1.149  1.00  0.00     0.202 C 
BRANCH  28  29
ATOM     29  C   UNL     1      -4.679   0.212   1.173  1.00  0.00     0.261 C 
BRANCH  29  30
ATOM     30  O   UNL     1      -3.522   1.021   0.937  1.00  0.00    -0.460 OA
BRANCH  30  31
ATOM     31  C   UNL     1      -3.475   1.644  -0.268  1.00  0.00     0.338 C 
ATOM     32  O   UNL     1      -4.309   2.407  -0.704  1.00  0.00    -0.246 OA
BRANCH  31  33
ATOM     33  C   UNL     1      -2.131   1.352  -0.803  1.00  0.00     0.060 A 
ATOM     34  C   UNL     1      -1.382   2.378  -1.944  1.00  0.00     0.016 A 
ATOM     35  C   UNL     1      -1.301   0.024  -0.072  1.00  0.00     0.016 A 
ATOM     36  C   UNL     1       0.235   1.933  -2.501  1.00  0.00     0.010 A 
ATOM     37  C   UNL     1       0.238  -0.547  -0.531  1.00  0.00     0.010 A 
ATOM     38  C   UNL     1       1.115   0.313  -1.799  1.00  0.00    -0.014 A 
BRANCH  38  39
ATOM     39  C   UNL     1       1.618  -1.192  -2.413  1.00  0.00     0.031 A 
ATOM     40  C   UNL     1       2.838  -1.723  -1.763  1.00  0.00     0.074 A 
ATOM     41  C   UNL     1       0.852  -2.150  -3.100  1.00  0.00     0.049 A 
ATOM     42  N   UNL     1       3.621  -2.584  -2.319  1.00  0.00    -0.248 NA
ATOM     43  C   UNL     1       3.298  -1.302  -0.439  1.00  0.00     0.031 C 
ATOM     44  C   UNL     1       0.945  -3.623  -3.065  1.00  0.00     0.029 A 
ATOM     45  N   UNL     1      -0.263  -2.038  -3.939  1.00  0.00    -0.354 N 
ATOM     46  C   UNL     1       4.350  -3.129  -1.289  1.00  0.00     0.074 A 
ATOM     47  C   UNL     1       4.345  -2.114  -0.266  1.00  0.00     0.031 C 
ATOM     48  C   UNL     1       0.066  -4.202  -3.924  1.00  0.00     0.029 A 
ATOM     49  C   UNL     1      -0.677  -3.164  -4.622  1.00  0.00     0.049 A 
ATOM     50  H   UNL     1      -0.739  -1.182  -4.038  1.00  0.00     0.167 HD
ATOM     51  C   UNL     1       4.607  -4.471  -1.278  1.00  0.00     0.031 A 
ATOM     52  C   UNL     1      -1.034  -3.079  -5.941  1.00  0.00     0.031 A 
ATOM     53  C   UNL     1       4.038  -5.163  -2.462  1.00  0.00     0.049 A 
ATOM     54  C   UNL     1       0.221  -3.505  -6.652  1.00  0.00     0.074 A 
ATOM     55  C   UNL     1       3.161  -6.228  -2.616  1.00  0.00     0.029 A 
ATOM     56  N   UNL     1       4.150  -4.591  -3.736  1.00  0.00    -0.354 N 
ATOM     57  N   UNL     1       1.354  -3.538  -6.004  1.00  0.00    -0.248 NA
ATOM     58  C   UNL     1       0.341  -4.053  -7.998  1.00  0.00     0.031 C 
ATOM     59  C   UNL     1       2.715  -6.248  -3.974  1.00  0.00     0.029 A 
ATOM     60  C   UNL     1       3.318  -5.202  -4.658  1.00  0.00     0.049 A 
ATOM     61  H   UNL     1       4.751  -3.841  -3.950  1.00  0.00     0.167 HD
ATOM     62  C   UNL     1       2.217  -4.329  -6.660  1.00  0.00     0.074 A 
ATOM     63  C   UNL     1       1.609  -4.516  -7.968  1.00  0.00     0.031 C 
ATOM     64  C   UNL     1       3.343  -4.798  -6.066  1.00  0.00     0.031 A 
BRANCH  51  65
ATOM     65  C   UNL     1       5.177  -5.224  -0.075  1.00  0.00    -0.014 A 
ATOM     66  C   UNL     1       5.419  -6.608  -0.180  1.00  0.00     0.010 A 
ATOM     67  C   UNL     1       5.521  -4.649   1.168  1.00  0.00     0.010 A 
ATOM     68  C   UNL     1       6.001  -7.354   0.861  1.00  0.00     0.020 A 
ATOM     69  C   UNL     1       6.125  -5.372   2.210  1.00  0.00     0.020 A 
ATOM     70  C   UNL     1       6.377  -6.723   2.042  1.00  0.00     0.054 A 
BRANCH  70  71
ATOM     71  S   UNL     1       7.254  -7.663   3.316  1.00  0.00     0.124 S 
ATOM     72  O   UNL     1       6.268  -8.671   3.695  1.00  0.00    -0.237 OA
ATOM     73  O   UNL     1       8.420  -8.158   2.590  1.00  0.00    -0.237 OA
ATOM     74  O   UNL     1       7.545  -6.665   4.345  1.00  0.00    -0.744 OA
ENDBRANCH  70  71
ENDBRANCH  51  65
BRANCH  52  75
ATOM     75  C   UNL     1      -1.978  -1.953  -6.300  1.00  0.00    -0.014 A 
ATOM     76  C   UNL     1      -3.353  -2.156  -6.027  1.00  0.00     0.010 A 
ATOM     77  C   UNL     1      -1.541  -0.621  -6.436  1.00  0.00     0.010 A 
ATOM     78  C   UNL     1      -4.206  -1.085  -5.691  1.00  0.00     0.020 A 
ATOM     79  C   UNL     1      -2.381   0.453  -6.060  1.00  0.00     0.020 A 
ATOM     80  C   UNL     1      -3.691   0.208  -5.632  1.00  0.00     0.054 A 
BRANCH  80  81
ATOM     81  S   UNL     1      -4.603   1.484  -4.683  1.00  0.00     0.124 S 
ATOM     82  O   UNL     1      -5.450   2.086  -5.707  1.00  0.00    -0.237 OA
ATOM     83  O   UNL     1      -5.313   0.708  -3.666  1.00  0.00    -0.237 OA
ATOM     84  O   UNL     1      -3.534   2.344  -4.175  1.00  0.00    -0.744 OA
ENDBRANCH  80  81
ENDBRANCH  52  75
BRANCH  64  85
ATOM     85  C   UNL     1       4.587  -4.941  -6.859  1.00  0.00    -0.014 A 
ATOM     86  C   UNL     1       4.757  -4.286  -8.088  1.00  0.00     0.010 A 
ATOM     87  C   UNL     1       5.689  -5.601  -6.288  1.00  0.00     0.010 A 
ATOM     88  C   UNL     1       5.940  -4.416  -8.797  1.00  0.00     0.020 A 
ATOM     89  C   UNL     1       6.901  -5.676  -6.957  1.00  0.00     0.020 A 
ATOM     90  C   UNL     1       6.995  -5.130  -8.232  1.00  0.00     0.054 A 
BRANCH  90  91
ATOM     91  S   UNL     1       8.488  -5.356  -9.205  1.00  0.00     0.124 S 
ATOM     92  O   UNL     1       8.055  -6.370 -10.165  1.00  0.00    -0.237 OA
ATOM     93  O   UNL     1       8.714  -4.023  -9.757  1.00  0.00    -0.237 OA
ATOM     94  O   UNL     1       9.475  -5.800  -8.225  1.00  0.00    -0.744 OA
ENDBRANCH  90  91
ENDBRANCH  64  85
ENDBRANCH  38  39
ENDBRANCH  31  33
ENDBRANCH  30  31
ENDBRANCH  29  30
ENDBRANCH  28  29
ENDBRANCH  27  28
ENDBRANCH  26  27
ENDBRANCH   1  26
TORSDOF 24
