REMARK SMILES COc1ccc(-c2[nH]nc3nc(-c4ccc(C(F)(F)F)cc4)cc(C(=O)OCCOCCOCCOC(=O)c4ccc(-c5c6nc(c(-c7ccc(S(=O)(=O)[O-])cc7)c7ccc([nH]7)c(-c7ccc(S(=O)(=O)[O-])cc7)c7nc(c(-c8ccc(S(=O)(=O)[O-])cc8)c8ccc5[nH]8)C=C7)C=C6)cc4)c23)cc1
REMARK SMILES IDX 32 1 31 2 30 3 29 4 28 5 27 6 25 7 26 8 24 9 7 10 8 11 99 12
REMARK SMILES IDX 9 13 10 15 11 16 23 17 12 18 6 19 3 20 4 21 101 22 5 23
REMARK SMILES IDX 100 24 2 25 1 26 13 27 14 28 22 29 15 30 21 31 16 32 17 33
REMARK SMILES IDX 18 34 19 35 20 36 33 37 34 38 35 39 36 40 37 41 38 42 39 43
REMARK SMILES IDX 40 44 98 45 41 46 97 47 42 48 43 49 44 50 91 51 45 52 96 53
REMARK SMILES IDX 90 54 92 55 46 56 95 57 89 58 88 59 47 61 77 62 58 63 76 64
REMARK SMILES IDX 59 65 62 66 75 67 93 68 60 69 61 70 74 72 94 73 63 74 48 75
REMARK SMILES IDX 49 76 57 77 50 78 56 79 51 80 52 81 53 82 54 83 55 84 78 85
REMARK SMILES IDX 79 86 87 87 80 88 86 89 81 90 82 91 83 92 84 93 85 94 64 95
REMARK SMILES IDX 65 96 73 97 66 98 72 99 67 100 68 101 69 102 70 103 71 104
REMARK H PARENT 8 14 92 60 62 71
REMARK Flexibility Score: inf
ROOT
ATOM      1  C   UNL     1       6.726   2.452  -4.613  1.00  0.00     0.188 C 
ENDROOT
BRANCH   1   2
ATOM      2  C   UNL     1       5.615   1.433  -4.784  1.00  0.00     0.188 C 
BRANCH   2   3
ATOM      3  O   UNL     1       5.643   0.293  -3.939  1.00  0.00    -0.376 OA
BRANCH   3   4
ATOM      4  C   UNL     1       4.750  -0.772  -4.297  1.00  0.00     0.202 C 
BRANCH   4   5
ATOM      5  C   UNL     1       4.693  -1.192  -5.786  1.00  0.00     0.261 C 
BRANCH   5   6
ATOM      6  O   UNL     1       4.368  -0.135  -6.719  1.00  0.00    -0.460 OA
BRANCH   6   7
ATOM      7  C   UNL     1       3.201   0.539  -6.540  1.00  0.00     0.339 C 
ATOM      8  O   UNL     1       2.225   0.088  -5.993  1.00  0.00    -0.246 OA
BRANCH   7   9
ATOM      9  C   UNL     1       3.397   1.936  -7.021  1.00  0.00     0.075 A 
ATOM     10  C   UNL     1       1.929   3.265  -5.442  1.00  0.00     0.075 A 
ATOM     11  N   UNL     1       1.624   4.608  -5.446  1.00  0.00    -0.275 N 
ATOM     12  C   UNL     1       2.766   3.090  -6.532  1.00  0.00     0.061 A 
ATOM     13  N   UNL     1       2.265   5.326  -6.379  1.00  0.00    -0.154 NA
ATOM     14  H   UNL     1       0.985   5.009  -4.814  1.00  0.00     0.190 HD
ATOM     15  C   UNL     1       3.009   4.424  -7.014  1.00  0.00     0.182 A 
ATOM     16  N   UNL     1       3.915   4.703  -7.980  1.00  0.00    -0.226 NA
ATOM     17  C   UNL     1       4.360   2.279  -8.002  1.00  0.00     0.045 A 
ATOM     18  C   UNL     1       4.586   3.615  -8.441  1.00  0.00     0.074 A 
BRANCH  10  19
ATOM     19  C   UNL     1       1.469   2.425  -4.348  1.00  0.00     0.001 A 
ATOM     20  C   UNL     1       0.639   0.773  -2.227  1.00  0.00     0.118 A 
ATOM     21  C   UNL     1      -0.140   0.901  -3.380  1.00  0.00     0.047 A 
ATOM     22  C   UNL     1       1.824   1.500  -2.123  1.00  0.00     0.047 A 
ATOM     23  C   UNL     1       0.264   1.729  -4.433  1.00  0.00     0.014 A 
ATOM     24  C   UNL     1       2.230   2.330  -3.174  1.00  0.00     0.014 A 
BRANCH  20  25
ATOM     25  O   UNL     1       0.146  -0.096  -1.294  1.00  0.00    -0.497 OA
ATOM     26  C   UNL     1       0.814  -0.134  -0.038  1.00  0.00     0.278 C 
ENDBRANCH  20  25
ENDBRANCH  10  19
BRANCH  18  27
ATOM     27  C   UNL     1       5.578   3.919  -9.505  1.00  0.00     0.000 A 
ATOM     28  C   UNL     1       6.367   5.087  -9.475  1.00  0.00     0.011 A 
ATOM     29  C   UNL     1       5.732   3.073 -10.617  1.00  0.00     0.011 A 
ATOM     30  C   UNL     1       7.261   5.396 -10.513  1.00  0.00     0.014 A 
ATOM     31  C   UNL     1       6.620   3.378 -11.655  1.00  0.00     0.014 A 
ATOM     32  C   UNL     1       7.391   4.546 -11.619  1.00  0.00     0.056 A 
BRANCH  32  33
ATOM     33  C   UNL     1       8.324   4.892 -12.754  1.00  0.00     0.416 C 
ATOM     34  F   UNL     1       7.998   6.065 -13.366  1.00  0.00    -0.166 F 
ATOM     35  F   UNL     1       9.620   5.024 -12.357  1.00  0.00    -0.166 F 
ATOM     36  F   UNL     1       8.338   3.955 -13.747  1.00  0.00    -0.166 F 
ENDBRANCH  32  33
ENDBRANCH  18  27
ENDBRANCH   7   9
ENDBRANCH   6   7
ENDBRANCH   5   6
ENDBRANCH   4   5
ENDBRANCH   3   4
ENDBRANCH   2   3
ENDBRANCH   1   2
BRANCH   1  37
ATOM     37  O   UNL     1       8.053   1.946  -4.744  1.00  0.00    -0.376 OA
BRANCH  37  38
ATOM     38  C   UNL     1       8.397   0.758  -4.034  1.00  0.00     0.202 C 
BRANCH  38  39
ATOM     39  C   UNL     1       8.495   0.852  -2.513  1.00  0.00     0.261 C 
BRANCH  39  40
ATOM     40  O   UNL     1       7.343   1.406  -1.892  1.00  0.00    -0.460 OA
BRANCH  40  41
ATOM     41  C   UNL     1       7.446   2.737  -1.691  1.00  0.00     0.338 C 
ATOM     42  O   UNL     1       8.306   3.486  -2.127  1.00  0.00    -0.246 OA
BRANCH  41  43
ATOM     43  C   UNL     1       6.400   3.187  -0.769  1.00  0.00     0.060 A 
ATOM     44  C   UNL     1       6.304   4.572  -0.621  1.00  0.00     0.016 A 
ATOM     45  C   UNL     1       6.006   2.289   0.229  1.00  0.00     0.016 A 
ATOM     46  C   UNL     1       6.155   5.059   0.653  1.00  0.00     0.010 A 
ATOM     47  C   UNL     1       5.876   2.778   1.503  1.00  0.00     0.010 A 
ATOM     48  C   UNL     1       6.074   4.142   1.706  1.00  0.00    -0.014 A 
BRANCH  48  49
ATOM     49  C   UNL     1       6.118   4.662   3.053  1.00  0.00     0.031 A 
ATOM     50  C   UNL     1       4.830   5.266   3.424  1.00  0.00     0.074 A 
ATOM     51  C   UNL     1       7.180   4.513   3.867  1.00  0.00     0.049 A 
ATOM     52  N   UNL     1       4.533   6.522   3.441  1.00  0.00    -0.248 NA
ATOM     53  C   UNL     1       3.669   4.365   3.532  1.00  0.00     0.031 C 
ATOM     54  C   UNL     1       8.361   3.670   3.646  1.00  0.00     0.029 A 
ATOM     55  N   UNL     1       7.381   4.997   5.124  1.00  0.00    -0.354 N 
ATOM     56  C   UNL     1       3.213   6.556   3.866  1.00  0.00     0.074 A 
ATOM     57  C   UNL     1       2.673   5.247   3.613  1.00  0.00     0.031 C 
ATOM     58  C   UNL     1       9.017   3.508   4.819  1.00  0.00     0.029 A 
ATOM     59  C   UNL     1       8.395   4.353   5.825  1.00  0.00     0.049 A 
ATOM     60  H   UNL     1       6.855   5.738   5.503  1.00  0.00     0.167 HD
ATOM     61  C   UNL     1       2.811   7.495   4.765  1.00  0.00     0.031 A 
ATOM     62  C   UNL     1       8.661   4.470   7.151  1.00  0.00     0.031 A 
ATOM     63  C   UNL     1       3.787   8.545   4.896  1.00  0.00     0.049 A 
ATOM     64  C   UNL     1       8.066   5.746   7.612  1.00  0.00     0.074 A 
ATOM     65  C   UNL     1       4.208   9.625   4.154  1.00  0.00     0.029 A 
ATOM     66  N   UNL     1       4.767   8.270   5.817  1.00  0.00    -0.354 N 
ATOM     67  N   UNL     1       8.475   6.913   7.194  1.00  0.00    -0.248 NA
ATOM     68  C   UNL     1       6.752   5.739   8.247  1.00  0.00     0.031 C 
ATOM     69  C   UNL     1       5.546   9.894   4.567  1.00  0.00     0.029 A 
ATOM     70  C   UNL     1       5.897   9.004   5.581  1.00  0.00     0.049 A 
ATOM     71  H   UNL     1       4.669   7.625   6.555  1.00  0.00     0.167 HD
ATOM     72  C   UNL     1       7.325   7.677   7.122  1.00  0.00     0.074 A 
ATOM     73  C   UNL     1       6.340   6.970   7.929  1.00  0.00     0.031 C 
ATOM     74  C   UNL     1       7.174   8.631   6.160  1.00  0.00     0.031 A 
BRANCH  61  75
ATOM     75  C   UNL     1       1.858   7.185   5.899  1.00  0.00    -0.014 A 
ATOM     76  C   UNL     1       1.475   8.231   6.760  1.00  0.00     0.010 A 
ATOM     77  C   UNL     1       1.557   5.872   6.322  1.00  0.00     0.010 A 
ATOM     78  C   UNL     1       0.859   7.970   7.992  1.00  0.00     0.020 A 
ATOM     79  C   UNL     1       0.910   5.602   7.526  1.00  0.00     0.020 A 
ATOM     80  C   UNL     1       0.587   6.654   8.367  1.00  0.00     0.054 A 
BRANCH  80  81
ATOM     81  S   UNL     1      -0.145   6.316   9.985  1.00  0.00     0.124 S 
ATOM     82  O   UNL     1       0.913   6.751  10.891  1.00  0.00    -0.237 OA
ATOM     83  O   UNL     1      -1.344   7.148   9.958  1.00  0.00    -0.237 OA
ATOM     84  O   UNL     1      -0.391   4.876   9.953  1.00  0.00    -0.744 OA
ENDBRANCH  80  81
ENDBRANCH  61  75
BRANCH  62  85
ATOM     85  C   UNL     1       9.129   3.418   8.088  1.00  0.00    -0.014 A 
ATOM     86  C   UNL     1       9.677   3.739   9.345  1.00  0.00     0.010 A 
ATOM     87  C   UNL     1       8.774   2.074   7.854  1.00  0.00     0.010 A 
ATOM     88  C   UNL     1       9.817   2.759  10.346  1.00  0.00     0.020 A 
ATOM     89  C   UNL     1       8.912   1.093   8.845  1.00  0.00     0.020 A 
ATOM     90  C   UNL     1       9.416   1.444  10.094  1.00  0.00     0.054 A 
BRANCH  90  91
ATOM     91  S   UNL     1       9.456   0.218  11.438  1.00  0.00     0.124 S 
ATOM     92  O   UNL     1      10.888   0.026  11.642  1.00  0.00    -0.237 OA
ATOM     93  O   UNL     1       8.750   0.903  12.517  1.00  0.00    -0.237 OA
ATOM     94  O   UNL     1       8.752  -0.933  10.875  1.00  0.00    -0.744 OA
ENDBRANCH  90  91
ENDBRANCH  62  85
BRANCH  74  95
ATOM     95  C   UNL     1       8.412   9.254   5.579  1.00  0.00    -0.014 A 
ATOM     96  C   UNL     1       9.351   8.582   4.776  1.00  0.00     0.010 A 
ATOM     97  C   UNL     1       8.574  10.633   5.801  1.00  0.00     0.010 A 
ATOM     98  C   UNL     1      10.434   9.281   4.219  1.00  0.00     0.020 A 
ATOM     99  C   UNL     1       9.636  11.335   5.237  1.00  0.00     0.020 A 
ATOM    100  C   UNL     1      10.568  10.655   4.454  1.00  0.00     0.054 A 
BRANCH 100 101
ATOM    101  S   UNL     1      11.946  11.568   3.707  1.00  0.00     0.124 S 
ATOM    102  O   UNL     1      13.104  11.032   4.417  1.00  0.00    -0.237 OA
ATOM    103  O   UNL     1      11.848  11.205   2.295  1.00  0.00    -0.237 OA
ATOM    104  O   UNL     1      11.637  12.967   4.000  1.00  0.00    -0.744 OA
ENDBRANCH 100 101
ENDBRANCH  74  95
ENDBRANCH  48  49
ENDBRANCH  41  43
ENDBRANCH  40  41
ENDBRANCH  39  40
ENDBRANCH  38  39
ENDBRANCH  37  38
ENDBRANCH   1  37
TORSDOF 24
