REMARK SMILES COCc1cc(-n2cnc(C(=O)OCCOCCOCCOC(=O)c3ccc(-c4c5nc(c(-c6ccc(S(=O)(=O)[O-])cc6)c6ccc([nH]6)c(-c6ccc(S(=O)(=O)[O-])cc6)c6nc(c(-c7ccc(S(=O)(=O)[O-])cc7)c7ccc4[nH]7)C=C6)C=C5)cc3)c2)nc(-c2cccnc2)n1
REMARK SMILES IDX 17 1 16 2 15 3 14 4 13 5 11 6 12 7 10 8 7 9 8 10 85 11 9 12
REMARK SMILES IDX 6 13 4 14 5 15 94 16 87 17 86 18 3 19 2 20 1 21 88 22 89 23
REMARK SMILES IDX 93 24 90 25 92 26 91 27 18 28 19 29 20 30 21 31 22 32 23 33
REMARK SMILES IDX 24 34 25 35 26 36 84 37 27 38 83 39 28 40 29 41 30 42 77 43
REMARK SMILES IDX 31 44 82 45 76 46 78 47 32 48 81 49 75 50 74 51 33 53 63 54
REMARK SMILES IDX 44 55 62 56 45 57 48 58 61 59 79 60 46 61 47 62 60 64 80 65
REMARK SMILES IDX 49 66 34 67 35 68 43 69 36 70 42 71 37 72 38 73 39 74 40 75
REMARK SMILES IDX 41 76 64 77 65 78 73 79 66 80 72 81 67 82 68 83 69 84 70 85
REMARK SMILES IDX 71 86 50 87 51 88 59 89 52 90 58 91 53 92 54 93 55 94 56 95
REMARK SMILES IDX 57 96
REMARK H PARENT 78 52 48 63
REMARK Flexibility Score: inf
ROOT
ATOM      1  C   UNL     1       0.255  -7.252   0.064  1.00  0.00     0.188 C 
ENDROOT
BRANCH   1   2
ATOM      2  O   UNL     1      -0.302  -8.563   0.086  1.00  0.00    -0.376 OA
BRANCH   2   3
ATOM      3  C   UNL     1      -1.492  -8.820   0.819  1.00  0.00     0.202 C 
BRANCH   3   4
ATOM      4  C   UNL     1      -1.588  -8.436   2.311  1.00  0.00     0.261 C 
BRANCH   4   5
ATOM      5  O   UNL     1      -1.166  -7.103   2.639  1.00  0.00    -0.458 OA
BRANCH   5   6
ATOM      6  C   UNL     1       0.022  -6.983   3.302  1.00  0.00     0.358 C 
ATOM      7  O   UNL     1       0.646  -7.918   3.793  1.00  0.00    -0.244 OA
BRANCH   6   8
ATOM      8  C   UNL     1       0.540  -5.615   3.236  1.00  0.00     0.166 A 
ATOM      9  N   UNL     1       0.717  -3.415   3.175  1.00  0.00    -0.289 N 
ATOM     10  C   UNL     1       1.842  -3.997   2.650  1.00  0.00     0.206 A 
ATOM     11  C   UNL     1      -0.124  -4.444   3.542  1.00  0.00     0.130 A 
ATOM     12  N   UNL     1       1.786  -5.309   2.705  1.00  0.00    -0.229 NA
BRANCH   9  13
ATOM     13  C   UNL     1       0.452  -2.037   3.353  1.00  0.00     0.142 A 
ATOM     14  C   UNL     1       0.633   0.221   2.741  1.00  0.00     0.072 A 
ATOM     15  C   UNL     1       1.024  -1.092   2.527  1.00  0.00     0.074 A 
ATOM     16  N   UNL     1      -0.157   0.575   3.784  1.00  0.00    -0.230 NA
ATOM     17  C   UNL     1      -0.601  -0.416   4.574  1.00  0.00     0.163 A 
ATOM     18  N   UNL     1      -0.370  -1.720   4.370  1.00  0.00    -0.210 NA
BRANCH  14  19
ATOM     19  C   UNL     1       1.076   1.317   1.792  1.00  0.00     0.216 C 
BRANCH  19  20
ATOM     20  O   UNL     1       0.332   1.343   0.572  1.00  0.00    -0.378 OA
ATOM     21  C   UNL     1       0.766   0.405  -0.403  1.00  0.00     0.195 C 
ENDBRANCH  19  20
ENDBRANCH  14  19
BRANCH  17  22
ATOM     22  C   UNL     1      -1.221  -0.075   5.844  1.00  0.00     0.038 A 
ATOM     23  C   UNL     1      -0.649  -0.486   7.058  1.00  0.00     0.015 A 
ATOM     24  C   UNL     1      -2.412   0.635   5.925  1.00  0.00     0.123 A 
ATOM     25  C   UNL     1      -1.271  -0.193   8.267  1.00  0.00     0.021 A 
ATOM     26  N   UNL     1      -3.051   0.930   7.087  1.00  0.00    -0.264 NA
ATOM     27  C   UNL     1      -2.465   0.505   8.228  1.00  0.00     0.111 A 
ENDBRANCH  17  22
ENDBRANCH   9  13
ENDBRANCH   6   8
ENDBRANCH   5   6
ENDBRANCH   4   5
ENDBRANCH   3   4
ENDBRANCH   2   3
ENDBRANCH   1   2
BRANCH   1  28
ATOM     28  C   UNL     1      -0.654  -6.006  -0.065  1.00  0.00     0.188 C 
BRANCH  28  29
ATOM     29  O   UNL     1      -2.031  -6.264   0.142  1.00  0.00    -0.376 OA
BRANCH  29  30
ATOM     30  C   UNL     1      -2.938  -6.080  -0.934  1.00  0.00     0.202 C 
BRANCH  30  31
ATOM     31  C   UNL     1      -2.730  -6.818  -2.259  1.00  0.00     0.261 C 
BRANCH  31  32
ATOM     32  O   UNL     1      -1.393  -7.174  -2.558  1.00  0.00    -0.460 OA
BRANCH  32  33
ATOM     33  C   UNL     1      -0.663  -6.204  -3.144  1.00  0.00     0.338 C 
ATOM     34  O   UNL     1      -0.956  -5.023  -3.227  1.00  0.00    -0.246 OA
BRANCH  33  35
ATOM     35  C   UNL     1       0.529  -6.816  -3.744  1.00  0.00     0.060 A 
ATOM     36  C   UNL     1       1.440  -5.943  -4.340  1.00  0.00     0.016 A 
ATOM     37  C   UNL     1       0.556  -8.200  -3.981  1.00  0.00     0.016 A 
ATOM     38  C   UNL     1       2.195  -6.419  -5.385  1.00  0.00     0.010 A 
ATOM     39  C   UNL     1       1.303  -8.672  -5.035  1.00  0.00     0.010 A 
ATOM     40  C   UNL     1       2.017  -7.747  -5.788  1.00  0.00    -0.014 A 
BRANCH  40  41
ATOM     41  C   UNL     1       2.505  -8.101  -7.099  1.00  0.00     0.031 A 
ATOM     42  C   UNL     1       3.956  -8.296  -7.200  1.00  0.00     0.074 A 
ATOM     43  C   UNL     1       1.682  -8.230  -8.155  1.00  0.00     0.049 A 
ATOM     44  N   UNL     1       4.808  -7.503  -7.754  1.00  0.00    -0.248 NA
ATOM     45  C   UNL     1       4.540  -9.440  -6.494  1.00  0.00     0.031 C 
ATOM     46  C   UNL     1       0.219  -8.307  -8.174  1.00  0.00     0.029 A 
ATOM     47  N   UNL     1       2.024  -8.422  -9.454  1.00  0.00    -0.354 N 
ATOM     48  C   UNL     1       6.037  -8.129  -7.622  1.00  0.00     0.074 A 
ATOM     49  C   UNL     1       5.838  -9.234  -6.714  1.00  0.00     0.031 C 
ATOM     50  C   UNL     1      -0.178  -8.761  -9.384  1.00  0.00     0.029 A 
ATOM     51  C   UNL     1       0.985  -8.869 -10.251  1.00  0.00     0.049 A 
ATOM     52  H   UNL     1       2.932  -8.258  -9.799  1.00  0.00     0.167 HD
ATOM     53  C   UNL     1       7.090  -7.821  -8.423  1.00  0.00     0.031 A 
ATOM     54  C   UNL     1       1.105  -9.373 -11.502  1.00  0.00     0.031 A 
ATOM     55  C   UNL     1       6.871  -6.625  -9.191  1.00  0.00     0.049 A 
ATOM     56  C   UNL     1       2.384  -8.869 -12.066  1.00  0.00     0.074 A 
ATOM     57  C   UNL     1       6.666  -5.296  -8.881  1.00  0.00     0.029 A 
ATOM     58  N   UNL     1       6.465  -6.779 -10.497  1.00  0.00    -0.354 N 
ATOM     59  N   UNL     1       2.589  -7.614 -12.353  1.00  0.00    -0.248 NA
ATOM     60  C   UNL     1       3.592  -9.667 -11.908  1.00  0.00     0.031 C 
ATOM     61  C   UNL     1       5.740  -4.823  -9.855  1.00  0.00     0.029 A 
ATOM     62  C   UNL     1       5.453  -5.879 -10.723  1.00  0.00     0.049 A 
ATOM     63  H   UNL     1       6.833  -7.418 -11.150  1.00  0.00     0.167 HD
ATOM     64  C   UNL     1       3.907  -7.369 -11.990  1.00  0.00     0.074 A 
ATOM     65  C   UNL     1       4.506  -8.692 -11.839  1.00  0.00     0.031 C 
ATOM     66  C   UNL     1       4.308  -6.130 -11.576  1.00  0.00     0.031 A 
BRANCH  53  67
ATOM     67  C   UNL     1       8.169  -8.806  -8.763  1.00  0.00    -0.014 A 
ATOM     68  C   UNL     1       9.348  -8.351  -9.379  1.00  0.00     0.010 A 
ATOM     69  C   UNL     1       7.946 -10.198  -8.726  1.00  0.00     0.010 A 
ATOM     70  C   UNL     1      10.239  -9.252  -9.974  1.00  0.00     0.020 A 
ATOM     71  C   UNL     1       8.849 -11.105  -9.274  1.00  0.00     0.020 A 
ATOM     72  C   UNL     1       9.973 -10.622  -9.930  1.00  0.00     0.054 A 
BRANCH  72  73
ATOM     73  S   UNL     1      11.059 -11.765 -10.815  1.00  0.00     0.124 S 
ATOM     74  O   UNL     1      10.789 -11.416 -12.206  1.00  0.00    -0.237 OA
ATOM     75  O   UNL     1      12.379 -11.395 -10.311  1.00  0.00    -0.237 OA
ATOM     76  O   UNL     1      10.584 -13.082 -10.396  1.00  0.00    -0.744 OA
ENDBRANCH  72  73
ENDBRANCH  53  67
BRANCH  54  77
ATOM     77  C   UNL     1       0.338 -10.504 -12.074  1.00  0.00    -0.014 A 
ATOM     78  C   UNL     1       0.389 -10.799 -13.446  1.00  0.00     0.010 A 
ATOM     79  C   UNL     1      -0.247 -11.461 -11.217  1.00  0.00     0.010 A 
ATOM     80  C   UNL     1      -0.077 -12.032 -13.935  1.00  0.00     0.020 A 
ATOM     81  C   UNL     1      -0.723 -12.684 -11.696  1.00  0.00     0.020 A 
ATOM     82  C   UNL     1      -0.613 -12.975 -13.052  1.00  0.00     0.054 A 
BRANCH  82  83
ATOM     83  S   UNL     1      -1.044 -14.630 -13.660  1.00  0.00     0.124 S 
ATOM     84  O   UNL     1      -2.238 -14.366 -14.458  1.00  0.00    -0.237 OA
ATOM     85  O   UNL     1       0.148 -15.012 -14.411  1.00  0.00    -0.237 OA
ATOM     86  O   UNL     1      -1.273 -15.398 -12.437  1.00  0.00    -0.744 OA
ENDBRANCH  82  83
ENDBRANCH  54  77
BRANCH  66  87
ATOM     87  C   UNL     1       3.349  -4.975 -11.773  1.00  0.00    -0.014 A 
ATOM     88  C   UNL     1       2.079  -4.924 -11.162  1.00  0.00     0.010 A 
ATOM     89  C   UNL     1       3.799  -3.843 -12.473  1.00  0.00     0.010 A 
ATOM     90  C   UNL     1       1.269  -3.786 -11.278  1.00  0.00     0.020 A 
ATOM     91  C   UNL     1       3.003  -2.697 -12.578  1.00  0.00     0.020 A 
ATOM     92  C   UNL     1       1.738  -2.678 -11.987  1.00  0.00     0.054 A 
BRANCH  92  93
ATOM     93  S   UNL     1       0.707  -1.187 -12.084  1.00  0.00     0.124 S 
ATOM     94  O   UNL     1      -0.370  -1.603 -12.979  1.00  0.00    -0.237 OA
ATOM     95  O   UNL     1       0.319  -0.968 -10.692  1.00  0.00    -0.237 OA
ATOM     96  O   UNL     1       1.609  -0.174 -12.631  1.00  0.00    -0.744 OA
ENDBRANCH  92  93
ENDBRANCH  66  87
ENDBRANCH  40  41
ENDBRANCH  33  35
ENDBRANCH  32  33
ENDBRANCH  31  32
ENDBRANCH  30  31
ENDBRANCH  29  30
ENDBRANCH  28  29
ENDBRANCH   1  28
TORSDOF 24
