REMARK SMILES CO[C@@H]1C[C@H](C(=O)OCCOCCOCCOC(=O)c2ccc(-c3c4nc(c(-c5ccc(S(=O)(=O)[O-])cc5)c5ccc([nH]5)c(-c5ccc(S(=O)(=O)[O-])cc5)c5nc(c(-c6ccc(S(=O)(=O)[O-])cc6)c6ccc3[nH]6)C=C5)C=C4)cc2)N(C(=O)c2ncc(Cl)c(Cl)c2Cl)C1
REMARK SMILES IDX 13 1 12 2 11 3 10 4 9 5 8 6 6 7 7 8 5 9 3 10 4 11 92 12
REMARK SMILES IDX 80 13 2 14 1 15 81 16 82 17 83 18 84 19 90 20 85 21 88 22
REMARK SMILES IDX 91 23 86 24 89 25 87 26 14 27 15 28 16 29 17 30 18 31 19 32
REMARK SMILES IDX 20 33 21 34 79 35 22 36 78 37 23 38 24 39 25 40 72 41 26 42
REMARK SMILES IDX 77 43 71 44 73 45 27 46 76 47 70 48 69 49 28 51 58 52 39 53
REMARK SMILES IDX 57 54 40 55 43 56 56 57 74 58 41 59 42 60 55 62 75 63 44 64
REMARK SMILES IDX 29 65 30 66 38 67 31 68 37 69 32 70 33 71 34 72 35 73 36 74
REMARK SMILES IDX 59 75 60 76 68 77 61 78 67 79 62 80 63 81 64 82 65 83 66 84
REMARK SMILES IDX 45 85 46 86 54 87 47 88 53 89 48 90 49 91 50 92 51 93 52 94
REMARK H PARENT 73 50 43 61
REMARK Flexibility Score: inf
ROOT
ATOM      1  C   UNL     1      -2.604   3.531  -1.727  1.00  0.00     0.188 C 
ENDROOT
BRANCH   1   2
ATOM      2  C   UNL     1      -2.471   4.098  -3.145  1.00  0.00     0.188 C 
BRANCH   2   3
ATOM      3  O   UNL     1      -2.954   3.287  -4.208  1.00  0.00    -0.376 OA
BRANCH   3   4
ATOM      4  C   UNL     1      -2.364   1.994  -4.372  1.00  0.00     0.202 C 
BRANCH   4   5
ATOM      5  C   UNL     1      -0.831   1.883  -4.302  1.00  0.00     0.261 C 
BRANCH   5   6
ATOM      6  O   UNL     1      -0.286   2.296  -3.030  1.00  0.00    -0.462 OA
BRANCH   6   7
ATOM      7  C   UNL     1       0.752   3.166  -3.082  1.00  0.00     0.329 C 
ATOM      8  O   UNL     1       1.286   3.526  -4.127  1.00  0.00    -0.250 OA
BRANCH   7   9
ATOM      9  C   UNL     1       1.093   3.810  -1.720  1.00  0.00     0.198 C 
ATOM     10  C   UNL     1       1.893   2.056  -0.277  1.00  0.00     0.140 C 
ATOM     11  C   UNL     1       0.757   3.064  -0.431  1.00  0.00     0.071 C 
ATOM     12  C   UNL     1       3.083   2.711  -0.995  1.00  0.00     0.153 C 
ATOM     13  N   UNL     1       2.549   3.904  -1.633  1.00  0.00    -0.321 N 
BRANCH  10  14
ATOM     14  O   UNL     1       1.498   0.854  -0.940  1.00  0.00    -0.380 OA
ATOM     15  C   UNL     1       1.340  -0.235  -0.041  1.00  0.00     0.195 C 
ENDBRANCH  10  14
BRANCH  13  16
ATOM     16  C   UNL     1       3.384   4.888  -2.138  1.00  0.00     0.274 C 
ATOM     17  O   UNL     1       4.609   4.783  -2.110  1.00  0.00    -0.267 OA
BRANCH  16  18
ATOM     18  C   UNL     1       2.785   6.147  -2.671  1.00  0.00     0.148 A 
ATOM     19  N   UNL     1       2.890   6.314  -4.016  1.00  0.00    -0.248 NA
ATOM     20  C   UNL     1       2.219   7.091  -1.815  1.00  0.00     0.092 A 
ATOM     21  C   UNL     1       2.387   7.458  -4.535  1.00  0.00     0.134 A 
ATOM     22  C   UNL     1       1.693   8.258  -2.394  1.00  0.00     0.082 A 
ATOM     23  Cl  UNL     1       2.174   6.836  -0.099  1.00  0.00    -0.080 Cl
ATOM     24  C   UNL     1       1.780   8.449  -3.778  1.00  0.00     0.079 A 
ATOM     25  Cl  UNL     1       0.920   9.456  -1.399  1.00  0.00    -0.081 Cl
ATOM     26  Cl  UNL     1       1.173   9.846  -4.581  1.00  0.00    -0.081 Cl
ENDBRANCH  16  18
ENDBRANCH  13  16
ENDBRANCH   7   9
ENDBRANCH   6   7
ENDBRANCH   5   6
ENDBRANCH   4   5
ENDBRANCH   3   4
ENDBRANCH   2   3
ENDBRANCH   1   2
BRANCH   1  27
ATOM     27  O   UNL     1      -2.578   2.124  -1.665  1.00  0.00    -0.376 OA
BRANCH  27  28
ATOM     28  C   UNL     1      -3.561   1.395  -0.944  1.00  0.00     0.202 C 
BRANCH  28  29
ATOM     29  C   UNL     1      -5.061   1.765  -0.982  1.00  0.00     0.261 C 
BRANCH  29  30
ATOM     30  O   UNL     1      -5.427   3.144  -0.828  1.00  0.00    -0.460 OA
BRANCH  30  31
ATOM     31  C   UNL     1      -5.096   3.759   0.334  1.00  0.00     0.338 C 
ATOM     32  O   UNL     1      -4.640   3.222   1.331  1.00  0.00    -0.246 OA
BRANCH  31  33
ATOM     33  C   UNL     1      -5.079   5.226   0.068  1.00  0.00     0.060 A 
ATOM     34  C   UNL     1      -3.925   5.951   0.410  1.00  0.00     0.016 A 
ATOM     35  C   UNL     1      -6.120   5.859  -0.615  1.00  0.00     0.016 A 
ATOM     36  C   UNL     1      -3.828   7.313   0.107  1.00  0.00     0.010 A 
ATOM     37  C   UNL     1      -6.032   7.227  -0.897  1.00  0.00     0.010 A 
ATOM     38  C   UNL     1      -4.901   7.970  -0.509  1.00  0.00    -0.014 A 
BRANCH  38  39
ATOM     39  C   UNL     1      -4.949   9.455  -0.547  1.00  0.00     0.031 A 
ATOM     40  C   UNL     1      -5.749  10.157   0.520  1.00  0.00     0.074 A 
ATOM     41  C   UNL     1      -4.312  10.175  -1.489  1.00  0.00     0.049 A 
ATOM     42  N   UNL     1      -6.018  11.428   0.659  1.00  0.00    -0.248 NA
ATOM     43  C   UNL     1      -6.328   9.301   1.571  1.00  0.00     0.031 C 
ATOM     44  C   UNL     1      -3.460   9.633  -2.545  1.00  0.00     0.029 A 
ATOM     45  N   UNL     1      -4.300  11.532  -1.711  1.00  0.00    -0.354 N 
ATOM     46  C   UNL     1      -6.808  11.524   1.800  1.00  0.00     0.074 A 
ATOM     47  C   UNL     1      -6.998  10.180   2.298  1.00  0.00     0.031 C 
ATOM     48  C   UNL     1      -3.017  10.647  -3.311  1.00  0.00     0.029 A 
ATOM     49  C   UNL     1      -3.588  11.905  -2.827  1.00  0.00     0.049 A 
ATOM     50  H   UNL     1      -4.758  12.177  -1.125  1.00  0.00     0.167 HD
ATOM     51  C   UNL     1      -7.327  12.629   2.384  1.00  0.00     0.031 A 
ATOM     52  C   UNL     1      -3.438  13.114  -3.407  1.00  0.00     0.031 A 
ATOM     53  C   UNL     1      -7.153  13.964   1.881  1.00  0.00     0.049 A 
ATOM     54  C   UNL     1      -4.101  14.324  -2.790  1.00  0.00     0.074 A 
ATOM     55  C   UNL     1      -7.631  15.150   2.410  1.00  0.00     0.029 A 
ATOM     56  N   UNL     1      -6.455  14.292   0.729  1.00  0.00    -0.354 N 
ATOM     57  N   UNL     1      -4.832  14.401  -1.703  1.00  0.00    -0.248 NA
ATOM     58  C   UNL     1      -3.912  15.611  -3.477  1.00  0.00     0.031 C 
ATOM     59  C   UNL     1      -7.279  16.187   1.541  1.00  0.00     0.029 A 
ATOM     60  C   UNL     1      -6.515  15.658   0.514  1.00  0.00     0.049 A 
ATOM     61  H   UNL     1      -5.986  13.648   0.149  1.00  0.00     0.167 HD
ATOM     62  C   UNL     1      -5.154  15.748  -1.555  1.00  0.00     0.074 A 
ATOM     63  C   UNL     1      -4.537  16.450  -2.660  1.00  0.00     0.031 C 
ATOM     64  C   UNL     1      -5.889  16.350  -0.586  1.00  0.00     0.031 A 
BRANCH  51  65
ATOM     65  C   UNL     1      -8.172  12.432   3.616  1.00  0.00    -0.014 A 
ATOM     66  C   UNL     1      -7.606  12.019   4.835  1.00  0.00     0.010 A 
ATOM     67  C   UNL     1      -9.553  12.697   3.558  1.00  0.00     0.010 A 
ATOM     68  C   UNL     1      -8.411  11.837   5.963  1.00  0.00     0.020 A 
ATOM     69  C   UNL     1     -10.356  12.547   4.691  1.00  0.00     0.020 A 
ATOM     70  C   UNL     1      -9.782  12.102   5.883  1.00  0.00     0.054 A 
BRANCH  70  71
ATOM     71  S   UNL     1     -10.798  11.878   7.368  1.00  0.00     0.124 S 
ATOM     72  O   UNL     1     -10.814  10.423   7.505  1.00  0.00    -0.237 OA
ATOM     73  O   UNL     1     -10.036  12.595   8.387  1.00  0.00    -0.237 OA
ATOM     74  O   UNL     1     -12.078  12.483   7.009  1.00  0.00    -0.744 OA
ENDBRANCH  70  71
ENDBRANCH  51  65
BRANCH  52  75
ATOM     75  C   UNL     1      -2.644  13.248  -4.663  1.00  0.00    -0.014 A 
ATOM     76  C   UNL     1      -1.423  13.945  -4.674  1.00  0.00     0.010 A 
ATOM     77  C   UNL     1      -3.116  12.684  -5.863  1.00  0.00     0.010 A 
ATOM     78  C   UNL     1      -0.698  14.089  -5.862  1.00  0.00     0.020 A 
ATOM     79  C   UNL     1      -2.379  12.799  -7.046  1.00  0.00     0.020 A 
ATOM     80  C   UNL     1      -1.178  13.510  -7.039  1.00  0.00     0.054 A 
BRANCH  80  81
ATOM     81  S   UNL     1      -0.194  13.666  -8.556  1.00  0.00     0.124 S 
ATOM     82  O   UNL     1      -0.362  15.078  -8.886  1.00  0.00    -0.237 OA
ATOM     83  O   UNL     1       1.140  13.274  -8.108  1.00  0.00    -0.237 OA
ATOM     84  O   UNL     1      -0.834  12.728  -9.477  1.00  0.00    -0.744 OA
ENDBRANCH  80  81
ENDBRANCH  52  75
BRANCH  64  85
ATOM     85  C   UNL     1      -6.028  17.852  -0.630  1.00  0.00    -0.014 A 
ATOM     86  C   UNL     1      -6.819  18.493  -1.599  1.00  0.00     0.010 A 
ATOM     87  C   UNL     1      -5.415  18.628   0.373  1.00  0.00     0.010 A 
ATOM     88  C   UNL     1      -6.974  19.883  -1.579  1.00  0.00     0.020 A 
ATOM     89  C   UNL     1      -5.593  20.013   0.416  1.00  0.00     0.020 A 
ATOM     90  C   UNL     1      -6.363  20.634  -0.569  1.00  0.00     0.054 A 
BRANCH  90  91
ATOM     91  S   UNL     1      -6.628  22.429  -0.532  1.00  0.00     0.124 S 
ATOM     92  O   UNL     1      -5.844  22.876  -1.680  1.00  0.00    -0.237 OA
ATOM     93  O   UNL     1      -8.077  22.541  -0.678  1.00  0.00    -0.237 OA
ATOM     94  O   UNL     1      -6.106  22.831   0.772  1.00  0.00    -0.744 OA
ENDBRANCH  90  91
ENDBRANCH  64  85
ENDBRANCH  38  39
ENDBRANCH  31  33
ENDBRANCH  30  31
ENDBRANCH  29  30
ENDBRANCH  28  29
ENDBRANCH  27  28
ENDBRANCH   1  27
TORSDOF 23
