REMARK SMILES CC(C)CCc1cc2c(cc1Cl)C=C(C(=O)OCCOCCOCCOC(=O)c1ccc(-c3c4nc(c(-c5ccc(S(=O)(=O)[O-])cc5)c5ccc([nH]5)c(-c5ccc(S(=O)(=O)[O-])cc5)c5nc(c(-c6ccc(S(=O)(=O)[O-])cc6)c6ccc3[nH]6)C=C5)C=C4)cc1)[C@@H](C(F)(F)F)O2
REMARK SMILES IDX 21 1 20 2 19 3 18 4 17 5 15 6 16 7 14 8 6 9 7 10 11 11 8 12
REMARK SMILES IDX 10 13 12 14 9 15 94 16 13 17 89 18 5 19 4 20 2 21 1 22 3 23
REMARK SMILES IDX 90 24 91 25 92 26 93 27 22 28 23 29 24 30 25 31 26 32 27 33
REMARK SMILES IDX 28 34 29 35 30 36 88 37 31 38 87 39 32 40 33 41 34 42 81 43
REMARK SMILES IDX 35 44 86 45 80 46 82 47 36 48 85 49 79 50 78 51 37 53 67 54
REMARK SMILES IDX 48 55 66 56 49 57 52 58 65 59 83 60 50 61 51 62 64 64 84 65
REMARK SMILES IDX 53 66 38 67 39 68 47 69 40 70 46 71 41 72 42 73 43 74 44 75
REMARK SMILES IDX 45 76 68 77 69 78 77 79 70 80 76 81 71 82 72 83 73 84 74 85
REMARK SMILES IDX 75 86 54 87 55 88 63 89 56 90 62 91 57 92 58 93 59 94 60 95
REMARK SMILES IDX 61 96
REMARK H PARENT 82 52 52 63
REMARK Flexibility Score: inf
ROOT
ATOM      1  C   UNL     1       0.072  -0.559  10.565  1.00  0.00     0.188 C 
ENDROOT
BRANCH   1   2
ATOM      2  O   UNL     1       0.773  -0.057  11.690  1.00  0.00    -0.376 OA
BRANCH   2   3
ATOM      3  C   UNL     1       2.184   0.019  11.585  1.00  0.00     0.202 C 
BRANCH   3   4
ATOM      4  C   UNL     1       2.730   1.090  10.631  1.00  0.00     0.261 C 
BRANCH   4   5
ATOM      5  O   UNL     1       2.080   1.158   9.353  1.00  0.00    -0.460 OA
BRANCH   5   6
ATOM      6  C   UNL     1       2.484   0.283   8.408  1.00  0.00     0.338 C 
ATOM      7  O   UNL     1       3.346  -0.569   8.531  1.00  0.00    -0.246 OA
BRANCH   6   8
ATOM      8  C   UNL     1       1.617   0.447   7.219  1.00  0.00     0.087 C 
ATOM      9  C   UNL     1      -1.006  -0.163   2.976  1.00  0.00    -0.026 A 
ATOM     10  C   UNL     1      -0.689   0.937   3.793  1.00  0.00     0.052 A 
ATOM     11  C   UNL     1      -0.763  -1.448   3.490  1.00  0.00     0.045 A 
ATOM     12  C   UNL     1       0.002   0.769   4.995  1.00  0.00     0.128 A 
ATOM     13  C   UNL     1      -0.093  -1.617   4.709  1.00  0.00     0.032 A 
ATOM     14  Cl  UNL     1      -1.249  -2.879   2.652  1.00  0.00    -0.084 Cl
ATOM     15  C   UNL     1       0.340  -0.507   5.438  1.00  0.00     0.019 A 
ATOM     16  O   UNL     1       0.322   1.916   5.660  1.00  0.00    -0.475 OA
ATOM     17  C   UNL     1       1.171  -0.665   6.621  1.00  0.00     0.027 C 
ATOM     18  C   UNL     1       1.249   1.842   6.776  1.00  0.00     0.316 C 
BRANCH   9  19
ATOM     19  C   UNL     1      -1.571   0.062   1.587  1.00  0.00     0.037 C 
BRANCH  19  20
ATOM     20  C   UNL     1      -0.972   1.250   0.805  1.00  0.00     0.008 C 
BRANCH  20  21
ATOM     21  C   UNL     1       0.568   1.254   0.675  1.00  0.00    -0.017 C 
ATOM     22  C   UNL     1       1.089   0.075  -0.146  1.00  0.00     0.007 C 
ATOM     23  C   UNL     1       1.037   2.572   0.055  1.00  0.00     0.007 C 
ENDBRANCH  20  21
ENDBRANCH  19  20
ENDBRANCH   9  19
BRANCH  18  24
ATOM     24  C   UNL     1       2.481   2.696   6.444  1.00  0.00     0.430 C 
ATOM     25  F   UNL     1       2.121   3.936   6.027  1.00  0.00    -0.167 F 
ATOM     26  F   UNL     1       3.279   2.871   7.523  1.00  0.00    -0.167 F 
ATOM     27  F   UNL     1       3.236   2.146   5.466  1.00  0.00    -0.167 F 
ENDBRANCH  18  24
ENDBRANCH   6   8
ENDBRANCH   5   6
ENDBRANCH   4   5
ENDBRANCH   3   4
ENDBRANCH   2   3
ENDBRANCH   1   2
BRANCH   1  28
ATOM     28  C   UNL     1      -0.848   0.496   9.916  1.00  0.00     0.188 C 
BRANCH  28  29
ATOM     29  O   UNL     1      -1.089   1.726  10.590  1.00  0.00    -0.376 OA
BRANCH  29  30
ATOM     30  C   UNL     1      -1.407   1.696  11.977  1.00  0.00     0.202 C 
BRANCH  30  31
ATOM     31  C   UNL     1      -2.641   0.901  12.423  1.00  0.00     0.261 C 
BRANCH  31  32
ATOM     32  O   UNL     1      -2.614  -0.486  12.049  1.00  0.00    -0.460 OA
BRANCH  32  33
ATOM     33  C   UNL     1      -3.561  -0.874  11.156  1.00  0.00     0.338 C 
ATOM     34  O   UNL     1      -4.443  -0.186  10.673  1.00  0.00    -0.246 OA
BRANCH  33  35
ATOM     35  C   UNL     1      -3.239  -2.234  10.673  1.00  0.00     0.060 A 
ATOM     36  C   UNL     1      -3.104  -3.304  11.558  1.00  0.00     0.016 A 
ATOM     37  C   UNL     1      -3.072  -2.428   9.294  1.00  0.00     0.016 A 
ATOM     38  C   UNL     1      -2.823  -4.579  11.056  1.00  0.00     0.010 A 
ATOM     39  C   UNL     1      -2.769  -3.697   8.797  1.00  0.00     0.010 A 
ATOM     40  C   UNL     1      -2.662  -4.785   9.673  1.00  0.00    -0.014 A 
BRANCH  40  41
ATOM     41  C   UNL     1      -2.558  -6.162   9.134  1.00  0.00     0.031 A 
ATOM     42  C   UNL     1      -1.239  -6.783   8.792  1.00  0.00     0.074 A 
ATOM     43  C   UNL     1      -3.700  -6.854   8.953  1.00  0.00     0.049 A 
ATOM     44  N   UNL     1      -0.992  -8.010   8.410  1.00  0.00    -0.248 NA
ATOM     45  C   UNL     1      -0.047  -5.928   8.889  1.00  0.00     0.031 C 
ATOM     46  C   UNL     1      -5.040  -6.339   9.239  1.00  0.00     0.029 A 
ATOM     47  N   UNL     1      -3.919  -8.131   8.502  1.00  0.00    -0.354 N 
ATOM     48  C   UNL     1       0.385  -8.089   8.249  1.00  0.00     0.074 A 
ATOM     49  C   UNL     1       0.916  -6.771   8.528  1.00  0.00     0.031 C 
ATOM     50  C   UNL     1      -5.940  -7.298   8.981  1.00  0.00     0.029 A 
ATOM     51  C   UNL     1      -5.247  -8.488   8.492  1.00  0.00     0.049 A 
ATOM     52  H   UNL     1      -3.196  -8.734   8.214  1.00  0.00     0.167 HD
ATOM     53  C   UNL     1       1.130  -9.172   7.919  1.00  0.00     0.031 A 
ATOM     54  C   UNL     1      -5.846  -9.644   8.144  1.00  0.00     0.031 A 
ATOM     55  C   UNL     1       0.582 -10.472   7.619  1.00  0.00     0.049 A 
ATOM     56  C   UNL     1      -5.001 -10.814   7.730  1.00  0.00     0.074 A 
ATOM     57  C   UNL     1       1.266 -11.637   7.314  1.00  0.00     0.029 A 
ATOM     58  N   UNL     1      -0.770 -10.781   7.569  1.00  0.00    -0.354 N 
ATOM     59  N   UNL     1      -3.694 -10.896   7.663  1.00  0.00    -0.248 NA
ATOM     60  C   UNL     1      -5.703 -12.051   7.362  1.00  0.00     0.031 C 
ATOM     61  C   UNL     1       0.330 -12.628   7.010  1.00  0.00     0.029 A 
ATOM     62  C   UNL     1      -0.939 -12.107   7.202  1.00  0.00     0.049 A 
ATOM     63  H   UNL     1      -1.501 -10.152   7.766  1.00  0.00     0.167 HD
ATOM     64  C   UNL     1      -3.415 -12.198   7.266  1.00  0.00     0.074 A 
ATOM     65  C   UNL     1      -4.688 -12.873   7.120  1.00  0.00     0.031 C 
ATOM     66  C   UNL     1      -2.209 -12.777   7.049  1.00  0.00     0.031 A 
BRANCH  53  67
ATOM     67  C   UNL     1       2.631  -9.030   7.882  1.00  0.00    -0.014 A 
ATOM     68  C   UNL     1       3.323  -9.179   6.666  1.00  0.00     0.010 A 
ATOM     69  C   UNL     1       3.366  -8.910   9.075  1.00  0.00     0.010 A 
ATOM     70  C   UNL     1       4.720  -9.247   6.646  1.00  0.00     0.020 A 
ATOM     71  C   UNL     1       4.764  -8.951   9.057  1.00  0.00     0.020 A 
ATOM     72  C   UNL     1       5.431  -9.145   7.844  1.00  0.00     0.054 A 
BRANCH  72  73
ATOM     73  S   UNL     1       7.240  -9.278   7.806  1.00  0.00     0.124 S 
ATOM     74  O   UNL     1       7.441 -10.708   7.595  1.00  0.00    -0.237 OA
ATOM     75  O   UNL     1       7.599  -8.417   6.681  1.00  0.00    -0.237 OA
ATOM     76  O   UNL     1       7.647  -8.775   9.117  1.00  0.00    -0.744 OA
ENDBRANCH  72  73
ENDBRANCH  53  67
BRANCH  54  77
ATOM     77  C   UNL     1      -7.327  -9.740   8.244  1.00  0.00    -0.014 A 
ATOM     78  C   UNL     1      -8.148  -8.992   7.379  1.00  0.00     0.010 A 
ATOM     79  C   UNL     1      -7.921 -10.486   9.276  1.00  0.00     0.010 A 
ATOM     80  C   UNL     1      -9.529  -8.939   7.581  1.00  0.00     0.020 A 
ATOM     81  C   UNL     1      -9.307 -10.459   9.464  1.00  0.00     0.020 A 
ATOM     82  C   UNL     1     -10.097  -9.659   8.635  1.00  0.00     0.054 A 
BRANCH  82  83
ATOM     83  S   UNL     1     -11.882  -9.518   8.924  1.00  0.00     0.124 S 
ATOM     84  O   UNL     1     -11.981  -8.199   9.543  1.00  0.00    -0.237 OA
ATOM     85  O   UNL     1     -12.433  -9.623   7.575  1.00  0.00    -0.237 OA
ATOM     86  O   UNL     1     -12.176 -10.646   9.804  1.00  0.00    -0.744 OA
ENDBRANCH  82  83
ENDBRANCH  54  77
BRANCH  66  87
ATOM     87  C   UNL     1      -2.174 -14.221   6.619  1.00  0.00    -0.014 A 
ATOM     88  C   UNL     1      -1.627 -15.192   7.479  1.00  0.00     0.010 A 
ATOM     89  C   UNL     1      -2.543 -14.594   5.314  1.00  0.00     0.010 A 
ATOM     90  C   UNL     1      -1.406 -16.497   7.030  1.00  0.00     0.020 A 
ATOM     91  C   UNL     1      -2.350 -15.906   4.870  1.00  0.00     0.020 A 
ATOM     92  C   UNL     1      -1.755 -16.841   5.722  1.00  0.00     0.054 A 
BRANCH  92  93
ATOM     93  S   UNL     1      -1.408 -18.523   5.137  1.00  0.00     0.124 S 
ATOM     94  O   UNL     1       0.035 -18.482   4.923  1.00  0.00    -0.237 OA
ATOM     95  O   UNL     1      -1.855 -19.351   6.255  1.00  0.00    -0.237 OA
ATOM     96  O   UNL     1      -2.216 -18.639   3.925  1.00  0.00    -0.744 OA
ENDBRANCH  92  93
ENDBRANCH  66  87
ENDBRANCH  40  41
ENDBRANCH  33  35
ENDBRANCH  32  33
ENDBRANCH  31  32
ENDBRANCH  30  31
ENDBRANCH  29  30
ENDBRANCH  28  29
ENDBRANCH   1  28
TORSDOF 24
