REMARK SMILES Cc1ccc(NC(=O)C[C@@H](C(=O)OCCOCCOCCOC(=O)c2ccc(-c3c4nc(c(-c5ccc(S(=O)(=O)[O-])cc5)c5ccc([nH]5)c(-c5ccc(S(=O)(=O)[O-])cc5)c5nc(c(-c6ccc(S(=O)(=O)[O-])cc6)c6ccc3[nH]6)C=C5)C=C4)cc2)[NH+]2CCOCC2)cc1
REMARK SMILES IDX 17 1 16 2 15 3 14 4 13 5 11 6 12 7 10 8 9 9 7 10 6 11 8 13
REMARK SMILES IDX 5 14 1 15 2 16 3 17 92 18 4 19 91 20 85 21 86 22 90 23 87 25
REMARK SMILES IDX 89 26 88 27 18 28 19 29 20 30 21 31 22 32 23 33 24 34 25 35
REMARK SMILES IDX 26 36 84 37 27 38 83 39 28 40 29 41 30 42 77 43 31 44 82 45
REMARK SMILES IDX 76 46 78 47 32 48 81 49 75 50 74 51 33 53 63 54 44 55 62 56
REMARK SMILES IDX 45 57 48 58 61 59 79 60 46 61 47 62 60 64 80 65 49 66 34 67
REMARK SMILES IDX 35 68 43 69 36 70 42 71 37 72 38 73 39 74 40 75 41 76 64 77
REMARK SMILES IDX 65 78 73 79 66 80 72 81 67 82 68 83 69 84 70 85 71 86 50 87
REMARK SMILES IDX 51 88 59 89 52 90 58 91 53 92 54 93 55 94 56 95 57 96
REMARK H PARENT 6 12 85 24 78 52 48 63
REMARK Flexibility Score: inf
ROOT
ATOM      1  C   UNL     1      -0.196   0.616   2.157  1.00  0.00     0.188 C 
ENDROOT
BRANCH   1   2
ATOM      2  O   UNL     1       0.160   1.792   1.410  1.00  0.00    -0.376 OA
BRANCH   2   3
ATOM      3  C   UNL     1      -0.755   2.270   0.115  1.00  0.00     0.202 C 
BRANCH   3   4
ATOM      4  C   UNL     1      -0.769   1.524  -1.993  1.00  0.00     0.261 C 
BRANCH   4   5
ATOM      5  O   UNL     1      -1.117   0.008  -3.102  1.00  0.00    -0.459 OA
BRANCH   5   6
ATOM      6  C   UNL     1      -1.654  -1.504  -3.701  1.00  0.00     0.365 C 
ATOM      7  O   UNL     1      -1.562  -1.839  -4.884  1.00  0.00    -0.245 OA
BRANCH   6   8
ATOM      8  C   UNL     1      -2.688  -2.801  -2.759  1.00  0.00     0.304 C 
BRANCH   8   9
ATOM      9  C   UNL     1      -3.836  -2.420  -1.327  1.00  0.00     0.177 C 
BRANCH   9  10
ATOM     10  C   UNL     1      -4.419  -0.785  -0.547  1.00  0.00     0.231 C 
ATOM     11  N   UNL     1      -3.831   0.610  -0.461  1.00  0.00    -0.326 N 
ATOM     12  H   UNL     1      -4.514   1.257  -0.173  1.00  0.00     0.169 HD
ATOM     13  O   UNL     1      -5.555  -0.858  -0.029  1.00  0.00    -0.274 OA
BRANCH  11  14
ATOM     14  C   UNL     1      -2.492   1.306  -0.688  1.00  0.00     0.041 A 
ATOM     15  C   UNL     1       2.352   2.987  -0.616  1.00  0.00     0.044 C 
ATOM     16  C   UNL     1       0.964   2.592  -1.071  1.00  0.00    -0.051 A 
ATOM     17  C   UNL     1       0.666   0.957  -0.552  1.00  0.00     0.005 A 
ATOM     18  C   UNL     1      -0.457   3.618  -1.471  1.00  0.00     0.005 A 
ATOM     19  C   UNL     1      -1.037   0.403  -0.309  1.00  0.00     0.026 A 
ATOM     20  C   UNL     1      -2.171   3.001  -1.225  1.00  0.00     0.026 A 
ENDBRANCH  11  14
ENDBRANCH   9  10
ENDBRANCH   8   9
BRANCH   8  21
ATOM     21  N   UNL     1      -1.788  -4.033  -2.591  1.00  0.00    -0.319 N 
ATOM     22  C   UNL     1      -0.905  -4.415  -3.710  1.00  0.00     0.291 C 
ATOM     23  C   UNL     1      -2.181  -5.254  -1.881  1.00  0.00     0.291 C 
ATOM     24  H   UNL     1      -1.309  -3.491  -1.873  1.00  0.00     0.348 HD
ATOM     25  C   UNL     1      -1.504  -5.507  -4.590  1.00  0.00     0.221 C 
ATOM     26  C   UNL     1      -2.402  -6.561  -2.696  1.00  0.00     0.221 C 
ATOM     27  O   UNL     1      -1.553  -6.720  -3.835  1.00  0.00    -0.370 OA
ENDBRANCH   8  21
ENDBRANCH   6   8
ENDBRANCH   5   6
ENDBRANCH   4   5
ENDBRANCH   3   4
ENDBRANCH   2   3
ENDBRANCH   1   2
BRANCH   1  28
ATOM     28  C   UNL     1      -1.650   0.670   2.634  1.00  0.00     0.188 C 
BRANCH  28  29
ATOM     29  O   UNL     1      -1.917   1.583   3.661  1.00  0.00    -0.376 OA
BRANCH  29  30
ATOM     30  C   UNL     1      -0.929   1.445   4.663  1.00  0.00     0.202 C 
BRANCH  30  31
ATOM     31  C   UNL     1      -0.452  -0.023   5.123  1.00  0.00     0.261 C 
BRANCH  31  32
ATOM     32  O   UNL     1      -1.351  -1.241   4.875  1.00  0.00    -0.460 OA
BRANCH  32  33
ATOM     33  C   UNL     1      -1.231  -2.560   4.393  1.00  0.00     0.338 C 
ATOM     34  O   UNL     1      -1.500  -3.531   5.104  1.00  0.00    -0.246 OA
BRANCH  33  35
ATOM     35  C   UNL     1      -1.525  -2.787   2.921  1.00  0.00     0.060 A 
ATOM     36  C   UNL     1      -0.881  -3.611   1.993  1.00  0.00     0.016 A 
ATOM     37  C   UNL     1      -2.660  -2.224   2.432  1.00  0.00     0.016 A 
ATOM     38  C   UNL     1      -0.988  -3.371   0.571  1.00  0.00     0.010 A 
ATOM     39  C   UNL     1      -2.618  -1.844   1.098  1.00  0.00     0.010 A 
ATOM     40  C   UNL     1      -1.756  -2.306   0.078  1.00  0.00    -0.014 A 
BRANCH  40  41
ATOM     41  C   UNL     1      -1.571  -1.434  -1.433  1.00  0.00     0.031 A 
ATOM     42  C   UNL     1      -3.027  -0.457  -2.433  1.00  0.00     0.074 A 
ATOM     43  C   UNL     1      -0.078  -1.445  -1.722  1.00  0.00     0.049 A 
ATOM     44  N   UNL     1      -2.954   0.728  -3.098  1.00  0.00    -0.248 NA
ATOM     45  C   UNL     1      -4.494  -0.851  -3.005  1.00  0.00     0.031 C 
ATOM     46  C   UNL     1       0.859  -0.610  -2.724  1.00  0.00     0.029 A 
ATOM     47  N   UNL     1       0.983  -1.998  -1.022  1.00  0.00    -0.354 N 
ATOM     48  C   UNL     1      -3.789   0.890  -4.165  1.00  0.00     0.074 A 
ATOM     49  C   UNL     1      -4.920   0.156  -3.761  1.00  0.00     0.031 C 
ATOM     50  C   UNL     1       2.153  -0.603  -2.443  1.00  0.00     0.029 A 
ATOM     51  C   UNL     1       2.251  -1.708  -1.580  1.00  0.00     0.049 A 
ATOM     52  H   UNL     1       0.865  -2.544  -0.210  1.00  0.00     0.167 HD
ATOM     53  C   UNL     1      -3.437   1.194  -5.461  1.00  0.00     0.031 A 
ATOM     54  C   UNL     1       3.025  -2.715  -2.022  1.00  0.00     0.031 A 
ATOM     55  C   UNL     1      -1.983   1.082  -5.822  1.00  0.00     0.049 A 
ATOM     56  C   UNL     1       2.632  -2.917  -3.590  1.00  0.00     0.074 A 
ATOM     57  C   UNL     1      -0.869   1.899  -5.740  1.00  0.00     0.029 A 
ATOM     58  N   UNL     1      -1.439  -0.125  -6.310  1.00  0.00    -0.354 N 
ATOM     59  N   UNL     1       1.522  -2.438  -4.171  1.00  0.00    -0.248 NA
ATOM     60  C   UNL     1       3.585  -3.256  -4.650  1.00  0.00     0.031 C 
ATOM     61  C   UNL     1       0.330   1.101  -5.950  1.00  0.00     0.029 A 
ATOM     62  C   UNL     1      -0.008  -0.235  -6.174  1.00  0.00     0.049 A 
ATOM     63  H   UNL     1      -1.991  -0.834  -6.711  1.00  0.00     0.167 HD
ATOM     64  C   UNL     1       1.645  -2.212  -5.540  1.00  0.00     0.074 A 
ATOM     65  C   UNL     1       2.962  -2.828  -5.775  1.00  0.00     0.031 C 
ATOM     66  C   UNL     1       0.777  -1.558  -6.446  1.00  0.00     0.031 A 
BRANCH  53  67
ATOM     67  C   UNL     1      -4.520   1.853  -6.343  1.00  0.00    -0.014 A 
ATOM     68  C   UNL     1      -4.129   2.801  -7.303  1.00  0.00     0.010 A 
ATOM     69  C   UNL     1      -5.924   1.723  -6.179  1.00  0.00     0.010 A 
ATOM     70  C   UNL     1      -5.066   3.626  -7.966  1.00  0.00     0.020 A 
ATOM     71  C   UNL     1      -6.867   2.565  -6.791  1.00  0.00     0.020 A 
ATOM     72  C   UNL     1      -6.428   3.527  -7.679  1.00  0.00     0.054 A 
BRANCH  72  73
ATOM     73  S   UNL     1      -7.608   4.659  -8.462  1.00  0.00     0.124 S 
ATOM     74  O   UNL     1      -7.091   5.970  -8.074  1.00  0.00    -0.237 OA
ATOM     75  O   UNL     1      -7.476   4.320  -9.875  1.00  0.00    -0.237 OA
ATOM     76  O   UNL     1      -8.891   4.304  -7.856  1.00  0.00    -0.744 OA
ENDBRANCH  72  73
ENDBRANCH  53  67
BRANCH  54  77
ATOM     77  C   UNL     1       3.433  -3.273  -0.654  1.00  0.00    -0.014 A 
ATOM     78  C   UNL     1       4.199  -2.325   0.140  1.00  0.00     0.010 A 
ATOM     79  C   UNL     1       2.599  -4.118   0.114  1.00  0.00     0.010 A 
ATOM     80  C   UNL     1       4.011  -2.120   1.530  1.00  0.00     0.020 A 
ATOM     81  C   UNL     1       2.459  -3.948   1.531  1.00  0.00     0.020 A 
ATOM     82  C   UNL     1       3.133  -2.935   2.224  1.00  0.00     0.054 A 
BRANCH  82  83
ATOM     83  S   UNL     1       2.833  -2.592   3.995  1.00  0.00     0.124 S 
ATOM     84  O   UNL     1       4.068  -3.057   4.614  1.00  0.00    -0.237 OA
ATOM     85  O   UNL     1       2.623  -1.146   4.019  1.00  0.00    -0.237 OA
ATOM     86  O   UNL     1       1.639  -3.376   4.290  1.00  0.00    -0.744 OA
ENDBRANCH  82  83
ENDBRANCH  54  77
BRANCH  66  87
ATOM     87  C   UNL     1       0.512  -2.262  -7.806  1.00  0.00    -0.014 A 
ATOM     88  C   UNL     1       1.118  -3.477  -8.186  1.00  0.00     0.010 A 
ATOM     89  C   UNL     1      -0.485  -1.790  -8.697  1.00  0.00     0.010 A 
ATOM     90  C   UNL     1       0.833  -4.118  -9.399  1.00  0.00     0.020 A 
ATOM     91  C   UNL     1      -0.842  -2.465  -9.878  1.00  0.00     0.020 A 
ATOM     92  C   UNL     1      -0.144  -3.606 -10.242  1.00  0.00     0.054 A 
BRANCH  92  93
ATOM     93  S   UNL     1      -0.476  -4.461 -11.799  1.00  0.00     0.124 S 
ATOM     94  O   UNL     1       0.724  -4.150 -12.572  1.00  0.00    -0.237 OA
ATOM     95  O   UNL     1      -0.603  -5.855 -11.378  1.00  0.00    -0.237 OA
ATOM     96  O   UNL     1      -1.709  -3.846 -12.283  1.00  0.00    -0.744 OA
ENDBRANCH  92  93
ENDBRANCH  66  87
ENDBRANCH  40  41
ENDBRANCH  33  35
ENDBRANCH  32  33
ENDBRANCH  31  32
ENDBRANCH  30  31
ENDBRANCH  29  30
ENDBRANCH  28  29
ENDBRANCH   1  28
TORSDOF 24
