REMARK SMILES NS(=O)(=O)c1ccc(-c2coc(=O)n2-c2ccc(C(=O)OCCOCCOCCOC(=O)c3ccc(-c4c5nc(c(-c6ccc(S(=O)(=O)[O-])cc6)c6ccc([nH]6)c(-c6ccc(S(=O)(=O)[O-])cc6)c6nc(c(-c7ccc(S(=O)(=O)[O-])cc7)c7ccc4[nH]7)C=C6)C=C5)cc3)cc2)cc1
REMARK SMILES IDX 25 1 24 2 23 3 22 4 21 5 19 6 20 7 18 8 15 9 16 10 94 11
REMARK SMILES IDX 17 12 93 13 14 14 9 15 10 16 11 17 12 18 13 19 8 20 5 21
REMARK SMILES IDX 6 22 96 23 7 24 95 25 2 26 3 27 4 28 1 29 26 32 27 33 28 34
REMARK SMILES IDX 29 35 30 36 31 37 32 38 33 39 34 40 92 41 35 42 91 43 36 44
REMARK SMILES IDX 37 45 38 46 85 47 39 48 90 49 84 50 86 51 40 52 89 53 83 54
REMARK SMILES IDX 82 55 41 57 71 58 52 59 70 60 53 61 56 62 69 63 87 64 54 65
REMARK SMILES IDX 55 66 68 68 88 69 57 70 42 71 43 72 51 73 44 74 50 75 45 76
REMARK SMILES IDX 46 77 47 78 48 79 49 80 72 81 73 82 81 83 74 84 80 85 75 86
REMARK SMILES IDX 76 87 77 88 78 89 79 90 58 91 59 92 67 93 60 94 66 95 61 96
REMARK SMILES IDX 62 97 63 98 64 99 65 100
REMARK H PARENT 1 30 1 31 86 56 56 67
REMARK Flexibility Score: inf
ROOT
ATOM      1  C   UNL     1       9.240   4.441   4.261  1.00  0.00     0.188 C 
ENDROOT
BRANCH   1   2
ATOM      2  O   UNL     1      10.256   3.466   4.150  1.00  0.00    -0.376 OA
BRANCH   2   3
ATOM      3  C   UNL     1      10.333   2.622   3.014  1.00  0.00     0.202 C 
BRANCH   3   4
ATOM      4  C   UNL     1       9.111   2.148   2.198  1.00  0.00     0.261 C 
BRANCH   4   5
ATOM      5  O   UNL     1       7.998   3.042   2.104  1.00  0.00    -0.460 OA
BRANCH   5   6
ATOM      6  C   UNL     1       6.909   2.718   2.836  1.00  0.00     0.338 C 
ATOM      7  O   UNL     1       6.737   1.703   3.491  1.00  0.00    -0.246 OA
BRANCH   6   8
ATOM      8  C   UNL     1       5.979   3.869   2.886  1.00  0.00     0.060 A 
ATOM      9  C   UNL     1       4.072   5.900   3.076  1.00  0.00     0.053 A 
ATOM     10  C   UNL     1       4.573   5.316   4.241  1.00  0.00     0.028 A 
ATOM     11  C   UNL     1       4.617   5.545   1.830  1.00  0.00     0.028 A 
ATOM     12  C   UNL     1       5.495   4.272   4.141  1.00  0.00     0.018 A 
ATOM     13  C   UNL     1       5.590   4.550   1.733  1.00  0.00     0.018 A 
BRANCH   9  14
ATOM     14  N   UNL     1       2.908   6.692   3.133  1.00  0.00    -0.242 N 
ATOM     15  C   UNL     1       1.747   6.495   2.438  1.00  0.00     0.095 A 
ATOM     16  C   UNL     1       0.920   7.462   2.820  1.00  0.00     0.228 A 
ATOM     17  O   UNL     1       1.454   8.328   3.771  1.00  0.00    -0.415 OA
ATOM     18  C   UNL     1       2.721   7.776   3.991  1.00  0.00     0.424 A 
ATOM     19  O   UNL     1       3.499   8.224   4.812  1.00  0.00    -0.223 OA
BRANCH  15  20
ATOM     20  C   UNL     1       1.423   5.314   1.640  1.00  0.00     0.002 A 
ATOM     21  C   UNL     1       0.861   3.011   0.143  1.00  0.00     0.082 A 
ATOM     22  C   UNL     1       1.290   2.882   1.462  1.00  0.00     0.022 A 
ATOM     23  C   UNL     1       0.706   4.278  -0.433  1.00  0.00     0.022 A 
ATOM     24  C   UNL     1       1.560   4.032   2.206  1.00  0.00     0.012 A 
ATOM     25  C   UNL     1       0.981   5.426   0.318  1.00  0.00     0.012 A 
BRANCH  21  26
ATOM     26  S   UNL     1       0.537   1.589  -0.856  1.00  0.00     0.238 S 
ATOM     27  O   UNL     1       1.271   1.723  -2.093  1.00  0.00    -0.207 OA
ATOM     28  O   UNL     1      -0.880   1.321  -0.814  1.00  0.00    -0.207 OA
BRANCH  26  29
ATOM     29  N   UNL     1       1.272   0.316  -0.042  1.00  0.00    -0.225 NA
ATOM     30  H   UNL     1       1.127  -0.549  -0.563  1.00  0.00     0.137 HD
ATOM     31  H   UNL     1       0.862   0.226   0.888  1.00  0.00     0.137 HD
ENDBRANCH  26  29
ENDBRANCH  21  26
ENDBRANCH  15  20
ENDBRANCH   9  14
ENDBRANCH   6   8
ENDBRANCH   5   6
ENDBRANCH   4   5
ENDBRANCH   3   4
ENDBRANCH   2   3
ENDBRANCH   1   2
BRANCH   1  32
ATOM     32  C   UNL     1       9.044   5.517   3.168  1.00  0.00     0.188 C 
BRANCH  32  33
ATOM     33  O   UNL     1       9.536   5.255   1.871  1.00  0.00    -0.376 OA
BRANCH  33  34
ATOM     34  C   UNL     1      10.863   5.530   1.447  1.00  0.00     0.202 C 
BRANCH  34  35
ATOM     35  C   UNL     1      12.026   5.982   2.328  1.00  0.00     0.261 C 
BRANCH  35  36
ATOM     36  O   UNL     1      11.761   5.994   3.707  1.00  0.00    -0.460 OA
BRANCH  36  37
ATOM     37  C   UNL     1      11.287   7.177   4.146  1.00  0.00     0.338 C 
ATOM     38  O   UNL     1      10.992   8.149   3.471  1.00  0.00    -0.246 OA
BRANCH  37  39
ATOM     39  C   UNL     1      11.190   7.117   5.607  1.00  0.00     0.060 A 
ATOM     40  C   UNL     1      10.593   8.226   6.206  1.00  0.00     0.016 A 
ATOM     41  C   UNL     1      12.114   6.297   6.263  1.00  0.00     0.016 A 
ATOM     42  C   UNL     1      11.241   8.764   7.286  1.00  0.00     0.010 A 
ATOM     43  C   UNL     1      12.772   6.845   7.324  1.00  0.00     0.010 A 
ATOM     44  C   UNL     1      12.411   8.133   7.712  1.00  0.00    -0.014 A 
BRANCH  44  45
ATOM     45  C   UNL     1      13.311   8.858   8.569  1.00  0.00     0.031 A 
ATOM     46  C   UNL     1      12.942   8.725   9.988  1.00  0.00     0.074 A 
ATOM     47  C   UNL     1      14.416   9.450   8.078  1.00  0.00     0.049 A 
ATOM     48  N   UNL     1      12.386   9.614  10.739  1.00  0.00    -0.248 NA
ATOM     49  C   UNL     1      12.957   7.367  10.559  1.00  0.00     0.031 C 
ATOM     50  C   UNL     1      14.989   9.381   6.728  1.00  0.00     0.029 A 
ATOM     51  N   UNL     1      15.343  10.171   8.750  1.00  0.00    -0.354 N 
ATOM     52  C   UNL     1      12.188   8.976  11.955  1.00  0.00     0.074 A 
ATOM     53  C   UNL     1      12.290   7.565  11.694  1.00  0.00     0.031 C 
ATOM     54  C   UNL     1      16.274   9.811   6.767  1.00  0.00     0.029 A 
ATOM     55  C   UNL     1      16.564  10.304   8.104  1.00  0.00     0.049 A 
ATOM     56  H   UNL     1      15.164  10.571   9.631  1.00  0.00     0.167 HD
ATOM     57  C   UNL     1      12.272   9.647  13.134  1.00  0.00     0.031 A 
ATOM     58  C   UNL     1      17.728  10.704   8.684  1.00  0.00     0.031 A 
ATOM     59  C   UNL     1      12.231  11.073  12.936  1.00  0.00     0.049 A 
ATOM     60  C   UNL     1      17.354  11.392   9.952  1.00  0.00     0.074 A 
ATOM     61  C   UNL     1      11.290  11.951  12.436  1.00  0.00     0.029 A 
ATOM     62  N   UNL     1      13.441  11.728  12.870  1.00  0.00    -0.354 N 
ATOM     63  N   UNL     1      16.668  12.503   9.982  1.00  0.00    -0.248 NA
ATOM     64  C   UNL     1      17.279  10.587  11.165  1.00  0.00     0.031 C 
ATOM     65  C   UNL     1      12.037  12.898  11.676  1.00  0.00     0.029 A 
ATOM     66  C   UNL     1      13.395  12.598  11.808  1.00  0.00     0.049 A 
ATOM     67  H   UNL     1      14.204  11.596  13.477  1.00  0.00     0.167 HD
ATOM     68  C   UNL     1      15.756  12.341  11.018  1.00  0.00     0.074 A 
ATOM     69  C   UNL     1      16.232  11.171  11.759  1.00  0.00     0.031 C 
ATOM     70  C   UNL     1      14.544  12.976  11.007  1.00  0.00     0.031 A 
BRANCH  57  71
ATOM     71  C   UNL     1      12.804   9.013  14.393  1.00  0.00    -0.014 A 
ATOM     72  C   UNL     1      12.783   9.757  15.585  1.00  0.00     0.010 A 
ATOM     73  C   UNL     1      13.549   7.812  14.402  1.00  0.00     0.010 A 
ATOM     74  C   UNL     1      13.519   9.349  16.705  1.00  0.00     0.020 A 
ATOM     75  C   UNL     1      14.246   7.371  15.524  1.00  0.00     0.020 A 
ATOM     76  C   UNL     1      14.255   8.163  16.660  1.00  0.00     0.054 A 
BRANCH  76  77
ATOM     77  S   UNL     1      15.288   7.702  18.068  1.00  0.00     0.124 S 
ATOM     78  O   UNL     1      16.280   8.772  18.076  1.00  0.00    -0.237 OA
ATOM     79  O   UNL     1      14.330   7.715  19.169  1.00  0.00    -0.237 OA
ATOM     80  O   UNL     1      15.795   6.380  17.704  1.00  0.00    -0.744 OA
ENDBRANCH  76  77
ENDBRANCH  57  71
BRANCH  58  81
ATOM     81  C   UNL     1      19.091  10.152   8.435  1.00  0.00    -0.014 A 
ATOM     82  C   UNL     1      20.250  10.785   8.928  1.00  0.00     0.010 A 
ATOM     83  C   UNL     1      19.234   8.838   7.941  1.00  0.00     0.010 A 
ATOM     84  C   UNL     1      21.488  10.111   8.968  1.00  0.00     0.020 A 
ATOM     85  C   UNL     1      20.461   8.162   7.976  1.00  0.00     0.020 A 
ATOM     86  C   UNL     1      21.581   8.794   8.508  1.00  0.00     0.054 A 
BRANCH  86  87
ATOM     87  S   UNL     1      23.135   7.869   8.713  1.00  0.00     0.124 S 
ATOM     88  O   UNL     1      24.022   8.531   7.761  1.00  0.00    -0.237 OA
ATOM     89  O   UNL     1      23.450   8.081  10.123  1.00  0.00    -0.237 OA
ATOM     90  O   UNL     1      22.767   6.497   8.365  1.00  0.00    -0.744 OA
ENDBRANCH  86  87
ENDBRANCH  58  81
BRANCH  70  91
ATOM     91  C   UNL     1      14.291  14.012   9.928  1.00  0.00    -0.014 A 
ATOM     92  C   UNL     1      14.204  13.705   8.552  1.00  0.00     0.010 A 
ATOM     93  C   UNL     1      13.949  15.310  10.339  1.00  0.00     0.010 A 
ATOM     94  C   UNL     1      13.802  14.676   7.619  1.00  0.00     0.020 A 
ATOM     95  C   UNL     1      13.532  16.276   9.419  1.00  0.00     0.020 A 
ATOM     96  C   UNL     1      13.467  15.958   8.062  1.00  0.00     0.054 A 
BRANCH  96  97
ATOM     97  S   UNL     1      12.895  17.201   6.865  1.00  0.00     0.124 S 
ATOM     98  O   UNL     1      14.104  17.482   6.096  1.00  0.00    -0.237 OA
ATOM     99  O   UNL     1      11.838  16.496   6.142  1.00  0.00    -0.237 OA
ATOM    100  O   UNL     1      12.427  18.303   7.706  1.00  0.00    -0.744 OA
ENDBRANCH  96  97
ENDBRANCH  70  91
ENDBRANCH  44  45
ENDBRANCH  37  39
ENDBRANCH  36  37
ENDBRANCH  35  36
ENDBRANCH  34  35
ENDBRANCH  33  34
ENDBRANCH  32  33
ENDBRANCH   1  32
TORSDOF 24
