REMARK SMILES C[C@@H]1CN(c2ccc(N)cc2C(=O)OCCOCCOCCOC(=O)c2ccc(-c3c4nc(c(-c5ccc(S(=O)(=O)[O-])cc5)c5ccc([nH]5)c(-c5ccc(S(=O)(=O)[O-])cc5)c5nc(c(-c6ccc(S(=O)(=O)[O-])cc6)c6ccc3[nH]6)C=C5)C=C4)cc2)C[C@H]1C
REMARK SMILES IDX 19 1 18 2 17 3 16 4 15 5 14 6 12 7 13 8 11 9 5 10 6 11 7 12
REMARK SMILES IDX 10 13 8 14 4 15 1 16 2 17 3 18 87 19 86 20 88 21 9 22 20 25
REMARK SMILES IDX 21 26 22 27 23 28 24 29 25 30 26 31 27 32 85 33 28 34 84 35
REMARK SMILES IDX 29 36 30 37 31 38 78 39 32 40 83 41 77 42 79 43 33 44 82 45
REMARK SMILES IDX 76 46 75 47 34 49 64 50 45 51 63 52 46 53 49 54 62 55 80 56
REMARK SMILES IDX 47 57 48 58 61 60 81 61 50 62 35 63 36 64 44 65 37 66 43 67
REMARK SMILES IDX 38 68 39 69 40 70 41 71 42 72 65 73 66 74 74 75 67 76 73 77
REMARK SMILES IDX 68 78 69 79 70 80 71 81 72 82 51 83 52 84 60 85 53 86 59 87
REMARK SMILES IDX 54 88 55 89 56 90 57 91 58 92
REMARK H PARENT 9 23 9 24 79 48 49 59
REMARK Flexibility Score: inf
ROOT
ATOM      1  C   UNL     1       5.106  -0.132   3.452  1.00  0.00     0.188 C 
ENDROOT
BRANCH   1   2
ATOM      2  C   UNL     1       5.808  -1.273   4.221  1.00  0.00     0.188 C 
BRANCH   2   3
ATOM      3  O   UNL     1       6.208  -2.441   3.523  1.00  0.00    -0.376 OA
BRANCH   3   4
ATOM      4  C   UNL     1       5.223  -3.249   2.897  1.00  0.00     0.202 C 
BRANCH   4   5
ATOM      5  C   UNL     1       3.842  -3.465   3.531  1.00  0.00     0.261 C 
BRANCH   5   6
ATOM      6  O   UNL     1       3.209  -2.260   3.977  1.00  0.00    -0.460 OA
BRANCH   6   7
ATOM      7  C   UNL     1       2.740  -2.266   5.251  1.00  0.00     0.340 C 
ATOM      8  O   UNL     1       2.769  -3.212   6.023  1.00  0.00    -0.246 OA
BRANCH   7   9
ATOM      9  C   UNL     1       2.327  -0.906   5.668  1.00  0.00     0.085 A 
ATOM     10  C   UNL     1       1.446  -0.071   4.952  1.00  0.00     0.051 A 
ATOM     11  C   UNL     1       1.258   1.221   5.487  1.00  0.00     0.029 A 
ATOM     12  C   UNL     1       1.912   1.668   6.643  1.00  0.00     0.027 A 
ATOM     13  C   UNL     1       2.990  -0.446   6.832  1.00  0.00     0.043 A 
ATOM     14  C   UNL     1       2.779   0.834   7.334  1.00  0.00     0.032 A 
BRANCH  10  15
ATOM     15  N   UNL     1       0.785  -0.386   3.783  1.00  0.00    -0.370 N 
ATOM     16  C   UNL     1       0.894   0.073   0.107  1.00  0.00     0.010 C 
ATOM     17  C   UNL     1       0.313  -0.312   1.459  1.00  0.00     0.010 C 
ATOM     18  C   UNL     1       0.910   0.504   2.619  1.00  0.00     0.120 C 
ATOM     19  C   UNL     1       0.622  -1.753   1.888  1.00  0.00     0.010 C 
ATOM     20  C   UNL     1       0.299  -1.702   3.387  1.00  0.00     0.120 C 
ATOM     21  C   UNL     1      -0.170  -2.822   1.159  1.00  0.00     0.010 C 
ENDBRANCH  10  15
BRANCH  14  22
ATOM     22  N   UNL     1       3.524   1.311   8.398  1.00  0.00    -0.399 N 
ATOM     23  H   UNL     1       3.364   2.219   8.743  1.00  0.00     0.156 HD
ATOM     24  H   UNL     1       4.215   0.743   8.809  1.00  0.00     0.156 HD
ENDBRANCH  14  22
ENDBRANCH   7   9
ENDBRANCH   6   7
ENDBRANCH   5   6
ENDBRANCH   4   5
ENDBRANCH   3   4
ENDBRANCH   2   3
ENDBRANCH   1   2
BRANCH   1  25
ATOM     25  O   UNL     1       4.688  -0.378   2.129  1.00  0.00    -0.376 OA
BRANCH  25  26
ATOM     26  C   UNL     1       5.620  -0.376   1.063  1.00  0.00     0.202 C 
BRANCH  26  27
ATOM     27  C   UNL     1       7.107   0.028   1.145  1.00  0.00     0.261 C 
BRANCH  27  28
ATOM     28  O   UNL     1       7.718   0.132   2.431  1.00  0.00    -0.460 OA
BRANCH  28  29
ATOM     29  C   UNL     1       7.911   1.393   2.886  1.00  0.00     0.338 C 
ATOM     30  O   UNL     1       7.590   2.435   2.330  1.00  0.00    -0.246 OA
BRANCH  29  31
ATOM     31  C   UNL     1       8.414   1.330   4.269  1.00  0.00     0.060 A 
ATOM     32  C   UNL     1       7.600   1.805   5.306  1.00  0.00     0.016 A 
ATOM     33  C   UNL     1       9.689   0.830   4.539  1.00  0.00     0.016 A 
ATOM     34  C   UNL     1       8.070   1.805   6.619  1.00  0.00     0.010 A 
ATOM     35  C   UNL     1      10.167   0.853   5.853  1.00  0.00     0.010 A 
ATOM     36  C   UNL     1       9.372   1.369   6.894  1.00  0.00    -0.014 A 
BRANCH  36  37
ATOM     37  C   UNL     1       9.965   1.616   8.231  1.00  0.00     0.031 A 
ATOM     38  C   UNL     1      10.874   2.804   8.404  1.00  0.00     0.074 A 
ATOM     39  C   UNL     1       9.699   0.809   9.274  1.00  0.00     0.049 A 
ATOM     40  N   UNL     1      11.542   3.188   9.460  1.00  0.00    -0.248 NA
ATOM     41  C   UNL     1      11.059   3.670   7.227  1.00  0.00     0.031 C 
ATOM     42  C   UNL     1       8.811  -0.352   9.243  1.00  0.00     0.029 A 
ATOM     43  N   UNL     1      10.168   0.839  10.565  1.00  0.00    -0.354 N 
ATOM     44  C   UNL     1      12.242   4.324   9.071  1.00  0.00     0.074 A 
ATOM     45  C   UNL     1      11.932   4.559   7.678  1.00  0.00     0.031 C 
ATOM     46  C   UNL     1       8.815  -0.936  10.455  1.00  0.00     0.029 A 
ATOM     47  C   UNL     1       9.730  -0.212  11.336  1.00  0.00     0.049 A 
ATOM     48  H   UNL     1      10.761   1.547  10.906  1.00  0.00     0.167 HD
ATOM     49  C   UNL     1      13.072   5.101   9.807  1.00  0.00     0.031 A 
ATOM     50  C   UNL     1      10.054  -0.566  12.597  1.00  0.00     0.031 A 
ATOM     51  C   UNL     1      13.380   4.864  11.192  1.00  0.00     0.049 A 
ATOM     52  C   UNL     1      11.020   0.290  13.380  1.00  0.00     0.074 A 
ATOM     53  C   UNL     1      14.175   5.622  12.034  1.00  0.00     0.029 A 
ATOM     54  N   UNL     1      12.924   3.787  11.934  1.00  0.00    -0.354 N 
ATOM     55  N   UNL     1      11.631   1.393  13.014  1.00  0.00    -0.248 NA
ATOM     56  C   UNL     1      11.330  -0.140  14.751  1.00  0.00     0.031 C 
ATOM     57  C   UNL     1      14.257   4.965  13.265  1.00  0.00     0.029 A 
ATOM     58  C   UNL     1      13.450   3.839  13.214  1.00  0.00     0.049 A 
ATOM     59  H   UNL     1      12.316   3.087  11.601  1.00  0.00     0.167 HD
ATOM     60  C   UNL     1      12.370   1.803  14.121  1.00  0.00     0.074 A 
ATOM     61  C   UNL     1      12.115   0.842  15.173  1.00  0.00     0.031 C 
ATOM     62  C   UNL     1      13.184   2.880  14.256  1.00  0.00     0.031 A 
BRANCH  49  63
ATOM     63  C   UNL     1      13.746   6.260   9.122  1.00  0.00    -0.014 A 
ATOM     64  C   UNL     1      13.030   7.410   8.745  1.00  0.00     0.010 A 
ATOM     65  C   UNL     1      15.138   6.223   8.920  1.00  0.00     0.010 A 
ATOM     66  C   UNL     1      13.693   8.493   8.159  1.00  0.00     0.020 A 
ATOM     67  C   UNL     1      15.808   7.315   8.362  1.00  0.00     0.020 A 
ATOM     68  C   UNL     1      15.079   8.440   7.976  1.00  0.00     0.054 A 
BRANCH  68  69
ATOM     69  S   UNL     1      15.919   9.883   7.268  1.00  0.00     0.124 S 
ATOM     70  O   UNL     1      15.466   9.846   5.880  1.00  0.00    -0.237 OA
ATOM     71  O   UNL     1      15.392  10.984   8.071  1.00  0.00    -0.237 OA
ATOM     72  O   UNL     1      17.337   9.594   7.468  1.00  0.00    -0.744 OA
ENDBRANCH  68  69
ENDBRANCH  49  63
BRANCH  50  73
ATOM     73  C   UNL     1       9.495  -1.812  13.194  1.00  0.00    -0.014 A 
ATOM     74  C   UNL     1       8.614  -1.760  14.289  1.00  0.00     0.010 A 
ATOM     75  C   UNL     1       9.873  -3.068  12.685  1.00  0.00     0.010 A 
ATOM     76  C   UNL     1       8.150  -2.938  14.883  1.00  0.00     0.020 A 
ATOM     77  C   UNL     1       9.385  -4.248  13.254  1.00  0.00     0.020 A 
ATOM     78  C   UNL     1       8.540  -4.175  14.361  1.00  0.00     0.054 A 
BRANCH  78  79
ATOM     79  S   UNL     1       7.907  -5.691  15.133  1.00  0.00     0.124 S 
ATOM     80  O   UNL     1       8.646  -5.722  16.391  1.00  0.00    -0.237 OA
ATOM     81  O   UNL     1       6.477  -5.412  15.245  1.00  0.00    -0.237 OA
ATOM     82  O   UNL     1       8.258  -6.736  14.174  1.00  0.00    -0.744 OA
ENDBRANCH  78  79
ENDBRANCH  50  73
BRANCH  62  83
ATOM     83  C   UNL     1      13.821   3.114  15.603  1.00  0.00    -0.014 A 
ATOM     84  C   UNL     1      14.834   2.272  16.097  1.00  0.00     0.010 A 
ATOM     85  C   UNL     1      13.432   4.232  16.364  1.00  0.00     0.010 A 
ATOM     86  C   UNL     1      15.416   2.522  17.343  1.00  0.00     0.020 A 
ATOM     87  C   UNL     1      14.035   4.505  17.595  1.00  0.00     0.020 A 
ATOM     88  C   UNL     1      15.012   3.637  18.085  1.00  0.00     0.054 A 
BRANCH  88  89
ATOM     89  S   UNL     1      15.804   3.957  19.685  1.00  0.00     0.124 S 
ATOM     90  O   UNL     1      15.237   2.902  20.521  1.00  0.00    -0.237 OA
ATOM     91  O   UNL     1      17.224   3.817  19.373  1.00  0.00    -0.237 OA
ATOM     92  O   UNL     1      15.376   5.313  20.020  1.00  0.00    -0.744 OA
ENDBRANCH  88  89
ENDBRANCH  62  83
ENDBRANCH  36  37
ENDBRANCH  29  31
ENDBRANCH  28  29
ENDBRANCH  27  28
ENDBRANCH  26  27
ENDBRANCH  25  26
ENDBRANCH   1  25
TORSDOF 22
