REMARK SMILES CCc1ccc(S(=O)(=O)c2nnn(-c3ccc(C(=O)OCCOCCOCCOC(=O)c4ccc(-c5c6nc(c(-c7ccc(S(=O)(=O)[O-])cc7)c7ccc([nH]7)c(-c7ccc(S(=O)(=O)[O-])cc7)c7nc(c(-c8ccc(S(=O)(=O)[O-])cc8)c8ccc5[nH]8)C=C7)C=C6)cc4)cc3)c2C)cc1
REMARK SMILES IDX 24 1 23 2 22 3 21 4 20 5 18 6 19 7 17 8 14 9 15 10 93 11
REMARK SMILES IDX 16 12 92 13 13 14 10 15 11 16 94 17 12 18 95 19 7 20 8 21
REMARK SMILES IDX 9 22 6 23 3 24 4 25 97 26 5 27 96 28 2 29 1 30 25 31 26 32
REMARK SMILES IDX 27 33 28 34 29 35 30 36 31 37 32 38 33 39 91 40 34 41 90 42
REMARK SMILES IDX 35 43 36 44 37 45 84 46 38 47 89 48 83 49 85 50 39 51 88 52
REMARK SMILES IDX 82 53 81 54 40 56 70 57 51 58 69 59 52 60 55 61 68 62 86 63
REMARK SMILES IDX 53 64 54 65 67 67 87 68 56 69 41 70 42 71 50 72 43 73 49 74
REMARK SMILES IDX 44 75 45 76 46 77 47 78 48 79 71 80 72 81 80 82 73 83 79 84
REMARK SMILES IDX 74 85 75 86 76 87 77 88 78 89 57 90 58 91 66 92 59 93 65 94
REMARK SMILES IDX 60 95 61 96 62 97 63 98 64 99
REMARK H PARENT 85 55 55 66
REMARK Flexibility Score: inf
ROOT
ATOM      1  C   UNL     1      -3.051  11.880   3.144  1.00  0.00     0.188 C 
ENDROOT
BRANCH   1   2
ATOM      2  O   UNL     1      -4.250  12.419   2.632  1.00  0.00    -0.376 OA
BRANCH   2   3
ATOM      3  C   UNL     1      -5.489  11.747   2.758  1.00  0.00     0.202 C 
BRANCH   3   4
ATOM      4  C   UNL     1      -5.664  10.229   2.951  1.00  0.00     0.261 C 
BRANCH   4   5
ATOM      5  O   UNL     1      -4.620   9.536   3.633  1.00  0.00    -0.460 OA
BRANCH   5   6
ATOM      6  C   UNL     1      -3.817   8.777   2.854  1.00  0.00     0.338 C 
ATOM      7  O   UNL     1      -3.928   8.572   1.657  1.00  0.00    -0.246 OA
BRANCH   6   8
ATOM      8  C   UNL     1      -2.652   8.319   3.639  1.00  0.00     0.060 A 
ATOM      9  C   UNL     1      -0.468   7.193   4.911  1.00  0.00     0.067 A 
ATOM     10  C   UNL     1      -0.272   7.841   3.689  1.00  0.00     0.029 A 
ATOM     11  C   UNL     1      -1.704   7.252   5.572  1.00  0.00     0.029 A 
ATOM     12  C   UNL     1      -1.383   8.376   3.038  1.00  0.00     0.018 A 
ATOM     13  C   UNL     1      -2.801   7.826   4.938  1.00  0.00     0.018 A 
BRANCH   9  14
ATOM     14  N   UNL     1       0.507   6.277   5.360  1.00  0.00    -0.216 N 
ATOM     15  C   UNL     1       1.547   4.441   5.902  1.00  0.00     0.205 A 
ATOM     16  N   UNL     1       2.476   5.421   5.678  1.00  0.00    -0.117 NA
ATOM     17  C   UNL     1       0.282   4.935   5.635  1.00  0.00     0.081 A 
ATOM     18  N   UNL     1       1.834   6.507   5.262  1.00  0.00    -0.061 NA
ATOM     19  C   UNL     1      -1.021   4.248   5.437  1.00  0.00     0.070 C 
BRANCH  15  20
ATOM     20  S   UNL     1       1.984   2.803   6.238  1.00  0.00     0.227 S 
ATOM     21  O   UNL     1       1.023   2.387   7.249  1.00  0.00    -0.217 OA
ATOM     22  O   UNL     1       3.409   2.792   6.472  1.00  0.00    -0.217 OA
BRANCH  20  23
ATOM     23  C   UNL     1       1.659   1.846   4.779  1.00  0.00     0.073 A 
ATOM     24  C   UNL     1       1.000   0.256   2.558  1.00  0.00    -0.048 A 
ATOM     25  C   UNL     1       1.275  -0.331   3.803  1.00  0.00     0.005 A 
ATOM     26  C   UNL     1       1.048   1.653   2.450  1.00  0.00     0.005 A 
ATOM     27  C   UNL     1       1.598   0.456   4.910  1.00  0.00     0.021 A 
ATOM     28  C   UNL     1       1.398   2.446   3.545  1.00  0.00     0.021 A 
BRANCH  24  29
ATOM     29  C   UNL     1       0.594  -0.623   1.396  1.00  0.00     0.032 C 
ATOM     30  C   UNL     1       1.083  -0.157   0.029  1.00  0.00     0.009 C 
ENDBRANCH  24  29
ENDBRANCH  20  23
ENDBRANCH  15  20
ENDBRANCH   9  14
ENDBRANCH   6   8
ENDBRANCH   5   6
ENDBRANCH   4   5
ENDBRANCH   3   4
ENDBRANCH   2   3
ENDBRANCH   1   2
BRANCH   1  31
ATOM     31  C   UNL     1      -2.873  11.648   4.659  1.00  0.00     0.188 C 
BRANCH  31  32
ATOM     32  O   UNL     1      -4.006  11.514   5.489  1.00  0.00    -0.376 OA
BRANCH  32  33
ATOM     33  C   UNL     1      -4.792  12.619   5.900  1.00  0.00     0.202 C 
BRANCH  33  34
ATOM     34  C   UNL     1      -4.443  14.093   5.711  1.00  0.00     0.261 C 
BRANCH  34  35
ATOM     35  O   UNL     1      -3.491  14.402   4.716  1.00  0.00    -0.460 OA
BRANCH  35  36
ATOM     36  C   UNL     1      -2.256  14.610   5.220  1.00  0.00     0.338 C 
ATOM     37  O   UNL     1      -1.841  14.255   6.311  1.00  0.00    -0.246 OA
BRANCH  36  38
ATOM     38  C   UNL     1      -1.500  15.458   4.303  1.00  0.00     0.060 A 
ATOM     39  C   UNL     1      -0.141  15.603   4.573  1.00  0.00     0.016 A 
ATOM     40  C   UNL     1      -2.198  16.332   3.455  1.00  0.00     0.016 A 
ATOM     41  C   UNL     1       0.466  16.773   4.188  1.00  0.00     0.010 A 
ATOM     42  C   UNL     1      -1.591  17.505   3.079  1.00  0.00     0.010 A 
ATOM     43  C   UNL     1      -0.301  17.750   3.536  1.00  0.00    -0.014 A 
BRANCH  43  44
ATOM     44  C   UNL     1       0.341  19.012   3.244  1.00  0.00     0.031 A 
ATOM     45  C   UNL     1       1.389  18.869   2.215  1.00  0.00     0.074 A 
ATOM     46  C   UNL     1      -0.021  20.182   3.803  1.00  0.00     0.049 A 
ATOM     47  N   UNL     1       2.665  18.912   2.392  1.00  0.00    -0.248 NA
ATOM     48  C   UNL     1       0.973  18.408   0.879  1.00  0.00     0.031 C 
ATOM     49  C   UNL     1      -1.195  20.485   4.624  1.00  0.00     0.029 A 
ATOM     50  N   UNL     1       0.566  21.398   3.660  1.00  0.00    -0.354 N 
ATOM     51  C   UNL     1       3.212  18.722   1.132  1.00  0.00     0.074 A 
ATOM     52  C   UNL     1       2.155  18.210   0.298  1.00  0.00     0.031 C 
ATOM     53  C   UNL     1      -1.357  21.829   4.690  1.00  0.00     0.029 A 
ATOM     54  C   UNL     1      -0.226  22.474   4.043  1.00  0.00     0.049 A 
ATOM     55  H   UNL     1       1.481  21.509   3.314  1.00  0.00     0.167 HD
ATOM     56  C   UNL     1       4.405  19.282   0.795  1.00  0.00     0.031 A 
ATOM     57  C   UNL     1       0.016  23.786   3.777  1.00  0.00     0.031 A 
ATOM     58  C   UNL     1       5.171  19.657   1.954  1.00  0.00     0.049 A 
ATOM     59  C   UNL     1       1.466  23.904   3.472  1.00  0.00     0.074 A 
ATOM     60  C   UNL     1       5.652  18.969   3.052  1.00  0.00     0.029 A 
ATOM     61  N   UNL     1       5.171  20.985   2.313  1.00  0.00    -0.354 N 
ATOM     62  N   UNL     1       2.403  23.696   4.354  1.00  0.00    -0.248 NA
ATOM     63  C   UNL     1       1.877  23.775   2.082  1.00  0.00     0.031 C 
ATOM     64  C   UNL     1       5.448  19.847   4.156  1.00  0.00     0.029 A 
ATOM     65  C   UNL     1       4.937  21.049   3.664  1.00  0.00     0.049 A 
ATOM     66  H   UNL     1       5.313  21.751   1.710  1.00  0.00     0.167 HD
ATOM     67  C   UNL     1       3.384  22.992   3.670  1.00  0.00     0.074 A 
ATOM     68  C   UNL     1       3.036  23.134   2.256  1.00  0.00     0.031 C 
ATOM     69  C   UNL     1       4.224  22.129   4.316  1.00  0.00     0.031 A 
BRANCH  56  70
ATOM     70  C   UNL     1       4.643  19.857  -0.575  1.00  0.00    -0.014 A 
ATOM     71  C   UNL     1       5.926  20.315  -0.918  1.00  0.00     0.010 A 
ATOM     72  C   UNL     1       3.584  20.195  -1.447  1.00  0.00     0.010 A 
ATOM     73  C   UNL     1       6.129  21.090  -2.068  1.00  0.00     0.020 A 
ATOM     74  C   UNL     1       3.781  20.924  -2.616  1.00  0.00     0.020 A 
ATOM     75  C   UNL     1       5.054  21.388  -2.908  1.00  0.00     0.054 A 
BRANCH  75  76
ATOM     76  S   UNL     1       5.318  22.423  -4.366  1.00  0.00     0.124 S 
ATOM     77  O   UNL     1       5.662  23.707  -3.765  1.00  0.00    -0.237 OA
ATOM     78  O   UNL     1       6.407  21.725  -5.043  1.00  0.00    -0.237 OA
ATOM     79  O   UNL     1       4.031  22.377  -5.057  1.00  0.00    -0.744 OA
ENDBRANCH  75  76
ENDBRANCH  56  70
BRANCH  57  80
ATOM     80  C   UNL     1      -0.960  24.839   3.381  1.00  0.00    -0.014 A 
ATOM     81  C   UNL     1      -0.559  26.185   3.251  1.00  0.00     0.010 A 
ATOM     82  C   UNL     1      -2.207  24.479   2.830  1.00  0.00     0.010 A 
ATOM     83  C   UNL     1      -1.336  27.111   2.530  1.00  0.00     0.020 A 
ATOM     84  C   UNL     1      -2.990  25.397   2.117  1.00  0.00     0.020 A 
ATOM     85  C   UNL     1      -2.537  26.703   1.945  1.00  0.00     0.054 A 
BRANCH  85  86
ATOM     86  S   UNL     1      -3.436  27.841   0.846  1.00  0.00     0.124 S 
ATOM     87  O   UNL     1      -3.959  28.831   1.783  1.00  0.00    -0.237 OA
ATOM     88  O   UNL     1      -2.385  28.314  -0.051  1.00  0.00    -0.237 OA
ATOM     89  O   UNL     1      -4.444  26.989   0.218  1.00  0.00    -0.744 OA
ENDBRANCH  85  86
ENDBRANCH  57  80
BRANCH  69  90
ATOM     90  C   UNL     1       4.271  22.152   5.829  1.00  0.00    -0.014 A 
ATOM     91  C   UNL     1       3.168  21.895   6.668  1.00  0.00     0.010 A 
ATOM     92  C   UNL     1       5.538  22.299   6.423  1.00  0.00     0.010 A 
ATOM     93  C   UNL     1       3.329  21.813   8.063  1.00  0.00     0.020 A 
ATOM     94  C   UNL     1       5.708  22.201   7.805  1.00  0.00     0.020 A 
ATOM     95  C   UNL     1       4.602  21.969   8.622  1.00  0.00     0.054 A 
BRANCH  95  96
ATOM     96  S   UNL     1       4.822  21.832  10.419  1.00  0.00     0.124 S 
ATOM     97  O   UNL     1       4.121  23.013  10.916  1.00  0.00    -0.237 OA
ATOM     98  O   UNL     1       4.192  20.550  10.728  1.00  0.00    -0.237 OA
ATOM     99  O   UNL     1       6.274  21.857  10.597  1.00  0.00    -0.744 OA
ENDBRANCH  95  96
ENDBRANCH  69  90
ENDBRANCH  43  44
ENDBRANCH  36  38
ENDBRANCH  35  36
ENDBRANCH  34  35
ENDBRANCH  33  34
ENDBRANCH  32  33
ENDBRANCH  31  32
ENDBRANCH   1  31
TORSDOF 24
