REMARK SMILES Cc1cc(N2CC[NH+]([C@@H](C(=O)OCCOCCOCCOC(=O)c3ccc(-c4c5nc(c(-c6ccc(S(=O)(=O)[O-])cc6)c6ccc([nH]6)c(-c6ccc(S(=O)(=O)[O-])cc6)c6nc(c(-c7ccc(S(=O)(=O)[O-])cc7)c7ccc4[nH]7)C=C6)C=C5)cc3)c3c[nH]c4ccccc34)CC2)nc2ccccc12
REMARK SMILES IDX 17 1 16 2 15 3 14 4 13 5 12 6 10 7 11 8 9 9 8 10 5 11 6 12
REMARK SMILES IDX 94 13 7 14 93 15 4 17 1 18 2 19 3 20 101 21 96 22 100 23
REMARK SMILES IDX 95 24 97 25 99 26 98 27 84 28 85 29 92 30 86 31 87 32 91 33
REMARK SMILES IDX 88 35 90 36 89 37 18 38 19 39 20 40 21 41 22 42 23 43 24 44
REMARK SMILES IDX 25 45 83 46 26 47 82 48 27 49 28 50 29 51 76 52 30 53 81 54
REMARK SMILES IDX 75 55 77 56 31 57 80 58 74 59 73 60 32 62 62 63 43 64 61 65
REMARK SMILES IDX 44 66 47 67 60 68 78 69 45 70 46 71 59 73 79 74 48 75 33 76
REMARK SMILES IDX 34 77 42 78 35 79 41 80 36 81 37 82 38 83 39 84 40 85 63 86
REMARK SMILES IDX 64 87 72 88 65 89 71 90 66 91 67 92 68 93 69 94 70 95 49 96
REMARK SMILES IDX 50 97 58 98 51 99 57 100 52 101 53 102 54 103 55 104 56 105
REMARK H PARENT 8 16 86 34 77 61 47 72
REMARK Flexibility Score: inf
ROOT
ATOM      1  C   UNL     1      -0.376  -5.441   0.288  1.00  0.00     0.188 C 
ENDROOT
BRANCH   1   2
ATOM      2  C   UNL     1      -0.592  -6.620  -0.662  1.00  0.00     0.188 C 
BRANCH   2   3
ATOM      3  O   UNL     1      -0.052  -6.479  -1.968  1.00  0.00    -0.376 OA
BRANCH   3   4
ATOM      4  C   UNL     1      -0.411  -5.306  -2.691  1.00  0.00     0.202 C 
BRANCH   4   5
ATOM      5  C   UNL     1      -1.897  -5.104  -3.018  1.00  0.00     0.261 C 
BRANCH   5   6
ATOM      6  O   UNL     1      -2.680  -4.837  -1.845  1.00  0.00    -0.459 OA
BRANCH   6   7
ATOM      7  C   UNL     1      -3.531  -5.790  -1.392  1.00  0.00     0.370 C 
ATOM      8  O   UNL     1      -3.791  -6.813  -2.021  1.00  0.00    -0.245 OA
BRANCH   7   9
ATOM      9  C   UNL     1      -4.170  -5.416  -0.045  1.00  0.00     0.328 C 
BRANCH   9  10
ATOM     10  N   UNL     1      -4.886  -4.051   0.012  1.00  0.00    -0.316 N 
ATOM     11  N   UNL     1      -3.704  -1.261  -0.395  1.00  0.00    -0.345 N 
ATOM     12  C   UNL     1      -3.715  -1.971   0.904  1.00  0.00     0.179 C 
ATOM     13  C   UNL     1      -3.987  -2.132  -1.548  1.00  0.00     0.179 C 
ATOM     14  C   UNL     1      -4.791  -3.067   1.079  1.00  0.00     0.285 C 
ATOM     15  C   UNL     1      -5.042  -3.271  -1.243  1.00  0.00     0.285 C 
ATOM     16  H   UNL     1      -5.674  -4.638   0.287  1.00  0.00     0.349 HD
BRANCH  11  17
ATOM     17  C   UNL     1      -2.624  -0.329  -0.528  1.00  0.00     0.129 A 
ATOM     18  C   UNL     1      -1.967   3.339   0.180  1.00  0.00     0.045 C 
ATOM     19  C   UNL     1      -1.719   1.880  -0.070  1.00  0.00    -0.038 A 
ATOM     20  C   UNL     1      -2.807   0.979  -0.108  1.00  0.00     0.051 A 
ATOM     21  C   UNL     1      -0.401   1.411  -0.262  1.00  0.00     0.003 A 
ATOM     22  C   UNL     1      -0.281   0.105  -0.732  1.00  0.00     0.073 A 
ATOM     23  C   UNL     1       0.774   2.177   0.018  1.00  0.00     0.010 A 
ATOM     24  N   UNL     1      -1.387  -0.675  -0.978  1.00  0.00    -0.231 NA
ATOM     25  C   UNL     1       1.038  -0.380  -0.871  1.00  0.00     0.029 A 
ATOM     26  C   UNL     1       2.053   1.627  -0.051  1.00  0.00     0.001 A 
ATOM     27  C   UNL     1       2.186   0.323  -0.476  1.00  0.00     0.002 A 
ENDBRANCH  11  17
ENDBRANCH   9  10
BRANCH   9  28
ATOM     28  C   UNL     1      -3.869  -6.349   1.262  1.00  0.00     0.046 A 
ATOM     29  C   UNL     1      -4.961  -6.699   2.061  1.00  0.00     0.094 A 
ATOM     30  C   UNL     1      -2.839  -6.623   2.301  1.00  0.00     0.009 A 
ATOM     31  N   UNL     1      -4.879  -5.675   3.015  1.00  0.00    -0.361 N 
ATOM     32  C   UNL     1      -3.582  -5.709   3.632  1.00  0.00     0.046 A 
ATOM     33  C   UNL     1      -1.169  -7.211   2.619  1.00  0.00     0.011 A 
ATOM     34  H   UNL     1      -5.596  -5.035   3.228  1.00  0.00     0.166 HD
ATOM     35  C   UNL     1      -2.478  -5.240   5.247  1.00  0.00     0.026 A 
ATOM     36  C   UNL     1      -0.178  -6.813   4.061  1.00  0.00     0.001 A 
ATOM     37  C   UNL     1      -0.782  -5.831   5.357  1.00  0.00     0.002 A 
ENDBRANCH   9  28
ENDBRANCH   7   9
ENDBRANCH   6   7
ENDBRANCH   5   6
ENDBRANCH   4   5
ENDBRANCH   3   4
ENDBRANCH   2   3
ENDBRANCH   1   2
BRANCH   1  38
ATOM     38  O   UNL     1      -1.030  -4.263  -0.063  1.00  0.00    -0.376 OA
BRANCH  38  39
ATOM     39  C   UNL     1      -0.383  -3.058   0.263  1.00  0.00     0.202 C 
BRANCH  39  40
ATOM     40  C   UNL     1       0.066  -2.675   1.671  1.00  0.00     0.261 C 
BRANCH  40  41
ATOM     41  O   UNL     1      -0.875  -3.156   2.622  1.00  0.00    -0.460 OA
BRANCH  41  42
ATOM     42  C   UNL     1      -1.884  -2.568   3.276  1.00  0.00     0.338 C 
ATOM     43  O   UNL     1      -2.151  -1.395   3.399  1.00  0.00    -0.246 OA
BRANCH  42  44
ATOM     44  C   UNL     1      -2.636  -3.755   3.745  1.00  0.00     0.060 A 
ATOM     45  C   UNL     1      -4.114  -3.810   4.720  1.00  0.00     0.016 A 
ATOM     46  C   UNL     1      -1.727  -5.282   3.532  1.00  0.00     0.016 A 
ATOM     47  C   UNL     1      -4.685  -5.306   5.556  1.00  0.00     0.010 A 
ATOM     48  C   UNL     1      -2.381  -6.951   4.442  1.00  0.00     0.010 A 
ATOM     49  C   UNL     1      -3.845  -6.867   5.452  1.00  0.00    -0.014 A 
BRANCH  49  50
ATOM     50  C   UNL     1      -3.957  -8.009   6.370  1.00  0.00     0.031 A 
ATOM     51  C   UNL     1      -3.558  -7.835   7.802  1.00  0.00     0.074 A 
ATOM     52  C   UNL     1      -4.042  -9.258   5.872  1.00  0.00     0.049 A 
ATOM     53  N   UNL     1      -3.798  -8.605   8.826  1.00  0.00    -0.248 NA
ATOM     54  C   UNL     1      -2.723  -6.672   8.133  1.00  0.00     0.031 C 
ATOM     55  C   UNL     1      -4.032  -9.619   4.452  1.00  0.00     0.029 A 
ATOM     56  N   UNL     1      -4.123 -10.467   6.507  1.00  0.00    -0.354 N 
ATOM     57  C   UNL     1      -3.234  -7.954   9.918  1.00  0.00     0.074 A 
ATOM     58  C   UNL     1      -2.524  -6.807   9.430  1.00  0.00     0.031 C 
ATOM     59  C   UNL     1      -4.172 -10.945   4.321  1.00  0.00     0.029 A 
ATOM     60  C   UNL     1      -4.320 -11.521   5.646  1.00  0.00     0.049 A 
ATOM     61  H   UNL     1      -4.047 -10.573   7.483  1.00  0.00     0.167 HD
ATOM     62  C   UNL     1      -3.344  -8.276  11.223  1.00  0.00     0.031 A 
ATOM     63  C   UNL     1      -4.660 -12.795   5.906  1.00  0.00     0.031 A 
ATOM     64  C   UNL     1      -3.906  -9.529  11.631  1.00  0.00     0.049 A 
ATOM     65  C   UNL     1      -4.904 -13.146   7.343  1.00  0.00     0.074 A 
ATOM     66  C   UNL     1      -4.191  -9.993  12.896  1.00  0.00     0.029 A 
ATOM     67  N   UNL     1      -4.216 -10.550  10.739  1.00  0.00    -0.354 N 
ATOM     68  N   UNL     1      -4.690 -12.415   8.415  1.00  0.00    -0.248 NA
ATOM     69  C   UNL     1      -5.487 -14.462   7.606  1.00  0.00     0.031 C 
ATOM     70  C   UNL     1      -4.608 -11.324  12.772  1.00  0.00     0.029 A 
ATOM     71  C   UNL     1      -4.669 -11.656  11.423  1.00  0.00     0.049 A 
ATOM     72  H   UNL     1      -4.125 -10.491   9.760  1.00  0.00     0.167 HD
ATOM     73  C   UNL     1      -5.140 -13.172   9.487  1.00  0.00     0.074 A 
ATOM     74  C   UNL     1      -5.659 -14.406   8.920  1.00  0.00     0.031 C 
ATOM     75  C   UNL     1      -5.135 -12.879  10.813  1.00  0.00     0.031 A 
BRANCH  62  76
ATOM     76  C   UNL     1      -2.865  -7.258  12.227  1.00  0.00    -0.014 A 
ATOM     77  C   UNL     1      -3.423  -5.960  12.246  1.00  0.00     0.010 A 
ATOM     78  C   UNL     1      -1.854  -7.567  13.149  1.00  0.00     0.010 A 
ATOM     79  C   UNL     1      -2.942  -4.982  13.119  1.00  0.00     0.020 A 
ATOM     80  C   UNL     1      -1.393  -6.601  14.053  1.00  0.00     0.020 A 
ATOM     81  C   UNL     1      -1.927  -5.310  14.018  1.00  0.00     0.054 A 
BRANCH  81  82
ATOM     82  S   UNL     1      -1.329  -4.024  15.147  1.00  0.00     0.124 S 
ATOM     83  O   UNL     1      -0.660  -3.103  14.231  1.00  0.00    -0.237 OA
ATOM     84  O   UNL     1      -2.567  -3.525  15.743  1.00  0.00    -0.237 OA
ATOM     85  O   UNL     1      -0.447  -4.745  16.061  1.00  0.00    -0.744 OA
ENDBRANCH  81  82
ENDBRANCH  62  76
BRANCH  63  86
ATOM     86  C   UNL     1      -4.927 -13.730   4.778  1.00  0.00    -0.014 A 
ATOM     87  C   UNL     1      -6.243 -14.095   4.437  1.00  0.00     0.010 A 
ATOM     88  C   UNL     1      -3.868 -14.184   3.973  1.00  0.00     0.010 A 
ATOM     89  C   UNL     1      -6.492 -14.910   3.326  1.00  0.00     0.020 A 
ATOM     90  C   UNL     1      -4.114 -14.974   2.845  1.00  0.00     0.020 A 
ATOM     91  C   UNL     1      -5.424 -15.338   2.532  1.00  0.00     0.054 A 
BRANCH  91  92
ATOM     92  S   UNL     1      -5.774 -16.340   1.059  1.00  0.00     0.124 S 
ATOM     93  O   UNL     1      -6.260 -17.586   1.644  1.00  0.00    -0.237 OA
ATOM     94  O   UNL     1      -6.775 -15.535   0.363  1.00  0.00    -0.237 OA
ATOM     95  O   UNL     1      -4.479 -16.429   0.388  1.00  0.00    -0.744 OA
ENDBRANCH  91  92
ENDBRANCH  63  86
BRANCH  75  96
ATOM     96  C   UNL     1      -5.735 -13.908  11.726  1.00  0.00    -0.014 A 
ATOM     97  C   UNL     1      -5.147 -15.172  11.899  1.00  0.00     0.010 A 
ATOM     98  C   UNL     1      -6.903 -13.583  12.439  1.00  0.00     0.010 A 
ATOM     99  C   UNL     1      -5.761 -16.122  12.713  1.00  0.00     0.020 A 
ATOM    100  C   UNL     1      -7.490 -14.511  13.295  1.00  0.00     0.020 A 
ATOM    101  C   UNL     1      -6.930 -15.784  13.403  1.00  0.00     0.054 A 
BRANCH 101 102
ATOM    102  S   UNL     1      -7.708 -17.035  14.453  1.00  0.00     0.124 S 
ATOM    103  O   UNL     1      -8.225 -17.978  13.465  1.00  0.00    -0.237 OA
ATOM    104  O   UNL     1      -6.587 -17.516  15.257  1.00  0.00    -0.237 OA
ATOM    105  O   UNL     1      -8.723 -16.287  15.191  1.00  0.00    -0.744 OA
ENDBRANCH 101 102
ENDBRANCH  75  96
ENDBRANCH  49  50
ENDBRANCH  42  44
ENDBRANCH  41  42
ENDBRANCH  40  41
ENDBRANCH  39  40
ENDBRANCH  38  39
ENDBRANCH   1  38
TORSDOF 23
