REMARK SMILES Cc1cc2[nH]c(=O)[nH]c2cc1S(=O)(=O)NCCC(=O)OCCOCCOCCOC(=O)c1ccc(-c2c3nc(c(-c4ccc(S(=O)(=O)[O-])cc4)c4ccc([nH]4)c(-c4ccc(S(=O)(=O)[O-])cc4)c4nc(c(-c5ccc(S(=O)(=O)[O-])cc5)c5ccc2[nH]5)C=C4)C=C3)cc1
REMARK SMILES IDX 24 1 23 2 22 3 21 4 20 5 18 6 19 7 17 8 16 9 15 10 12 12
REMARK SMILES IDX 13 13 14 14 11 15 1 16 2 17 3 18 4 19 10 20 5 21 9 22 6 23
REMARK SMILES IDX 8 25 7 26 25 28 26 29 27 30 28 31 29 32 30 33 31 34 32 35
REMARK SMILES IDX 33 36 91 37 34 38 90 39 35 40 36 41 37 42 84 43 38 44 89 45
REMARK SMILES IDX 83 46 85 47 39 48 88 49 82 50 81 51 40 53 70 54 51 55 69 56
REMARK SMILES IDX 52 57 55 58 68 59 86 60 53 61 54 62 67 64 87 65 56 66 41 67
REMARK SMILES IDX 42 68 50 69 43 70 49 71 44 72 45 73 46 74 47 75 48 76 71 77
REMARK SMILES IDX 72 78 80 79 73 80 79 81 74 82 75 83 76 84 77 85 78 86 57 87
REMARK SMILES IDX 58 88 66 89 59 90 65 91 60 92 61 93 62 94 63 95 64 96
REMARK H PARENT 15 11 5 24 8 27 85 52 55 63
REMARK Flexibility Score: inf
ROOT
ATOM      1  C   UNL     1      -2.033   4.597  -3.143  1.00  0.00     0.188 C 
ENDROOT
BRANCH   1   2
ATOM      2  O   UNL     1      -3.296   5.231  -3.258  1.00  0.00    -0.376 OA
BRANCH   2   3
ATOM      3  C   UNL     1      -4.386   4.677  -2.531  1.00  0.00     0.202 C 
BRANCH   3   4
ATOM      4  C   UNL     1      -4.804   3.247  -2.889  1.00  0.00     0.261 C 
BRANCH   4   5
ATOM      5  O   UNL     1      -3.857   2.257  -2.422  1.00  0.00    -0.463 OA
BRANCH   5   6
ATOM      6  C   UNL     1      -3.383   1.414  -3.371  1.00  0.00     0.307 C 
ATOM      7  O   UNL     1      -3.702   1.458  -4.552  1.00  0.00    -0.252 OA
BRANCH   6   8
ATOM      8  C   UNL     1      -2.421   0.368  -2.872  1.00  0.00     0.139 C 
BRANCH   8   9
ATOM      9  C   UNL     1      -1.429   0.694  -1.781  1.00  0.00     0.110 C 
BRANCH   9  10
ATOM     10  N   UNL     1      -1.889   0.747  -0.403  1.00  0.00    -0.211 NA
ATOM     11  H   UNL     1      -1.123   1.154   0.135  1.00  0.00     0.141 HD
BRANCH  10  12
ATOM     12  S   UNL     1      -2.377  -0.602   0.442  1.00  0.00     0.240 S 
ATOM     13  O   UNL     1      -3.525  -1.131  -0.254  1.00  0.00    -0.207 OA
ATOM     14  O   UNL     1      -2.465  -0.204   1.833  1.00  0.00    -0.207 OA
BRANCH  12  15
ATOM     15  C   UNL     1      -1.058  -1.814   0.332  1.00  0.00     0.087 A 
ATOM     16  C   UNL     1       0.850  -0.143   0.841  1.00  0.00     0.046 C 
ATOM     17  C   UNL     1       0.325  -1.522   0.554  1.00  0.00    -0.029 A 
ATOM     18  C   UNL     1       1.273  -2.573   0.486  1.00  0.00     0.033 A 
ATOM     19  C   UNL     1       0.810  -3.850   0.267  1.00  0.00     0.067 A 
ATOM     20  C   UNL     1      -1.489  -3.130   0.064  1.00  0.00     0.050 A 
ATOM     21  N   UNL     1       1.491  -5.061   0.256  1.00  0.00    -0.306 N 
ATOM     22  C   UNL     1      -0.537  -4.117   0.061  1.00  0.00     0.068 A 
ATOM     23  C   UNL     1       0.561  -6.099   0.081  1.00  0.00     0.323 A 
ATOM     24  H   UNL     1       2.464  -5.173   0.356  1.00  0.00     0.171 HD
ATOM     25  N   UNL     1      -0.691  -5.490  -0.074  1.00  0.00    -0.306 N 
ATOM     26  O   UNL     1       0.787  -7.293   0.118  1.00  0.00    -0.248 OA
ATOM     27  H   UNL     1      -1.539  -5.958  -0.250  1.00  0.00     0.171 HD
ENDBRANCH  12  15
ENDBRANCH  10  12
ENDBRANCH   9  10
ENDBRANCH   8   9
ENDBRANCH   6   8
ENDBRANCH   5   6
ENDBRANCH   4   5
ENDBRANCH   3   4
ENDBRANCH   2   3
ENDBRANCH   1   2
BRANCH   1  28
ATOM     28  C   UNL     1      -1.580   4.156  -1.737  1.00  0.00     0.188 C 
BRANCH  28  29
ATOM     29  O   UNL     1      -1.724   5.000  -0.603  1.00  0.00    -0.376 OA
BRANCH  29  30
ATOM     30  C   UNL     1      -1.550   6.393  -0.792  1.00  0.00     0.202 C 
BRANCH  30  31
ATOM     31  C   UNL     1      -0.111   6.845  -1.066  1.00  0.00     0.261 C 
BRANCH  31  32
ATOM     32  O   UNL     1       0.469   6.122  -2.163  1.00  0.00    -0.460 OA
BRANCH  32  33
ATOM     33  C   UNL     1       1.672   5.538  -1.928  1.00  0.00     0.338 C 
ATOM     34  O   UNL     1       2.450   5.802  -1.028  1.00  0.00    -0.246 OA
BRANCH  33  35
ATOM     35  C   UNL     1       1.773   4.329  -2.783  1.00  0.00     0.060 A 
ATOM     36  C   UNL     1       1.290   4.317  -4.090  1.00  0.00     0.016 A 
ATOM     37  C   UNL     1       2.221   3.136  -2.191  1.00  0.00     0.016 A 
ATOM     38  C   UNL     1       1.213   3.104  -4.773  1.00  0.00     0.010 A 
ATOM     39  C   UNL     1       2.161   1.922  -2.889  1.00  0.00     0.010 A 
ATOM     40  C   UNL     1       1.647   1.894  -4.184  1.00  0.00    -0.014 A 
BRANCH  40  41
ATOM     41  C   UNL     1       1.685   0.717  -5.071  1.00  0.00     0.031 A 
ATOM     42  C   UNL     1       2.485   0.933  -6.296  1.00  0.00     0.074 A 
ATOM     43  C   UNL     1       1.218  -0.541  -4.918  1.00  0.00     0.049 A 
ATOM     44  N   UNL     1       2.055   1.077  -7.503  1.00  0.00    -0.248 NA
ATOM     45  C   UNL     1       3.936   1.086  -6.128  1.00  0.00     0.031 C 
ATOM     46  C   UNL     1       0.827  -1.195  -3.680  1.00  0.00     0.029 A 
ATOM     47  N   UNL     1       1.035  -1.527  -5.863  1.00  0.00    -0.354 N 
ATOM     48  C   UNL     1       3.196   1.140  -8.288  1.00  0.00     0.074 A 
ATOM     49  C   UNL     1       4.316   1.288  -7.388  1.00  0.00     0.031 C 
ATOM     50  C   UNL     1       0.519  -2.487  -3.916  1.00  0.00     0.029 A 
ATOM     51  C   UNL     1       0.637  -2.750  -5.339  1.00  0.00     0.049 A 
ATOM     52  H   UNL     1       1.174  -1.377  -6.826  1.00  0.00     0.167 HD
ATOM     53  C   UNL     1       3.169   0.831  -9.609  1.00  0.00     0.031 A 
ATOM     54  C   UNL     1       0.437  -3.927  -5.980  1.00  0.00     0.031 A 
ATOM     55  C   UNL     1       1.837   0.745 -10.141  1.00  0.00     0.049 A 
ATOM     56  C   UNL     1       0.132  -3.676  -7.408  1.00  0.00     0.074 A 
ATOM     57  C   UNL     1       0.898   1.619 -10.638  1.00  0.00     0.029 A 
ATOM     58  N   UNL     1       1.208  -0.451  -9.925  1.00  0.00    -0.354 N 
ATOM     59  N   UNL     1      -0.934  -3.045  -7.822  1.00  0.00    -0.248 NA
ATOM     60  C   UNL     1       1.138  -3.945  -8.432  1.00  0.00     0.031 C 
ATOM     61  C   UNL     1      -0.356   0.941 -10.593  1.00  0.00     0.029 A 
ATOM     62  C   UNL     1      -0.154  -0.335 -10.074  1.00  0.00     0.049 A 
ATOM     63  H   UNL     1       1.671  -1.287  -9.693  1.00  0.00     0.167 HD
ATOM     64  C   UNL     1      -0.571  -2.518  -9.043  1.00  0.00     0.074 A 
ATOM     65  C   UNL     1       0.642  -3.218  -9.435  1.00  0.00     0.031 C 
ATOM     66  C   UNL     1      -1.041  -1.313  -9.469  1.00  0.00     0.031 A 
BRANCH  53  67
ATOM     67  C   UNL     1       4.345   0.244 -10.335  1.00  0.00    -0.014 A 
ATOM     68  C   UNL     1       5.358  -0.479  -9.668  1.00  0.00     0.010 A 
ATOM     69  C   UNL     1       4.339   0.199 -11.740  1.00  0.00     0.010 A 
ATOM     70  C   UNL     1       6.359  -1.157 -10.363  1.00  0.00     0.020 A 
ATOM     71  C   UNL     1       5.316  -0.515 -12.448  1.00  0.00     0.020 A 
ATOM     72  C   UNL     1       6.330  -1.173 -11.753  1.00  0.00     0.054 A 
BRANCH  72  73
ATOM     73  S   UNL     1       7.597  -2.132 -12.618  1.00  0.00     0.124 S 
ATOM     74  O   UNL     1       8.790  -1.321 -12.391  1.00  0.00    -0.237 OA
ATOM     75  O   UNL     1       7.560  -3.410 -11.913  1.00  0.00    -0.237 OA
ATOM     76  O   UNL     1       7.118  -2.167 -13.997  1.00  0.00    -0.744 OA
ENDBRANCH  72  73
ENDBRANCH  53  67
BRANCH  54  77
ATOM     77  C   UNL     1       0.708  -5.292  -5.451  1.00  0.00    -0.014 A 
ATOM     78  C   UNL     1       1.681  -5.473  -4.445  1.00  0.00     0.010 A 
ATOM     79  C   UNL     1       0.232  -6.440  -6.112  1.00  0.00     0.010 A 
ATOM     80  C   UNL     1       2.227  -6.730  -4.172  1.00  0.00     0.020 A 
ATOM     81  C   UNL     1       0.785  -7.705  -5.853  1.00  0.00     0.020 A 
ATOM     82  C   UNL     1       1.815  -7.830  -4.919  1.00  0.00     0.054 A 
BRANCH  82  83
ATOM     83  S   UNL     1       2.748  -9.379  -4.748  1.00  0.00     0.124 S 
ATOM     84  O   UNL     1       4.026  -9.023  -5.359  1.00  0.00    -0.237 OA
ATOM     85  O   UNL     1       2.783  -9.578  -3.302  1.00  0.00    -0.237 OA
ATOM     86  O   UNL     1       1.948 -10.348  -5.491  1.00  0.00    -0.744 OA
ENDBRANCH  82  83
ENDBRANCH  54  77
BRANCH  66  87
ATOM     87  C   UNL     1      -2.443  -0.897  -9.124  1.00  0.00    -0.014 A 
ATOM     88  C   UNL     1      -3.307  -0.634 -10.204  1.00  0.00     0.010 A 
ATOM     89  C   UNL     1      -2.913  -0.663  -7.820  1.00  0.00     0.010 A 
ATOM     90  C   UNL     1      -4.583  -0.107 -10.001  1.00  0.00     0.020 A 
ATOM     91  C   UNL     1      -4.206  -0.150  -7.607  1.00  0.00     0.020 A 
ATOM     92  C   UNL     1      -5.022   0.149  -8.701  1.00  0.00     0.054 A 
BRANCH  92  93
ATOM     93  S   UNL     1      -6.668   0.886  -8.489  1.00  0.00     0.124 S 
ATOM     94  O   UNL     1      -6.447   2.267  -8.914  1.00  0.00    -0.237 OA
ATOM     95  O   UNL     1      -7.497   0.088  -9.391  1.00  0.00    -0.237 OA
ATOM     96  O   UNL     1      -6.964   0.710  -7.070  1.00  0.00    -0.744 OA
ENDBRANCH  92  93
ENDBRANCH  66  87
ENDBRANCH  40  41
ENDBRANCH  33  35
ENDBRANCH  32  33
ENDBRANCH  31  32
ENDBRANCH  30  31
ENDBRANCH  29  30
ENDBRANCH  28  29
ENDBRANCH   1  28
TORSDOF 24
