REMARK SMILES CC1=Nc2ncnn2[C@H](c2ccc(F)cc2)[C@@H]1C(=O)OCCOCCOCCOC(=O)c1ccc(-c2c3nc(c(-c4ccc(S(=O)(=O)[O-])cc4)c4ccc([nH]4)c(-c4ccc(S(=O)(=O)[O-])cc4)c4nc(c(-c5ccc(S(=O)(=O)[O-])cc5)c5ccc2[nH]5)C=C4)C=C3)cc1
REMARK SMILES IDX 25 1 24 2 23 3 22 4 21 5 20 6 18 7 19 8 17 9 1 10 2 11 3 12
REMARK SMILES IDX 4 13 9 14 5 15 8 16 6 17 7 18 10 19 11 20 16 21 12 22 15 23
REMARK SMILES IDX 13 24 14 25 26 26 27 27 28 28 29 29 30 30 31 31 32 32 33 33
REMARK SMILES IDX 91 34 34 35 90 36 35 37 36 38 37 39 84 40 38 41 89 42 83 43
REMARK SMILES IDX 85 44 39 45 88 46 82 47 81 48 40 50 70 51 51 52 69 53 52 54
REMARK SMILES IDX 55 55 68 56 86 57 53 58 54 59 67 61 87 62 56 63 41 64 42 65
REMARK SMILES IDX 50 66 43 67 49 68 44 69 45 70 46 71 47 72 48 73 71 74 72 75
REMARK SMILES IDX 80 76 73 77 79 78 74 79 75 80 76 81 77 82 78 83 57 84 58 85
REMARK SMILES IDX 66 86 59 87 65 88 60 89 61 90 62 91 63 92 64 93
REMARK H PARENT 85 49 55 60
REMARK Flexibility Score: inf
ROOT
ATOM      1  C   UNL     1       3.346  -2.610   2.871  1.00  0.00     0.188 C 
ENDROOT
BRANCH   1   2
ATOM      2  C   UNL     1       4.763  -2.655   2.246  1.00  0.00     0.188 C 
BRANCH   2   3
ATOM      3  O   UNL     1       5.557  -1.489   2.308  1.00  0.00    -0.376 OA
BRANCH   3   4
ATOM      4  C   UNL     1       4.913  -0.277   1.946  1.00  0.00     0.202 C 
BRANCH   4   5
ATOM      5  C   UNL     1       4.138  -0.215   0.606  1.00  0.00     0.261 C 
BRANCH   5   6
ATOM      6  O   UNL     1       2.874  -0.942   0.569  1.00  0.00    -0.463 OA
BRANCH   6   7
ATOM      7  C   UNL     1       2.591  -1.832  -0.432  1.00  0.00     0.317 C 
ATOM      8  O   UNL     1       3.409  -2.180  -1.273  1.00  0.00    -0.251 OA
BRANCH   7   9
ATOM      9  C   UNL     1       1.116  -2.287  -0.460  1.00  0.00     0.173 C 
ATOM     10  C   UNL     1       0.289   0.201  -0.205  1.00  0.00     0.063 C 
ATOM     11  C   UNL     1       0.198  -1.258   0.214  1.00  0.00     0.036 C 
ATOM     12  N   UNL     1      -0.749  -1.520   1.052  1.00  0.00    -0.220 NA
ATOM     13  C   UNL     1      -1.017  -2.797   1.374  1.00  0.00     0.248 A 
ATOM     14  C   UNL     1       0.678  -3.801  -0.209  1.00  0.00     0.161 C 
ATOM     15  N   UNL     1      -1.975  -3.241   2.158  1.00  0.00    -0.198 NA
ATOM     16  N   UNL     1      -0.376  -3.874   0.819  1.00  0.00    -0.221 N 
ATOM     17  C   UNL     1      -1.919  -4.593   2.011  1.00  0.00     0.248 A 
ATOM     18  N   UNL     1      -1.016  -5.025   1.131  1.00  0.00    -0.157 NA
BRANCH  14  19
ATOM     19  C   UNL     1       1.650  -4.990  -0.021  1.00  0.00    -0.022 A 
ATOM     20  C   UNL     1       1.277  -6.332  -0.263  1.00  0.00     0.009 A 
ATOM     21  C   UNL     1       2.904  -4.822   0.539  1.00  0.00     0.009 A 
ATOM     22  C   UNL     1       2.107  -7.412   0.107  1.00  0.00     0.039 A 
ATOM     23  C   UNL     1       3.735  -5.874   0.937  1.00  0.00     0.039 A 
ATOM     24  C   UNL     1       3.323  -7.171   0.724  1.00  0.00     0.123 A 
ATOM     25  F   UNL     1       4.102  -8.184   1.122  1.00  0.00    -0.207 F 
ENDBRANCH  14  19
ENDBRANCH   7   9
ENDBRANCH   6   7
ENDBRANCH   5   6
ENDBRANCH   4   5
ENDBRANCH   3   4
ENDBRANCH   2   3
ENDBRANCH   1   2
BRANCH   1  26
ATOM     26  O   UNL     1       3.156  -1.843   4.043  1.00  0.00    -0.376 OA
BRANCH  26  27
ATOM     27  C   UNL     1       3.878  -2.271   5.183  1.00  0.00     0.202 C 
BRANCH  27  28
ATOM     28  C   UNL     1       3.481  -3.632   5.739  1.00  0.00     0.261 C 
BRANCH  28  29
ATOM     29  O   UNL     1       3.614  -4.678   4.783  1.00  0.00    -0.460 OA
BRANCH  29  30
ATOM     30  C   UNL     1       2.496  -5.418   4.542  1.00  0.00     0.338 C 
ATOM     31  O   UNL     1       1.349  -5.035   4.551  1.00  0.00    -0.246 OA
BRANCH  30  32
ATOM     32  C   UNL     1       2.946  -6.822   4.445  1.00  0.00     0.060 A 
ATOM     33  C   UNL     1       1.998  -7.841   4.328  1.00  0.00     0.016 A 
ATOM     34  C   UNL     1       4.300  -7.110   4.681  1.00  0.00     0.016 A 
ATOM     35  C   UNL     1       2.396  -9.142   4.603  1.00  0.00     0.010 A 
ATOM     36  C   UNL     1       4.686  -8.391   4.973  1.00  0.00     0.010 A 
ATOM     37  C   UNL     1       3.719  -9.385   5.001  1.00  0.00    -0.014 A 
BRANCH  37  38
ATOM     38  C   UNL     1       4.143 -10.722   5.360  1.00  0.00     0.031 A 
ATOM     39  C   UNL     1       4.192 -11.653   4.212  1.00  0.00     0.074 A 
ATOM     40  C   UNL     1       4.604 -11.046   6.587  1.00  0.00     0.049 A 
ATOM     41  N   UNL     1       3.386 -12.632   3.986  1.00  0.00    -0.248 NA
ATOM     42  C   UNL     1       5.130 -11.381   3.111  1.00  0.00     0.031 C 
ATOM     43  C   UNL     1       4.870 -10.166   7.729  1.00  0.00     0.029 A 
ATOM     44  N   UNL     1       5.028 -12.256   7.039  1.00  0.00    -0.354 N 
ATOM     45  C   UNL     1       3.861 -13.260   2.843  1.00  0.00     0.074 A 
ATOM     46  C   UNL     1       4.816 -12.355   2.254  1.00  0.00     0.031 C 
ATOM     47  C   UNL     1       5.611 -10.831   8.649  1.00  0.00     0.029 A 
ATOM     48  C   UNL     1       5.741 -12.218   8.233  1.00  0.00     0.049 A 
ATOM     49  H   UNL     1       4.844 -13.095   6.559  1.00  0.00     0.167 HD
ATOM     50  C   UNL     1       3.614 -14.580   2.624  1.00  0.00     0.031 A 
ATOM     51  C   UNL     1       6.406 -13.250   8.819  1.00  0.00     0.031 A 
ATOM     52  C   UNL     1       2.560 -15.070   3.480  1.00  0.00     0.049 A 
ATOM     53  C   UNL     1       5.809 -14.501   8.289  1.00  0.00     0.074 A 
ATOM     54  C   UNL     1       1.240 -14.717   3.688  1.00  0.00     0.029 A 
ATOM     55  N   UNL     1       2.937 -15.785   4.594  1.00  0.00    -0.354 N 
ATOM     56  N   UNL     1       4.580 -14.857   8.540  1.00  0.00    -0.248 NA
ATOM     57  C   UNL     1       6.397 -15.088   7.096  1.00  0.00     0.031 C 
ATOM     58  C   UNL     1       1.060 -14.794   5.101  1.00  0.00     0.029 A 
ATOM     59  C   UNL     1       2.243 -15.277   5.663  1.00  0.00     0.049 A 
ATOM     60  H   UNL     1       3.586 -16.525   4.619  1.00  0.00     0.167 HD
ATOM     61  C   UNL     1       4.093 -15.320   7.327  1.00  0.00     0.074 A 
ATOM     62  C   UNL     1       5.283 -15.522   6.496  1.00  0.00     0.031 C 
ATOM     63  C   UNL     1       2.766 -15.227   7.012  1.00  0.00     0.031 A 
BRANCH  50  64
ATOM     64  C   UNL     1       4.602 -15.508   1.965  1.00  0.00    -0.014 A 
ATOM     65  C   UNL     1       4.232 -16.853   1.768  1.00  0.00     0.010 A 
ATOM     66  C   UNL     1       5.966 -15.186   1.804  1.00  0.00     0.010 A 
ATOM     67  C   UNL     1       5.191 -17.838   1.502  1.00  0.00     0.020 A 
ATOM     68  C   UNL     1       6.924 -16.154   1.498  1.00  0.00     0.020 A 
ATOM     69  C   UNL     1       6.534 -17.481   1.383  1.00  0.00     0.054 A 
BRANCH  69  70
ATOM     70  S   UNL     1       7.772 -18.776   1.134  1.00  0.00     0.124 S 
ATOM     71  O   UNL     1       7.686 -19.518   2.387  1.00  0.00    -0.237 OA
ATOM     72  O   UNL     1       7.261 -19.464  -0.048  1.00  0.00    -0.237 OA
ATOM     73  O   UNL     1       9.011 -18.029   0.928  1.00  0.00    -0.744 OA
ENDBRANCH  69  70
ENDBRANCH  50  64
BRANCH  51  74
ATOM     74  C   UNL     1       7.721 -13.227   9.515  1.00  0.00    -0.014 A 
ATOM     75  C   UNL     1       8.199 -14.352  10.217  1.00  0.00     0.010 A 
ATOM     76  C   UNL     1       8.645 -12.201   9.230  1.00  0.00     0.010 A 
ATOM     77  C   UNL     1       9.562 -14.479  10.551  1.00  0.00     0.020 A 
ATOM     78  C   UNL     1      10.001 -12.318   9.562  1.00  0.00     0.020 A 
ATOM     79  C   UNL     1      10.460 -13.469  10.197  1.00  0.00     0.054 A 
BRANCH  79  80
ATOM     80  S   UNL     1      12.246 -13.721  10.446  1.00  0.00     0.124 S 
ATOM     81  O   UNL     1      12.374 -13.640  11.898  1.00  0.00    -0.237 OA
ATOM     82  O   UNL     1      12.467 -15.041   9.864  1.00  0.00    -0.237 OA
ATOM     83  O   UNL     1      12.855 -12.614   9.709  1.00  0.00    -0.744 OA
ENDBRANCH  79  80
ENDBRANCH  51  74
BRANCH  63  84
ATOM     84  C   UNL     1       1.791 -14.850   8.108  1.00  0.00    -0.014 A 
ATOM     85  C   UNL     1       1.856 -13.657   8.856  1.00  0.00     0.010 A 
ATOM     86  C   UNL     1       0.689 -15.699   8.308  1.00  0.00     0.010 A 
ATOM     87  C   UNL     1       0.875 -13.353   9.815  1.00  0.00     0.020 A 
ATOM     88  C   UNL     1      -0.301 -15.395   9.245  1.00  0.00     0.020 A 
ATOM     89  C   UNL     1      -0.194 -14.233  10.009  1.00  0.00     0.054 A 
BRANCH  89  90
ATOM     90  S   UNL     1      -1.455 -13.854  11.259  1.00  0.00     0.124 S 
ATOM     91  O   UNL     1      -0.707 -13.967  12.508  1.00  0.00    -0.237 OA
ATOM     92  O   UNL     1      -1.877 -12.503  10.898  1.00  0.00    -0.237 OA
ATOM     93  O   UNL     1      -2.471 -14.887  11.054  1.00  0.00    -0.744 OA
ENDBRANCH  89  90
ENDBRANCH  63  84
ENDBRANCH  37  38
ENDBRANCH  30  32
ENDBRANCH  29  30
ENDBRANCH  28  29
ENDBRANCH  27  28
ENDBRANCH  26  27
ENDBRANCH   1  26
TORSDOF 21
