REMARK SMILES C[C@H]([NH2+][C@@H]1CC[N@@H+](C)C1)[C@@H](C)C(=O)OCCOCCOCCOC(=O)c1ccc(-c2c3nc(c(-c4ccc(S(=O)(=O)[O-])cc4)c4ccc([nH]4)c(-c4ccc(S(=O)(=O)[O-])cc4)c4nc(c(-c5ccc(S(=O)(=O)[O-])cc5)c5ccc2[nH]5)C=C4)C=C3)cc1
REMARK SMILES IDX 18 1 17 2 16 3 15 4 14 5 12 6 13 7 10 8 11 9 2 10 1 11 3 12
REMARK SMILES IDX 4 15 5 16 9 17 6 18 7 19 8 20 19 22 20 23 21 24 22 25 23 26
REMARK SMILES IDX 24 27 25 28 26 29 27 30 85 31 28 32 84 33 29 34 30 35 31 36
REMARK SMILES IDX 78 37 32 38 83 39 77 40 79 41 33 42 82 43 76 44 75 45 34 47
REMARK SMILES IDX 64 48 45 49 63 50 46 51 49 52 62 53 80 54 47 55 48 56 61 58
REMARK SMILES IDX 81 59 50 60 35 61 36 62 44 63 37 64 43 65 38 66 39 67 40 68
REMARK SMILES IDX 41 69 42 70 65 71 66 72 74 73 67 74 73 75 68 76 69 77 70 78
REMARK SMILES IDX 71 79 72 80 51 81 52 82 60 83 53 84 59 85 54 86 55 87 56 88
REMARK SMILES IDX 57 89 58 90
REMARK H PARENT 3 13 3 14 7 21 79 46 49 57
REMARK Flexibility Score: inf
ROOT
ATOM      1  C   UNL     1      -1.423   0.018   4.959  1.00  0.00     0.188 C 
ENDROOT
BRANCH   1   2
ATOM      2  O   UNL     1      -2.450  -0.889   5.351  1.00  0.00    -0.376 OA
BRANCH   2   3
ATOM      3  C   UNL     1      -2.280  -2.277   5.124  1.00  0.00     0.202 C 
BRANCH   3   4
ATOM      4  C   UNL     1      -2.405  -2.770   3.676  1.00  0.00     0.261 C 
BRANCH   4   5
ATOM      5  O   UNL     1      -1.528  -2.173   2.691  1.00  0.00    -0.463 OA
BRANCH   5   6
ATOM      6  C   UNL     1      -2.068  -1.167   1.949  1.00  0.00     0.314 C 
ATOM      7  O   UNL     1      -3.186  -0.703   2.149  1.00  0.00    -0.252 OA
BRANCH   6   8
ATOM      8  C   UNL     1      -1.236  -0.741   0.735  1.00  0.00     0.154 C 
ATOM      9  C   UNL     1      -1.673  -1.663  -0.409  1.00  0.00     0.026 C 
BRANCH   8  10
ATOM     10  C   UNL     1       0.312  -0.667   0.897  1.00  0.00     0.193 C 
ATOM     11  C   UNL     1       0.745   0.599   1.652  1.00  0.00     0.076 C 
BRANCH  10  12
ATOM     12  N   UNL     1       0.950  -0.638  -0.432  1.00  0.00    -0.336 N 
ATOM     13  H   UNL     1       0.714   0.255  -0.865  1.00  0.00     0.346 HD
ATOM     14  H   UNL     1       0.590  -1.464  -0.910  1.00  0.00     0.346 HD
BRANCH  12  15
ATOM     15  C   UNL     1       2.415  -0.781  -0.487  1.00  0.00     0.244 C 
ATOM     16  C   UNL     1       2.835  -0.827  -1.971  1.00  0.00     0.132 C 
ATOM     17  C   UNL     1       2.968  -2.115   0.042  1.00  0.00     0.327 C 
ATOM     18  C   UNL     1       3.215  -2.283  -2.255  1.00  0.00     0.268 C 
ATOM     19  N   UNL     1       2.738  -3.018  -1.087  1.00  0.00    -0.332 N 
ATOM     20  C   UNL     1       3.340  -4.323  -0.919  1.00  0.00     0.332 C 
ATOM     21  H   UNL     1       1.751  -3.257  -1.183  1.00  0.00     0.348 HD
ENDBRANCH  12  15
ENDBRANCH  10  12
ENDBRANCH   8  10
ENDBRANCH   6   8
ENDBRANCH   5   6
ENDBRANCH   4   5
ENDBRANCH   3   4
ENDBRANCH   2   3
ENDBRANCH   1   2
BRANCH   1  22
ATOM     22  C   UNL     1      -0.014  -0.518   4.687  1.00  0.00     0.188 C 
BRANCH  22  23
ATOM     23  O   UNL     1       0.399  -1.450   5.673  1.00  0.00    -0.376 OA
BRANCH  23  24
ATOM     24  C   UNL     1       1.694  -1.230   6.199  1.00  0.00     0.202 C 
BRANCH  24  25
ATOM     25  C   UNL     1       1.664  -0.179   7.312  1.00  0.00     0.261 C 
BRANCH  25  26
ATOM     26  O   UNL     1       1.111   1.099   6.936  1.00  0.00    -0.460 OA
BRANCH  26  27
ATOM     27  C   UNL     1       1.841   1.858   6.092  1.00  0.00     0.338 C 
ATOM     28  O   UNL     1       2.927   1.560   5.602  1.00  0.00    -0.246 OA
BRANCH  27  29
ATOM     29  C   UNL     1       1.034   3.026   5.678  1.00  0.00     0.060 A 
ATOM     30  C   UNL     1       0.795   3.233   4.314  1.00  0.00     0.016 A 
ATOM     31  C   UNL     1       0.532   3.927   6.618  1.00  0.00     0.016 A 
ATOM     32  C   UNL     1       0.063   4.342   3.882  1.00  0.00     0.010 A 
ATOM     33  C   UNL     1      -0.181   5.052   6.183  1.00  0.00     0.010 A 
ATOM     34  C   UNL     1      -0.403   5.279   4.811  1.00  0.00    -0.014 A 
BRANCH  34  35
ATOM     35  C   UNL     1      -0.990   6.567   4.352  1.00  0.00     0.031 A 
ATOM     36  C   UNL     1      -0.147   7.813   4.415  1.00  0.00     0.074 A 
ATOM     37  C   UNL     1      -2.246   6.636   3.871  1.00  0.00     0.049 A 
ATOM     38  N   UNL     1      -0.479   9.056   4.176  1.00  0.00    -0.248 NA
ATOM     39  C   UNL     1       1.262   7.630   4.801  1.00  0.00     0.031 C 
ATOM     40  C   UNL     1      -3.147   5.499   3.685  1.00  0.00     0.029 A 
ATOM     41  N   UNL     1      -2.985   7.720   3.460  1.00  0.00    -0.354 N 
ATOM     42  C   UNL     1       0.669   9.806   4.407  1.00  0.00     0.074 A 
ATOM     43  C   UNL     1       1.702   8.880   4.819  1.00  0.00     0.031 C 
ATOM     44  C   UNL     1      -4.321   5.947   3.206  1.00  0.00     0.029 A 
ATOM     45  C   UNL     1      -4.276   7.404   3.102  1.00  0.00     0.049 A 
ATOM     46  H   UNL     1      -2.625   8.635   3.425  1.00  0.00     0.167 HD
ATOM     47  C   UNL     1       0.847  11.144   4.290  1.00  0.00     0.031 A 
ATOM     48  C   UNL     1      -5.313   8.200   2.767  1.00  0.00     0.031 A 
ATOM     49  C   UNL     1      -0.184  12.064   3.887  1.00  0.00     0.049 A 
ATOM     50  C   UNL     1      -5.118   9.695   2.734  1.00  0.00     0.074 A 
ATOM     51  C   UNL     1      -0.099  13.437   3.735  1.00  0.00     0.029 A 
ATOM     52  N   UNL     1      -1.489  11.708   3.579  1.00  0.00    -0.354 N 
ATOM     53  N   UNL     1      -4.029  10.392   2.960  1.00  0.00    -0.248 NA
ATOM     54  C   UNL     1      -6.295  10.512   2.401  1.00  0.00     0.031 C 
ATOM     55  C   UNL     1      -1.369  13.919   3.398  1.00  0.00     0.029 A 
ATOM     56  C   UNL     1      -2.227  12.839   3.269  1.00  0.00     0.049 A 
ATOM     57  H   UNL     1      -1.839  10.788   3.581  1.00  0.00     0.167 HD
ATOM     58  C   UNL     1      -4.384  11.725   2.772  1.00  0.00     0.074 A 
ATOM     59  C   UNL     1      -5.783  11.736   2.397  1.00  0.00     0.031 C 
ATOM     60  C   UNL     1      -3.620  12.839   2.898  1.00  0.00     0.031 A 
BRANCH  47  61
ATOM     61  C   UNL     1       2.199  11.702   4.656  1.00  0.00    -0.014 A 
ATOM     62  C   UNL     1       3.331  11.476   3.853  1.00  0.00     0.010 A 
ATOM     63  C   UNL     1       2.328  12.496   5.811  1.00  0.00     0.010 A 
ATOM     64  C   UNL     1       4.574  12.000   4.220  1.00  0.00     0.020 A 
ATOM     65  C   UNL     1       3.563  13.046   6.165  1.00  0.00     0.020 A 
ATOM     66  C   UNL     1       4.683  12.779   5.375  1.00  0.00     0.054 A 
BRANCH  66  67
ATOM     67  S   UNL     1       6.305  13.459   5.818  1.00  0.00     0.124 S 
ATOM     68  O   UNL     1       7.026  12.262   6.246  1.00  0.00    -0.237 OA
ATOM     69  O   UNL     1       6.758  14.048   4.561  1.00  0.00    -0.237 OA
ATOM     70  O   UNL     1       6.004  14.416   6.880  1.00  0.00    -0.744 OA
ENDBRANCH  66  67
ENDBRANCH  47  61
BRANCH  48  71
ATOM     71  C   UNL     1      -6.649   7.603   2.477  1.00  0.00    -0.014 A 
ATOM     72  C   UNL     1      -7.200   7.660   1.185  1.00  0.00     0.010 A 
ATOM     73  C   UNL     1      -7.383   6.979   3.503  1.00  0.00     0.010 A 
ATOM     74  C   UNL     1      -8.464   7.117   0.928  1.00  0.00     0.020 A 
ATOM     75  C   UNL     1      -8.632   6.407   3.243  1.00  0.00     0.020 A 
ATOM     76  C   UNL     1      -9.170   6.490   1.958  1.00  0.00     0.054 A 
BRANCH  76  77
ATOM     77  S   UNL     1     -10.784   5.748   1.588  1.00  0.00     0.124 S 
ATOM     78  O   UNL     1     -11.626   6.926   1.404  1.00  0.00    -0.237 OA
ATOM     79  O   UNL     1     -10.505   4.975   0.380  1.00  0.00    -0.237 OA
ATOM     80  O   UNL     1     -11.076   4.950   2.776  1.00  0.00    -0.744 OA
ENDBRANCH  76  77
ENDBRANCH  48  71
BRANCH  60  81
ATOM     81  C   UNL     1      -4.265  14.168   2.593  1.00  0.00    -0.014 A 
ATOM     82  C   UNL     1      -5.224  14.733   3.452  1.00  0.00     0.010 A 
ATOM     83  C   UNL     1      -3.858  14.890   1.455  1.00  0.00     0.010 A 
ATOM     84  C   UNL     1      -5.788  15.979   3.161  1.00  0.00     0.020 A 
ATOM     85  C   UNL     1      -4.396  16.149   1.177  1.00  0.00     0.020 A 
ATOM     86  C   UNL     1      -5.370  16.680   2.026  1.00  0.00     0.054 A 
BRANCH  86  87
ATOM     87  S   UNL     1      -6.085  18.314   1.695  1.00  0.00     0.124 S 
ATOM     88  O   UNL     1      -7.440  17.973   1.271  1.00  0.00    -0.237 OA
ATOM     89  O   UNL     1      -5.980  18.978   2.992  1.00  0.00    -0.237 OA
ATOM     90  O   UNL     1      -5.226  18.864   0.649  1.00  0.00    -0.744 OA
ENDBRANCH  86  87
ENDBRANCH  60  81
ENDBRANCH  34  35
ENDBRANCH  27  29
ENDBRANCH  26  27
ENDBRANCH  25  26
ENDBRANCH  24  25
ENDBRANCH  23  24
ENDBRANCH  22  23
ENDBRANCH   1  22
TORSDOF 23
