REMARK SMILES CC1(C)C(C(=O)N2CCOC[C@H]2C(=O)OCCOCCOCCOC(=O)c2ccc(-c3c4nc(c(-c5ccc(S(=O)(=O)[O-])cc5)c5ccc([nH]5)c(-c5ccc(S(=O)(=O)[O-])cc5)c5nc(c(-c6ccc(S(=O)(=O)[O-])cc6)c6ccc3[nH]6)C=C5)C=C4)cc2)C1(C)C
REMARK SMILES IDX 20 1 19 2 18 3 17 4 16 5 15 6 13 7 14 8 12 9 7 10 8 11 9 12
REMARK SMILES IDX 11 13 10 14 5 15 6 16 4 17 1 18 2 19 3 20 87 21 88 22 89 23
REMARK SMILES IDX 21 24 22 25 23 26 24 27 25 28 26 29 27 30 28 31 86 32 29 33
REMARK SMILES IDX 85 34 30 35 31 36 32 37 79 38 33 39 84 40 78 41 80 42 34 43
REMARK SMILES IDX 83 44 77 45 76 46 35 48 65 49 46 50 64 51 47 52 50 53 63 54
REMARK SMILES IDX 81 55 48 56 49 57 62 59 82 60 51 61 36 62 37 63 45 64 38 65
REMARK SMILES IDX 44 66 39 67 40 68 41 69 42 70 43 71 66 72 67 73 75 74 68 75
REMARK SMILES IDX 74 76 69 77 70 78 71 79 72 80 73 81 52 82 53 83 61 84 54 85
REMARK SMILES IDX 60 86 55 87 56 88 57 89 58 90 59 91
REMARK H PARENT 80 47 50 58
REMARK Flexibility Score: inf
ROOT
ATOM      1  C   UNL     1       1.865   5.126   4.571  1.00  0.00     0.188 C 
ENDROOT
BRANCH   1   2
ATOM      2  C   UNL     1       1.052   6.180   5.345  1.00  0.00     0.188 C 
BRANCH   2   3
ATOM      3  O   UNL     1       1.581   6.673   6.573  1.00  0.00    -0.376 OA
BRANCH   3   4
ATOM      4  C   UNL     1       2.127   5.749   7.507  1.00  0.00     0.202 C 
BRANCH   4   5
ATOM      5  C   UNL     1       1.224   4.602   7.964  1.00  0.00     0.261 C 
BRANCH   5   6
ATOM      6  O   UNL     1       0.835   3.715   6.896  1.00  0.00    -0.462 OA
BRANCH   6   7
ATOM      7  C   UNL     1      -0.491   3.425   6.817  1.00  0.00     0.331 C 
ATOM      8  O   UNL     1      -1.330   3.865   7.600  1.00  0.00    -0.250 OA
BRANCH   7   9
ATOM      9  C   UNL     1      -0.858   2.355   5.769  1.00  0.00     0.221 C 
ATOM     10  N   UNL     1      -0.004   2.004   4.596  1.00  0.00    -0.324 N 
ATOM     11  C   UNL     1       1.236   1.320   4.924  1.00  0.00     0.149 C 
ATOM     12  C   UNL     1       0.981   0.134   5.864  1.00  0.00     0.181 C 
ATOM     13  C   UNL     1      -1.087   1.069   6.578  1.00  0.00     0.197 C 
ATOM     14  O   UNL     1       0.169   0.493   6.992  1.00  0.00    -0.377 OA
BRANCH  10  15
ATOM     15  C   UNL     1      -0.512   2.281   3.333  1.00  0.00     0.227 C 
ATOM     16  O   UNL     1      -1.377   3.149   3.209  1.00  0.00    -0.275 OA
BRANCH  15  17
ATOM     17  C   UNL     1      -0.140   1.577   2.055  1.00  0.00     0.091 C 
ATOM     18  C   UNL     1       0.871   0.271   0.051  1.00  0.00     0.012 C 
ATOM     19  C   UNL     1       0.410   0.260   1.511  1.00  0.00    -0.017 C 
ATOM     20  C   UNL     1       1.268  -0.701   2.288  1.00  0.00     0.012 C 
ATOM     21  C   UNL     1      -1.087   0.369   1.760  1.00  0.00    -0.017 C 
ATOM     22  C   UNL     1      -2.060   0.488   0.605  1.00  0.00     0.012 C 
ATOM     23  C   UNL     1      -1.717  -0.390   2.912  1.00  0.00     0.012 C 
ENDBRANCH  15  17
ENDBRANCH  10  15
ENDBRANCH   7   9
ENDBRANCH   6   7
ENDBRANCH   5   6
ENDBRANCH   4   5
ENDBRANCH   3   4
ENDBRANCH   2   3
ENDBRANCH   1   2
BRANCH   1  24
ATOM     24  O   UNL     1       3.205   4.994   5.014  1.00  0.00    -0.376 OA
BRANCH  24  25
ATOM     25  C   UNL     1       4.216   5.389   4.102  1.00  0.00     0.202 C 
BRANCH  25  26
ATOM     26  C   UNL     1       4.266   6.884   3.760  1.00  0.00     0.261 C 
BRANCH  26  27
ATOM     27  O   UNL     1       3.053   7.447   3.234  1.00  0.00    -0.460 OA
BRANCH  27  28
ATOM     28  C   UNL     1       2.639   7.016   2.019  1.00  0.00     0.338 C 
ATOM     29  O   UNL     1       3.189   6.199   1.306  1.00  0.00    -0.246 OA
BRANCH  28  30
ATOM     30  C   UNL     1       1.282   7.567   1.801  1.00  0.00     0.060 A 
ATOM     31  C   UNL     1       0.209   6.689   1.593  1.00  0.00     0.016 A 
ATOM     32  C   UNL     1       1.069   8.947   1.837  1.00  0.00     0.016 A 
ATOM     33  C   UNL     1      -1.080   7.196   1.400  1.00  0.00     0.010 A 
ATOM     34  C   UNL     1      -0.217   9.451   1.626  1.00  0.00     0.010 A 
ATOM     35  C   UNL     1      -1.294   8.581   1.383  1.00  0.00    -0.014 A 
BRANCH  35  36
ATOM     36  C   UNL     1      -2.600   9.140   0.953  1.00  0.00     0.031 A 
ATOM     37  C   UNL     1      -2.751   9.590  -0.475  1.00  0.00     0.074 A 
ATOM     38  C   UNL     1      -3.628   9.268   1.812  1.00  0.00     0.049 A 
ATOM     39  N   UNL     1      -3.758  10.190  -1.054  1.00  0.00    -0.248 NA
ATOM     40  C   UNL     1      -1.609   9.329  -1.368  1.00  0.00     0.031 C 
ATOM     41  C   UNL     1      -3.627   8.831   3.207  1.00  0.00     0.029 A 
ATOM     42  N   UNL     1      -4.873   9.820   1.632  1.00  0.00    -0.354 N 
ATOM     43  C   UNL     1      -3.370  10.388  -2.374  1.00  0.00     0.074 A 
ATOM     44  C   UNL     1      -2.027   9.864  -2.505  1.00  0.00     0.031 C 
ATOM     45  C   UNL     1      -4.812   9.145   3.761  1.00  0.00     0.029 A 
ATOM     46  C   UNL     1      -5.639   9.836   2.773  1.00  0.00     0.049 A 
ATOM     47  H   UNL     1      -5.186  10.170   0.767  1.00  0.00     0.167 HD
ATOM     48  C   UNL     1      -4.067  10.954  -3.387  1.00  0.00     0.031 A 
ATOM     49  C   UNL     1      -6.857  10.370   3.001  1.00  0.00     0.031 A 
ATOM     50  C   UNL     1      -5.394  11.492  -3.254  1.00  0.00     0.049 A 
ATOM     51  C   UNL     1      -7.581  11.071   1.878  1.00  0.00     0.074 A 
ATOM     52  C   UNL     1      -6.186  12.078  -4.226  1.00  0.00     0.029 A 
ATOM     53  N   UNL     1      -6.121  11.519  -2.074  1.00  0.00    -0.354 N 
ATOM     54  N   UNL     1      -7.208  11.235   0.630  1.00  0.00    -0.248 NA
ATOM     55  C   UNL     1      -8.891  11.659   2.196  1.00  0.00     0.031 C 
ATOM     56  C   UNL     1      -7.372  12.508  -3.621  1.00  0.00     0.029 A 
ATOM     57  C   UNL     1      -7.342  12.137  -2.286  1.00  0.00     0.049 A 
ATOM     58  H   UNL     1      -5.815  11.153  -1.213  1.00  0.00     0.167 HD
ATOM     59  C   UNL     1      -8.249  11.922   0.010  1.00  0.00     0.074 A 
ATOM     60  C   UNL     1      -9.270  12.131   1.016  1.00  0.00     0.031 C 
ATOM     61  C   UNL     1      -8.350  12.340  -1.276  1.00  0.00     0.031 A 
BRANCH  48  62
ATOM     62  C   UNL     1      -3.384  11.053  -4.724  1.00  0.00    -0.014 A 
ATOM     63  C   UNL     1      -3.179   9.914  -5.523  1.00  0.00     0.010 A 
ATOM     64  C   UNL     1      -2.966  12.309  -5.200  1.00  0.00     0.010 A 
ATOM     65  C   UNL     1      -2.533  10.024  -6.757  1.00  0.00     0.020 A 
ATOM     66  C   UNL     1      -2.343  12.427  -6.446  1.00  0.00     0.020 A 
ATOM     67  C   UNL     1      -2.116  11.280  -7.209  1.00  0.00     0.054 A 
BRANCH  67  68
ATOM     68  S   UNL     1      -1.296  11.397  -8.823  1.00  0.00     0.124 S 
ATOM     69  O   UNL     1       0.020  10.832  -8.533  1.00  0.00    -0.237 OA
ATOM     70  O   UNL     1      -2.154  10.582  -9.679  1.00  0.00    -0.237 OA
ATOM     71  O   UNL     1      -1.308  12.828  -9.116  1.00  0.00    -0.744 OA
ENDBRANCH  67  68
ENDBRANCH  48  62
BRANCH  49  72
ATOM     72  C   UNL     1      -7.464  10.295   4.359  1.00  0.00    -0.014 A 
ATOM     73  C   UNL     1      -8.591   9.490   4.598  1.00  0.00     0.010 A 
ATOM     74  C   UNL     1      -6.922  11.043   5.420  1.00  0.00     0.010 A 
ATOM     75  C   UNL     1      -9.177   9.448   5.868  1.00  0.00     0.020 A 
ATOM     76  C   UNL     1      -7.488  10.984   6.697  1.00  0.00     0.020 A 
ATOM     77  C   UNL     1      -8.620  10.195   6.910  1.00  0.00     0.054 A 
BRANCH  77  78
ATOM     78  S   UNL     1      -9.369  10.092   8.560  1.00  0.00     0.124 S 
ATOM     79  O   UNL     1     -10.581  10.888   8.395  1.00  0.00    -0.237 OA
ATOM     80  O   UNL     1      -9.574   8.655   8.727  1.00  0.00    -0.237 OA
ATOM     81  O   UNL     1      -8.352  10.674   9.434  1.00  0.00    -0.744 OA
ENDBRANCH  77  78
ENDBRANCH  49  72
BRANCH  61  82
ATOM     82  C   UNL     1      -9.620  13.039  -1.686  1.00  0.00    -0.014 A 
ATOM     83  C   UNL     1      -9.891  14.357  -1.279  1.00  0.00     0.010 A 
ATOM     84  C   UNL     1     -10.523  12.387  -2.546  1.00  0.00     0.010 A 
ATOM     85  C   UNL     1     -11.057  15.001  -1.704  1.00  0.00     0.020 A 
ATOM     86  C   UNL     1     -11.677  13.037  -2.993  1.00  0.00     0.020 A 
ATOM     87  C   UNL     1     -11.943  14.336  -2.558  1.00  0.00     0.054 A 
BRANCH  87  88
ATOM     88  S   UNL     1     -13.425  15.211  -3.135  1.00  0.00     0.124 S 
ATOM     89  O   UNL     1     -14.274  15.187  -1.947  1.00  0.00    -0.237 OA
ATOM     90  O   UNL     1     -12.901  16.523  -3.507  1.00  0.00    -0.237 OA
ATOM     91  O   UNL     1     -13.895  14.396  -4.253  1.00  0.00    -0.744 OA
ENDBRANCH  87  88
ENDBRANCH  61  82
ENDBRANCH  35  36
ENDBRANCH  28  30
ENDBRANCH  27  28
ENDBRANCH  26  27
ENDBRANCH  25  26
ENDBRANCH  24  25
ENDBRANCH   1  24
TORSDOF 22
