REMARK SMILES Cc1cccc(CNC(=O)N[C@@H](CC2=c3ccccc3=NC2)C(=O)OCCOCCOCCOC(=O)c2ccc(-c3c4nc(c(-c5ccc(S(=O)(=O)[O-])cc5)c5ccc([nH]5)c(-c5ccc(S(=O)(=O)[O-])cc5)c5nc(c(-c6ccc(S(=O)(=O)[O-])cc6)c6ccc3[nH]6)C=C5)C=C4)cc2)c1
REMARK SMILES IDX 29 1 28 2 27 3 26 4 25 5 23 6 24 7 12 8 11 9 8 10 9 11 10 13
REMARK SMILES IDX 7 15 6 16 1 17 2 18 3 19 97 20 4 21 5 22 13 23 14 24 15 25
REMARK SMILES IDX 22 26 16 27 20 28 21 29 17 30 19 31 18 32 30 33 31 34 32 35
REMARK SMILES IDX 33 36 34 37 35 38 36 39 37 40 38 41 96 42 39 43 95 44 40 45
REMARK SMILES IDX 41 46 42 47 89 48 43 49 94 50 88 51 90 52 44 53 93 54 87 55
REMARK SMILES IDX 86 56 45 58 75 59 56 60 74 61 57 62 60 63 73 64 91 65 58 66
REMARK SMILES IDX 59 67 72 69 92 70 61 71 46 72 47 73 55 74 48 75 54 76 49 77
REMARK SMILES IDX 50 78 51 79 52 80 53 81 76 82 77 83 85 84 78 85 84 86 79 87
REMARK SMILES IDX 80 88 81 89 82 90 83 91 62 92 63 93 71 94 64 95 70 96 65 97
REMARK SMILES IDX 66 98 67 99 68 100 69 101
REMARK H PARENT 8 12 11 14 90 57 60 68
REMARK Flexibility Score: inf
ROOT
ATOM      1  C   UNL     1      -4.941  -3.580   0.514  1.00  0.00     0.188 C 
ENDROOT
BRANCH   1   2
ATOM      2  O   UNL     1      -5.702  -3.523   1.715  1.00  0.00    -0.376 OA
BRANCH   2   3
ATOM      3  C   UNL     1      -5.211  -2.500   2.570  1.00  0.00     0.202 C 
BRANCH   3   4
ATOM      4  C   UNL     1      -5.330  -1.077   2.003  1.00  0.00     0.261 C 
BRANCH   4   5
ATOM      5  O   UNL     1      -3.964  -0.332   1.469  1.00  0.00    -0.462 OA
BRANCH   5   6
ATOM      6  C   UNL     1      -3.062   0.757   1.457  1.00  0.00     0.329 C 
ATOM      7  O   UNL     1      -2.074   0.568   0.739  1.00  0.00    -0.250 OA
BRANCH   6   8
ATOM      8  C   UNL     1      -3.113   2.331   2.108  1.00  0.00     0.198 C 
BRANCH   8   9
ATOM      9  N   UNL     1      -3.468   3.354   1.049  1.00  0.00    -0.324 N 
ATOM     10  N   UNL     1      -2.014   3.212  -0.815  1.00  0.00    -0.334 N 
ATOM     11  C   UNL     1      -3.073   3.712  -0.181  1.00  0.00     0.315 C 
ATOM     12  H   UNL     1      -2.167   2.921  -1.743  1.00  0.00     0.165 HD
ATOM     13  O   UNL     1      -3.834   4.452  -0.815  1.00  0.00    -0.249 OA
ATOM     14  H   UNL     1      -4.209   3.926   1.355  1.00  0.00     0.166 HD
BRANCH  10  15
ATOM     15  C   UNL     1      -0.676   3.041  -0.319  1.00  0.00     0.153 C 
BRANCH  15  16
ATOM     16  C   UNL     1       0.072   1.830  -0.818  1.00  0.00    -0.028 A 
ATOM     17  C   UNL     1       3.392   0.221   0.120  1.00  0.00     0.044 C 
ATOM     18  C   UNL     1       2.083   0.460  -0.566  1.00  0.00    -0.051 A 
ATOM     19  C   UNL     1       1.482  -0.549  -1.323  1.00  0.00     0.003 A 
ATOM     20  C   UNL     1       1.377   1.645  -0.331  1.00  0.00     0.009 A 
ATOM     21  C   UNL     1       0.208  -0.360  -1.858  1.00  0.00     0.001 A 
ATOM     22  C   UNL     1      -0.492   0.824  -1.615  1.00  0.00     0.005 A 
ENDBRANCH  15  16
ENDBRANCH  10  15
ENDBRANCH   8   9
BRANCH   8  23
ATOM     23  C   UNL     1      -3.549   2.914   3.645  1.00  0.00     0.070 C 
BRANCH  23  24
ATOM     24  C   UNL     1      -5.122   3.115   4.336  1.00  0.00    -0.037 C 
ATOM     25  C   UNL     1      -6.661   2.352   4.716  1.00  0.00     0.001 A 
ATOM     26  C   UNL     1      -5.527   4.841   3.427  1.00  0.00     0.174 C 
ATOM     27  C   UNL     1      -7.336   0.984   4.862  1.00  0.00     0.010 A 
ATOM     28  C   UNL     1      -8.138   3.387   4.143  1.00  0.00     0.065 A 
ATOM     29  N   UNL     1      -7.723   4.599   3.415  1.00  0.00    -0.280 NA
ATOM     30  C   UNL     1      -8.649   0.716   4.792  1.00  0.00     0.001 A 
ATOM     31  C   UNL     1      -9.511   2.947   4.346  1.00  0.00     0.028 A 
ATOM     32  C   UNL     1      -9.708   1.670   4.664  1.00  0.00     0.002 A 
ENDBRANCH  23  24
ENDBRANCH   8  23
ENDBRANCH   6   8
ENDBRANCH   5   6
ENDBRANCH   4   5
ENDBRANCH   3   4
ENDBRANCH   2   3
ENDBRANCH   1   2
BRANCH   1  33
ATOM     33  C   UNL     1      -5.386  -2.575  -0.544  1.00  0.00     0.188 C 
BRANCH  33  34
ATOM     34  O   UNL     1      -6.569  -1.862  -0.233  1.00  0.00    -0.376 OA
BRANCH  34  35
ATOM     35  C   UNL     1      -7.826  -2.480  -0.151  1.00  0.00     0.202 C 
BRANCH  35  36
ATOM     36  C   UNL     1      -8.369  -2.520  -1.565  1.00  0.00     0.261 C 
BRANCH  36  37
ATOM     37  O   UNL     1      -8.629  -1.162  -2.015  1.00  0.00    -0.460 OA
BRANCH  37  38
ATOM     38  C   UNL     1      -7.528  -0.482  -2.453  1.00  0.00     0.338 C 
ATOM     39  O   UNL     1      -6.874  -0.792  -3.436  1.00  0.00    -0.246 OA
BRANCH  38  40
ATOM     40  C   UNL     1      -7.138   0.565  -1.451  1.00  0.00     0.060 A 
ATOM     41  C   UNL     1      -5.799   0.874  -1.334  1.00  0.00     0.016 A 
ATOM     42  C   UNL     1      -7.997   1.000  -0.437  1.00  0.00     0.016 A 
ATOM     43  C   UNL     1      -5.324   1.400  -0.119  1.00  0.00     0.010 A 
ATOM     44  C   UNL     1      -7.487   1.494   0.789  1.00  0.00     0.010 A 
ATOM     45  C   UNL     1      -6.109   1.581   1.044  1.00  0.00    -0.014 A 
BRANCH  45  46
ATOM     46  C   UNL     1      -5.712   1.785   2.582  1.00  0.00     0.031 A 
ATOM     47  C   UNL     1      -6.499   3.486   2.935  1.00  0.00     0.074 A 
ATOM     48  C   UNL     1      -4.863   0.879   3.675  1.00  0.00     0.049 A 
ATOM     49  N   UNL     1      -6.554   4.268   4.610  1.00  0.00    -0.248 NA
ATOM     50  C   UNL     1      -6.796   5.110   1.813  1.00  0.00     0.031 C 
ATOM     51  C   UNL     1      -4.831   0.852   5.310  1.00  0.00     0.029 A 
ATOM     52  N   UNL     1      -3.843  -0.163   3.700  1.00  0.00    -0.354 N 
ATOM     53  C   UNL     1      -6.842   5.929   4.610  1.00  0.00     0.074 A 
ATOM     54  C   UNL     1      -6.990   6.348   2.811  1.00  0.00     0.031 C 
ATOM     55  C   UNL     1      -4.165  -0.142   5.891  1.00  0.00     0.029 A 
ATOM     56  C   UNL     1      -3.258  -0.554   4.902  1.00  0.00     0.049 A 
ATOM     57  H   UNL     1      -3.566  -0.594   2.860  1.00  0.00     0.167 HD
ATOM     58  C   UNL     1      -6.967   6.236   5.939  1.00  0.00     0.031 A 
ATOM     59  C   UNL     1      -1.915  -0.578   5.118  1.00  0.00     0.031 A 
ATOM     60  C   UNL     1      -6.054   5.284   6.816  1.00  0.00     0.049 A 
ATOM     61  C   UNL     1      -1.560   0.667   5.983  1.00  0.00     0.074 A 
ATOM     62  C   UNL     1      -6.346   4.171   7.609  1.00  0.00     0.029 A 
ATOM     63  N   UNL     1      -4.631   5.192   6.657  1.00  0.00    -0.354 N 
ATOM     64  N   UNL     1      -2.418   1.643   6.229  1.00  0.00    -0.248 NA
ATOM     65  C   UNL     1      -0.323   0.889   6.715  1.00  0.00     0.031 C 
ATOM     66  C   UNL     1      -5.149   3.407   7.854  1.00  0.00     0.029 A 
ATOM     67  C   UNL     1      -4.061   4.017   7.242  1.00  0.00     0.049 A 
ATOM     68  H   UNL     1      -4.096   5.873   6.189  1.00  0.00     0.167 HD
ATOM     69  C   UNL     1      -1.919   2.609   7.047  1.00  0.00     0.074 A 
ATOM     70  C   UNL     1      -0.596   2.045   7.362  1.00  0.00     0.031 C 
ATOM     71  C   UNL     1      -2.573   3.782   7.400  1.00  0.00     0.031 A 
BRANCH  58  72
ATOM     72  C   UNL     1      -8.361   6.666   6.376  1.00  0.00    -0.014 A 
ATOM     73  C   UNL     1      -8.774   6.494   7.715  1.00  0.00     0.010 A 
ATOM     74  C   UNL     1      -9.352   7.099   5.468  1.00  0.00     0.010 A 
ATOM     75  C   UNL     1     -10.093   6.750   8.130  1.00  0.00     0.020 A 
ATOM     76  C   UNL     1     -10.671   7.371   5.873  1.00  0.00     0.020 A 
ATOM     77  C   UNL     1     -11.032   7.207   7.207  1.00  0.00     0.054 A 
BRANCH  77  78
ATOM     78  S   UNL     1     -12.697   7.648   7.783  1.00  0.00     0.124 S 
ATOM     79  O   UNL     1     -13.238   6.363   8.220  1.00  0.00    -0.237 OA
ATOM     80  O   UNL     1     -12.417   8.607   8.849  1.00  0.00    -0.237 OA
ATOM     81  O   UNL     1     -13.337   8.217   6.598  1.00  0.00    -0.744 OA
ENDBRANCH  77  78
ENDBRANCH  58  72
BRANCH  59  82
ATOM     82  C   UNL     1      -1.206  -1.388   4.062  1.00  0.00    -0.014 A 
ATOM     83  C   UNL     1      -1.619  -2.751   3.933  1.00  0.00     0.010 A 
ATOM     84  C   UNL     1      -0.542  -0.841   2.962  1.00  0.00     0.010 A 
ATOM     85  C   UNL     1      -1.563  -3.455   2.710  1.00  0.00     0.020 A 
ATOM     86  C   UNL     1      -0.474  -1.557   1.735  1.00  0.00     0.020 A 
ATOM     87  C   UNL     1      -1.047  -2.823   1.587  1.00  0.00     0.054 A 
BRANCH  87  88
ATOM     88  S   UNL     1      -1.275  -3.549  -0.087  1.00  0.00     0.124 S 
ATOM     89  O   UNL     1       0.090  -3.688  -0.582  1.00  0.00    -0.237 OA
ATOM     90  O   UNL     1      -1.962  -4.814   0.178  1.00  0.00    -0.237 OA
ATOM     91  O   UNL     1      -2.104  -2.563  -0.774  1.00  0.00    -0.744 OA
ENDBRANCH  87  88
ENDBRANCH  59  82
BRANCH  71  92
ATOM     92  C   UNL     1      -1.815   4.841   8.157  1.00  0.00    -0.014 A 
ATOM     93  C   UNL     1      -0.444   5.089   7.978  1.00  0.00     0.010 A 
ATOM     94  C   UNL     1      -2.529   5.694   9.024  1.00  0.00     0.010 A 
ATOM     95  C   UNL     1       0.205   6.087   8.706  1.00  0.00     0.020 A 
ATOM     96  C   UNL     1      -1.905   6.742   9.694  1.00  0.00     0.020 A 
ATOM     97  C   UNL     1      -0.533   6.909   9.556  1.00  0.00     0.054 A 
BRANCH  97  98
ATOM     98  S   UNL     1       0.302   8.248  10.431  1.00  0.00     0.124 S 
ATOM     99  O   UNL     1       0.817   7.555  11.610  1.00  0.00    -0.237 OA
ATOM    100  O   UNL     1       1.311   8.683   9.467  1.00  0.00    -0.237 OA
ATOM    101  O   UNL     1      -0.767   9.210  10.681  1.00  0.00    -0.744 OA
ENDBRANCH  97  98
ENDBRANCH  71  92
ENDBRANCH  45  46
ENDBRANCH  38  40
ENDBRANCH  37  38
ENDBRANCH  36  37
ENDBRANCH  35  36
ENDBRANCH  34  35
ENDBRANCH  33  34
ENDBRANCH   1  33
TORSDOF 25
