REMARK SMILES CC(C)(C)N(CC(=O)OCCOCCOCCOC(=O)c1ccc(-c2c3nc(c(-c4ccc(S(=O)(=O)[O-])cc4)c4ccc([nH]4)c(-c4ccc(S(=O)(=O)[O-])cc4)c4nc(c(-c5ccc(S(=O)(=O)[O-])cc5)c5ccc2[nH]5)C=C4)C=C3)cc1)C(=O)N1CC[C@H](O)C1
REMARK SMILES IDX 13 1 12 2 11 3 10 4 9 5 7 6 8 7 6 8 5 9 2 10 1 11 3 12 4 13
REMARK SMILES IDX 81 14 82 15 83 16 84 17 88 18 85 19 86 20 87 21 14 23 15 24
REMARK SMILES IDX 16 25 17 26 18 27 19 28 20 29 21 30 22 31 80 32 23 33 79 34
REMARK SMILES IDX 24 35 25 36 26 37 73 38 27 39 78 40 72 41 74 42 28 43 77 44
REMARK SMILES IDX 71 45 70 46 29 48 59 49 40 50 58 51 41 52 44 53 57 54 75 55
REMARK SMILES IDX 42 56 43 57 56 59 76 60 45 61 30 62 31 63 39 64 32 65 38 66
REMARK SMILES IDX 33 67 34 68 35 69 36 70 37 71 60 72 61 73 69 74 62 75 68 76
REMARK SMILES IDX 63 77 64 78 65 79 66 80 67 81 46 82 47 83 55 84 48 85 54 86
REMARK SMILES IDX 49 87 50 88 51 89 52 90 53 91
REMARK H PARENT 87 22 74 47 44 58
REMARK Flexibility Score: inf
ROOT
ATOM      1  C   UNL     1       4.387   0.462   5.014  1.00  0.00     0.188 C 
ENDROOT
BRANCH   1   2
ATOM      2  O   UNL     1       5.664   0.894   4.543  1.00  0.00    -0.376 OA
BRANCH   2   3
ATOM      3  C   UNL     1       5.754   1.231   3.160  1.00  0.00     0.202 C 
BRANCH   3   4
ATOM      4  C   UNL     1       5.455   0.075   2.203  1.00  0.00     0.261 C 
BRANCH   4   5
ATOM      5  O   UNL     1       4.036  -0.066   1.980  1.00  0.00    -0.462 OA
BRANCH   5   6
ATOM      6  C   UNL     1       3.703  -1.158   1.243  1.00  0.00     0.325 C 
ATOM      7  O   UNL     1       4.529  -1.938   0.774  1.00  0.00    -0.250 OA
BRANCH   6   8
ATOM      8  C   UNL     1       2.196  -1.380   1.065  1.00  0.00     0.244 C 
BRANCH   8   9
ATOM      9  N   UNL     1       1.219  -0.407   1.586  1.00  0.00    -0.309 N 
BRANCH   9  10
ATOM     10  C   UNL     1       0.656   0.643   0.635  1.00  0.00     0.037 C 
ATOM     11  C   UNL     1       1.044   0.418  -0.849  1.00  0.00     0.034 C 
ATOM     12  C   UNL     1       1.172   2.050   1.011  1.00  0.00     0.034 C 
ATOM     13  C   UNL     1      -0.900   0.639   0.643  1.00  0.00     0.034 C 
ENDBRANCH   9  10
BRANCH   9  14
ATOM     14  C   UNL     1       0.761  -0.382   2.896  1.00  0.00     0.321 C 
ATOM     15  O   UNL     1      -0.029   0.499   3.256  1.00  0.00    -0.248 OA
BRANCH  14  16
ATOM     16  N   UNL     1       1.149  -1.298   3.838  1.00  0.00    -0.322 N 
ATOM     17  C   UNL     1       0.537  -1.187   5.150  1.00  0.00     0.124 C 
ATOM     18  C   UNL     1       2.046  -2.453   3.846  1.00  0.00     0.153 C 
ATOM     19  C   UNL     1       1.561  -1.770   6.089  1.00  0.00     0.055 C 
ATOM     20  C   UNL     1       2.163  -2.911   5.304  1.00  0.00     0.135 C 
BRANCH  20  21
ATOM     21  O   UNL     1       3.517  -3.089   5.696  1.00  0.00    -0.391 OA
ATOM     22  H   UNL     1       4.001  -2.258   5.571  1.00  0.00     0.211 HD
ENDBRANCH  20  21
ENDBRANCH  14  16
ENDBRANCH   9  14
ENDBRANCH   8   9
ENDBRANCH   6   8
ENDBRANCH   5   6
ENDBRANCH   4   5
ENDBRANCH   3   4
ENDBRANCH   2   3
ENDBRANCH   1   2
BRANCH   1  23
ATOM     23  C   UNL     1       3.194   1.377   4.687  1.00  0.00     0.188 C 
BRANCH  23  24
ATOM     24  O   UNL     1       3.408   2.780   4.820  1.00  0.00    -0.376 OA
BRANCH  24  25
ATOM     25  C   UNL     1       4.016   3.213   6.027  1.00  0.00     0.202 C 
BRANCH  25  26
ATOM     26  C   UNL     1       3.096   3.276   7.248  1.00  0.00     0.261 C 
BRANCH  26  27
ATOM     27  O   UNL     1       2.498   2.017   7.605  1.00  0.00    -0.460 OA
BRANCH  27  28
ATOM     28  C   UNL     1       1.147   2.065   7.796  1.00  0.00     0.338 C 
ATOM     29  O   UNL     1       0.417   3.012   7.595  1.00  0.00    -0.246 OA
BRANCH  28  30
ATOM     30  C   UNL     1       0.640   0.755   8.279  1.00  0.00     0.060 A 
ATOM     31  C   UNL     1      -0.628   0.342   7.851  1.00  0.00     0.016 A 
ATOM     32  C   UNL     1       1.368  -0.045   9.168  1.00  0.00     0.016 A 
ATOM     33  C   UNL     1      -1.142  -0.891   8.265  1.00  0.00     0.010 A 
ATOM     34  C   UNL     1       0.835  -1.264   9.618  1.00  0.00     0.010 A 
ATOM     35  C   UNL     1      -0.421  -1.698   9.164  1.00  0.00    -0.014 A 
BRANCH  35  36
ATOM     36  C   UNL     1      -1.114  -2.855   9.789  1.00  0.00     0.031 A 
ATOM     37  C   UNL     1      -2.169  -2.526  10.806  1.00  0.00     0.074 A 
ATOM     38  C   UNL     1      -0.893  -4.138   9.439  1.00  0.00     0.049 A 
ATOM     39  N   UNL     1      -3.091  -3.292  11.323  1.00  0.00    -0.248 NA
ATOM     40  C   UNL     1      -2.207  -1.127  11.265  1.00  0.00     0.031 C 
ATOM     41  C   UNL     1       0.076  -4.605   8.451  1.00  0.00     0.029 A 
ATOM     42  N   UNL     1      -1.502  -5.295   9.867  1.00  0.00    -0.354 N 
ATOM     43  C   UNL     1      -3.873  -2.446  12.099  1.00  0.00     0.074 A 
ATOM     44  C   UNL     1      -3.287  -1.126  12.027  1.00  0.00     0.031 C 
ATOM     45  C   UNL     1      -0.021  -5.941   8.325  1.00  0.00     0.029 A 
ATOM     46  C   UNL     1      -1.048  -6.434   9.239  1.00  0.00     0.049 A 
ATOM     47  H   UNL     1      -2.200  -5.308  10.561  1.00  0.00     0.167 HD
ATOM     48  C   UNL     1      -4.984  -2.736  12.814  1.00  0.00     0.031 A 
ATOM     49  C   UNL     1      -1.425  -7.722   9.382  1.00  0.00     0.031 A 
ATOM     50  C   UNL     1      -5.456  -4.069  13.042  1.00  0.00     0.049 A 
ATOM     51  C   UNL     1      -2.537  -8.049  10.352  1.00  0.00     0.074 A 
ATOM     52  C   UNL     1      -6.474  -4.495  13.872  1.00  0.00     0.029 A 
ATOM     53  N   UNL     1      -4.893  -5.202  12.473  1.00  0.00    -0.354 N 
ATOM     54  N   UNL     1      -3.296  -7.233  11.044  1.00  0.00    -0.248 NA
ATOM     55  C   UNL     1      -2.844  -9.473  10.554  1.00  0.00     0.031 C 
ATOM     56  C   UNL     1      -6.485  -5.895  13.853  1.00  0.00     0.029 A 
ATOM     57  C   UNL     1      -5.520  -6.333  12.958  1.00  0.00     0.049 A 
ATOM     58  H   UNL     1      -4.155  -5.200  11.821  1.00  0.00     0.167 HD
ATOM     59  C   UNL     1      -4.198  -8.041  11.730  1.00  0.00     0.074 A 
ATOM     60  C   UNL     1      -3.889  -9.410  11.369  1.00  0.00     0.031 C 
ATOM     61  C   UNL     1      -5.198  -7.685  12.574  1.00  0.00     0.031 A 
BRANCH  48  62
ATOM     62  C   UNL     1      -5.666  -1.562  13.453  1.00  0.00    -0.014 A 
ATOM     63  C   UNL     1      -6.381  -0.641  12.663  1.00  0.00     0.010 A 
ATOM     64  C   UNL     1      -5.479  -1.302  14.820  1.00  0.00     0.010 A 
ATOM     65  C   UNL     1      -6.830   0.560  13.216  1.00  0.00     0.020 A 
ATOM     66  C   UNL     1      -5.944  -0.110  15.380  1.00  0.00     0.020 A 
ATOM     67  C   UNL     1      -6.587   0.827  14.566  1.00  0.00     0.054 A 
BRANCH  67  68
ATOM     68  S   UNL     1      -7.092   2.432  15.241  1.00  0.00     0.124 S 
ATOM     69  O   UNL     1      -6.082   3.324  14.678  1.00  0.00    -0.237 OA
ATOM     70  O   UNL     1      -8.442   2.596  14.709  1.00  0.00    -0.237 OA
ATOM     71  O   UNL     1      -7.014   2.238  16.687  1.00  0.00    -0.744 OA
ENDBRANCH  67  68
ENDBRANCH  48  62
BRANCH  49  72
ATOM     72  C   UNL     1      -0.772  -8.812   8.597  1.00  0.00    -0.014 A 
ATOM     73  C   UNL     1      -1.500  -9.538   7.635  1.00  0.00     0.010 A 
ATOM     74  C   UNL     1       0.566  -9.173   8.844  1.00  0.00     0.010 A 
ATOM     75  C   UNL     1      -0.915 -10.616   6.958  1.00  0.00     0.020 A 
ATOM     76  C   UNL     1       1.162 -10.234   8.152  1.00  0.00     0.020 A 
ATOM     77  C   UNL     1       0.413 -10.959   7.223  1.00  0.00     0.054 A 
BRANCH  77  78
ATOM     78  S   UNL     1       1.157 -12.348   6.320  1.00  0.00     0.124 S 
ATOM     79  O   UNL     1       0.492 -13.497   6.925  1.00  0.00    -0.237 OA
ATOM     80  O   UNL     1       0.788 -12.057   4.937  1.00  0.00    -0.237 OA
ATOM     81  O   UNL     1       2.583 -12.222   6.616  1.00  0.00    -0.744 OA
ENDBRANCH  77  78
ENDBRANCH  49  72
BRANCH  61  82
ATOM     82  C   UNL     1      -6.071  -8.779  13.129  1.00  0.00    -0.014 A 
ATOM     83  C   UNL     1      -5.608  -9.657  14.123  1.00  0.00     0.010 A 
ATOM     84  C   UNL     1      -7.410  -8.864  12.705  1.00  0.00     0.010 A 
ATOM     85  C   UNL     1      -6.467 -10.614  14.672  1.00  0.00     0.020 A 
ATOM     86  C   UNL     1      -8.278  -9.800  13.270  1.00  0.00     0.020 A 
ATOM     87  C   UNL     1      -7.797 -10.677  14.243  1.00  0.00     0.054 A 
BRANCH  87  88
ATOM     88  S   UNL     1      -8.913 -11.877  15.020  1.00  0.00     0.124 S 
ATOM     89  O   UNL     1      -8.500 -13.128  14.390  1.00  0.00    -0.237 OA
ATOM     90  O   UNL     1      -8.586 -11.749  16.439  1.00  0.00    -0.237 OA
ATOM     91  O   UNL     1     -10.244 -11.401  14.650  1.00  0.00    -0.744 OA
ENDBRANCH  87  88
ENDBRANCH  61  82
ENDBRANCH  35  36
ENDBRANCH  28  30
ENDBRANCH  27  28
ENDBRANCH  26  27
ENDBRANCH  25  26
ENDBRANCH  24  25
ENDBRANCH  23  24
ENDBRANCH   1  23
TORSDOF 25
