REMARK SMILES [NH3+][C@H](CCC(=O)OCCOCCOCCOC(=O)c1ccc(-c2c3nc(c(-c4ccc(S(=O)(=O)[O-])cc4)c4ccc([nH]4)c(-c4ccc(S(=O)(=O)[O-])cc4)c4nc(c(-c5ccc(S(=O)(=O)[O-])cc5)c5ccc2[nH]5)C=C4)C=C3)cc1)c1nccc2[nH]ccc12
REMARK SMILES IDX 11 1 10 2 9 3 8 4 7 5 5 6 6 7 4 8 3 9 2 10 1 11 79 15 80 16
REMARK SMILES IDX 87 17 81 18 83 19 86 20 82 21 84 22 85 23 12 25 13 26 14 27
REMARK SMILES IDX 15 28 16 29 17 30 18 31 19 32 20 33 78 34 21 35 77 36 22 37
REMARK SMILES IDX 23 38 24 39 71 40 25 41 76 42 70 43 72 44 26 45 75 46 69 47
REMARK SMILES IDX 68 48 27 50 57 51 38 52 56 53 39 54 42 55 55 56 73 57 40 58
REMARK SMILES IDX 41 59 54 61 74 62 43 63 28 64 29 65 37 66 30 67 36 68 31 69
REMARK SMILES IDX 32 70 33 71 34 72 35 73 58 74 59 75 67 76 60 77 66 78 61 79
REMARK SMILES IDX 62 80 63 81 64 82 65 83 44 84 45 85 53 86 46 87 52 88 47 89
REMARK SMILES IDX 48 90 49 91 50 92 51 93
REMARK H PARENT 1 12 1 13 1 14 84 24 72 49 42 60
REMARK Flexibility Score: inf
ROOT
ATOM      1  C   UNL     1       1.922   3.708  -1.016  1.00  0.00     0.188 C 
ENDROOT
BRANCH   1   2
ATOM      2  O   UNL     1       1.511   5.005  -0.603  1.00  0.00    -0.376 OA
BRANCH   2   3
ATOM      3  C   UNL     1       0.400   5.143   0.274  1.00  0.00     0.202 C 
BRANCH   3   4
ATOM      4  C   UNL     1      -0.846   4.248   0.154  1.00  0.00     0.261 C 
BRANCH   4   5
ATOM      5  O   UNL     1      -0.601   2.872  -0.168  1.00  0.00    -0.463 OA
BRANCH   5   6
ATOM      6  C   UNL     1      -1.237   2.399  -1.267  1.00  0.00     0.306 C 
ATOM      7  O   UNL     1      -1.912   3.077  -2.033  1.00  0.00    -0.252 OA
BRANCH   6   8
ATOM      8  C   UNL     1      -0.916   0.954  -1.575  1.00  0.00     0.129 C 
BRANCH   8   9
ATOM      9  C   UNL     1      -0.669  -0.062  -0.468  1.00  0.00     0.083 C 
BRANCH   9  10
ATOM     10  C   UNL     1      -1.502  -0.037   0.821  1.00  0.00     0.232 C 
BRANCH  10  11
ATOM     11  N   UNL     1      -0.660   0.484   1.937  1.00  0.00    -0.350 N 
ATOM     12  H   UNL     1      -1.208   0.503   2.796  1.00  0.00     0.345 HD
ATOM     13  H   UNL     1      -0.346   1.428   1.713  1.00  0.00     0.345 HD
ATOM     14  H   UNL     1       0.150  -0.122   2.064  1.00  0.00     0.345 HD
ENDBRANCH  10  11
BRANCH  10  15
ATOM     15  C   UNL     1      -2.866   0.688   0.804  1.00  0.00     0.107 A 
ATOM     16  N   UNL     1      -2.798   1.933   1.389  1.00  0.00    -0.254 NA
ATOM     17  C   UNL     1      -4.082  -0.002   1.034  1.00  0.00     0.027 A 
ATOM     18  C   UNL     1      -3.434   2.116   2.561  1.00  0.00     0.114 A 
ATOM     19  C   UNL     1      -4.694   0.196   2.273  1.00  0.00     0.049 A 
ATOM     20  C   UNL     1      -5.010  -0.757   0.259  1.00  0.00     0.030 A 
ATOM     21  C   UNL     1      -4.278   1.191   3.150  1.00  0.00     0.047 A 
ATOM     22  N   UNL     1      -5.714  -0.718   2.363  1.00  0.00    -0.361 N 
ATOM     23  C   UNL     1      -6.040  -1.134   1.097  1.00  0.00     0.083 A 
ATOM     24  H   UNL     1      -6.140  -1.024   3.197  1.00  0.00     0.166 HD
ENDBRANCH  10  15
ENDBRANCH   9  10
ENDBRANCH   8   9
ENDBRANCH   6   8
ENDBRANCH   5   6
ENDBRANCH   4   5
ENDBRANCH   3   4
ENDBRANCH   2   3
ENDBRANCH   1   2
BRANCH   1  25
ATOM     25  C   UNL     1       2.161   2.631   0.060  1.00  0.00     0.188 C 
BRANCH  25  26
ATOM     26  O   UNL     1       1.873   3.062   1.373  1.00  0.00    -0.376 OA
BRANCH  26  27
ATOM     27  C   UNL     1       2.947   3.458   2.209  1.00  0.00     0.202 C 
BRANCH  27  28
ATOM     28  C   UNL     1       4.164   4.255   1.697  1.00  0.00     0.261 C 
BRANCH  28  29
ATOM     29  O   UNL     1       4.600   4.035   0.351  1.00  0.00    -0.460 OA
BRANCH  29  30
ATOM     30  C   UNL     1       5.362   2.942   0.113  1.00  0.00     0.338 C 
ATOM     31  O   UNL     1       5.708   2.104   0.921  1.00  0.00    -0.246 OA
BRANCH  30  32
ATOM     32  C   UNL     1       5.502   2.816  -1.358  1.00  0.00     0.060 A 
ATOM     33  C   UNL     1       5.058   1.640  -1.977  1.00  0.00     0.016 A 
ATOM     34  C   UNL     1       6.044   3.854  -2.121  1.00  0.00     0.016 A 
ATOM     35  C   UNL     1       5.203   1.477  -3.355  1.00  0.00     0.010 A 
ATOM     36  C   UNL     1       6.208   3.683  -3.499  1.00  0.00     0.010 A 
ATOM     37  C   UNL     1       5.831   2.474  -4.113  1.00  0.00    -0.014 A 
BRANCH  37  38
ATOM     38  C   UNL     1       6.335   2.141  -5.468  1.00  0.00     0.031 A 
ATOM     39  C   UNL     1       7.768   1.690  -5.588  1.00  0.00     0.074 A 
ATOM     40  C   UNL     1       5.548   2.191  -6.558  1.00  0.00     0.049 A 
ATOM     41  N   UNL     1       8.442   1.327  -6.648  1.00  0.00    -0.248 NA
ATOM     42  C   UNL     1       8.545   1.643  -4.337  1.00  0.00     0.031 C 
ATOM     43  C   UNL     1       4.134   2.561  -6.570  1.00  0.00     0.029 A 
ATOM     44  N   UNL     1       5.837   1.917  -7.872  1.00  0.00    -0.354 N 
ATOM     45  C   UNL     1       9.721   1.025  -6.194  1.00  0.00     0.074 A 
ATOM     46  C   UNL     1       9.739   1.274  -4.771  1.00  0.00     0.031 C 
ATOM     47  C   UNL     1       3.676   2.486  -7.833  1.00  0.00     0.029 A 
ATOM     48  C   UNL     1       4.770   2.091  -8.721  1.00  0.00     0.049 A 
ATOM     49  H   UNL     1       6.725   1.624  -8.178  1.00  0.00     0.167 HD
ATOM     50  C   UNL     1      10.787   0.575  -6.896  1.00  0.00     0.031 A 
ATOM     51  C   UNL     1       4.690   1.953 -10.060  1.00  0.00     0.031 A 
ATOM     52  C   UNL     1      10.775   0.342  -8.314  1.00  0.00     0.049 A 
ATOM     53  C   UNL     1       5.910   1.514 -10.832  1.00  0.00     0.074 A 
ATOM     54  C   UNL     1      11.798  -0.128  -9.118  1.00  0.00     0.029 A 
ATOM     55  N   UNL     1       9.687   0.572  -9.142  1.00  0.00    -0.354 N 
ATOM     56  N   UNL     1       7.106   1.206 -10.387  1.00  0.00    -0.248 NA
ATOM     57  C   UNL     1       5.762   1.390 -12.290  1.00  0.00     0.031 C 
ATOM     58  C   UNL     1      11.347  -0.125 -10.442  1.00  0.00     0.029 A 
ATOM     59  C   UNL     1      10.020   0.277 -10.453  1.00  0.00     0.049 A 
ATOM     60  H   UNL     1       8.807   0.897  -8.842  1.00  0.00     0.167 HD
ATOM     61  C   UNL     1       7.837   0.808 -11.503  1.00  0.00     0.074 A 
ATOM     62  C   UNL     1       6.948   0.913 -12.642  1.00  0.00     0.031 C 
ATOM     63  C   UNL     1       9.123   0.382 -11.577  1.00  0.00     0.031 A 
BRANCH  50  64
ATOM     64  C   UNL     1      12.070   0.360  -6.136  1.00  0.00    -0.014 A 
ATOM     65  C   UNL     1      12.205  -0.682  -5.200  1.00  0.00     0.010 A 
ATOM     66  C   UNL     1      13.159   1.220  -6.364  1.00  0.00     0.010 A 
ATOM     67  C   UNL     1      13.387  -0.826  -4.468  1.00  0.00     0.020 A 
ATOM     68  C   UNL     1      14.354   1.060  -5.657  1.00  0.00     0.020 A 
ATOM     69  C   UNL     1      14.452   0.051  -4.698  1.00  0.00     0.054 A 
BRANCH  69  70
ATOM     70  S   UNL     1      15.975  -0.156  -3.735  1.00  0.00     0.124 S 
ATOM     71  O   UNL     1      15.567   0.329  -2.419  1.00  0.00    -0.237 OA
ATOM     72  O   UNL     1      16.218  -1.594  -3.826  1.00  0.00    -0.237 OA
ATOM     73  O   UNL     1      16.945   0.682  -4.435  1.00  0.00    -0.744 OA
ENDBRANCH  69  70
ENDBRANCH  50  64
BRANCH  51  74
ATOM     74  C   UNL     1       3.404   2.218 -10.764  1.00  0.00    -0.014 A 
ATOM     75  C   UNL     1       2.679   1.164 -11.349  1.00  0.00     0.010 A 
ATOM     76  C   UNL     1       2.898   3.527 -10.858  1.00  0.00     0.010 A 
ATOM     77  C   UNL     1       1.482   1.416 -12.028  1.00  0.00     0.020 A 
ATOM     78  C   UNL     1       1.688   3.780 -11.512  1.00  0.00     0.020 A 
ATOM     79  C   UNL     1       0.993   2.723 -12.102  1.00  0.00     0.054 A 
BRANCH  79  80
ATOM     80  S   UNL     1      -0.589   3.017 -12.941  1.00  0.00     0.124 S 
ATOM     81  O   UNL     1      -0.232   2.817 -14.342  1.00  0.00    -0.237 OA
ATOM     82  O   UNL     1      -1.450   1.992 -12.356  1.00  0.00    -0.237 OA
ATOM     83  O   UNL     1      -0.925   4.389 -12.569  1.00  0.00    -0.744 OA
ENDBRANCH  79  80
ENDBRANCH  51  74
BRANCH  63  84
ATOM     84  C   UNL     1       9.634  -0.068 -12.922  1.00  0.00    -0.014 A 
ATOM     85  C   UNL     1       9.876   0.842 -13.966  1.00  0.00     0.010 A 
ATOM     86  C   UNL     1       9.921  -1.432 -13.124  1.00  0.00     0.010 A 
ATOM     87  C   UNL     1      10.351   0.389 -15.201  1.00  0.00     0.020 A 
ATOM     88  C   UNL     1      10.425  -1.883 -14.345  1.00  0.00     0.020 A 
ATOM     89  C   UNL     1      10.619  -0.972 -15.384  1.00  0.00     0.054 A 
BRANCH  89  90
ATOM     90  S   UNL     1      11.255  -1.533 -16.988  1.00  0.00     0.124 S 
ATOM     91  O   UNL     1      10.065  -1.452 -17.831  1.00  0.00    -0.237 OA
ATOM     92  O   UNL     1      12.300  -0.555 -17.279  1.00  0.00    -0.237 OA
ATOM     93  O   UNL     1      11.735  -2.886 -16.716  1.00  0.00    -0.744 OA
ENDBRANCH  89  90
ENDBRANCH  63  84
ENDBRANCH  37  38
ENDBRANCH  30  32
ENDBRANCH  29  30
ENDBRANCH  28  29
ENDBRANCH  27  28
ENDBRANCH  26  27
ENDBRANCH  25  26
ENDBRANCH   1  25
TORSDOF 24
