REMARK SMILES O=C(OCCOCCOCCOC(=O)c1cc(N2CC[NH2+]CC2)nc2ccccc12)c1ccc(-c2c3nc(c(-c4ccc(S(=O)(=O)[O-])cc4)c4ccc([nH]4)c(-c4ccc(S(=O)(=O)[O-])cc4)c4nc(c(-c5ccc(S(=O)(=O)[O-])cc5)c5ccc2[nH]5)C=C4)C=C3)cc1
REMARK SMILES IDX 7 1 6 2 5 3 4 4 3 5 2 6 1 7 31 8 32 9 90 10 33 11 89 12
REMARK SMILES IDX 34 13 35 14 36 15 83 16 37 17 88 18 82 19 84 20 38 21 87 22
REMARK SMILES IDX 81 23 80 24 39 26 69 27 50 28 68 29 51 30 54 31 67 32 85 33
REMARK SMILES IDX 52 34 53 35 66 37 86 38 55 39 40 40 41 41 49 42 42 43 48 44
REMARK SMILES IDX 43 45 44 46 45 47 46 48 47 49 70 50 71 51 79 52 72 53 78 54
REMARK SMILES IDX 73 55 74 56 75 57 76 58 77 59 56 60 57 61 65 62 58 63 64 64
REMARK SMILES IDX 59 65 60 66 61 67 62 68 63 69 8 70 9 71 10 72 11 73 12 74
REMARK SMILES IDX 13 75 14 76 15 77 16 78 30 79 17 80 25 81 29 82 24 83 26 84
REMARK SMILES IDX 28 85 27 86 18 87 19 88 23 89 20 90 22 91 21 92
REMARK H PARENT 84 25 54 36 21 93 21 94
REMARK Flexibility Score: inf
ROOT
ATOM      1  C   UNL     1       2.552   1.580  -1.870  1.00  0.00     0.188 C 
ENDROOT
BRANCH   1   2
ATOM      2  O   UNL     1       3.766   1.275  -1.169  1.00  0.00    -0.376 OA
BRANCH   2   3
ATOM      3  C   UNL     1       4.564   0.278  -1.806  1.00  0.00     0.202 C 
BRANCH   3   4
ATOM      4  C   UNL     1       4.367  -1.119  -1.210  1.00  0.00     0.261 C 
BRANCH   4   5
ATOM      5  O   UNL     1       2.976  -1.371  -0.944  1.00  0.00    -0.460 OA
BRANCH   5   6
ATOM      6  C   UNL     1       2.339  -1.231   0.247  1.00  0.00     0.338 C 
ATOM      7  O   UNL     1       1.117  -1.351   0.301  1.00  0.00    -0.246 OA
BRANCH   6   8
ATOM      8  C   UNL     1       3.078  -1.045   1.526  1.00  0.00     0.060 A 
ATOM      9  C   UNL     1       4.123  -0.137   1.705  1.00  0.00     0.016 A 
ATOM     10  C   UNL     1       2.628  -1.779   2.635  1.00  0.00     0.016 A 
ATOM     11  C   UNL     1       4.803  -0.069   2.921  1.00  0.00     0.010 A 
ATOM     12  C   UNL     1       3.256  -1.651   3.878  1.00  0.00     0.010 A 
ATOM     13  C   UNL     1       4.383  -0.830   4.017  1.00  0.00    -0.014 A 
BRANCH  13  14
ATOM     14  C   UNL     1       5.179  -0.824   5.270  1.00  0.00     0.031 A 
ATOM     15  C   UNL     1       5.917  -2.068   5.684  1.00  0.00     0.074 A 
ATOM     16  C   UNL     1       5.303   0.304   5.995  1.00  0.00     0.049 A 
ATOM     17  N   UNL     1       6.636  -2.284   6.755  1.00  0.00    -0.248 NA
ATOM     18  C   UNL     1       5.838  -3.220   4.771  1.00  0.00     0.031 C 
ATOM     19  C   UNL     1       4.682   1.591   5.676  1.00  0.00     0.029 A 
ATOM     20  N   UNL     1       6.017   0.554   7.140  1.00  0.00    -0.354 N 
ATOM     21  C   UNL     1       7.073  -3.599   6.657  1.00  0.00     0.074 A 
ATOM     22  C   UNL     1       6.525  -4.139   5.432  1.00  0.00     0.031 C 
ATOM     23  C   UNL     1       5.075   2.501   6.581  1.00  0.00     0.029 A 
ATOM     24  C   UNL     1       5.921   1.854   7.575  1.00  0.00     0.049 A 
ATOM     25  H   UNL     1       6.547  -0.133   7.605  1.00  0.00     0.167 HD
ATOM     26  C   UNL     1       7.864  -4.298   7.506  1.00  0.00     0.031 A 
ATOM     27  C   UNL     1       6.438   2.455   8.663  1.00  0.00     0.031 A 
ATOM     28  C   UNL     1       8.409  -3.767   8.724  1.00  0.00     0.049 A 
ATOM     29  C   UNL     1       7.270   1.649   9.617  1.00  0.00     0.074 A 
ATOM     30  C   UNL     1       9.178  -4.407   9.680  1.00  0.00     0.029 A 
ATOM     31  N   UNL     1       8.247  -2.458   9.149  1.00  0.00    -0.354 N 
ATOM     32  N   UNL     1       7.622   0.389   9.536  1.00  0.00    -0.248 NA
ATOM     33  C   UNL     1       7.766   2.345  10.811  1.00  0.00     0.031 C 
ATOM     34  C   UNL     1       9.465  -3.486  10.696  1.00  0.00     0.029 A 
ATOM     35  C   UNL     1       8.900  -2.267  10.354  1.00  0.00     0.049 A 
ATOM     36  H   UNL     1       7.742  -1.765   8.665  1.00  0.00     0.167 HD
ATOM     37  C   UNL     1       8.379   0.138  10.672  1.00  0.00     0.074 A 
ATOM     38  C   UNL     1       8.455   1.383  11.411  1.00  0.00     0.031 C 
ATOM     39  C   UNL     1       8.954  -1.022  11.073  1.00  0.00     0.031 A 
BRANCH  26  40
ATOM     40  C   UNL     1       8.139  -5.730   7.144  1.00  0.00    -0.014 A 
ATOM     41  C   UNL     1       9.052  -6.055   6.124  1.00  0.00     0.010 A 
ATOM     42  C   UNL     1       7.442  -6.761   7.798  1.00  0.00     0.010 A 
ATOM     43  C   UNL     1       9.220  -7.384   5.726  1.00  0.00     0.020 A 
ATOM     44  C   UNL     1       7.623  -8.093   7.415  1.00  0.00     0.020 A 
ATOM     45  C   UNL     1       8.491  -8.392   6.363  1.00  0.00     0.054 A 
BRANCH  45  46
ATOM     46  S   UNL     1       8.692 -10.106   5.803  1.00  0.00     0.124 S 
ATOM     47  O   UNL     1       7.870 -10.123   4.596  1.00  0.00    -0.237 OA
ATOM     48  O   UNL     1      10.132 -10.209   5.581  1.00  0.00    -0.237 OA
ATOM     49  O   UNL     1       8.179 -10.896   6.919  1.00  0.00    -0.744 OA
ENDBRANCH  45  46
ENDBRANCH  26  40
BRANCH  27  50
ATOM     50  C   UNL     1       6.149   3.887   8.932  1.00  0.00    -0.014 A 
ATOM     51  C   UNL     1       7.130   4.868   8.711  1.00  0.00     0.010 A 
ATOM     52  C   UNL     1       4.884   4.274   9.408  1.00  0.00     0.010 A 
ATOM     53  C   UNL     1       6.851   6.215   8.963  1.00  0.00     0.020 A 
ATOM     54  C   UNL     1       4.598   5.619   9.650  1.00  0.00     0.020 A 
ATOM     55  C   UNL     1       5.586   6.582   9.431  1.00  0.00     0.054 A 
BRANCH  55  56
ATOM     56  S   UNL     1       5.191   8.342   9.633  1.00  0.00     0.124 S 
ATOM     57  O   UNL     1       5.683   8.614  10.978  1.00  0.00    -0.237 OA
ATOM     58  O   UNL     1       5.939   8.965   8.542  1.00  0.00    -0.237 OA
ATOM     59  O   UNL     1       3.740   8.374   9.468  1.00  0.00    -0.744 OA
ENDBRANCH  55  56
ENDBRANCH  27  50
BRANCH  39  60
ATOM     60  C   UNL     1       9.720  -0.988  12.362  1.00  0.00    -0.014 A 
ATOM     61  C   UNL     1       9.049  -1.018  13.596  1.00  0.00     0.010 A 
ATOM     62  C   UNL     1      11.125  -0.964  12.336  1.00  0.00     0.010 A 
ATOM     63  C   UNL     1       9.774  -1.003  14.790  1.00  0.00     0.020 A 
ATOM     64  C   UNL     1      11.853  -0.964  13.527  1.00  0.00     0.020 A 
ATOM     65  C   UNL     1      11.171  -0.972  14.747  1.00  0.00     0.054 A 
BRANCH  65  66
ATOM     66  S   UNL     1      12.099  -0.999  16.306  1.00  0.00     0.124 S 
ATOM     67  O   UNL     1      12.030   0.399  16.723  1.00  0.00    -0.237 OA
ATOM     68  O   UNL     1      11.334  -1.938  17.124  1.00  0.00    -0.237 OA
ATOM     69  O   UNL     1      13.424  -1.468  15.907  1.00  0.00    -0.744 OA
ENDBRANCH  65  66
ENDBRANCH  39  60
ENDBRANCH  13  14
ENDBRANCH   6   8
ENDBRANCH   5   6
ENDBRANCH   4   5
ENDBRANCH   3   4
ENDBRANCH   2   3
ENDBRANCH   1   2
BRANCH   1  70
ATOM     70  C   UNL     1       2.035   2.953  -1.435  1.00  0.00     0.188 C 
BRANCH  70  71
ATOM     71  O   UNL     1       2.745   4.046  -2.028  1.00  0.00    -0.376 OA
BRANCH  71  72
ATOM     72  C   UNL     1       4.103   4.218  -1.627  1.00  0.00     0.202 C 
BRANCH  72  73
ATOM     73  C   UNL     1       4.317   4.971  -0.312  1.00  0.00     0.261 C 
BRANCH  73  74
ATOM     74  O   UNL     1       3.857   4.280   0.863  1.00  0.00    -0.460 OA
BRANCH  74  75
ATOM     75  C   UNL     1       2.703   4.776   1.371  1.00  0.00     0.339 C 
ATOM     76  O   UNL     1       1.946   5.573   0.841  1.00  0.00    -0.246 OA
BRANCH  75  77
ATOM     77  C   UNL     1       2.454   4.266   2.725  1.00  0.00     0.073 A 
ATOM     78  C   UNL     1       1.485   3.275   2.871  1.00  0.00     0.063 A 
ATOM     79  C   UNL     1       2.942   4.982   3.831  1.00  0.00     0.015 A 
ATOM     80  C   UNL     1       0.947   3.053   4.128  1.00  0.00     0.130 A 
ATOM     81  C   UNL     1       2.325   4.699   5.060  1.00  0.00     0.074 A 
ATOM     82  C   UNL     1       3.961   5.966   3.765  1.00  0.00     0.011 A 
ATOM     83  N   UNL     1       1.357   3.770   5.192  1.00  0.00    -0.231 NA
ATOM     84  C   UNL     1       2.704   5.440   6.171  1.00  0.00     0.029 A 
ATOM     85  C   UNL     1       4.339   6.675   4.900  1.00  0.00     0.001 A 
ATOM     86  C   UNL     1       3.693   6.425   6.100  1.00  0.00     0.002 A 
BRANCH  80  87
ATOM     87  N   UNL     1      -0.104   2.173   4.282  1.00  0.00    -0.345 N 
ATOM     88  C   UNL     1       0.061   0.765   3.916  1.00  0.00     0.179 C 
ATOM     89  C   UNL     1      -1.175   2.513   5.221  1.00  0.00     0.179 C 
ATOM     90  C   UNL     1      -0.085  -0.158   5.152  1.00  0.00     0.282 C 
ATOM     91  C   UNL     1      -1.254   1.515   6.393  1.00  0.00     0.282 C 
ATOM     92  N   UNL     1      -1.305   0.104   5.947  1.00  0.00    -0.343 N 
ATOM     93  H   UNL     1      -1.332  -0.516   6.756  1.00  0.00     0.346 HD
ATOM     94  H   UNL     1      -2.141  -0.066   5.387  1.00  0.00     0.346 HD
ENDBRANCH  80  87
ENDBRANCH  75  77
ENDBRANCH  74  75
ENDBRANCH  73  74
ENDBRANCH  72  73
ENDBRANCH  71  72
ENDBRANCH  70  71
ENDBRANCH   1  70
TORSDOF 21
