REMARK SMILES C[C@H]1C[N@H+]2CCCC[C@@H]2CN1C(=O)[C@H]([NH3+])CC(=O)OCCOCCOCCOC(=O)c1ccc(-c2c3nc(c(-c4ccc(S(=O)(=O)[O-])cc4)c4ccc([nH]4)c(-c4ccc(S(=O)(=O)[O-])cc4)c4nc(c(-c5ccc(S(=O)(=O)[O-])cc5)c5ccc2[nH]5)C=C4)C=C3)cc1
REMARK SMILES IDX 23 1 22 2 21 3 20 4 19 5 17 6 18 7 16 8 14 9 12 10 13 11
REMARK SMILES IDX 11 12 1 13 2 14 3 15 4 16 10 17 5 18 9 19 6 21 8 22 7 23
REMARK SMILES IDX 15 24 24 28 25 29 26 30 27 31 28 32 29 33 30 34 31 35 32 36
REMARK SMILES IDX 90 37 33 38 89 39 34 40 35 41 36 42 83 43 37 44 88 45 82 46
REMARK SMILES IDX 84 47 38 48 87 49 81 50 80 51 39 53 69 54 50 55 68 56 51 57
REMARK SMILES IDX 54 58 67 59 85 60 52 61 53 62 66 64 86 65 55 66 40 67 41 68
REMARK SMILES IDX 49 69 42 70 48 71 43 72 44 73 45 74 46 75 47 76 70 77 71 78
REMARK SMILES IDX 79 79 72 80 78 81 73 82 74 83 75 84 76 85 77 86 56 87 57 88
REMARK SMILES IDX 65 89 58 90 64 91 59 92 60 93 61 94 62 95 63 96
REMARK H PARENT 4 20 15 25 15 26 15 27 84 52 54 63
REMARK Flexibility Score: inf
ROOT
ATOM      1  C   UNL     1      -1.216  -0.228   5.591  1.00  0.00     0.188 C 
ENDROOT
BRANCH   1   2
ATOM      2  O   UNL     1       0.083  -0.315   6.170  1.00  0.00    -0.376 OA
BRANCH   2   3
ATOM      3  C   UNL     1       1.187  -0.134   5.282  1.00  0.00     0.202 C 
BRANCH   3   4
ATOM      4  C   UNL     1       1.299  -1.151   4.137  1.00  0.00     0.261 C 
BRANCH   4   5
ATOM      5  O   UNL     1       0.155  -1.159   3.248  1.00  0.00    -0.463 OA
BRANCH   5   6
ATOM      6  C   UNL     1      -0.403  -2.378   3.029  1.00  0.00     0.312 C 
ATOM      7  O   UNL     1       0.057  -3.429   3.470  1.00  0.00    -0.252 OA
BRANCH   6   8
ATOM      8  C   UNL     1      -1.718  -2.369   2.283  1.00  0.00     0.198 C 
BRANCH   8   9
ATOM      9  C   UNL     1      -2.250  -1.126   1.542  1.00  0.00     0.282 C 
BRANCH   9  10
ATOM     10  C   UNL     1      -3.400  -1.610   0.587  1.00  0.00     0.282 C 
ATOM     11  O   UNL     1      -3.308  -2.716   0.044  1.00  0.00    -0.268 OA
BRANCH  10  12
ATOM     12  N   UNL     1      -4.515  -0.790   0.348  1.00  0.00    -0.323 N 
ATOM     13  C   UNL     1      -6.109  -2.717  -0.078  1.00  0.00     0.037 C 
ATOM     14  C   UNL     1      -5.597  -1.330  -0.522  1.00  0.00     0.137 C 
ATOM     15  C   UNL     1      -6.876  -0.441  -0.616  1.00  0.00     0.287 C 
ATOM     16  N   UNL     1      -6.713   1.019  -0.555  1.00  0.00    -0.329 N 
ATOM     17  C   UNL     1      -4.431   0.677   0.414  1.00  0.00     0.185 C 
ATOM     18  C   UNL     1      -8.043   1.635  -0.351  1.00  0.00     0.262 C 
ATOM     19  C   UNL     1      -5.803   1.378   0.551  1.00  0.00     0.203 C 
ATOM     20  H   UNL     1      -6.308   1.363  -1.425  1.00  0.00     0.348 HD
ATOM     21  C   UNL     1      -7.972   3.158  -0.283  1.00  0.00     0.062 C 
ATOM     22  C   UNL     1      -5.626   2.905   0.555  1.00  0.00     0.067 C 
ATOM     23  C   UNL     1      -6.960   3.619   0.756  1.00  0.00     0.012 C 
ENDBRANCH  10  12
ENDBRANCH   9  10
BRANCH   9  24
ATOM     24  N   UNL     1      -1.216  -0.464   0.725  1.00  0.00    -0.347 N 
ATOM     25  H   UNL     1      -0.873  -1.115   0.018  1.00  0.00     0.345 HD
ATOM     26  H   UNL     1      -0.443  -0.174   1.324  1.00  0.00     0.345 HD
ATOM     27  H   UNL     1      -1.617   0.354   0.267  1.00  0.00     0.345 HD
ENDBRANCH   9  24
ENDBRANCH   8   9
ENDBRANCH   6   8
ENDBRANCH   5   6
ENDBRANCH   4   5
ENDBRANCH   3   4
ENDBRANCH   2   3
ENDBRANCH   1   2
BRANCH   1  28
ATOM     28  C   UNL     1      -1.526   1.104   4.906  1.00  0.00     0.188 C 
BRANCH  28  29
ATOM     29  O   UNL     1      -0.586   1.501   3.917  1.00  0.00    -0.376 OA
BRANCH  29  30
ATOM     30  C   UNL     1      -0.706   2.813   3.367  1.00  0.00     0.202 C 
BRANCH  30  31
ATOM     31  C   UNL     1      -1.052   3.989   4.307  1.00  0.00     0.261 C 
BRANCH  31  32
ATOM     32  O   UNL     1      -2.268   3.866   5.075  1.00  0.00    -0.460 OA
BRANCH  32  33
ATOM     33  C   UNL     1      -3.391   3.492   4.422  1.00  0.00     0.338 C 
ATOM     34  O   UNL     1      -3.537   3.462   3.212  1.00  0.00    -0.246 OA
BRANCH  33  35
ATOM     35  C   UNL     1      -4.321   2.843   5.388  1.00  0.00     0.060 A 
ATOM     36  C   UNL     1      -5.069   1.742   4.944  1.00  0.00     0.016 A 
ATOM     37  C   UNL     1      -4.401   3.239   6.727  1.00  0.00     0.016 A 
ATOM     38  C   UNL     1      -5.923   1.065   5.819  1.00  0.00     0.010 A 
ATOM     39  C   UNL     1      -5.267   2.569   7.600  1.00  0.00     0.010 A 
ATOM     40  C   UNL     1      -6.059   1.501   7.143  1.00  0.00    -0.014 A 
BRANCH  40  41
ATOM     41  C   UNL     1      -7.185   0.994   7.971  1.00  0.00     0.031 A 
ATOM     42  C   UNL     1      -8.441   1.827   8.037  1.00  0.00     0.074 A 
ATOM     43  C   UNL     1      -7.134  -0.187   8.615  1.00  0.00     0.049 A 
ATOM     44  N   UNL     1      -9.550   1.609   8.694  1.00  0.00    -0.248 NA
ATOM     45  C   UNL     1      -8.442   3.071   7.248  1.00  0.00     0.031 C 
ATOM     46  C   UNL     1      -6.011  -1.123   8.592  1.00  0.00     0.029 A 
ATOM     47  N   UNL     1      -8.067  -0.802   9.416  1.00  0.00    -0.354 N 
ATOM     48  C   UNL     1     -10.379   2.685   8.399  1.00  0.00     0.074 A 
ATOM     49  C   UNL     1      -9.633   3.572   7.534  1.00  0.00     0.031 C 
ATOM     50  C   UNL     1      -6.321  -2.194   9.347  1.00  0.00     0.029 A 
ATOM     51  C   UNL     1      -7.649  -2.007   9.933  1.00  0.00     0.049 A 
ATOM     52  H   UNL     1      -8.953  -0.416   9.603  1.00  0.00     0.167 HD
ATOM     53  C   UNL     1     -11.653   2.914   8.798  1.00  0.00     0.031 A 
ATOM     54  C   UNL     1      -8.259  -2.851  10.791  1.00  0.00     0.031 A 
ATOM     55  C   UNL     1     -12.394   2.051   9.676  1.00  0.00     0.049 A 
ATOM     56  C   UNL     1      -9.639  -2.521  11.309  1.00  0.00     0.074 A 
ATOM     57  C   UNL     1     -13.687   2.209  10.146  1.00  0.00     0.029 A 
ATOM     58  N   UNL     1     -11.911   0.873  10.223  1.00  0.00    -0.354 N 
ATOM     59  N   UNL     1     -10.414  -1.504  11.011  1.00  0.00    -0.248 NA
ATOM     60  C   UNL     1     -10.231  -3.460  12.274  1.00  0.00     0.031 C 
ATOM     61  C   UNL     1     -13.965   1.155  11.021  1.00  0.00     0.029 A 
ATOM     62  C   UNL     1     -12.871   0.305  11.042  1.00  0.00     0.049 A 
ATOM     63  H   UNL     1     -11.018   0.496  10.053  1.00  0.00     0.167 HD
ATOM     64  C   UNL     1     -11.595  -1.704  11.723  1.00  0.00     0.074 A 
ATOM     65  C   UNL     1     -11.438  -2.942  12.456  1.00  0.00     0.031 C 
ATOM     66  C   UNL     1     -12.711  -0.933  11.762  1.00  0.00     0.031 A 
BRANCH  53  67
ATOM     67  C   UNL     1     -12.313   4.174   8.305  1.00  0.00    -0.014 A 
ATOM     68  C   UNL     1     -12.694   4.314   6.958  1.00  0.00     0.010 A 
ATOM     69  C   UNL     1     -12.582   5.219   9.207  1.00  0.00     0.010 A 
ATOM     70  C   UNL     1     -13.297   5.493   6.514  1.00  0.00     0.020 A 
ATOM     71  C   UNL     1     -13.212   6.388   8.773  1.00  0.00     0.020 A 
ATOM     72  C   UNL     1     -13.551   6.524   7.425  1.00  0.00     0.054 A 
BRANCH  72  73
ATOM     73  S   UNL     1     -14.352   8.035   6.823  1.00  0.00     0.124 S 
ATOM     74  O   UNL     1     -13.283   8.649   6.040  1.00  0.00    -0.237 OA
ATOM     75  O   UNL     1     -15.476   7.514   6.050  1.00  0.00    -0.237 OA
ATOM     76  O   UNL     1     -14.715   8.746   8.046  1.00  0.00    -0.744 OA
ENDBRANCH  72  73
ENDBRANCH  53  67
BRANCH  54  77
ATOM     77  C   UNL     1      -7.570  -4.094  11.247  1.00  0.00    -0.014 A 
ATOM     78  C   UNL     1      -8.062  -5.362  10.890  1.00  0.00     0.010 A 
ATOM     79  C   UNL     1      -6.440  -4.013  12.081  1.00  0.00     0.010 A 
ATOM     80  C   UNL     1      -7.455  -6.524  11.380  1.00  0.00     0.020 A 
ATOM     81  C   UNL     1      -5.811  -5.172  12.547  1.00  0.00     0.020 A 
ATOM     82  C   UNL     1      -6.333  -6.421  12.206  1.00  0.00     0.054 A 
BRANCH  82  83
ATOM     83  S   UNL     1      -5.545  -7.941  12.807  1.00  0.00     0.124 S 
ATOM     84  O   UNL     1      -6.509  -8.412  13.797  1.00  0.00    -0.237 OA
ATOM     85  O   UNL     1      -5.441  -8.744  11.592  1.00  0.00    -0.237 OA
ATOM     86  O   UNL     1      -4.270  -7.473  13.348  1.00  0.00    -0.744 OA
ENDBRANCH  82  83
ENDBRANCH  54  77
BRANCH  66  87
ATOM     87  C   UNL     1     -13.879  -1.425  12.580  1.00  0.00    -0.014 A 
ATOM     88  C   UNL     1     -13.844  -1.429  13.986  1.00  0.00     0.010 A 
ATOM     89  C   UNL     1     -15.057  -1.834  11.926  1.00  0.00     0.010 A 
ATOM     90  C   UNL     1     -14.952  -1.866  14.720  1.00  0.00     0.020 A 
ATOM     91  C   UNL     1     -16.176  -2.242  12.656  1.00  0.00     0.020 A 
ATOM     92  C   UNL     1     -16.111  -2.270  14.050  1.00  0.00     0.054 A 
BRANCH  92  93
ATOM     93  S   UNL     1     -17.548  -2.794  15.026  1.00  0.00     0.124 S 
ATOM     94  O   UNL     1     -17.119  -4.097  15.525  1.00  0.00    -0.237 OA
ATOM     95  O   UNL     1     -17.654  -1.739  16.032  1.00  0.00    -0.237 OA
ATOM     96  O   UNL     1     -18.636  -2.827  14.051  1.00  0.00    -0.744 OA
ENDBRANCH  92  93
ENDBRANCH  66  87
ENDBRANCH  40  41
ENDBRANCH  33  35
ENDBRANCH  32  33
ENDBRANCH  31  32
ENDBRANCH  30  31
ENDBRANCH  29  30
ENDBRANCH  28  29
ENDBRANCH   1  28
TORSDOF 24
