REMARK SMILES Cc1ccccc1/[NH+]=C1\S[C@@H](CC(=O)Nc2ccc(C(=O)OCCOCCOCCOC(=O)c3ccc(-c4c5nc(c(-c6ccc(S(=O)(=O)[O-])cc6)c6ccc([nH]6)c(-c6ccc(S(=O)(=O)[O-])cc6)c6nc(c(-c7ccc(S(=O)(=O)[O-])cc7)c7ccc4[nH]7)C=C6)C=C5)cc3)cc2)C(=O)N1C
REMARK SMILES IDX 26 1 25 2 24 3 23 4 22 5 20 6 21 7 19 8 16 9 17 10 95 11
REMARK SMILES IDX 18 12 94 13 15 14 13 15 14 16 12 18 11 19 8 20 9 21 10 23
REMARK SMILES IDX 98 24 96 25 99 26 97 27 7 28 1 29 2 30 3 31 4 32 6 33 5 34
REMARK SMILES IDX 27 35 28 36 29 37 30 38 31 39 32 40 33 41 34 42 35 43 93 44
REMARK SMILES IDX 36 45 92 46 37 47 38 48 39 49 86 50 40 51 91 52 85 53 87 54
REMARK SMILES IDX 41 55 90 56 84 57 83 58 42 60 72 61 53 62 71 63 54 64 57 65
REMARK SMILES IDX 70 66 88 67 55 68 56 69 69 71 89 72 58 73 43 74 44 75 52 76
REMARK SMILES IDX 45 77 51 78 46 79 47 80 48 81 49 82 50 83 73 84 74 85 82 86
REMARK SMILES IDX 75 87 81 88 76 89 77 90 78 91 79 92 80 93 59 94 60 95 68 96
REMARK SMILES IDX 61 97 67 98 62 99 63 100 64 101 65 102 66 103
REMARK H PARENT 15 17 8 22 87 59 57 70
REMARK Flexibility Score: inf
ROOT
ATOM      1  C   UNL     1       3.623   9.450  -4.386  1.00  0.00     0.188 C 
ENDROOT
BRANCH   1   2
ATOM      2  O   UNL     1       2.830   8.235  -4.382  1.00  0.00    -0.376 OA
BRANCH   2   3
ATOM      3  C   UNL     1       1.599   8.078  -3.671  1.00  0.00     0.202 C 
BRANCH   3   4
ATOM      4  C   UNL     1       1.279   6.771  -2.664  1.00  0.00     0.261 C 
BRANCH   4   5
ATOM      5  O   UNL     1       2.372   6.077  -1.638  1.00  0.00    -0.460 OA
BRANCH   5   6
ATOM      6  C   UNL     1       2.972   4.900  -1.197  1.00  0.00     0.338 C 
ATOM      7  O   UNL     1       2.444   3.794  -1.178  1.00  0.00    -0.246 OA
BRANCH   6   8
ATOM      8  C   UNL     1       4.409   4.908  -0.656  1.00  0.00     0.060 A 
ATOM      9  C   UNL     1       6.695   4.174   0.823  1.00  0.00     0.041 A 
ATOM     10  C   UNL     1       5.780   5.084   1.349  1.00  0.00     0.027 A 
ATOM     11  C   UNL     1       6.633   3.845  -0.525  1.00  0.00     0.027 A 
ATOM     12  C   UNL     1       4.631   5.428   0.618  1.00  0.00     0.018 A 
ATOM     13  C   UNL     1       5.471   4.173  -1.253  1.00  0.00     0.018 A 
BRANCH   9  14
ATOM     14  N   UNL     1       7.435   3.401   1.741  1.00  0.00    -0.326 N 
ATOM     15  C   UNL     1       7.065   2.124   2.123  1.00  0.00     0.226 C 
ATOM     16  O   UNL     1       7.484   1.660   3.188  1.00  0.00    -0.275 OA
ATOM     17  H   UNL     1       8.253   3.789   2.128  1.00  0.00     0.169 HD
BRANCH  15  18
ATOM     18  C   UNL     1       6.136   1.302   1.249  1.00  0.00     0.128 C 
BRANCH  18  19
ATOM     19  C   UNL     1       4.673   1.296   1.666  1.00  0.00     0.183 C 
ATOM     20  N   UNL     1       1.010   1.493   0.871  1.00  0.00    -0.234 N 
ATOM     21  C   UNL     1       2.276   1.695   0.910  1.00  0.00     0.319 C 
ATOM     22  H   UNL     1       0.499   2.209   1.313  1.00  0.00     0.313 HD
ATOM     23  S   UNL     1       3.622   0.835   0.253  1.00  0.00    -0.022 SA
ATOM     24  N   UNL     1       2.756   2.736   1.666  1.00  0.00    -0.193 N 
ATOM     25  C   UNL     1       4.014   2.557   2.207  1.00  0.00     0.324 C 
ATOM     26  C   UNL     1       1.917   3.870   2.001  1.00  0.00     0.301 C 
ATOM     27  O   UNL     1       4.466   3.217   3.139  1.00  0.00    -0.245 OA
BRANCH  20  28
ATOM     28  C   UNL     1       0.186   0.491   0.346  1.00  0.00     0.128 A 
ATOM     29  C   UNL     1       1.741  -1.582   0.299  1.00  0.00     0.049 C 
ATOM     30  C   UNL     1       0.418  -0.890   0.185  1.00  0.00    -0.004 A 
ATOM     31  C   UNL     1      -0.665  -1.741  -0.137  1.00  0.00     0.008 A 
ATOM     32  C   UNL     1      -1.962  -1.261  -0.268  1.00  0.00     0.001 A 
ATOM     33  C   UNL     1      -1.139   0.947   0.173  1.00  0.00     0.052 A 
ATOM     34  C   UNL     1      -2.201   0.092  -0.120  1.00  0.00     0.004 A 
ENDBRANCH  20  28
ENDBRANCH  18  19
ENDBRANCH  15  18
ENDBRANCH   9  14
ENDBRANCH   6   8
ENDBRANCH   5   6
ENDBRANCH   4   5
ENDBRANCH   3   4
ENDBRANCH   2   3
ENDBRANCH   1   2
BRANCH   1  35
ATOM     35  C   UNL     1       3.320  10.646  -3.472  1.00  0.00     0.188 C 
BRANCH  35  36
ATOM     36  O   UNL     1       2.847  10.198  -2.215  1.00  0.00    -0.376 OA
BRANCH  36  37
ATOM     37  C   UNL     1       2.604  11.192  -1.239  1.00  0.00     0.202 C 
BRANCH  37  38
ATOM     38  C   UNL     1       3.881  11.663  -0.521  1.00  0.00     0.261 C 
BRANCH  38  39
ATOM     39  O   UNL     1       4.482  10.612   0.277  1.00  0.00    -0.460 OA
BRANCH  39  40
ATOM     40  C   UNL     1       5.752  10.162  -0.080  1.00  0.00     0.338 C 
ATOM     41  O   UNL     1       6.747  10.642   0.366  1.00  0.00    -0.246 OA
BRANCH  40  42
ATOM     42  C   UNL     1       5.647   8.891  -0.900  1.00  0.00     0.060 A 
ATOM     43  C   UNL     1       6.568   8.303  -1.778  1.00  0.00     0.016 A 
ATOM     44  C   UNL     1       4.435   8.309  -0.909  1.00  0.00     0.016 A 
ATOM     45  C   UNL     1       6.198   7.223  -2.723  1.00  0.00     0.010 A 
ATOM     46  C   UNL     1       4.124   7.520  -2.017  1.00  0.00     0.010 A 
ATOM     47  C   UNL     1       4.886   6.772  -2.914  1.00  0.00    -0.014 A 
BRANCH  47  48
ATOM     48  C   UNL     1       4.272   5.830  -4.101  1.00  0.00     0.031 A 
ATOM     49  C   UNL     1       3.363   4.449  -4.182  1.00  0.00     0.074 A 
ATOM     50  C   UNL     1       4.664   6.152  -5.357  1.00  0.00     0.049 A 
ATOM     51  N   UNL     1       3.700   3.364  -4.875  1.00  0.00    -0.248 NA
ATOM     52  C   UNL     1       2.004   4.194  -3.666  1.00  0.00     0.031 C 
ATOM     53  C   UNL     1       4.204   5.581  -6.623  1.00  0.00     0.029 A 
ATOM     54  N   UNL     1       5.713   6.977  -5.729  1.00  0.00    -0.354 N 
ATOM     55  C   UNL     1       2.617   2.451  -4.880  1.00  0.00     0.074 A 
ATOM     56  C   UNL     1       1.632   2.981  -4.032  1.00  0.00     0.031 C 
ATOM     57  C   UNL     1       5.115   5.851  -7.571  1.00  0.00     0.029 A 
ATOM     58  C   UNL     1       6.229   6.537  -6.943  1.00  0.00     0.049 A 
ATOM     59  H   UNL     1       6.041   7.750  -5.216  1.00  0.00     0.167 HD
ATOM     60  C   UNL     1       2.386   1.367  -5.673  1.00  0.00     0.031 A 
ATOM     61  C   UNL     1       7.549   6.234  -7.070  1.00  0.00     0.031 A 
ATOM     62  C   UNL     1       3.238   1.392  -6.817  1.00  0.00     0.049 A 
ATOM     63  C   UNL     1       7.796   4.788  -7.435  1.00  0.00     0.074 A 
ATOM     64  C   UNL     1       3.054   1.884  -8.095  1.00  0.00     0.029 A 
ATOM     65  N   UNL     1       4.588   1.214  -6.626  1.00  0.00    -0.354 N 
ATOM     66  N   UNL     1       6.867   3.873  -7.502  1.00  0.00    -0.248 NA
ATOM     67  C   UNL     1       9.121   4.246  -7.721  1.00  0.00     0.031 C 
ATOM     68  C   UNL     1       4.340   2.100  -8.649  1.00  0.00     0.029 A 
ATOM     69  C   UNL     1       5.276   1.659  -7.731  1.00  0.00     0.049 A 
ATOM     70  H   UNL     1       5.000   0.826  -5.821  1.00  0.00     0.167 HD
ATOM     71  C   UNL     1       7.440   2.651  -7.750  1.00  0.00     0.074 A 
ATOM     72  C   UNL     1       8.848   2.945  -7.922  1.00  0.00     0.031 C 
ATOM     73  C   UNL     1       6.714   1.496  -7.763  1.00  0.00     0.031 A 
BRANCH  60  74
ATOM     74  C   UNL     1       1.121   0.521  -5.503  1.00  0.00    -0.014 A 
ATOM     75  C   UNL     1       0.236   0.267  -6.568  1.00  0.00     0.010 A 
ATOM     76  C   UNL     1       0.728   0.032  -4.231  1.00  0.00     0.010 A 
ATOM     77  C   UNL     1      -1.025  -0.331  -6.356  1.00  0.00     0.020 A 
ATOM     78  C   UNL     1      -0.542  -0.539  -4.005  1.00  0.00     0.020 A 
ATOM     79  C   UNL     1      -1.424  -0.700  -5.069  1.00  0.00     0.054 A 
BRANCH  79  80
ATOM     80  S   UNL     1      -3.131  -1.284  -4.798  1.00  0.00     0.124 S 
ATOM     81  O   UNL     1      -3.925  -0.323  -5.562  1.00  0.00    -0.237 OA
ATOM     82  O   UNL     1      -3.097  -2.638  -5.343  1.00  0.00    -0.237 OA
ATOM     83  O   UNL     1      -3.317  -1.204  -3.350  1.00  0.00    -0.744 OA
ENDBRANCH  79  80
ENDBRANCH  60  74
BRANCH  61  84
ATOM     84  C   UNL     1       8.452   7.138  -6.292  1.00  0.00    -0.014 A 
ATOM     85  C   UNL     1       8.451   8.502  -6.668  1.00  0.00     0.010 A 
ATOM     86  C   UNL     1       8.983   6.795  -5.037  1.00  0.00     0.010 A 
ATOM     87  C   UNL     1       8.816   9.504  -5.766  1.00  0.00     0.020 A 
ATOM     88  C   UNL     1       9.372   7.804  -4.130  1.00  0.00     0.020 A 
ATOM     89  C   UNL     1       9.226   9.151  -4.483  1.00  0.00     0.054 A 
BRANCH  89  90
ATOM     90  S   UNL     1       9.362  10.487  -3.253  1.00  0.00     0.124 S 
ATOM     91  O   UNL     1      10.352  11.373  -3.858  1.00  0.00    -0.237 OA
ATOM     92  O   UNL     1       7.991  11.001  -3.227  1.00  0.00    -0.237 OA
ATOM     93  O   UNL     1       9.795   9.791  -2.046  1.00  0.00    -0.744 OA
ENDBRANCH  89  90
ENDBRANCH  61  84
BRANCH  73  94
ATOM     94  C   UNL     1       7.232   0.077  -7.831  1.00  0.00    -0.014 A 
ATOM     95  C   UNL     1       8.534  -0.310  -7.494  1.00  0.00     0.010 A 
ATOM     96  C   UNL     1       6.312  -0.966  -8.126  1.00  0.00     0.010 A 
ATOM     97  C   UNL     1       8.916  -1.660  -7.513  1.00  0.00     0.020 A 
ATOM     98  C   UNL     1       6.666  -2.314  -8.094  1.00  0.00     0.020 A 
ATOM     99  C   UNL     1       7.982  -2.652  -7.817  1.00  0.00     0.054 A 
BRANCH  99 100
ATOM    100  S   UNL     1       8.464  -4.396  -7.797  1.00  0.00     0.124 S 
ATOM    101  O   UNL     1       8.817  -4.624  -9.196  1.00  0.00    -0.237 OA
ATOM    102  O   UNL     1       9.582  -4.420  -6.858  1.00  0.00    -0.237 OA
ATOM    103  O   UNL     1       7.256  -5.075  -7.335  1.00  0.00    -0.744 OA
ENDBRANCH  99 100
ENDBRANCH  73  94
ENDBRANCH  47  48
ENDBRANCH  40  42
ENDBRANCH  39  40
ENDBRANCH  38  39
ENDBRANCH  37  38
ENDBRANCH  36  37
ENDBRANCH  35  36
ENDBRANCH   1  35
TORSDOF 24
