REMARK SMILES CC[C@]1(C(=O)OCCOCCOCCOC(=O)c2ccc(-c3c4nc(c(-c5ccc(S(=O)(=O)[O-])cc5)c5ccc([nH]5)c(-c5ccc(S(=O)(=O)[O-])cc5)c5nc(c(-c6ccc(S(=O)(=O)[O-])cc6)c6ccc3[nH]6)C=C5)C=C4)cc2)CC[N@@H+](Cc2nc(C)ccc2O)C1
REMARK SMILES IDX 10 1 9 2 8 3 7 4 6 5 4 6 5 7 3 8 78 9 90 10 79 11 80 12 2 14
REMARK SMILES IDX 1 15 81 16 82 17 83 18 88 19 84 20 87 21 85 22 86 23 89 24
REMARK SMILES IDX 11 26 12 27 13 28 14 29 15 30 16 31 17 32 18 33 19 34 77 35
REMARK SMILES IDX 20 36 76 37 21 38 22 39 23 40 70 41 24 42 75 43 69 44 71 45
REMARK SMILES IDX 25 46 74 47 68 48 67 49 26 51 56 52 37 53 55 54 38 55 41 56
REMARK SMILES IDX 54 57 72 58 39 59 40 60 53 62 73 63 42 64 27 65 28 66 36 67
REMARK SMILES IDX 29 68 35 69 30 70 31 71 32 72 33 73 34 74 57 75 58 76 66 77
REMARK SMILES IDX 59 78 65 79 60 80 61 81 62 82 63 83 64 84 43 85 44 86 52 87
REMARK SMILES IDX 45 88 51 89 46 90 47 91 48 92 49 93 50 94
REMARK H PARENT 80 13 89 25 71 50 41 61
REMARK Flexibility Score: inf
ROOT
ATOM      1  C   UNL     1       2.878   3.244  -2.924  1.00  0.00     0.188 C 
ENDROOT
BRANCH   1   2
ATOM      2  O   UNL     1       4.280   3.278  -3.124  1.00  0.00    -0.376 OA
BRANCH   2   3
ATOM      3  C   UNL     1       4.918   2.091  -3.575  1.00  0.00     0.202 C 
BRANCH   3   4
ATOM      4  C   UNL     1       4.530   0.757  -2.930  1.00  0.00     0.261 C 
BRANCH   4   5
ATOM      5  O   UNL     1       3.133   0.436  -3.092  1.00  0.00    -0.463 OA
BRANCH   5   6
ATOM      6  C   UNL     1       2.615  -0.378  -2.138  1.00  0.00     0.318 C 
ATOM      7  O   UNL     1       3.325  -0.917  -1.292  1.00  0.00    -0.251 OA
BRANCH   6   8
ATOM      8  C   UNL     1       1.087  -0.561  -2.173  1.00  0.00     0.122 C 
ATOM      9  C   UNL     1       0.281  -0.076  -3.396  1.00  0.00     0.086 C 
ATOM     10  C   UNL     1       0.857  -2.091  -2.227  1.00  0.00     0.281 C 
ATOM     11  C   UNL     1      -0.769  -1.152  -3.622  1.00  0.00     0.264 C 
ATOM     12  N   UNL     1      -0.065  -2.395  -3.338  1.00  0.00    -0.329 N 
ATOM     13  H   UNL     1      -0.707  -3.135  -3.053  1.00  0.00     0.348 HD
BRANCH   8  14
ATOM     14  C   UNL     1       0.474   0.190  -0.952  1.00  0.00     0.021 C 
ATOM     15  C   UNL     1       0.830  -0.297   0.443  1.00  0.00     0.005 C 
ENDBRANCH   8  14
BRANCH  12  16
ATOM     16  C   UNL     1       0.561  -3.005  -4.542  1.00  0.00     0.323 C 
BRANCH  16  17
ATOM     17  C   UNL     1       1.367  -2.135  -5.502  1.00  0.00     0.136 A 
ATOM     18  N   UNL     1       0.676  -1.508  -6.502  1.00  0.00    -0.248 NA
ATOM     19  C   UNL     1       2.734  -1.929  -5.325  1.00  0.00     0.142 A 
ATOM     20  C   UNL     1       1.341  -0.638  -7.304  1.00  0.00     0.038 A 
ATOM     21  C   UNL     1       3.407  -1.049  -6.167  1.00  0.00     0.050 A 
ATOM     22  C   UNL     1       0.559   0.035  -8.394  1.00  0.00     0.067 C 
ATOM     23  C   UNL     1       2.702  -0.393  -7.170  1.00  0.00     0.027 A 
BRANCH  19  24
ATOM     24  O   UNL     1       3.405  -2.562  -4.323  1.00  0.00    -0.506 OA
ATOM     25  H   UNL     1       2.952  -3.155  -3.756  1.00  0.00     0.293 HD
ENDBRANCH  19  24
ENDBRANCH  16  17
ENDBRANCH  12  16
ENDBRANCH   6   8
ENDBRANCH   5   6
ENDBRANCH   4   5
ENDBRANCH   3   4
ENDBRANCH   2   3
ENDBRANCH   1   2
BRANCH   1  26
ATOM     26  C   UNL     1       1.979   2.816  -4.094  1.00  0.00     0.188 C 
BRANCH  26  27
ATOM     27  O   UNL     1       2.486   2.564  -5.385  1.00  0.00    -0.376 OA
BRANCH  27  28
ATOM     28  C   UNL     1       3.118   3.607  -6.100  1.00  0.00     0.202 C 
BRANCH  28  29
ATOM     29  C   UNL     1       2.581   5.046  -6.095  1.00  0.00     0.261 C 
BRANCH  29  30
ATOM     30  O   UNL     1       2.058   5.520  -4.848  1.00  0.00    -0.460 OA
BRANCH  30  31
ATOM     31  C   UNL     1       0.706   5.650  -4.806  1.00  0.00     0.338 C 
ATOM     32  O   UNL     1      -0.080   5.441  -5.721  1.00  0.00    -0.246 OA
BRANCH  31  33
ATOM     33  C   UNL     1       0.276   5.856  -3.408  1.00  0.00     0.060 A 
ATOM     34  C   UNL     1      -0.620   4.936  -2.841  1.00  0.00     0.016 A 
ATOM     35  C   UNL     1       0.729   6.949  -2.670  1.00  0.00     0.016 A 
ATOM     36  C   UNL     1      -1.094   5.127  -1.545  1.00  0.00     0.010 A 
ATOM     37  C   UNL     1       0.232   7.154  -1.380  1.00  0.00     0.010 A 
ATOM     38  C   UNL     1      -0.710   6.265  -0.827  1.00  0.00    -0.014 A 
BRANCH  38  39
ATOM     39  C   UNL     1      -1.452   6.635   0.403  1.00  0.00     0.031 A 
ATOM     40  C   UNL     1      -2.551   7.661   0.288  1.00  0.00     0.074 A 
ATOM     41  C   UNL     1      -1.193   6.047   1.585  1.00  0.00     0.049 A 
ATOM     42  N   UNL     1      -3.315   8.166   1.220  1.00  0.00    -0.248 NA
ATOM     43  C   UNL     1      -2.823   8.184  -1.063  1.00  0.00     0.031 C 
ATOM     44  C   UNL     1      -0.198   5.000   1.814  1.00  0.00     0.029 A 
ATOM     45  N   UNL     1      -1.755   6.253   2.821  1.00  0.00    -0.354 N 
ATOM     46  C   UNL     1      -4.159   9.061   0.571  1.00  0.00     0.074 A 
ATOM     47  C   UNL     1      -3.785   9.063  -0.826  1.00  0.00     0.031 C 
ATOM     48  C   UNL     1      -0.219   4.656   3.115  1.00  0.00     0.029 A 
ATOM     49  C   UNL     1      -1.201   5.481   3.816  1.00  0.00     0.049 A 
ATOM     50  H   UNL     1      -2.486   6.892   2.980  1.00  0.00     0.167 HD
ATOM     51  C   UNL     1      -5.165   9.805   1.087  1.00  0.00     0.031 A 
ATOM     52  C   UNL     1      -1.449   5.460   5.141  1.00  0.00     0.031 A 
ATOM     53  C   UNL     1      -5.526   9.817   2.480  1.00  0.00     0.049 A 
ATOM     54  C   UNL     1      -2.505   6.380   5.707  1.00  0.00     0.074 A 
ATOM     55  C   UNL     1      -6.521  10.547   3.105  1.00  0.00     0.029 A 
ATOM     56  N   UNL     1      -4.905   9.062   3.463  1.00  0.00    -0.354 N 
ATOM     57  N   UNL     1      -3.298   7.217   5.079  1.00  0.00    -0.248 NA
ATOM     58  C   UNL     1      -2.705   6.342   7.163  1.00  0.00     0.031 C 
ATOM     59  C   UNL     1      -6.465  10.276   4.476  1.00  0.00     0.029 A 
ATOM     60  C   UNL     1      -5.483   9.324   4.694  1.00  0.00     0.049 A 
ATOM     61  H   UNL     1      -4.164   8.432   3.309  1.00  0.00     0.167 HD
ATOM     62  C   UNL     1      -4.117   7.771   6.060  1.00  0.00     0.074 A 
ATOM     63  C   UNL     1      -3.736   7.160   7.316  1.00  0.00     0.031 C 
ATOM     64  C   UNL     1      -5.098   8.700   5.935  1.00  0.00     0.031 A 
BRANCH  51  65
ATOM     65  C   UNL     1      -5.942  10.683   0.140  1.00  0.00    -0.014 A 
ATOM     66  C   UNL     1      -6.819  10.127  -0.808  1.00  0.00     0.010 A 
ATOM     67  C   UNL     1      -5.838  12.082   0.237  1.00  0.00     0.010 A 
ATOM     68  C   UNL     1      -7.560  10.953  -1.657  1.00  0.00     0.020 A 
ATOM     69  C   UNL     1      -6.599  12.913  -0.590  1.00  0.00     0.020 A 
ATOM     70  C   UNL     1      -7.449  12.341  -1.539  1.00  0.00     0.054 A 
BRANCH  70  71
ATOM     71  S   UNL     1      -8.462  13.387  -2.621  1.00  0.00     0.124 S 
ATOM     72  O   UNL     1      -7.843  13.162  -3.925  1.00  0.00    -0.237 OA
ATOM     73  O   UNL     1      -9.797  12.819  -2.453  1.00  0.00    -0.237 OA
ATOM     74  O   UNL     1      -8.285  14.729  -2.073  1.00  0.00    -0.744 OA
ENDBRANCH  70  71
ENDBRANCH  51  65
BRANCH  52  75
ATOM     75  C   UNL     1      -0.677   4.559   6.045  1.00  0.00    -0.014 A 
ATOM     76  C   UNL     1      -1.320   3.524   6.749  1.00  0.00     0.010 A 
ATOM     77  C   UNL     1       0.698   4.771   6.255  1.00  0.00     0.010 A 
ATOM     78  C   UNL     1      -0.615   2.749   7.675  1.00  0.00     0.020 A 
ATOM     79  C   UNL     1       1.415   3.975   7.153  1.00  0.00     0.020 A 
ATOM     80  C   UNL     1       0.749   2.983   7.874  1.00  0.00     0.054 A 
BRANCH  80  81
ATOM     81  S   UNL     1       1.645   1.964   9.079  1.00  0.00     0.124 S 
ATOM     82  O   UNL     1       1.129   2.469  10.347  1.00  0.00    -0.237 OA
ATOM     83  O   UNL     1       1.229   0.611   8.718  1.00  0.00    -0.237 OA
ATOM     84  O   UNL     1       3.048   2.270   8.807  1.00  0.00    -0.744 OA
ENDBRANCH  80  81
ENDBRANCH  52  75
BRANCH  64  85
ATOM     85  C   UNL     1      -5.865   9.073   7.178  1.00  0.00    -0.014 A 
ATOM     86  C   UNL     1      -5.266   9.798   8.225  1.00  0.00     0.010 A 
ATOM     87  C   UNL     1      -7.223   8.718   7.285  1.00  0.00     0.010 A 
ATOM     88  C   UNL     1      -5.996  10.113   9.375  1.00  0.00     0.020 A 
ATOM     89  C   UNL     1      -7.966   9.063   8.417  1.00  0.00     0.020 A 
ATOM     90  C   UNL     1      -7.341   9.741   9.465  1.00  0.00     0.054 A 
BRANCH  90  91
ATOM     91  S   UNL     1      -8.269  10.179  10.960  1.00  0.00     0.124 S 
ATOM     92  O   UNL     1      -7.704   9.264  11.948  1.00  0.00    -0.237 OA
ATOM     93  O   UNL     1      -7.933  11.589  11.143  1.00  0.00    -0.237 OA
ATOM     94  O   UNL     1      -9.660   9.919  10.594  1.00  0.00    -0.744 OA
ENDBRANCH  90  91
ENDBRANCH  64  85
ENDBRANCH  38  39
ENDBRANCH  31  33
ENDBRANCH  30  31
ENDBRANCH  29  30
ENDBRANCH  28  29
ENDBRANCH  27  28
ENDBRANCH  26  27
ENDBRANCH   1  26
TORSDOF 24
