REMARK SMILES Cc1nn(C)c(C)c1CNC(=O)N[C@H]1CC[C@@H](C(=O)OCCOCCOCCOC(=O)c2ccc(-c3c4nc(c(-c5ccc(S(=O)(=O)[O-])cc5)c5ccc([nH]5)c(-c5ccc(S(=O)(=O)[O-])cc5)c5nc(c(-c6ccc(S(=O)(=O)[O-])cc6)c6ccc3[nH]6)C=C5)C=C4)cc2)C1
REMARK SMILES IDX 24 1 23 2 22 3 21 4 20 5 18 6 19 7 17 8 14 9 15 10 92 11
REMARK SMILES IDX 16 12 13 13 10 14 11 15 12 17 9 19 8 20 1 21 2 22 3 23 4 24
REMARK SMILES IDX 6 25 5 26 7 27 25 28 26 29 27 30 28 31 29 32 30 33 31 34
REMARK SMILES IDX 32 35 33 36 91 37 34 38 90 39 35 40 36 41 37 42 84 43 38 44
REMARK SMILES IDX 89 45 83 46 85 47 39 48 88 49 82 50 81 51 40 53 70 54 51 55
REMARK SMILES IDX 69 56 52 57 55 58 68 59 86 60 53 61 54 62 67 64 87 65 56 66
REMARK SMILES IDX 41 67 42 68 50 69 43 70 49 71 44 72 45 73 46 74 47 75 48 76
REMARK SMILES IDX 71 77 72 78 80 79 73 80 79 81 74 82 75 83 76 84 77 85 78 86
REMARK SMILES IDX 57 87 58 88 66 89 59 90 65 91 60 92 61 93 62 94 63 95 64 96
REMARK H PARENT 10 16 13 18 85 52 55 63
REMARK Flexibility Score: inf
ROOT
ATOM      1  C   UNL     1      -0.604   5.392  -6.371  1.00  0.00     0.188 C 
ENDROOT
BRANCH   1   2
ATOM      2  O   UNL     1      -1.983   5.450  -6.696  1.00  0.00    -0.376 OA
BRANCH   2   3
ATOM      3  C   UNL     1      -2.953   5.279  -5.667  1.00  0.00     0.202 C 
BRANCH   3   4
ATOM      4  C   UNL     1      -2.787   4.191  -4.588  1.00  0.00     0.261 C 
BRANCH   4   5
ATOM      5  O   UNL     1      -1.521   4.210  -3.902  1.00  0.00    -0.463 OA
BRANCH   5   6
ATOM      6  C   UNL     1      -0.819   3.048  -3.898  1.00  0.00     0.309 C 
ATOM      7  O   UNL     1      -1.242   1.984  -4.334  1.00  0.00    -0.252 OA
BRANCH   6   8
ATOM      8  C   UNL     1       0.612   3.220  -3.396  1.00  0.00     0.101 C 
ATOM      9  C   UNL     1       0.616   4.042  -1.120  1.00  0.00     0.084 C 
ATOM     10  C   UNL     1       0.992   2.567  -1.055  1.00  0.00     0.026 C 
ATOM     11  C   UNL     1       0.941   4.444  -2.542  1.00  0.00     0.040 C 
ATOM     12  C   UNL     1       1.012   2.048  -2.497  1.00  0.00     0.017 C 
BRANCH   9  13
ATOM     13  N   UNL     1      -0.795   4.266  -0.844  1.00  0.00    -0.335 N 
ATOM     14  N   UNL     1      -0.893   4.929   1.414  1.00  0.00    -0.334 N 
ATOM     15  C   UNL     1      -1.466   4.687   0.233  1.00  0.00     0.315 C 
ATOM     16  H   UNL     1      -1.507   5.338   2.066  1.00  0.00     0.165 HD
ATOM     17  O   UNL     1      -2.677   4.893   0.122  1.00  0.00    -0.249 OA
ATOM     18  H   UNL     1      -1.378   4.066  -1.612  1.00  0.00     0.165 HD
BRANCH  14  19
ATOM     19  C   UNL     1       0.431   4.722   1.939  1.00  0.00     0.157 C 
BRANCH  19  20
ATOM     20  C   UNL     1       1.171   6.011   2.113  1.00  0.00     0.015 A 
ATOM     21  C   UNL     1       2.851   5.206   3.962  1.00  0.00     0.069 C 
ATOM     22  C   UNL     1       2.225   6.203   3.057  1.00  0.00     0.065 A 
ATOM     23  N   UNL     1       2.657   7.465   3.081  1.00  0.00    -0.178 NA
ATOM     24  N   UNL     1       1.933   8.080   2.135  1.00  0.00    -0.272 N 
ATOM     25  C   UNL     1       1.093   7.235   1.451  1.00  0.00     0.040 A 
ATOM     26  C   UNL     1       2.099   9.507   1.977  1.00  0.00     0.174 C 
ATOM     27  C   UNL     1       0.317   7.702   0.270  1.00  0.00     0.067 C 
ENDBRANCH  19  20
ENDBRANCH  14  19
ENDBRANCH   9  13
ENDBRANCH   6   8
ENDBRANCH   5   6
ENDBRANCH   4   5
ENDBRANCH   3   4
ENDBRANCH   2   3
ENDBRANCH   1   2
BRANCH   1  28
ATOM     28  C   UNL     1      -0.066   6.308  -5.266  1.00  0.00     0.188 C 
BRANCH  28  29
ATOM     29  O   UNL     1      -1.038   6.914  -4.450  1.00  0.00    -0.376 OA
BRANCH  29  30
ATOM     30  C   UNL     1      -1.386   8.271  -4.690  1.00  0.00     0.202 C 
BRANCH  30  31
ATOM     31  C   UNL     1      -1.236   8.988  -6.055  1.00  0.00     0.261 C 
BRANCH  31  32
ATOM     32  O   UNL     1      -0.304   8.465  -7.012  1.00  0.00    -0.460 OA
BRANCH  32  33
ATOM     33  C   UNL     1       0.987   8.862  -6.901  1.00  0.00     0.338 C 
ATOM     34  O   UNL     1       1.446   9.630  -6.068  1.00  0.00    -0.246 OA
BRANCH  33  35
ATOM     35  C   UNL     1       1.802   8.002  -7.791  1.00  0.00     0.060 A 
ATOM     36  C   UNL     1       2.739   7.122  -7.222  1.00  0.00     0.016 A 
ATOM     37  C   UNL     1       1.627   8.040  -9.174  1.00  0.00     0.016 A 
ATOM     38  C   UNL     1       3.511   6.291  -8.035  1.00  0.00     0.010 A 
ATOM     39  C   UNL     1       2.426   7.231  -9.989  1.00  0.00     0.010 A 
ATOM     40  C   UNL     1       3.388   6.371  -9.427  1.00  0.00    -0.014 A 
BRANCH  40  41
ATOM     41  C   UNL     1       4.387   5.711 -10.305  1.00  0.00     0.031 A 
ATOM     42  C   UNL     1       5.517   6.545 -10.847  1.00  0.00     0.074 A 
ATOM     43  C   UNL     1       4.300   4.406 -10.621  1.00  0.00     0.049 A 
ATOM     44  N   UNL     1       6.450   6.222 -11.704  1.00  0.00    -0.248 NA
ATOM     45  C   UNL     1       5.600   7.931 -10.358  1.00  0.00     0.031 C 
ATOM     46  C   UNL     1       3.292   3.475 -10.116  1.00  0.00     0.029 A 
ATOM     47  N   UNL     1       5.073   3.642 -11.461  1.00  0.00    -0.354 N 
ATOM     48  C   UNL     1       7.221   7.367 -11.869  1.00  0.00     0.074 A 
ATOM     49  C   UNL     1       6.632   8.399 -11.044  1.00  0.00     0.031 C 
ATOM     50  C   UNL     1       3.502   2.266 -10.667  1.00  0.00     0.029 A 
ATOM     51  C   UNL     1       4.628   2.348 -11.596  1.00  0.00     0.049 A 
ATOM     52  H   UNL     1       5.871   3.989 -11.922  1.00  0.00     0.167 HD
ATOM     53  C   UNL     1       8.322   7.545 -12.637  1.00  0.00     0.031 A 
ATOM     54  C   UNL     1       5.062   1.354 -12.399  1.00  0.00     0.031 A 
ATOM     55  C   UNL     1       8.894   6.523 -13.473  1.00  0.00     0.049 A 
ATOM     56  C   UNL     1       6.232   1.603 -13.319  1.00  0.00     0.074 A 
ATOM     57  C   UNL     1      10.012   6.603 -14.284  1.00  0.00     0.029 A 
ATOM     58  N   UNL     1       8.390   5.239 -13.612  1.00  0.00    -0.354 N 
ATOM     59  N   UNL     1       6.960   2.687 -13.457  1.00  0.00    -0.248 NA
ATOM     60  C   UNL     1       6.641   0.491 -14.191  1.00  0.00     0.031 C 
ATOM     61  C   UNL     1      10.146   5.389 -14.964  1.00  0.00     0.029 A 
ATOM     62  C   UNL     1       9.156   4.526 -14.519  1.00  0.00     0.049 A 
ATOM     63  H   UNL     1       7.604   4.886 -13.137  1.00  0.00     0.167 HD
ATOM     64  C   UNL     1       7.933   2.374 -14.403  1.00  0.00     0.074 A 
ATOM     65  C   UNL     1       7.707   0.998 -14.794  1.00  0.00     0.031 C 
ATOM     66  C   UNL     1       8.925   3.155 -14.899  1.00  0.00     0.031 A 
BRANCH  53  67
ATOM     67  C   UNL     1       8.956   8.912 -12.640  1.00  0.00    -0.014 A 
ATOM     68  C   UNL     1       9.634   9.406 -11.511  1.00  0.00     0.010 A 
ATOM     69  C   UNL     1       8.904   9.699 -13.805  1.00  0.00     0.010 A 
ATOM     70  C   UNL     1      10.215  10.676 -11.534  1.00  0.00     0.020 A 
ATOM     71  C   UNL     1       9.511  10.957 -13.843  1.00  0.00     0.020 A 
ATOM     72  C   UNL     1      10.150  11.444 -12.701  1.00  0.00     0.054 A 
BRANCH  72  73
ATOM     73  S   UNL     1      10.937  13.078 -12.711  1.00  0.00     0.124 S 
ATOM     74  O   UNL     1      10.054  13.842 -11.832  1.00  0.00    -0.237 OA
ATOM     75  O   UNL     1      12.265  12.795 -12.173  1.00  0.00    -0.237 OA
ATOM     76  O   UNL     1      10.907  13.471 -14.117  1.00  0.00    -0.744 OA
ENDBRANCH  72  73
ENDBRANCH  53  67
BRANCH  54  77
ATOM     77  C   UNL     1       4.377   0.030 -12.389  1.00  0.00    -0.014 A 
ATOM     78  C   UNL     1       5.037  -1.115 -11.909  1.00  0.00     0.010 A 
ATOM     79  C   UNL     1       3.061  -0.095 -12.873  1.00  0.00     0.010 A 
ATOM     80  C   UNL     1       4.402  -2.361 -11.928  1.00  0.00     0.020 A 
ATOM     81  C   UNL     1       2.411  -1.333 -12.864  1.00  0.00     0.020 A 
ATOM     82  C   UNL     1       3.091  -2.461 -12.402  1.00  0.00     0.054 A 
BRANCH  82  83
ATOM     83  S   UNL     1       2.272  -4.080 -12.368  1.00  0.00     0.124 S 
ATOM     84  O   UNL     1       2.981  -4.802 -13.419  1.00  0.00    -0.237 OA
ATOM     85  O   UNL     1       2.530  -4.533 -11.003  1.00  0.00    -0.237 OA
ATOM     86  O   UNL     1       0.875  -3.764 -12.659  1.00  0.00    -0.744 OA
ENDBRANCH  82  83
ENDBRANCH  54  77
BRANCH  66  87
ATOM     87  C   UNL     1       9.880   2.533 -15.887  1.00  0.00    -0.014 A 
ATOM     88  C   UNL     1       9.480   2.212 -17.196  1.00  0.00     0.010 A 
ATOM     89  C   UNL     1      11.223   2.328 -15.514  1.00  0.00     0.010 A 
ATOM     90  C   UNL     1      10.396   1.668 -18.102  1.00  0.00     0.020 A 
ATOM     91  C   UNL     1      12.148   1.816 -16.427  1.00  0.00     0.020 A 
ATOM     92  C   UNL     1      11.725   1.476 -17.713  1.00  0.00     0.054 A 
BRANCH  92  93
ATOM     93  S   UNL     1      12.903   0.813 -18.923  1.00  0.00     0.124 S 
ATOM     94  O   UNL     1      12.474  -0.578 -19.035  1.00  0.00    -0.237 OA
ATOM     95  O   UNL     1      12.655   1.645 -20.098  1.00  0.00    -0.237 OA
ATOM     96  O   UNL     1      14.204   1.014 -18.288  1.00  0.00    -0.744 OA
ENDBRANCH  92  93
ENDBRANCH  66  87
ENDBRANCH  40  41
ENDBRANCH  33  35
ENDBRANCH  32  33
ENDBRANCH  31  32
ENDBRANCH  30  31
ENDBRANCH  29  30
ENDBRANCH  28  29
ENDBRANCH   1  28
TORSDOF 23
